REMARK SMILES O=C(OCCOC(=O)c1cc(/C=C/c2cc(O)cc(O)c2)ccc1O)c1ccc(-c2c3nc(c(-c4ccccc4)c4ccc([nH]4)c(-c4ccccc4)c4nc(c(-c5ccccc5)c5ccc2[nH]5)C=C4)C=C3)cc1
REMARK SMILES IDX 5 1 4 2 3 3 2 4 1 5 26 6 27 7 73 8 28 9 72 10 29 11 30 12
REMARK SMILES IDX 31 13 66 14 32 15 71 16 65 17 67 18 33 19 70 20 64 21 63 22
REMARK SMILES IDX 34 24 56 25 41 26 55 27 42 28 45 29 54 30 68 31 43 32 44 33
REMARK SMILES IDX 53 35 69 36 46 37 35 38 36 39 40 40 37 41 39 42 38 43 57 44
REMARK SMILES IDX 58 45 62 46 59 47 61 48 60 49 47 50 48 51 52 52 49 53 51 54
REMARK SMILES IDX 50 55 6 56 7 57 8 58 9 59 10 60 24 61 11 62 23 63 22 64
REMARK SMILES IDX 25 65 12 67 13 68 14 69 15 70 21 71 16 72 19 73 18 74 17 75
REMARK SMILES IDX 20 77
REMARK H PARENT 67 23 45 34 25 66 17 76 20 78
REMARK Flexibility Score: inf
ROOT
ATOM      1  C   UNL     1       3.945  -0.014  -2.343  1.00  0.00     0.275 C 
ENDROOT
BRANCH   1   2
ATOM      2  C   UNL     1       4.111  -1.125  -1.306  1.00  0.00     0.275 C 
BRANCH   2   3
ATOM      3  O   UNL     1       3.023  -1.237  -0.370  1.00  0.00    -0.458 OA
BRANCH   3   4
ATOM      4  C   UNL     1       2.818  -0.620   0.815  1.00  0.00     0.338 C 
ATOM      5  O   UNL     1       1.900  -1.017   1.535  1.00  0.00    -0.246 OA
BRANCH   4   6
ATOM      6  C   UNL     1       3.559   0.598   1.273  1.00  0.00     0.060 A 
ATOM      7  C   UNL     1       4.880   0.926   0.969  1.00  0.00     0.016 A 
ATOM      8  C   UNL     1       2.850   1.464   2.128  1.00  0.00     0.016 A 
ATOM      9  C   UNL     1       5.462   2.099   1.462  1.00  0.00     0.010 A 
ATOM     10  C   UNL     1       3.417   2.646   2.611  1.00  0.00     0.010 A 
ATOM     11  C   UNL     1       4.740   2.957   2.294  1.00  0.00    -0.014 A 
BRANCH  11  12
ATOM     12  C   UNL     1       5.440   4.073   2.962  1.00  0.00     0.031 A 
ATOM     13  C   UNL     1       5.906   3.877   4.374  1.00  0.00     0.074 A 
ATOM     14  C   UNL     1       5.721   5.208   2.298  1.00  0.00     0.049 A 
ATOM     15  N   UNL     1       6.665   4.649   5.106  1.00  0.00    -0.248 NA
ATOM     16  C   UNL     1       5.486   2.632   5.039  1.00  0.00     0.031 C 
ATOM     17  C   UNL     1       5.370   5.477   0.906  1.00  0.00     0.029 A 
ATOM     18  N   UNL     1       6.378   6.340   2.702  1.00  0.00    -0.354 N 
ATOM     19  C   UNL     1       6.839   3.969   6.303  1.00  0.00     0.074 A 
ATOM     20  C   UNL     1       6.060   2.753   6.225  1.00  0.00     0.031 C 
ATOM     21  C   UNL     1       5.798   6.707   0.573  1.00  0.00     0.029 A 
ATOM     22  C   UNL     1       6.468   7.302   1.726  1.00  0.00     0.049 A 
ATOM     23  H   UNL     1       6.752   6.453   3.606  1.00  0.00     0.167 HD
ATOM     24  C   UNL     1       7.603   4.312   7.365  1.00  0.00     0.031 A 
ATOM     25  C   UNL     1       7.046   8.517   1.758  1.00  0.00     0.031 A 
ATOM     26  C   UNL     1       8.338   5.541   7.457  1.00  0.00     0.049 A 
ATOM     27  C   UNL     1       7.800   8.927   2.993  1.00  0.00     0.074 A 
ATOM     28  C   UNL     1       9.132   6.001   8.491  1.00  0.00     0.029 A 
ATOM     29  N   UNL     1       8.350   6.517   6.471  1.00  0.00    -0.354 N 
ATOM     30  N   UNL     1       8.008   8.246   4.095  1.00  0.00    -0.248 NA
ATOM     31  C   UNL     1       8.429  10.254   2.974  1.00  0.00     0.031 C 
ATOM     32  C   UNL     1       9.588   7.280   8.149  1.00  0.00     0.029 A 
ATOM     33  C   UNL     1       9.117   7.592   6.882  1.00  0.00     0.049 A 
ATOM     34  H   UNL     1       7.882   6.454   5.607  1.00  0.00     0.167 HD
ATOM     35  C   UNL     1       8.833   9.040   4.881  1.00  0.00     0.074 A 
ATOM     36  C   UNL     1       9.081  10.255   4.129  1.00  0.00     0.031 C 
ATOM     37  C   UNL     1       9.351   8.784   6.107  1.00  0.00     0.031 A 
BRANCH  24  38
ATOM     38  C   UNL     1       7.632   3.341   8.509  1.00  0.00    -0.014 A 
ATOM     39  C   UNL     1       8.311   2.115   8.400  1.00  0.00     0.009 A 
ATOM     40  C   UNL     1       6.927   3.626   9.687  1.00  0.00     0.009 A 
ATOM     41  C   UNL     1       8.243   1.175   9.430  1.00  0.00     0.001 A 
ATOM     42  C   UNL     1       6.880   2.694  10.725  1.00  0.00     0.001 A 
ATOM     43  C   UNL     1       7.526   1.465  10.591  1.00  0.00     0.000 A 
ENDBRANCH  24  38
BRANCH  25  44
ATOM     44  C   UNL     1       6.978   9.410   0.572  1.00  0.00    -0.014 A 
ATOM     45  C   UNL     1       8.116   9.651  -0.212  1.00  0.00     0.009 A 
ATOM     46  C   UNL     1       5.770  10.036   0.224  1.00  0.00     0.009 A 
ATOM     47  C   UNL     1       8.052  10.520  -1.305  1.00  0.00     0.001 A 
ATOM     48  C   UNL     1       5.704  10.887  -0.882  1.00  0.00     0.001 A 
ATOM     49  C   UNL     1       6.847  11.134  -1.641  1.00  0.00     0.000 A 
ENDBRANCH  25  44
BRANCH  37  50
ATOM     50  C   UNL     1      10.276   9.815   6.685  1.00  0.00    -0.014 A 
ATOM     51  C   UNL     1       9.791  11.030   7.190  1.00  0.00     0.009 A 
ATOM     52  C   UNL     1      11.651   9.541   6.761  1.00  0.00     0.009 A 
ATOM     53  C   UNL     1      10.673  11.966   7.734  1.00  0.00     0.001 A 
ATOM     54  C   UNL     1      12.525  10.467   7.329  1.00  0.00     0.001 A 
ATOM     55  C   UNL     1      12.037  11.682   7.807  1.00  0.00     0.000 A 
ENDBRANCH  37  50
ENDBRANCH  11  12
ENDBRANCH   4   6
ENDBRANCH   3   4
ENDBRANCH   2   3
ENDBRANCH   1   2
BRANCH   1  56
ATOM     56  O   UNL     1       3.506   1.220  -1.763  1.00  0.00    -0.458 OA
BRANCH  56  57
ATOM     57  C   UNL     1       2.190   1.506  -1.939  1.00  0.00     0.342 C 
ATOM     58  O   UNL     1       1.366   0.825  -2.528  1.00  0.00    -0.246 OA
BRANCH  57  59
ATOM     59  C   UNL     1       1.823   2.686  -1.136  1.00  0.00     0.102 A 
ATOM     60  C   UNL     1       0.773   2.529  -0.218  1.00  0.00     0.027 A 
ATOM     61  C   UNL     1       2.472   3.914  -1.255  1.00  0.00     0.130 A 
ATOM     62  C   UNL     1       0.417   3.572   0.646  1.00  0.00    -0.025 A 
ATOM     63  C   UNL     1       2.090   4.978  -0.438  1.00  0.00     0.048 A 
ATOM     64  C   UNL     1       1.080   4.801   0.514  1.00  0.00     0.012 A 
BRANCH  61  65
ATOM     65  O   UNL     1       3.468   4.088  -2.173  1.00  0.00    -0.507 OA
ATOM     66  H   UNL     1       3.727   3.375  -2.723  1.00  0.00     0.293 HD
ENDBRANCH  61  65
BRANCH  62  67
ATOM     67  C   UNL     1      -0.636   3.443   1.667  1.00  0.00     0.009 C 
ATOM     68  C   UNL     1      -1.061   2.285   2.202  1.00  0.00     0.009 C 
BRANCH  68  69
ATOM     69  C   UNL     1      -2.131   2.201   3.209  1.00  0.00    -0.018 A 
ATOM     70  C   UNL     1      -3.279   3.005   3.129  1.00  0.00     0.054 A 
ATOM     71  C   UNL     1      -2.040   1.242   4.228  1.00  0.00     0.054 A 
ATOM     72  C   UNL     1      -4.296   2.862   4.071  1.00  0.00     0.119 A 
ATOM     73  C   UNL     1      -3.071   1.117   5.160  1.00  0.00     0.119 A 
ATOM     74  C   UNL     1      -4.198   1.926   5.090  1.00  0.00     0.092 A 
BRANCH  72  75
ATOM     75  O   UNL     1      -5.424   3.629   4.013  1.00  0.00    -0.508 OA
ATOM     76  H   UNL     1      -5.520   4.270   3.336  1.00  0.00     0.293 HD
ENDBRANCH  72  75
BRANCH  73  77
ATOM     77  O   UNL     1      -3.013   0.195   6.165  1.00  0.00    -0.508 OA
ATOM     78  H   UNL     1      -3.717   0.128   6.780  1.00  0.00     0.293 HD
ENDBRANCH  73  77
ENDBRANCH  68  69
ENDBRANCH  62  67
ENDBRANCH  57  59
ENDBRANCH  56  57
ENDBRANCH   1  56
TORSDOF 16
