REMARK SMILES CC(C)(Cn1ccnc1C(N)=S)C(=O)OCCOC(=O)c1ccc(-c2c3nc(c(-c4ccccc4)c4ccc([nH]4)c(-c4ccccc4)c4nc(c(-c5ccccc5)c5ccc2[nH]5)C=C4)C=C3)cc1
REMARK SMILES IDX 16 1 15 2 13 3 14 4 2 5 1 6 3 7 4 8 5 9 6 10 9 11 7 12 8 13
REMARK SMILES IDX 10 14 12 15 11 16 17 19 18 20 19 21 20 22 21 23 22 24 68 25
REMARK SMILES IDX 23 26 67 27 24 28 25 29 26 30 61 31 27 32 66 33 60 34 62 35
REMARK SMILES IDX 28 36 65 37 59 38 58 39 29 41 51 42 36 43 50 44 37 45 40 46
REMARK SMILES IDX 49 47 63 48 38 49 39 50 48 52 64 53 41 54 30 55 31 56 35 57
REMARK SMILES IDX 32 58 34 59 33 60 52 61 53 62 57 63 54 64 56 65 55 66 42 67
REMARK SMILES IDX 43 68 47 69 44 70 46 71 45 72
REMARK H PARENT 11 17 11 18 62 40 40 51
REMARK Flexibility Score: inf
ROOT
ATOM      1  C   UNL     1       1.298   4.560   1.134  1.00  0.00     0.274 C 
ENDROOT
BRANCH   1   2
ATOM      2  O   UNL     1       0.587   3.636   0.279  1.00  0.00    -0.462 OA
BRANCH   2   3
ATOM      3  C   UNL     1       1.282   2.534  -0.116  1.00  0.00     0.313 C 
ATOM      4  O   UNL     1       2.489   2.389   0.068  1.00  0.00    -0.252 OA
BRANCH   3   5
ATOM      5  C   UNL     1       0.424   1.500  -0.862  1.00  0.00     0.080 C 
ATOM      6  C   UNL     1       0.925   0.082  -0.516  1.00  0.00     0.025 C 
ATOM      7  C   UNL     1       0.759   1.768  -2.345  1.00  0.00     0.025 C 
BRANCH   5   8
ATOM      8  C   UNL     1      -1.127   1.619  -0.712  1.00  0.00     0.142 C 
BRANCH   8   9
ATOM      9  N   UNL     1      -1.812   1.235   0.515  1.00  0.00    -0.328 N 
ATOM     10  C   UNL     1      -2.023  -0.080   0.881  1.00  0.00     0.108 A 
ATOM     11  C   UNL     1      -2.490   2.020   1.442  1.00  0.00     0.167 A 
ATOM     12  C   UNL     1      -2.692  -0.039   2.075  1.00  0.00     0.131 A 
ATOM     13  N   UNL     1      -2.947   1.250   2.430  1.00  0.00    -0.235 NA
BRANCH  11  14
ATOM     14  C   UNL     1      -2.738   3.449   1.537  1.00  0.00     0.140 C 
ATOM     15  S   UNL     1      -2.892   4.504   0.264  1.00  0.00    -0.057 S 
BRANCH  14  16
ATOM     16  N   UNL     1      -2.956   3.906   2.812  1.00  0.00    -0.387 N 
ATOM     17  H   UNL     1      -2.869   3.293   3.577  1.00  0.00     0.157 HD
ATOM     18  H   UNL     1      -3.200   4.848   2.962  1.00  0.00     0.157 HD
ENDBRANCH  14  16
ENDBRANCH  11  14
ENDBRANCH   8   9
ENDBRANCH   5   8
ENDBRANCH   3   5
ENDBRANCH   2   3
ENDBRANCH   1   2
BRANCH   1  19
ATOM     19  C   UNL     1       0.903   4.418   2.607  1.00  0.00     0.275 C 
BRANCH  19  20
ATOM     20  O   UNL     1       1.547   3.346   3.319  1.00  0.00    -0.458 OA
BRANCH  20  21
ATOM     21  C   UNL     1       1.005   2.141   3.067  1.00  0.00     0.338 C 
ATOM     22  O   UNL     1       0.438   1.796   2.052  1.00  0.00    -0.246 OA
BRANCH  21  23
ATOM     23  C   UNL     1       0.846   1.312   4.250  1.00  0.00     0.060 A 
ATOM     24  C   UNL     1       0.246   0.063   4.026  1.00  0.00     0.016 A 
ATOM     25  C   UNL     1       0.976   1.857   5.527  1.00  0.00     0.016 A 
ATOM     26  C   UNL     1      -0.363  -0.579   5.072  1.00  0.00     0.010 A 
ATOM     27  C   UNL     1       0.401   1.187   6.584  1.00  0.00     0.010 A 
ATOM     28  C   UNL     1      -0.307   0.006   6.337  1.00  0.00    -0.014 A 
BRANCH  28  29
ATOM     29  C   UNL     1      -0.821  -0.790   7.435  1.00  0.00     0.031 A 
ATOM     30  C   UNL     1      -0.097  -2.078   7.585  1.00  0.00     0.074 A 
ATOM     31  C   UNL     1      -1.740  -0.331   8.302  1.00  0.00     0.049 A 
ATOM     32  N   UNL     1      -0.584  -3.273   7.566  1.00  0.00    -0.248 NA
ATOM     33  C   UNL     1       1.379  -2.028   7.591  1.00  0.00     0.031 C 
ATOM     34  C   UNL     1      -2.294   1.024   8.362  1.00  0.00     0.029 A 
ATOM     35  N   UNL     1      -2.258  -0.934   9.407  1.00  0.00    -0.354 N 
ATOM     36  C   UNL     1       0.506  -4.120   7.755  1.00  0.00     0.074 A 
ATOM     37  C   UNL     1       1.689  -3.322   7.580  1.00  0.00     0.031 C 
ATOM     38  C   UNL     1      -2.847   1.218   9.578  1.00  0.00     0.029 A 
ATOM     39  C   UNL     1      -2.808  -0.038  10.311  1.00  0.00     0.049 A 
ATOM     40  H   UNL     1      -2.243  -1.908   9.550  1.00  0.00     0.167 HD
ATOM     41  C   UNL     1       0.351  -5.331   8.351  1.00  0.00     0.031 A 
ATOM     42  C   UNL     1      -3.146  -0.289  11.596  1.00  0.00     0.031 A 
ATOM     43  C   UNL     1      -1.023  -5.756   8.338  1.00  0.00     0.049 A 
ATOM     44  C   UNL     1      -3.280  -1.749  11.766  1.00  0.00     0.074 A 
ATOM     45  C   UNL     1      -1.906  -6.274   7.419  1.00  0.00     0.029 A 
ATOM     46  N   UNL     1      -1.754  -5.301   9.403  1.00  0.00    -0.354 N 
ATOM     47  N   UNL     1      -4.231  -2.446  11.215  1.00  0.00    -0.248 NA
ATOM     48  C   UNL     1      -2.165  -2.527  12.296  1.00  0.00     0.031 C 
ATOM     49  C   UNL     1      -3.209  -5.932   7.890  1.00  0.00     0.029 A 
ATOM     50  C   UNL     1      -3.083  -5.235   9.091  1.00  0.00     0.049 A 
ATOM     51  H   UNL     1      -1.373  -5.054  10.277  1.00  0.00     0.167 HD
ATOM     52  C   UNL     1      -3.643  -3.664  10.934  1.00  0.00     0.074 A 
ATOM     53  C   UNL     1      -2.464  -3.726  11.787  1.00  0.00     0.031 C 
ATOM     54  C   UNL     1      -3.981  -4.356   9.809  1.00  0.00     0.031 A 
BRANCH  41  55
ATOM     55  C   UNL     1       1.302  -5.830   9.422  1.00  0.00    -0.014 A 
ATOM     56  C   UNL     1       0.998  -7.046  10.060  1.00  0.00     0.009 A 
ATOM     57  C   UNL     1       2.272  -5.021  10.045  1.00  0.00     0.009 A 
ATOM     58  C   UNL     1       1.563  -7.384  11.296  1.00  0.00     0.001 A 
ATOM     59  C   UNL     1       2.864  -5.370  11.261  1.00  0.00     0.001 A 
ATOM     60  C   UNL     1       2.486  -6.539  11.903  1.00  0.00     0.000 A 
ENDBRANCH  41  55
BRANCH  42  61
ATOM     61  C   UNL     1      -3.178   0.638  12.741  1.00  0.00    -0.014 A 
ATOM     62  C   UNL     1      -3.962   0.354  13.867  1.00  0.00     0.009 A 
ATOM     63  C   UNL     1      -2.237   1.679  12.834  1.00  0.00     0.009 A 
ATOM     64  C   UNL     1      -3.780   1.060  15.062  1.00  0.00     0.001 A 
ATOM     65  C   UNL     1      -2.058   2.388  14.025  1.00  0.00     0.001 A 
ATOM     66  C   UNL     1      -2.820   2.066  15.144  1.00  0.00     0.000 A 
ENDBRANCH  42  61
BRANCH  54  67
ATOM     67  C   UNL     1      -5.293  -4.015   9.163  1.00  0.00    -0.014 A 
ATOM     68  C   UNL     1      -5.561  -2.768   8.575  1.00  0.00     0.009 A 
ATOM     69  C   UNL     1      -6.269  -5.018   9.088  1.00  0.00     0.009 A 
ATOM     70  C   UNL     1      -6.791  -2.523   7.958  1.00  0.00     0.001 A 
ATOM     71  C   UNL     1      -7.487  -4.781   8.452  1.00  0.00     0.001 A 
ATOM     72  C   UNL     1      -7.751  -3.531   7.895  1.00  0.00     0.000 A 
ENDBRANCH  54  67
ENDBRANCH  28  29
ENDBRANCH  21  23
ENDBRANCH  20  21
ENDBRANCH  19  20
ENDBRANCH   1  19
TORSDOF 15
