REMARK SMILES O=C(CCc1cccnc1)Nc1ccsc1C(=O)OCCOC(=O)c1ccc(-c2c3nc(c(-c4ccccc4)c4ccc([nH]4)c(-c4ccccc4)c4nc(c(-c5ccccc5)c5ccc2[nH]5)C=C4)C=C3)cc1
REMARK SMILES IDX 20 1 19 2 17 3 18 4 16 5 12 6 13 7 14 8 15 9 11 10 1 11 2 12
REMARK SMILES IDX 3 14 4 15 5 16 6 17 10 18 7 19 9 20 8 21 21 22 22 23 23 24
REMARK SMILES IDX 24 25 25 26 26 27 72 28 27 29 71 30 28 31 29 32 30 33 65 34
REMARK SMILES IDX 31 35 70 36 64 37 66 38 32 39 69 40 63 41 62 42 33 44 55 45
REMARK SMILES IDX 40 46 54 47 41 48 44 49 53 50 67 51 42 52 43 53 52 55 68 56
REMARK SMILES IDX 45 57 34 58 35 59 39 60 36 61 38 62 37 63 56 64 57 65 61 66
REMARK SMILES IDX 58 67 60 68 59 69 46 70 47 71 51 72 48 73 50 74 49 75
REMARK H PARENT 11 13 66 43 44 54
REMARK Flexibility Score: inf
ROOT
ATOM      1  C   UNL     1       5.111   1.081  -3.991  1.00  0.00     0.275 C 
ENDROOT
BRANCH   1   2
ATOM      2  O   UNL     1       4.018   1.373  -3.091  1.00  0.00    -0.458 OA
BRANCH   2   3
ATOM      3  C   UNL     1       3.856   2.683  -2.727  1.00  0.00     0.350 C 
ATOM      4  O   UNL     1       4.596   3.589  -3.100  1.00  0.00    -0.245 OA
BRANCH   3   5
ATOM      5  C   UNL     1       2.667   2.849  -1.899  1.00  0.00     0.136 A 
ATOM      6  C   UNL     1       1.940   1.943  -1.136  1.00  0.00     0.066 A 
ATOM      7  C   UNL     1       0.766   2.549  -0.583  1.00  0.00     0.039 A 
ATOM      8  C   UNL     1       0.666   3.889  -0.873  1.00  0.00     0.068 A 
ATOM      9  S   UNL     1       2.029   4.446  -1.722  1.00  0.00    -0.135 S 
BRANCH   6  10
ATOM     10  N   UNL     1       2.386   0.643  -0.911  1.00  0.00    -0.325 N 
ATOM     11  O   UNL     1       0.744  -0.140   0.521  1.00  0.00    -0.275 OA
ATOM     12  C   UNL     1       1.873  -0.214   0.037  1.00  0.00     0.224 C 
ATOM     13  H   UNL     1       3.124   0.311  -1.472  1.00  0.00     0.169 HD
BRANCH  12  14
ATOM     14  C   UNL     1       2.873  -1.197   0.639  1.00  0.00     0.105 C 
BRANCH  14  15
ATOM     15  C   UNL     1       4.006  -1.724  -0.238  1.00  0.00     0.047 C 
BRANCH  15  16
ATOM     16  C   UNL     1       5.203  -0.837  -0.502  1.00  0.00    -0.029 A 
ATOM     17  C   UNL     1       5.373   0.459  -0.005  1.00  0.00     0.007 A 
ATOM     18  C   UNL     1       6.208  -1.319  -1.342  1.00  0.00     0.114 A 
ATOM     19  C   UNL     1       6.458   1.230  -0.419  1.00  0.00     0.020 A 
ATOM     20  N   UNL     1       7.281  -0.600  -1.746  1.00  0.00    -0.264 NA
ATOM     21  C   UNL     1       7.376   0.664  -1.285  1.00  0.00     0.111 A 
ENDBRANCH  15  16
ENDBRANCH  14  15
ENDBRANCH  12  14
ENDBRANCH   6  10
ENDBRANCH   3   5
ENDBRANCH   2   3
ENDBRANCH   1   2
BRANCH   1  22
ATOM     22  C   UNL     1       4.633   0.664  -5.382  1.00  0.00     0.275 C 
BRANCH  22  23
ATOM     23  O   UNL     1       4.003   1.758  -6.061  1.00  0.00    -0.458 OA
BRANCH  23  24
ATOM     24  C   UNL     1       2.663   1.815  -5.899  1.00  0.00     0.338 C 
ATOM     25  O   UNL     1       1.948   1.032  -5.301  1.00  0.00    -0.246 OA
BRANCH  24  26
ATOM     26  C   UNL     1       2.193   3.108  -6.401  1.00  0.00     0.060 A 
ATOM     27  C   UNL     1       1.907   4.084  -5.451  1.00  0.00     0.016 A 
ATOM     28  C   UNL     1       1.976   3.344  -7.755  1.00  0.00     0.016 A 
ATOM     29  C   UNL     1       1.375   5.303  -5.832  1.00  0.00     0.010 A 
ATOM     30  C   UNL     1       1.472   4.587  -8.147  1.00  0.00     0.010 A 
ATOM     31  C   UNL     1       1.161   5.569  -7.187  1.00  0.00    -0.014 A 
BRANCH  31  32
ATOM     32  C   UNL     1       0.590   6.875  -7.583  1.00  0.00     0.031 A 
ATOM     33  C   UNL     1      -0.784   6.937  -8.180  1.00  0.00     0.074 A 
ATOM     34  C   UNL     1       1.304   7.997  -7.380  1.00  0.00     0.049 A 
ATOM     35  N   UNL     1      -1.409   7.959  -8.704  1.00  0.00    -0.248 NA
ATOM     36  C   UNL     1      -1.555   5.684  -8.196  1.00  0.00     0.031 C 
ATOM     37  C   UNL     1       2.623   8.059  -6.743  1.00  0.00     0.029 A 
ATOM     38  N   UNL     1       1.022   9.303  -7.685  1.00  0.00    -0.354 N 
ATOM     39  C   UNL     1      -2.629   7.466  -9.148  1.00  0.00     0.074 A 
ATOM     40  C   UNL     1      -2.653   6.052  -8.841  1.00  0.00     0.031 C 
ATOM     41  C   UNL     1       3.028   9.336  -6.694  1.00  0.00     0.029 A 
ATOM     42  C   UNL     1       2.038  10.170  -7.365  1.00  0.00     0.049 A 
ATOM     43  H   UNL     1       0.173   9.592  -8.093  1.00  0.00     0.167 HD
ATOM     44  C   UNL     1      -3.632   8.137  -9.760  1.00  0.00     0.031 A 
ATOM     45  C   UNL     1       2.179  11.482  -7.630  1.00  0.00     0.031 A 
ATOM     46  C   UNL     1      -3.591   9.547 -10.050  1.00  0.00     0.049 A 
ATOM     47  C   UNL     1       1.089  12.183  -8.388  1.00  0.00     0.074 A 
ATOM     48  C   UNL     1      -4.558  10.332 -10.652  1.00  0.00     0.029 A 
ATOM     49  N   UNL     1      -2.521  10.380  -9.758  1.00  0.00    -0.354 N 
ATOM     50  N   UNL     1      -0.058  11.708  -8.812  1.00  0.00    -0.248 NA
ATOM     51  C   UNL     1       1.317  13.596  -8.716  1.00  0.00     0.031 C 
ATOM     52  C   UNL     1      -4.046  11.626 -10.786  1.00  0.00     0.029 A 
ATOM     53  C   UNL     1      -2.787  11.663 -10.206  1.00  0.00     0.049 A 
ATOM     54  H   UNL     1      -1.696  10.101  -9.301  1.00  0.00     0.167 HD
ATOM     55  C   UNL     1      -0.694  12.765  -9.447  1.00  0.00     0.074 A 
ATOM     56  C   UNL     1       0.183  13.913  -9.325  1.00  0.00     0.031 C 
ATOM     57  C   UNL     1      -1.891  12.785 -10.083  1.00  0.00     0.031 A 
BRANCH  44  58
ATOM     58  C   UNL     1      -4.830   7.346 -10.209  1.00  0.00    -0.014 A 
ATOM     59  C   UNL     1      -5.748   6.810  -9.292  1.00  0.00     0.009 A 
ATOM     60  C   UNL     1      -5.058   7.161 -11.582  1.00  0.00     0.009 A 
ATOM     61  C   UNL     1      -6.851   6.079  -9.742  1.00  0.00     0.001 A 
ATOM     62  C   UNL     1      -6.176   6.456 -12.030  1.00  0.00     0.001 A 
ATOM     63  C   UNL     1      -7.067   5.907 -11.109  1.00  0.00     0.000 A 
ENDBRANCH  44  58
BRANCH  45  64
ATOM     64  C   UNL     1       3.424  12.193  -7.236  1.00  0.00    -0.014 A 
ATOM     65  C   UNL     1       3.399  13.204  -6.265  1.00  0.00     0.009 A 
ATOM     66  C   UNL     1       4.652  11.861  -7.835  1.00  0.00     0.009 A 
ATOM     67  C   UNL     1       4.571  13.881  -5.918  1.00  0.00     0.001 A 
ATOM     68  C   UNL     1       5.827  12.514  -7.461  1.00  0.00     0.001 A 
ATOM     69  C   UNL     1       5.784  13.532  -6.511  1.00  0.00     0.000 A 
ENDBRANCH  45  64
BRANCH  57  70
ATOM     70  C   UNL     1      -2.321  14.095 -10.679  1.00  0.00    -0.014 A 
ATOM     71  C   UNL     1      -1.698  14.608 -11.828  1.00  0.00     0.009 A 
ATOM     72  C   UNL     1      -3.387  14.805 -10.105  1.00  0.00     0.009 A 
ATOM     73  C   UNL     1      -2.114  15.825 -12.370  1.00  0.00     0.001 A 
ATOM     74  C   UNL     1      -3.821  16.005 -10.670  1.00  0.00     0.001 A 
ATOM     75  C   UNL     1      -3.178  16.518 -11.795  1.00  0.00     0.000 A 
ENDBRANCH  57  70
ENDBRANCH  31  32
ENDBRANCH  24  26
ENDBRANCH  23  24
ENDBRANCH  22  23
ENDBRANCH   1  22
TORSDOF 15
