REMARK SMILES CSCC[C@H](C(=O)OCCOC(=O)c1ccc(-c2c3nc(c(-c4ccccc4)c4ccc([nH]4)c(-c4ccccc4)c4nc(c(-c5ccccc5)c5ccc2[nH]5)C=C4)C=C3)cc1)N1C(=O)/C(=C/c2ccc3ncccc3c2)SC1=S
REMARK SMILES IDX 9 1 8 2 6 3 7 4 5 5 4 6 3 7 2 8 1 9 62 10 63 11 78 12 64 13
REMARK SMILES IDX 65 14 77 15 79 16 66 17 67 18 68 19 76 20 69 21 75 22 70 23
REMARK SMILES IDX 74 24 71 25 73 26 72 27 10 28 11 29 12 30 13 31 14 32 15 33
REMARK SMILES IDX 61 34 16 35 60 36 17 37 18 38 19 39 54 40 20 41 59 42 53 43
REMARK SMILES IDX 55 44 21 45 58 46 52 47 51 48 22 50 44 51 29 52 43 53 30 54
REMARK SMILES IDX 33 55 42 56 56 57 31 58 32 59 41 61 57 62 34 63 23 64 24 65
REMARK SMILES IDX 28 66 25 67 27 68 26 69 45 70 46 71 50 72 47 73 49 74 48 75
REMARK SMILES IDX 35 76 36 77 40 78 37 79 39 80 38 81
REMARK H PARENT 55 49 33 60
REMARK Flexibility Score: inf
ROOT
ATOM      1  C   UNL     1       0.571   5.265  -0.733  1.00  0.00     0.274 C 
ENDROOT
BRANCH   1   2
ATOM      2  O   UNL     1       1.207   4.198  -0.002  1.00  0.00    -0.461 OA
BRANCH   2   3
ATOM      3  C   UNL     1       0.664   3.888   1.201  1.00  0.00     0.329 C 
ATOM      4  O   UNL     1      -0.385   4.366   1.625  1.00  0.00    -0.250 OA
BRANCH   3   5
ATOM      5  C   UNL     1       1.448   2.797   1.953  1.00  0.00     0.202 C 
BRANCH   5   6
ATOM      6  C   UNL     1       2.975   2.750   1.777  1.00  0.00     0.048 C 
BRANCH   6   7
ATOM      7  C   UNL     1       3.477   1.636   0.848  1.00  0.00     0.072 C 
BRANCH   7   8
ATOM      8  S   UNL     1       3.693   2.179  -0.875  1.00  0.00    -0.165 SA
ATOM      9  C   UNL     1       2.183   1.516  -1.618  1.00  0.00     0.085 C 
ENDBRANCH   7   8
ENDBRANCH   6   7
ENDBRANCH   5   6
BRANCH   5  10
ATOM     10  N   UNL     1       1.064   2.919   3.390  1.00  0.00    -0.278 N 
ATOM     11  C   UNL     1       0.315   1.905   3.965  1.00  0.00     0.266 C 
ATOM     12  C   UNL     1       1.341   4.006   4.202  1.00  0.00     0.149 C 
ATOM     13  O   UNL     1       0.003   0.850   3.428  1.00  0.00    -0.268 OA
ATOM     14  C   UNL     1      -0.079   2.263   5.351  1.00  0.00     0.081 C 
ATOM     15  S   UNL     1       0.583   3.790   5.772  1.00  0.00    -0.054 SA
ATOM     16  S   UNL     1       2.230   5.378   3.857  1.00  0.00    -0.052 S 
ATOM     17  C   UNL     1      -0.864   1.480   6.106  1.00  0.00     0.029 C 
BRANCH  17  18
ATOM     18  C   UNL     1      -1.371   1.868   7.426  1.00  0.00    -0.024 A 
ATOM     19  C   UNL     1      -0.822   1.345   8.595  1.00  0.00     0.010 A 
ATOM     20  C   UNL     1      -2.390   2.822   7.518  1.00  0.00     0.018 A 
ATOM     21  C   UNL     1      -1.273   1.800   9.841  1.00  0.00     0.029 A 
ATOM     22  C   UNL     1      -2.821   3.289   8.769  1.00  0.00     0.001 A 
ATOM     23  C   UNL     1      -2.255   2.777   9.955  1.00  0.00     0.070 A 
ATOM     24  C   UNL     1      -3.796   4.287   8.877  1.00  0.00     0.012 A 
ATOM     25  N   UNL     1      -2.625   3.215  11.172  1.00  0.00    -0.256 NA
ATOM     26  C   UNL     1      -4.162   4.756  10.131  1.00  0.00     0.021 A 
ATOM     27  C   UNL     1      -3.557   4.191  11.237  1.00  0.00     0.112 A 
ENDBRANCH  17  18
ENDBRANCH   5  10
ENDBRANCH   3   5
ENDBRANCH   2   3
ENDBRANCH   1   2
BRANCH   1  28
ATOM     28  C   UNL     1      -0.454   4.761  -1.755  1.00  0.00     0.275 C 
BRANCH  28  29
ATOM     29  O   UNL     1      -1.627   4.219  -1.122  1.00  0.00    -0.458 OA
BRANCH  29  30
ATOM     30  C   UNL     1      -1.621   2.878  -0.943  1.00  0.00     0.338 C 
ATOM     31  O   UNL     1      -0.765   2.088  -1.300  1.00  0.00    -0.246 OA
BRANCH  30  32
ATOM     32  C   UNL     1      -2.750   2.483  -0.091  1.00  0.00     0.060 A 
ATOM     33  C   UNL     1      -2.458   1.818   1.104  1.00  0.00     0.016 A 
ATOM     34  C   UNL     1      -4.071   2.705  -0.480  1.00  0.00     0.016 A 
ATOM     35  C   UNL     1      -3.489   1.393   1.935  1.00  0.00     0.010 A 
ATOM     36  C   UNL     1      -5.107   2.265   0.348  1.00  0.00     0.010 A 
ATOM     37  C   UNL     1      -4.819   1.610   1.558  1.00  0.00    -0.014 A 
BRANCH  37  38
ATOM     38  C   UNL     1      -5.914   1.127   2.425  1.00  0.00     0.031 A 
ATOM     39  C   UNL     1      -6.621  -0.152   2.093  1.00  0.00     0.074 A 
ATOM     40  C   UNL     1      -6.261   1.842   3.509  1.00  0.00     0.049 A 
ATOM     41  N   UNL     1      -7.646  -0.707   2.688  1.00  0.00    -0.248 NA
ATOM     42  C   UNL     1      -6.108  -0.907   0.939  1.00  0.00     0.031 C 
ATOM     43  C   UNL     1      -5.618   3.082   3.947  1.00  0.00     0.029 A 
ATOM     44  N   UNL     1      -7.251   1.631   4.434  1.00  0.00    -0.354 N 
ATOM     45  C   UNL     1      -7.903  -1.875   1.982  1.00  0.00     0.074 A 
ATOM     46  C   UNL     1      -6.943  -1.937   0.900  1.00  0.00     0.031 C 
ATOM     47  C   UNL     1      -6.240   3.529   5.051  1.00  0.00     0.029 A 
ATOM     48  C   UNL     1      -7.341   2.626   5.375  1.00  0.00     0.049 A 
ATOM     49  H   UNL     1      -7.839   0.842   4.424  1.00  0.00     0.167 HD
ATOM     50  C   UNL     1      -8.852  -2.811   2.219  1.00  0.00     0.031 A 
ATOM     51  C   UNL     1      -8.231   2.801   6.368  1.00  0.00     0.031 A 
ATOM     52  C   UNL     1      -9.821  -2.732   3.279  1.00  0.00     0.049 A 
ATOM     53  C   UNL     1      -9.321   1.783   6.563  1.00  0.00     0.074 A 
ATOM     54  C   UNL     1     -10.836  -3.619   3.592  1.00  0.00     0.029 A 
ATOM     55  N   UNL     1      -9.894  -1.698   4.200  1.00  0.00    -0.354 N 
ATOM     56  N   UNL     1      -9.555   0.684   5.888  1.00  0.00    -0.248 NA
ATOM     57  C   UNL     1     -10.267   2.030   7.661  1.00  0.00     0.031 C 
ATOM     58  C   UNL     1     -11.547  -3.102   4.681  1.00  0.00     0.029 A 
ATOM     59  C   UNL     1     -10.945  -1.918   5.074  1.00  0.00     0.049 A 
ATOM     60  H   UNL     1      -9.288  -0.923   4.229  1.00  0.00     0.167 HD
ATOM     61  C   UNL     1     -10.658   0.096   6.493  1.00  0.00     0.074 A 
ATOM     62  C   UNL     1     -11.037   0.953   7.599  1.00  0.00     0.031 C 
ATOM     63  C   UNL     1     -11.303  -1.050   6.165  1.00  0.00     0.031 A 
BRANCH  50  64
ATOM     64  C   UNL     1      -8.900  -3.990   1.289  1.00  0.00    -0.014 A 
ATOM     65  C   UNL     1      -7.929  -5.002   1.351  1.00  0.00     0.009 A 
ATOM     66  C   UNL     1      -9.943  -4.103   0.356  1.00  0.00     0.009 A 
ATOM     67  C   UNL     1      -7.985  -6.089   0.477  1.00  0.00     0.001 A 
ATOM     68  C   UNL     1     -10.008  -5.203  -0.501  1.00  0.00     0.001 A 
ATOM     69  C   UNL     1      -9.026  -6.191  -0.446  1.00  0.00     0.000 A 
ENDBRANCH  50  64
BRANCH  51  70
ATOM     70  C   UNL     1      -8.151   4.003   7.237  1.00  0.00    -0.014 A 
ATOM     71  C   UNL     1      -7.777   3.889   8.583  1.00  0.00     0.009 A 
ATOM     72  C   UNL     1      -8.472   5.270   6.725  1.00  0.00     0.009 A 
ATOM     73  C   UNL     1      -7.761   5.016   9.408  1.00  0.00     0.001 A 
ATOM     74  C   UNL     1      -8.418   6.400   7.544  1.00  0.00     0.001 A 
ATOM     75  C   UNL     1      -8.072   6.271   8.887  1.00  0.00     0.000 A 
ENDBRANCH  51  70
BRANCH  63  76
ATOM     76  C   UNL     1     -12.457  -1.453   7.037  1.00  0.00    -0.014 A 
ATOM     77  C   UNL     1     -13.692  -0.790   6.961  1.00  0.00     0.009 A 
ATOM     78  C   UNL     1     -12.312  -2.526   7.929  1.00  0.00     0.009 A 
ATOM     79  C   UNL     1     -14.748  -1.173   7.789  1.00  0.00     0.001 A 
ATOM     80  C   UNL     1     -13.377  -2.922   8.739  1.00  0.00     0.001 A 
ATOM     81  C   UNL     1     -14.591  -2.239   8.675  1.00  0.00     0.000 A 
ENDBRANCH  63  76
ENDBRANCH  37  38
ENDBRANCH  30  32
ENDBRANCH  29  30
ENDBRANCH  28  29
ENDBRANCH   1  28
TORSDOF 16
