REMARK SMILES O=C(OCCOC(=O)c1ccc(-c2c3nc(c(-c4ccccc4)c4ccc([nH]4)c(-c4ccccc4)c4nc(c(-c5ccccc5)c5ccc2[nH]5)C=C4)C=C3)cc1)C1=Cc2c(Cl)ccc(Cl)c2O[C@@H]1C(F)(F)F
REMARK SMILES IDX 5 1 4 2 3 3 2 4 1 5 57 6 58 7 68 8 59 9 67 10 60 11 66 12
REMARK SMILES IDX 61 13 62 14 64 15 63 16 65 17 69 18 70 19 71 20 72 21 6 22
REMARK SMILES IDX 7 23 8 24 9 25 10 26 56 27 11 28 55 29 12 30 13 31 14 32
REMARK SMILES IDX 49 33 15 34 54 35 48 36 50 37 16 38 53 39 47 40 46 41 17 43
REMARK SMILES IDX 39 44 24 45 38 46 25 47 28 48 37 49 51 50 26 51 27 52 36 54
REMARK SMILES IDX 52 55 29 56 18 57 19 58 23 59 20 60 22 61 21 62 40 63 41 64
REMARK SMILES IDX 45 65 42 66 44 67 43 68 30 69 31 70 35 71 32 72 34 73 33 74
REMARK H PARENT 50 42 28 53
REMARK Flexibility Score: inf
ROOT
ATOM      1  C   UNL     1       4.602   0.149   0.892  1.00  0.00     0.275 C 
ENDROOT
BRANCH   1   2
ATOM      2  C   UNL     1       3.824  -0.927  -0.814  1.00  0.00     0.275 C 
BRANCH   2   3
ATOM      3  O   UNL     1       3.030  -2.272  -0.771  1.00  0.00    -0.459 OA
BRANCH   3   4
ATOM      4  C   UNL     1       3.246  -2.985   0.341  1.00  0.00     0.338 C 
ATOM      5  O   UNL     1       2.700  -3.973   0.758  1.00  0.00    -0.246 OA
BRANCH   4   6
ATOM      6  C   UNL     1       4.033  -1.967   0.987  1.00  0.00     0.087 C 
ATOM      7  C   UNL     1       5.403  -1.916   0.430  1.00  0.00     0.029 C 
ATOM      8  C   UNL     1       2.721  -0.557   0.841  1.00  0.00     0.316 C 
ATOM      9  C   UNL     1       6.007  -0.560  -0.625  1.00  0.00     0.037 A 
ATOM     10  O   UNL     1       3.324   0.866  -0.301  1.00  0.00    -0.474 OA
ATOM     11  C   UNL     1       7.212  -0.677  -1.276  1.00  0.00     0.052 A 
ATOM     12  C   UNL     1       4.979   0.778  -1.062  1.00  0.00     0.148 A 
ATOM     13  Cl  UNL     1       8.313  -1.960  -1.002  1.00  0.00    -0.084 Cl
ATOM     14  C   UNL     1       7.481   0.303  -2.248  1.00  0.00     0.023 A 
ATOM     15  C   UNL     1       5.334   1.692  -2.019  1.00  0.00     0.083 A 
ATOM     16  C   UNL     1       6.597   1.412  -2.598  1.00  0.00     0.026 A 
ATOM     17  Cl  UNL     1       4.382   2.992  -2.548  1.00  0.00    -0.080 Cl
BRANCH   8  18
ATOM     18  C   UNL     1       2.165  -0.580   2.305  1.00  0.00     0.430 C 
ATOM     19  F   UNL     1       0.917  -0.094   2.375  1.00  0.00    -0.167 F 
ATOM     20  F   UNL     1       2.040  -1.886   2.692  1.00  0.00    -0.167 F 
ATOM     21  F   UNL     1       2.943  -0.062   3.269  1.00  0.00    -0.167 F 
ENDBRANCH   8  18
ENDBRANCH   4   6
ENDBRANCH   3   4
ENDBRANCH   2   3
ENDBRANCH   1   2
BRANCH   1  22
ATOM     22  O   UNL     1       3.794   1.375   1.767  1.00  0.00    -0.458 OA
BRANCH  22  23
ATOM     23  C   UNL     1       2.989   2.477   1.640  1.00  0.00     0.338 C 
ATOM     24  O   UNL     1       2.627   3.074   0.645  1.00  0.00    -0.246 OA
BRANCH  23  25
ATOM     25  C   UNL     1       2.308   2.608   2.964  1.00  0.00     0.060 A 
ATOM     26  C   UNL     1       0.935   2.318   3.044  1.00  0.00     0.016 A 
ATOM     27  C   UNL     1       3.082   2.626   4.124  1.00  0.00     0.016 A 
ATOM     28  C   UNL     1       0.400   1.812   4.243  1.00  0.00     0.010 A 
ATOM     29  C   UNL     1       2.540   2.147   5.319  1.00  0.00     0.010 A 
ATOM     30  C   UNL     1       1.219   1.665   5.372  1.00  0.00    -0.014 A 
BRANCH  30  31
ATOM     31  C   UNL     1       0.666   1.239   6.684  1.00  0.00     0.031 A 
ATOM     32  C   UNL     1       0.135   2.338   7.554  1.00  0.00     0.074 A 
ATOM     33  C   UNL     1       0.706  -0.029   7.145  1.00  0.00     0.049 A 
ATOM     34  N   UNL     1      -0.308   2.294   8.781  1.00  0.00    -0.248 NA
ATOM     35  C   UNL     1       0.140   3.682   6.952  1.00  0.00     0.031 C 
ATOM     36  C   UNL     1       1.194  -1.200   6.417  1.00  0.00     0.029 A 
ATOM     37  N   UNL     1       0.338  -0.539   8.373  1.00  0.00    -0.354 N 
ATOM     38  C   UNL     1      -0.627   3.607   9.097  1.00  0.00     0.074 A 
ATOM     39  C   UNL     1      -0.277   4.425   7.959  1.00  0.00     0.031 C 
ATOM     40  C   UNL     1       1.107  -2.285   7.214  1.00  0.00     0.029 A 
ATOM     41  C   UNL     1       0.574  -1.889   8.518  1.00  0.00     0.049 A 
ATOM     42  H   UNL     1      -0.060   0.013   9.084  1.00  0.00     0.167 HD
ATOM     43  C   UNL     1      -1.176   4.098  10.228  1.00  0.00     0.031 A 
ATOM     44  C   UNL     1       0.387  -2.699   9.583  1.00  0.00     0.031 A 
ATOM     45  C   UNL     1      -1.485   3.306  11.380  1.00  0.00     0.049 A 
ATOM     46  C   UNL     1      -0.175  -2.117  10.864  1.00  0.00     0.074 A 
ATOM     47  C   UNL     1      -2.042   3.708  12.578  1.00  0.00     0.029 A 
ATOM     48  N   UNL     1      -1.245   1.944  11.476  1.00  0.00    -0.354 N 
ATOM     49  N   UNL     1      -0.543  -0.885  11.126  1.00  0.00    -0.248 NA
ATOM     50  C   UNL     1      -0.358  -3.044  11.995  1.00  0.00     0.031 C 
ATOM     51  C   UNL     1      -2.099   2.593  13.421  1.00  0.00     0.029 A 
ATOM     52  C   UNL     1      -1.631   1.490  12.723  1.00  0.00     0.049 A 
ATOM     53  H   UNL     1      -0.859   1.385  10.764  1.00  0.00     0.167 HD
ATOM     54  C   UNL     1      -1.037  -0.900  12.427  1.00  0.00     0.074 A 
ATOM     55  C   UNL     1      -0.931  -2.263  12.901  1.00  0.00     0.031 C 
ATOM     56  C   UNL     1      -1.538   0.122  13.164  1.00  0.00     0.031 A 
BRANCH  43  57
ATOM     57  C   UNL     1      -1.431   5.575  10.247  1.00  0.00    -0.014 A 
ATOM     58  C   UNL     1      -2.423   6.143   9.428  1.00  0.00     0.009 A 
ATOM     59  C   UNL     1      -0.621   6.414  11.023  1.00  0.00     0.009 A 
ATOM     60  C   UNL     1      -2.555   7.529   9.341  1.00  0.00     0.001 A 
ATOM     61  C   UNL     1      -0.779   7.799  10.959  1.00  0.00     0.001 A 
ATOM     62  C   UNL     1      -1.734   8.355  10.106  1.00  0.00     0.000 A 
ENDBRANCH  43  57
BRANCH  44  63
ATOM     63  C   UNL     1       0.715  -4.156   9.527  1.00  0.00    -0.014 A 
ATOM     64  C   UNL     1      -0.305  -5.121   9.594  1.00  0.00     0.009 A 
ATOM     65  C   UNL     1       2.048  -4.595   9.502  1.00  0.00     0.009 A 
ATOM     66  C   UNL     1       0.001  -6.484   9.678  1.00  0.00     0.001 A 
ATOM     67  C   UNL     1       2.351  -5.961   9.559  1.00  0.00     0.001 A 
ATOM     68  C   UNL     1       1.329  -6.903   9.660  1.00  0.00     0.000 A 
ENDBRANCH  44  63
BRANCH  56  69
ATOM     69  C   UNL     1      -2.067  -0.191  14.536  1.00  0.00    -0.014 A 
ATOM     70  C   UNL     1      -1.208  -0.481  15.606  1.00  0.00     0.009 A 
ATOM     71  C   UNL     1      -3.448  -0.097  14.777  1.00  0.00     0.009 A 
ATOM     72  C   UNL     1      -1.725  -0.690  16.887  1.00  0.00     0.001 A 
ATOM     73  C   UNL     1      -3.958  -0.276  16.063  1.00  0.00     0.001 A 
ATOM     74  C   UNL     1      -3.097  -0.578  17.116  1.00  0.00     0.000 A 
ENDBRANCH  56  69
ENDBRANCH  30  31
ENDBRANCH  23  25
ENDBRANCH  22  23
ENDBRANCH   1  22
TORSDOF 12
