REMARK SMILES CC[C@@H](C)[C@H](C(=O)OCCOC(=O)c1ccc(-c2c3nc(c(-c4ccccc4)c4ccc([nH]4)c(-c4ccccc4)c4nc(c(-c5ccccc5)c5ccc2[nH]5)C=C4)C=C3)cc1)N1C(=O)/C(=C/c2ccc3c(c2)OCO3)SC1=S
REMARK SMILES IDX 9 1 8 2 6 3 7 4 5 5 3 6 4 7 2 8 1 9 62 10 63 11 77 12 64 13
REMARK SMILES IDX 65 14 76 15 78 16 66 17 67 18 68 19 72 20 69 21 71 22 70 23
REMARK SMILES IDX 73 24 75 25 74 26 10 27 11 28 12 29 13 30 14 31 15 32 61 33
REMARK SMILES IDX 16 34 60 35 17 36 18 37 19 38 54 39 20 40 59 41 53 42 55 43
REMARK SMILES IDX 21 44 58 45 52 46 51 47 22 49 44 50 29 51 43 52 30 53 33 54
REMARK SMILES IDX 42 55 56 56 31 57 32 58 41 60 57 61 34 62 23 63 24 64 28 65
REMARK SMILES IDX 25 66 27 67 26 68 45 69 46 70 50 71 47 72 49 73 48 74 35 75
REMARK SMILES IDX 36 76 40 77 37 78 39 79 38 80
REMARK H PARENT 55 48 33 59
REMARK Flexibility Score: inf
ROOT
ATOM      1  C   UNL     1       0.495   0.569   0.465  1.00  0.00     0.274 C 
ENDROOT
BRANCH   1   2
ATOM      2  O   UNL     1      -0.000   0.207   1.774  1.00  0.00    -0.461 OA
BRANCH   2   3
ATOM      3  C   UNL     1       0.912   0.243   2.785  1.00  0.00     0.329 C 
ATOM      4  O   UNL     1       2.058   0.656   2.666  1.00  0.00    -0.250 OA
BRANCH   3   5
ATOM      5  C   UNL     1       0.374  -0.417   4.078  1.00  0.00     0.204 C 
BRANCH   5   6
ATOM      6  C   UNL     1       1.163  -1.772   4.140  1.00  0.00     0.020 C 
ATOM      7  C   UNL     1       0.437  -2.818   4.989  1.00  0.00     0.010 C 
BRANCH   6   8
ATOM      8  C   UNL     1       2.700  -1.585   4.312  1.00  0.00     0.002 C 
ATOM      9  C   UNL     1       3.498  -2.755   4.858  1.00  0.00     0.004 C 
ENDBRANCH   6   8
ENDBRANCH   5   6
BRANCH   5  10
ATOM     10  N   UNL     1       0.376   0.533   5.247  1.00  0.00    -0.278 N 
ATOM     11  C   UNL     1      -0.286   1.752   5.018  1.00  0.00     0.267 C 
ATOM     12  C   UNL     1       0.716   0.338   6.580  1.00  0.00     0.149 C 
ATOM     13  O   UNL     1      -0.846   2.088   3.987  1.00  0.00    -0.268 OA
ATOM     14  C   UNL     1      -0.150   2.634   6.205  1.00  0.00     0.081 C 
ATOM     15  S   UNL     1       0.060   1.639   7.574  1.00  0.00    -0.054 SA
ATOM     16  S   UNL     1       1.608  -0.806   7.395  1.00  0.00    -0.052 S 
ATOM     17  C   UNL     1       0.016   3.965   6.147  1.00  0.00     0.029 C 
BRANCH  17  18
ATOM     18  C   UNL     1       0.574   4.747   7.267  1.00  0.00    -0.020 A 
ATOM     19  C   UNL     1      -0.120   5.832   7.829  1.00  0.00     0.012 A 
ATOM     20  C   UNL     1       1.837   4.400   7.782  1.00  0.00     0.058 A 
ATOM     21  C   UNL     1       0.425   6.543   8.910  1.00  0.00     0.051 A 
ATOM     22  C   UNL     1       2.352   5.120   8.831  1.00  0.00     0.166 A 
ATOM     23  C   UNL     1       1.667   6.168   9.383  1.00  0.00     0.165 A 
ATOM     24  O   UNL     1       3.546   4.886   9.433  1.00  0.00    -0.454 OA
ATOM     25  O   UNL     1       2.356   6.744  10.405  1.00  0.00    -0.454 OA
ATOM     26  C   UNL     1       3.592   5.991  10.357  1.00  0.00     0.468 C 
ENDBRANCH  17  18
ENDBRANCH   5  10
ENDBRANCH   3   5
ENDBRANCH   2   3
ENDBRANCH   1   2
BRANCH   1  27
ATOM     27  C   UNL     1       0.546   2.081   0.220  1.00  0.00     0.275 C 
BRANCH  27  28
ATOM     28  O   UNL     1       1.604   2.676   0.992  1.00  0.00    -0.458 OA
BRANCH  28  29
ATOM     29  C   UNL     1       1.284   3.795   1.676  1.00  0.00     0.338 C 
ATOM     30  O   UNL     1       0.250   4.437   1.614  1.00  0.00    -0.246 OA
BRANCH  29  31
ATOM     31  C   UNL     1       2.394   4.174   2.569  1.00  0.00     0.060 A 
ATOM     32  C   UNL     1       2.640   3.425   3.716  1.00  0.00     0.016 A 
ATOM     33  C   UNL     1       3.073   5.374   2.367  1.00  0.00     0.016 A 
ATOM     34  C   UNL     1       3.507   3.896   4.694  1.00  0.00     0.010 A 
ATOM     35  C   UNL     1       3.962   5.842   3.344  1.00  0.00     0.010 A 
ATOM     36  C   UNL     1       4.137   5.137   4.547  1.00  0.00    -0.014 A 
BRANCH  36  37
ATOM     37  C   UNL     1       4.816   5.742   5.728  1.00  0.00     0.031 A 
ATOM     38  C   UNL     1       4.239   6.985   6.364  1.00  0.00     0.074 A 
ATOM     39  C   UNL     1       5.848   5.114   6.325  1.00  0.00     0.049 A 
ATOM     40  N   UNL     1       4.701   7.699   7.363  1.00  0.00    -0.248 NA
ATOM     41  C   UNL     1       2.971   7.489   5.808  1.00  0.00     0.031 C 
ATOM     42  C   UNL     1       6.462   3.865   5.871  1.00  0.00     0.029 A 
ATOM     43  N   UNL     1       6.538   5.425   7.471  1.00  0.00    -0.354 N 
ATOM     44  C   UNL     1       3.781   8.725   7.551  1.00  0.00     0.074 A 
ATOM     45  C   UNL     1       2.765   8.579   6.532  1.00  0.00     0.031 C 
ATOM     46  C   UNL     1       7.409   3.497   6.749  1.00  0.00     0.029 A 
ATOM     47  C   UNL     1       7.508   4.508   7.796  1.00  0.00     0.049 A 
ATOM     48  H   UNL     1       6.354   6.229   8.009  1.00  0.00     0.167 HD
ATOM     49  C   UNL     1       3.739   9.668   8.522  1.00  0.00     0.031 A 
ATOM     50  C   UNL     1       8.393   4.491   8.811  1.00  0.00     0.031 A 
ATOM     51  C   UNL     1       4.663   9.761   9.616  1.00  0.00     0.049 A 
ATOM     52  C   UNL     1       8.377   5.604   9.822  1.00  0.00     0.074 A 
ATOM     53  C   UNL     1       4.634  10.630  10.692  1.00  0.00     0.029 A 
ATOM     54  N   UNL     1       5.753   8.929   9.799  1.00  0.00    -0.354 N 
ATOM     55  N   UNL     1       7.562   6.626   9.916  1.00  0.00    -0.248 NA
ATOM     56  C   UNL     1       9.409   5.558  10.869  1.00  0.00     0.031 C 
ATOM     57  C   UNL     1       5.679  10.287  11.556  1.00  0.00     0.029 A 
ATOM     58  C   UNL     1       6.347   9.200  11.019  1.00  0.00     0.049 A 
ATOM     59  H   UNL     1       6.059   8.247   9.159  1.00  0.00     0.167 HD
ATOM     60  C   UNL     1       7.970   7.332  11.040  1.00  0.00     0.074 A 
ATOM     61  C   UNL     1       9.093   6.613  11.606  1.00  0.00     0.031 C 
ATOM     62  C   UNL     1       7.459   8.472  11.564  1.00  0.00     0.031 A 
BRANCH  49  63
ATOM     63  C   UNL     1       2.580  10.619   8.507  1.00  0.00    -0.014 A 
ATOM     64  C   UNL     1       1.368  10.250   9.110  1.00  0.00     0.009 A 
ATOM     65  C   UNL     1       2.704  11.898   7.951  1.00  0.00     0.009 A 
ATOM     66  C   UNL     1       0.286  11.129   9.126  1.00  0.00     0.001 A 
ATOM     67  C   UNL     1       1.626  12.785   7.986  1.00  0.00     0.001 A 
ATOM     68  C   UNL     1       0.416  12.398   8.565  1.00  0.00     0.000 A 
ENDBRANCH  49  63
BRANCH  50  69
ATOM     69  C   UNL     1       9.409   3.408   8.898  1.00  0.00    -0.014 A 
ATOM     70  C   UNL     1       9.382   2.469   9.940  1.00  0.00     0.009 A 
ATOM     71  C   UNL     1      10.439   3.335   7.947  1.00  0.00     0.009 A 
ATOM     72  C   UNL     1      10.382   1.498  10.042  1.00  0.00     0.001 A 
ATOM     73  C   UNL     1      11.419   2.345   8.033  1.00  0.00     0.001 A 
ATOM     74  C   UNL     1      11.396   1.434   9.087  1.00  0.00     0.000 A 
ENDBRANCH  50  69
BRANCH  62  75
ATOM     75  C   UNL     1       8.072   8.967  12.839  1.00  0.00    -0.014 A 
ATOM     76  C   UNL     1       9.301   9.641  12.835  1.00  0.00     0.009 A 
ATOM     77  C   UNL     1       7.403   8.765  14.056  1.00  0.00     0.009 A 
ATOM     78  C   UNL     1       9.864  10.081  14.034  1.00  0.00     0.001 A 
ATOM     79  C   UNL     1       7.958   9.226  15.251  1.00  0.00     0.001 A 
ATOM     80  C   UNL     1       9.192   9.875  15.239  1.00  0.00     0.000 A 
ENDBRANCH  62  75
ENDBRANCH  36  37
ENDBRANCH  29  31
ENDBRANCH  28  29
ENDBRANCH  27  28
ENDBRANCH   1  27
TORSDOF 15
