REMARK SMILES CC(C)[C@H](NC(=O)[C@H](C)NC(=O)CNC(=O)OCc1ccccc1)C(=O)OCCOC(=O)c1ccc(-c2c3nc(c(-c4ccccc4)c4ccc([nH]4)c(-c4ccccc4)c4nc(c(-c5ccccc5)c5ccc2[nH]5)C=C4)C=C3)cc1
REMARK SMILES IDX 4 1 2 2 1 3 3 4 25 5 26 6 27 7 28 8 29 9 30 10 31 11 32 12
REMARK SMILES IDX 33 13 34 14 80 15 35 16 79 17 36 18 37 19 38 20 73 21 39 22
REMARK SMILES IDX 78 23 72 24 74 25 40 26 77 27 71 28 70 29 41 31 63 32 48 33
REMARK SMILES IDX 62 34 49 35 52 36 61 37 75 38 50 39 51 40 60 42 76 43 53 44
REMARK SMILES IDX 42 45 43 46 47 47 44 48 46 49 45 50 64 51 65 52 69 53 66 54
REMARK SMILES IDX 68 55 67 56 54 57 55 58 59 59 56 60 58 61 57 62 5 63 6 64
REMARK SMILES IDX 7 66 8 67 9 68 10 69 11 70 12 72 13 73 14 74 15 75 16 77
REMARK SMILES IDX 17 78 18 79 19 80 20 81 24 82 21 83 23 84 22 85
REMARK H PARENT 74 30 52 41 5 65 10 71 14 76
REMARK Flexibility Score: inf
ROOT
ATOM      1  C   UNL     1      -0.762   2.438   2.423  1.00  0.00     0.194 C 
ENDROOT
BRANCH   1   2
ATOM      2  C   UNL     1       0.124   2.673   3.683  1.00  0.00     0.017 C 
ATOM      3  C   UNL     1       0.511   1.357   4.345  1.00  0.00     0.010 C 
ATOM      4  C   UNL     1       1.437   3.437   3.358  1.00  0.00     0.010 C 
ENDBRANCH   1   2
BRANCH   1   5
ATOM      5  C   UNL     1      -2.149   1.575   2.758  1.00  0.00     0.329 C 
ATOM      6  O   UNL     1      -2.135   0.383   3.050  1.00  0.00    -0.250 OA
BRANCH   5   7
ATOM      7  O   UNL     1      -3.319   2.271   2.620  1.00  0.00    -0.461 OA
BRANCH   7   8
ATOM      8  C   UNL     1      -4.594   1.775   2.010  1.00  0.00     0.274 C 
BRANCH   8   9
ATOM      9  C   UNL     1      -5.280   2.704   0.750  1.00  0.00     0.275 C 
BRANCH   9  10
ATOM     10  O   UNL     1      -4.680   2.573  -0.696  1.00  0.00    -0.458 OA
BRANCH  10  11
ATOM     11  C   UNL     1      -4.330   3.382  -1.770  1.00  0.00     0.338 C 
ATOM     12  O   UNL     1      -4.727   4.526  -1.917  1.00  0.00    -0.246 OA
BRANCH  11  13
ATOM     13  C   UNL     1      -3.161   2.771  -2.645  1.00  0.00     0.060 A 
ATOM     14  C   UNL     1      -1.798   3.066  -2.397  1.00  0.00     0.016 A 
ATOM     15  C   UNL     1      -3.377   1.828  -3.658  1.00  0.00     0.016 A 
ATOM     16  C   UNL     1      -0.715   2.333  -2.983  1.00  0.00     0.010 A 
ATOM     17  C   UNL     1      -2.292   1.124  -4.284  1.00  0.00     0.010 A 
ATOM     18  C   UNL     1      -0.938   1.337  -3.941  1.00  0.00    -0.014 A 
BRANCH  18  19
ATOM     19  C   UNL     1       0.203   0.737  -4.759  1.00  0.00     0.031 A 
ATOM     20  C   UNL     1       0.551   1.412  -6.075  1.00  0.00     0.074 A 
ATOM     21  C   UNL     1       0.952  -0.345  -4.427  1.00  0.00     0.049 A 
ATOM     22  N   UNL     1       1.421   1.077  -7.001  1.00  0.00    -0.248 NA
ATOM     23  C   UNL     1      -0.198   2.640  -6.377  1.00  0.00     0.031 C 
ATOM     24  C   UNL     1       0.859  -1.115  -3.190  1.00  0.00     0.029 A 
ATOM     25  N   UNL     1       1.961  -0.997  -5.132  1.00  0.00    -0.354 N 
ATOM     26  C   UNL     1       1.310   2.042  -7.997  1.00  0.00     0.074 A 
ATOM     27  C   UNL     1       0.273   2.958  -7.572  1.00  0.00     0.031 C 
ATOM     28  C   UNL     1       1.750  -2.130  -3.227  1.00  0.00     0.029 A 
ATOM     29  C   UNL     1       2.472  -2.116  -4.504  1.00  0.00     0.049 A 
ATOM     30  H   UNL     1       2.284  -0.684  -6.008  1.00  0.00     0.167 HD
ATOM     31  C   UNL     1       1.994   2.178  -9.161  1.00  0.00     0.031 A 
ATOM     32  C   UNL     1       3.390  -3.035  -4.899  1.00  0.00     0.031 A 
ATOM     33  C   UNL     1       3.017   1.288  -9.642  1.00  0.00     0.049 A 
ATOM     34  C   UNL     1       4.068  -2.929  -6.255  1.00  0.00     0.074 A 
ATOM     35  C   UNL     1       3.748   1.374 -10.816  1.00  0.00     0.029 A 
ATOM     36  N   UNL     1       3.447   0.147  -8.990  1.00  0.00    -0.354 N 
ATOM     37  N   UNL     1       3.960  -1.996  -7.168  1.00  0.00    -0.248 NA
ATOM     38  C   UNL     1       5.003  -4.010  -6.631  1.00  0.00     0.031 C 
ATOM     39  C   UNL     1       4.574   0.249 -10.907  1.00  0.00     0.029 A 
ATOM     40  C   UNL     1       4.411  -0.496  -9.752  1.00  0.00     0.049 A 
ATOM     41  H   UNL     1       3.119  -0.163  -8.115  1.00  0.00     0.167 HD
ATOM     42  C   UNL     1       4.832  -2.356  -8.195  1.00  0.00     0.074 A 
ATOM     43  C   UNL     1       5.476  -3.585  -7.795  1.00  0.00     0.031 C 
ATOM     44  C   UNL     1       5.073  -1.715  -9.366  1.00  0.00     0.031 A 
BRANCH  31  45
ATOM     45  C   UNL     1       1.612   3.339 -10.042  1.00  0.00    -0.014 A 
ATOM     46  C   UNL     1       1.922   4.661  -9.684  1.00  0.00     0.009 A 
ATOM     47  C   UNL     1       0.949   3.100 -11.256  1.00  0.00     0.009 A 
ATOM     48  C   UNL     1       1.533   5.723 -10.503  1.00  0.00     0.001 A 
ATOM     49  C   UNL     1       0.593   4.161 -12.089  1.00  0.00     0.001 A 
ATOM     50  C   UNL     1       0.873   5.472 -11.706  1.00  0.00     0.000 A 
ENDBRANCH  31  45
BRANCH  32  51
ATOM     51  C   UNL     1       3.737  -4.207  -4.029  1.00  0.00    -0.014 A 
ATOM     52  C   UNL     1       5.033  -4.365  -3.504  1.00  0.00     0.009 A 
ATOM     53  C   UNL     1       2.802  -5.230  -3.804  1.00  0.00     0.009 A 
ATOM     54  C   UNL     1       5.388  -5.524  -2.802  1.00  0.00     0.001 A 
ATOM     55  C   UNL     1       3.148  -6.372  -3.073  1.00  0.00     0.001 A 
ATOM     56  C   UNL     1       4.443  -6.524  -2.581  1.00  0.00     0.000 A 
ENDBRANCH  32  51
BRANCH  44  57
ATOM     57  C   UNL     1       6.116  -2.283 -10.296  1.00  0.00    -0.014 A 
ATOM     58  C   UNL     1       5.905  -3.475 -11.007  1.00  0.00     0.009 A 
ATOM     59  C   UNL     1       7.309  -1.573 -10.516  1.00  0.00     0.009 A 
ATOM     60  C   UNL     1       6.876  -3.957 -11.892  1.00  0.00     0.001 A 
ATOM     61  C   UNL     1       8.264  -2.040 -11.423  1.00  0.00     0.001 A 
ATOM     62  C   UNL     1       8.051  -3.236 -12.103  1.00  0.00     0.000 A 
ENDBRANCH  44  57
ENDBRANCH  18  19
ENDBRANCH  11  13
ENDBRANCH  10  11
ENDBRANCH   9  10
ENDBRANCH   8   9
ENDBRANCH   7   8
ENDBRANCH   5   7
ENDBRANCH   1   5
BRANCH   1  63
ATOM     63  N   UNL     1      -0.644   3.725   1.631  1.00  0.00    -0.341 N 
ATOM     64  C   UNL     1      -1.477   4.457   0.856  1.00  0.00     0.242 C 
ATOM     65  H   UNL     1       0.254   4.123   1.697  1.00  0.00     0.164 HD
ATOM     66  O   UNL     1      -1.115   5.531   0.389  1.00  0.00    -0.273 OA
BRANCH  64  67
ATOM     67  C   UNL     1      -2.867   3.944   0.748  1.00  0.00     0.168 C 
ATOM     68  C   UNL     1      -3.433   4.568   2.114  1.00  0.00     0.041 C 
BRANCH  67  69
ATOM     69  N   UNL     1      -2.514   2.354   0.294  1.00  0.00    -0.343 N 
ATOM     70  C   UNL     1      -2.791   1.072  -0.171  1.00  0.00     0.240 C 
ATOM     71  H   UNL     1      -1.543   2.309   0.449  1.00  0.00     0.164 HD
ATOM     72  O   UNL     1      -1.716   0.438  -0.280  1.00  0.00    -0.273 OA
BRANCH  70  73
ATOM     73  C   UNL     1      -4.128   0.242  -0.792  1.00  0.00     0.219 C 
BRANCH  73  74
ATOM     74  N   UNL     1      -5.507  -0.017  -0.302  1.00  0.00    -0.312 N 
ATOM     75  C   UNL     1      -6.763   0.474  -0.626  1.00  0.00     0.407 C 
ATOM     76  H   UNL     1      -5.535  -0.690   0.416  1.00  0.00     0.167 HD
ATOM     77  O   UNL     1      -7.711   0.107   0.039  1.00  0.00    -0.225 OA
BRANCH  75  78
ATOM     78  O   UNL     1      -6.806   1.448  -1.580  1.00  0.00    -0.445 OA
BRANCH  78  79
ATOM     79  C   UNL     1      -7.737   2.571  -1.437  1.00  0.00     0.270 C 
BRANCH  79  80
ATOM     80  C   UNL     1      -9.204   2.333  -1.174  1.00  0.00    -0.011 A 
ATOM     81  C   UNL     1     -10.083   2.146  -2.245  1.00  0.00     0.007 A 
ATOM     82  C   UNL     1      -9.726   2.353   0.133  1.00  0.00     0.007 A 
ATOM     83  C   UNL     1     -11.443   1.929  -2.016  1.00  0.00     0.000 A 
ATOM     84  C   UNL     1     -11.085   2.125   0.361  1.00  0.00     0.000 A 
ATOM     85  C   UNL     1     -11.941   1.901  -0.714  1.00  0.00     0.000 A 
ENDBRANCH  79  80
ENDBRANCH  78  79
ENDBRANCH  75  78
ENDBRANCH  73  74
ENDBRANCH  70  73
ENDBRANCH  67  69
ENDBRANCH  64  67
ENDBRANCH   1  63
TORSDOF 20
