REMARK SMILES CC(C)(Br)[C@H](Br)C(=O)OCCOC(=O)c1ccc(-c2c3nc(c(-c4ccccc4)c4ccc([nH]4)c(-c4ccccc4)c4nc(c(-c5ccccc5)c5ccc2[nH]5)C=C4)C=C3)cc1
REMARK SMILES IDX 11 1 10 2 9 3 7 4 8 5 5 6 6 7 2 8 1 9 3 10 4 11 12 12 13 13
REMARK SMILES IDX 14 14 15 15 16 16 62 17 17 18 61 19 18 20 19 21 20 22 55 23
REMARK SMILES IDX 21 24 60 25 54 26 56 27 22 28 59 29 53 30 52 31 23 33 45 34
REMARK SMILES IDX 30 35 44 36 31 37 34 38 43 39 57 40 32 41 33 42 42 44 58 45
REMARK SMILES IDX 35 46 24 47 25 48 29 49 26 50 28 51 27 52 46 53 47 54 51 55
REMARK SMILES IDX 48 56 50 57 49 58 36 59 37 60 41 61 38 62 40 63 39 64
REMARK H PARENT 56 32 34 43
REMARK Flexibility Score: inf
ROOT
ATOM      1  C   UNL     1       5.043  -1.836   0.163  1.00  0.00     0.275 C 
ENDROOT
BRANCH   1   2
ATOM      2  C   UNL     1       4.560  -1.060  -1.070  1.00  0.00     0.274 C 
BRANCH   2   3
ATOM      3  O   UNL     1       3.126  -0.893  -1.096  1.00  0.00    -0.461 OA
BRANCH   3   4
ATOM      4  C   UNL     1       2.438  -1.872  -1.738  1.00  0.00     0.321 C 
ATOM      5  O   UNL     1       2.972  -2.821  -2.307  1.00  0.00    -0.251 OA
BRANCH   4   6
ATOM      6  C   UNL     1       0.927  -1.731  -1.695  1.00  0.00     0.183 C 
ATOM      7  Br  UNL     1       0.370  -1.172   0.106  1.00  0.00    -0.075 Br
BRANCH   6   8
ATOM      8  C   UNL     1       0.211  -0.953  -2.812  1.00  0.00     0.043 C 
ATOM      9  C   UNL     1       0.076   0.559  -2.599  1.00  0.00     0.025 C 
ATOM     10  C   UNL     1      -1.178  -1.572  -3.062  1.00  0.00     0.025 C 
ATOM     11  Br  UNL     1       1.182  -1.173  -4.542  1.00  0.00    -0.084 Br
ENDBRANCH   6   8
ENDBRANCH   4   6
ENDBRANCH   3   4
ENDBRANCH   2   3
ENDBRANCH   1   2
BRANCH   1  12
ATOM     12  O   UNL     1       4.619  -3.213   0.133  1.00  0.00    -0.458 OA
BRANCH  12  13
ATOM     13  C   UNL     1       3.596  -3.525   0.963  1.00  0.00     0.338 C 
ATOM     14  O   UNL     1       3.030  -2.789   1.751  1.00  0.00    -0.246 OA
BRANCH  13  15
ATOM     15  C   UNL     1       3.146  -4.903   0.708  1.00  0.00     0.060 A 
ATOM     16  C   UNL     1       1.905  -5.085   0.094  1.00  0.00     0.016 A 
ATOM     17  C   UNL     1       3.874  -6.000   1.167  1.00  0.00     0.016 A 
ATOM     18  C   UNL     1       1.383  -6.365  -0.073  1.00  0.00     0.010 A 
ATOM     19  C   UNL     1       3.347  -7.288   1.006  1.00  0.00     0.010 A 
ATOM     20  C   UNL     1       2.094  -7.476   0.395  1.00  0.00    -0.014 A 
BRANCH  20  21
ATOM     21  C   UNL     1       1.487  -8.824   0.299  1.00  0.00     0.031 A 
ATOM     22  C   UNL     1       0.876  -9.457   1.516  1.00  0.00     0.074 A 
ATOM     23  C   UNL     1       1.448  -9.463  -0.883  1.00  0.00     0.049 A 
ATOM     24  N   UNL     1       0.350 -10.648   1.652  1.00  0.00    -0.248 NA
ATOM     25  C   UNL     1       0.850  -8.641   2.740  1.00  0.00     0.031 C 
ATOM     26  C   UNL     1       1.949  -8.930  -2.150  1.00  0.00     0.029 A 
ATOM     27  N   UNL     1       0.959 -10.703  -1.209  1.00  0.00    -0.354 N 
ATOM     28  C   UNL     1      -0.052 -10.733   2.979  1.00  0.00     0.074 A 
ATOM     29  C   UNL     1       0.299  -9.477   3.609  1.00  0.00     0.031 C 
ATOM     30  C   UNL     1       1.740  -9.839  -3.118  1.00  0.00     0.029 A 
ATOM     31  C   UNL     1       1.132 -11.030  -2.531  1.00  0.00     0.049 A 
ATOM     32  H   UNL     1       0.527 -11.301  -0.557  1.00  0.00     0.167 HD
ATOM     33  C   UNL     1      -0.657 -11.764   3.615  1.00  0.00     0.031 A 
ATOM     34  C   UNL     1       0.856 -12.171  -3.189  1.00  0.00     0.031 A 
ATOM     35  C   UNL     1      -1.005 -13.014   2.993  1.00  0.00     0.049 A 
ATOM     36  C   UNL     1       0.255 -13.329  -2.443  1.00  0.00     0.074 A 
ATOM     37  C   UNL     1      -1.620 -14.118   3.558  1.00  0.00     0.029 A 
ATOM     38  N   UNL     1      -0.765 -13.325   1.664  1.00  0.00    -0.354 N 
ATOM     39  N   UNL     1      -0.106 -13.402  -1.185  1.00  0.00    -0.248 NA
ATOM     40  C   UNL     1       0.030 -14.564  -3.208  1.00  0.00     0.031 C 
ATOM     41  C   UNL     1      -1.716 -15.113   2.579  1.00  0.00     0.029 A 
ATOM     42  C   UNL     1      -1.200 -14.612   1.395  1.00  0.00     0.049 A 
ATOM     43  H   UNL     1      -0.348 -12.721   1.008  1.00  0.00     0.167 HD
ATOM     44  C   UNL     1      -0.611 -14.684  -1.011  1.00  0.00     0.074 A 
ATOM     45  C   UNL     1      -0.527 -15.348  -2.296  1.00  0.00     0.031 C 
ATOM     46  C   UNL     1      -1.101 -15.259   0.114  1.00  0.00     0.031 A 
BRANCH  33  47
ATOM     47  C   UNL     1      -0.942 -11.595   5.079  1.00  0.00    -0.014 A 
ATOM     48  C   UNL     1      -1.998 -10.788   5.528  1.00  0.00     0.009 A 
ATOM     49  C   UNL     1      -0.154 -12.274   6.022  1.00  0.00     0.009 A 
ATOM     50  C   UNL     1      -2.242 -10.642   6.896  1.00  0.00     0.001 A 
ATOM     51  C   UNL     1      -0.413 -12.143   7.387  1.00  0.00     0.001 A 
ATOM     52  C   UNL     1      -1.452 -11.322   7.823  1.00  0.00     0.000 A 
ENDBRANCH  33  47
BRANCH  34  53
ATOM     53  C   UNL     1       1.183 -12.290  -4.633  1.00  0.00    -0.014 A 
ATOM     54  C   UNL     1       0.164 -12.315  -5.597  1.00  0.00     0.009 A 
ATOM     55  C   UNL     1       2.519 -12.386  -5.051  1.00  0.00     0.009 A 
ATOM     56  C   UNL     1       0.478 -12.450  -6.951  1.00  0.00     0.001 A 
ATOM     57  C   UNL     1       2.830 -12.497  -6.407  1.00  0.00     0.001 A 
ATOM     58  C   UNL     1       1.810 -12.536  -7.355  1.00  0.00     0.000 A 
ENDBRANCH  34  53
BRANCH  46  59
ATOM     59  C   UNL     1      -1.600 -16.670  -0.003  1.00  0.00    -0.014 A 
ATOM     60  C   UNL     1      -0.707 -17.749  -0.084  1.00  0.00     0.009 A 
ATOM     61  C   UNL     1      -2.981 -16.924   0.000  1.00  0.00     0.009 A 
ATOM     62  C   UNL     1      -1.189 -19.056  -0.187  1.00  0.00     0.001 A 
ATOM     63  C   UNL     1      -3.458 -18.233  -0.081  1.00  0.00     0.001 A 
ATOM     64  C   UNL     1      -2.563 -19.296  -0.182  1.00  0.00     0.000 A 
ENDBRANCH  46  59
ENDBRANCH  20  21
ENDBRANCH  13  15
ENDBRANCH  12  13
ENDBRANCH   1  12
TORSDOF 12
