REMARK SMILES CC(C)C[C@H](NC(=O)CNC(=O)[C@@H]([NH3+])C(C)C)C(=O)OCCOC(=O)c1ccc(-c2c3nc(c(-c4ccccc4)c4ccc([nH]4)c(-c4ccccc4)c4nc(c(-c5ccccc5)c5ccc2[nH]5)C=C4)C=C3)cc1
REMARK SMILES IDX 20 1 18 2 19 3 5 4 4 5 2 6 1 7 3 8 6 9 7 10 8 12 9 13 10 14
REMARK SMILES IDX 11 15 12 17 13 18 14 19 15 23 16 24 17 25 21 26 22 27 23 28
REMARK SMILES IDX 24 29 25 30 26 31 27 32 73 33 28 34 72 35 29 36 30 37 31 38
REMARK SMILES IDX 66 39 32 40 71 41 65 42 67 43 33 44 70 45 64 46 63 47 34 49
REMARK SMILES IDX 56 50 41 51 55 52 42 53 45 54 54 55 68 56 43 57 44 58 53 60
REMARK SMILES IDX 69 61 46 62 35 63 36 64 40 65 37 66 39 67 38 68 57 69 58 70
REMARK SMILES IDX 62 71 59 72 61 73 60 74 47 75 48 76 52 77 49 78 51 79 50 80
REMARK H PARENT 6 11 10 16 14 20 14 21 14 22 67 48 45 59
REMARK Flexibility Score: inf
ROOT
ATOM      1  O   UNL     1      -3.579  -1.414   0.041  1.00  0.00    -0.461 OA
ENDROOT
BRANCH   1   2
ATOM      2  C   UNL     1      -2.592  -1.544  -0.904  1.00  0.00     0.328 C 
ATOM      3  O   UNL     1      -2.796  -1.418  -2.102  1.00  0.00    -0.250 OA
BRANCH   2   4
ATOM      4  C   UNL     1      -1.169  -1.857  -0.234  1.00  0.00     0.192 C 
BRANCH   4   5
ATOM      5  C   UNL     1      -0.205  -3.084  -0.520  1.00  0.00     0.040 C 
BRANCH   5   6
ATOM      6  C   UNL     1       0.094  -4.362   0.435  1.00  0.00    -0.015 C 
ATOM      7  C   UNL     1      -0.722  -5.695   0.426  1.00  0.00     0.007 C 
ATOM      8  C   UNL     1       1.536  -4.856   0.157  1.00  0.00     0.007 C 
ENDBRANCH   5   6
ENDBRANCH   4   5
BRANCH   4   9
ATOM      9  N   UNL     1      -1.294  -1.709   1.177  1.00  0.00    -0.341 N 
ATOM     10  C   UNL     1      -2.020  -2.590   1.907  1.00  0.00     0.240 C 
ATOM     11  H   UNL     1      -0.846  -0.958   1.629  1.00  0.00     0.164 HD
ATOM     12  O   UNL     1      -2.018  -2.474   3.134  1.00  0.00    -0.273 OA
BRANCH  10  13
ATOM     13  C   UNL     1      -2.819  -3.742   1.183  1.00  0.00     0.216 C 
BRANCH  13  14
ATOM     14  N   UNL     1      -3.209  -4.109  -0.289  1.00  0.00    -0.342 N 
ATOM     15  C   UNL     1      -3.117  -4.484  -1.585  1.00  0.00     0.278 C 
ATOM     16  H   UNL     1      -4.183  -3.976  -0.232  1.00  0.00     0.164 HD
ATOM     17  O   UNL     1      -4.301  -4.661  -1.975  1.00  0.00    -0.268 OA
BRANCH  15  18
ATOM     18  C   UNL     1      -2.022  -4.637  -2.802  1.00  0.00     0.273 C 
BRANCH  18  19
ATOM     19  N   UNL     1      -1.807  -3.357  -3.511  1.00  0.00    -0.347 N 
ATOM     20  H   UNL     1      -1.230  -2.743  -2.937  1.00  0.00     0.345 HD
ATOM     21  H   UNL     1      -2.707  -2.911  -3.687  1.00  0.00     0.345 HD
ATOM     22  H   UNL     1      -1.336  -3.535  -4.398  1.00  0.00     0.345 HD
ENDBRANCH  18  19
BRANCH  18  23
ATOM     23  C   UNL     1      -0.746  -5.541  -2.842  1.00  0.00     0.051 C 
ATOM     24  C   UNL     1      -1.131  -7.022  -2.947  1.00  0.00     0.014 C 
ATOM     25  C   UNL     1       0.275  -5.242  -3.964  1.00  0.00     0.014 C 
ENDBRANCH  18  23
ENDBRANCH  15  18
ENDBRANCH  13  14
ENDBRANCH  10  13
ENDBRANCH   4   9
ENDBRANCH   2   4
ENDBRANCH   1   2
BRANCH   1  26
ATOM     26  C   UNL     1      -4.989  -1.444  -0.291  1.00  0.00     0.274 C 
BRANCH  26  27
ATOM     27  C   UNL     1      -5.739  -0.388   0.525  1.00  0.00     0.275 C 
BRANCH  27  28
ATOM     28  O   UNL     1      -5.421   0.905   0.011  1.00  0.00    -0.458 OA
BRANCH  28  29
ATOM     29  C   UNL     1      -4.222   1.379   0.411  1.00  0.00     0.338 C 
ATOM     30  O   UNL     1      -3.503   0.996   1.321  1.00  0.00    -0.246 OA
BRANCH  29  31
ATOM     31  C   UNL     1      -3.801   2.327  -0.610  1.00  0.00     0.060 A 
ATOM     32  C   UNL     1      -2.676   2.024  -1.385  1.00  0.00     0.016 A 
ATOM     33  C   UNL     1      -4.531   3.497  -0.791  1.00  0.00     0.016 A 
ATOM     34  C   UNL     1      -2.241   2.929  -2.340  1.00  0.00     0.010 A 
ATOM     35  C   UNL     1      -4.099   4.399  -1.746  1.00  0.00     0.010 A 
ATOM     36  C   UNL     1      -2.938   4.128  -2.496  1.00  0.00    -0.014 A 
BRANCH  36  37
ATOM     37  C   UNL     1      -2.412   5.207  -3.342  1.00  0.00     0.031 A 
ATOM     38  C   UNL     1      -1.849   6.411  -2.660  1.00  0.00     0.074 A 
ATOM     39  C   UNL     1      -2.559   5.141  -4.672  1.00  0.00     0.049 A 
ATOM     40  N   UNL     1      -1.608   7.598  -3.144  1.00  0.00    -0.248 NA
ATOM     41  C   UNL     1      -1.554   6.263  -1.224  1.00  0.00     0.031 C 
ATOM     42  C   UNL     1      -3.055   3.983  -5.415  1.00  0.00     0.029 A 
ATOM     43  N   UNL     1      -2.351   6.100  -5.625  1.00  0.00    -0.354 N 
ATOM     44  C   UNL     1      -1.182   8.355  -2.062  1.00  0.00     0.074 A 
ATOM     45  C   UNL     1      -1.212   7.499  -0.897  1.00  0.00     0.031 C 
ATOM     46  C   UNL     1      -3.151   4.314  -6.713  1.00  0.00     0.029 A 
ATOM     47  C   UNL     1      -2.786   5.718  -6.869  1.00  0.00     0.049 A 
ATOM     48  H   UNL     1      -1.934   6.972  -5.438  1.00  0.00     0.167 HD
ATOM     49  C   UNL     1      -0.816   9.657  -2.051  1.00  0.00     0.031 A 
ATOM     50  C   UNL     1      -2.930   6.448  -7.989  1.00  0.00     0.031 A 
ATOM     51  C   UNL     1      -0.823  10.482  -3.228  1.00  0.00     0.049 A 
ATOM     52  C   UNL     1      -2.573   7.907  -7.948  1.00  0.00     0.074 A 
ATOM     53  C   UNL     1      -0.448  11.806  -3.359  1.00  0.00     0.029 A 
ATOM     54  N   UNL     1      -1.240  10.054  -4.482  1.00  0.00    -0.354 N 
ATOM     55  N   UNL     1      -2.157   8.626  -6.931  1.00  0.00    -0.248 NA
ATOM     56  C   UNL     1      -2.700   8.652  -9.205  1.00  0.00     0.031 C 
ATOM     57  C   UNL     1      -0.701  12.196  -4.678  1.00  0.00     0.029 A 
ATOM     58  C   UNL     1      -1.158  11.095  -5.388  1.00  0.00     0.049 A 
ATOM     59  H   UNL     1      -1.549   9.144  -4.695  1.00  0.00     0.167 HD
ATOM     60  C   UNL     1      -1.937   9.902  -7.433  1.00  0.00     0.074 A 
ATOM     61  C   UNL     1      -2.266   9.854  -8.845  1.00  0.00     0.031 C 
ATOM     62  C   UNL     1      -1.492  11.010  -6.790  1.00  0.00     0.031 A 
BRANCH  49  63
ATOM     63  C   UNL     1      -0.455  10.259  -0.722  1.00  0.00    -0.014 A 
ATOM     64  C   UNL     1       0.682   9.847  -0.007  1.00  0.00     0.009 A 
ATOM     65  C   UNL     1      -1.284  11.243  -0.161  1.00  0.00     0.009 A 
ATOM     66  C   UNL     1       0.948  10.366   1.263  1.00  0.00     0.001 A 
ATOM     67  C   UNL     1      -0.997  11.787   1.092  1.00  0.00     0.001 A 
ATOM     68  C   UNL     1       0.110  11.337   1.809  1.00  0.00     0.000 A 
ENDBRANCH  49  63
BRANCH  50  69
ATOM     69  C   UNL     1      -3.454   5.800  -9.217  1.00  0.00    -0.014 A 
ATOM     70  C   UNL     1      -2.601   5.538 -10.298  1.00  0.00     0.009 A 
ATOM     71  C   UNL     1      -4.794   5.385  -9.292  1.00  0.00     0.009 A 
ATOM     72  C   UNL     1      -3.081   4.883 -11.434  1.00  0.00     0.001 A 
ATOM     73  C   UNL     1      -5.263   4.704 -10.417  1.00  0.00     0.001 A 
ATOM     74  C   UNL     1      -4.408   4.459 -11.489  1.00  0.00     0.000 A 
ENDBRANCH  50  69
BRANCH  62  75
ATOM     75  C   UNL     1      -1.276  12.246  -7.618  1.00  0.00    -0.014 A 
ATOM     76  C   UNL     1      -2.351  13.002  -8.107  1.00  0.00     0.009 A 
ATOM     77  C   UNL     1       0.035  12.695  -7.845  1.00  0.00     0.009 A 
ATOM     78  C   UNL     1      -2.114  14.173  -8.829  1.00  0.00     0.001 A 
ATOM     79  C   UNL     1       0.268  13.882  -8.538  1.00  0.00     0.001 A 
ATOM     80  C   UNL     1      -0.807  14.616  -9.036  1.00  0.00     0.000 A 
ENDBRANCH  62  75
ENDBRANCH  36  37
ENDBRANCH  29  31
ENDBRANCH  28  29
ENDBRANCH  27  28
ENDBRANCH  26  27
ENDBRANCH   1  26
TORSDOF 19
