REMARK SMILES O=C(OCCOC(=O)c1cn(C[C@@H]2CCS(=O)(=O)C2)c(=O)[nH]c1=O)c1ccc(-c2c3nc(c(-c4ccccc4)c4ccc([nH]4)c(-c4ccccc4)c4nc(c(-c5ccccc5)c5ccc2[nH]5)C=C4)C=C3)cc1
REMARK SMILES IDX 4 1 3 2 2 3 1 4 25 5 26 6 72 7 27 8 71 9 28 10 29 11 30 12
REMARK SMILES IDX 65 13 31 14 70 15 64 16 66 17 32 18 69 19 63 20 62 21 33 23
REMARK SMILES IDX 55 24 40 25 54 26 41 27 44 28 53 29 67 30 42 31 43 32 52 34
REMARK SMILES IDX 68 35 45 36 34 37 35 38 39 39 36 40 38 41 37 42 56 43 57 44
REMARK SMILES IDX 61 45 58 46 60 47 59 48 46 49 47 50 51 51 48 52 50 53 49 54
REMARK SMILES IDX 5 55 6 56 7 57 8 58 9 59 10 60 23 61 11 62 22 63 24 64 20 65
REMARK SMILES IDX 21 67 12 68 13 69 14 70 19 71 15 72 16 73 17 74 18 75
REMARK H PARENT 66 22 44 33 22 66
REMARK Flexibility Score: inf
ROOT
ATOM      1  C   UNL     1       4.080   0.725   1.327  1.00  0.00     0.275 C 
ENDROOT
BRANCH   1   2
ATOM      2  O   UNL     1       3.244   1.080   0.214  1.00  0.00    -0.458 OA
BRANCH   2   3
ATOM      3  C   UNL     1       3.453   0.775  -1.091  1.00  0.00     0.338 C 
ATOM      4  O   UNL     1       2.900   1.424  -1.975  1.00  0.00    -0.246 OA
BRANCH   3   5
ATOM      5  C   UNL     1       4.154  -0.483  -1.478  1.00  0.00     0.060 A 
ATOM      6  C   UNL     1       3.526  -1.244  -2.465  1.00  0.00     0.016 A 
ATOM      7  C   UNL     1       5.355  -0.963  -0.939  1.00  0.00     0.016 A 
ATOM      8  C   UNL     1       4.011  -2.510  -2.788  1.00  0.00     0.010 A 
ATOM      9  C   UNL     1       5.848  -2.238  -1.269  1.00  0.00     0.010 A 
ATOM     10  C   UNL     1       5.167  -3.042  -2.179  1.00  0.00    -0.014 A 
BRANCH  10  11
ATOM     11  C   UNL     1       5.725  -4.324  -2.691  1.00  0.00     0.031 A 
ATOM     12  C   UNL     1       5.803  -5.599  -1.883  1.00  0.00     0.074 A 
ATOM     13  C   UNL     1       6.044  -4.343  -3.999  1.00  0.00     0.049 A 
ATOM     14  N   UNL     1       5.849  -6.830  -2.335  1.00  0.00    -0.248 NA
ATOM     15  C   UNL     1       5.705  -5.525  -0.413  1.00  0.00     0.031 C 
ATOM     16  C   UNL     1       6.013  -3.170  -4.882  1.00  0.00     0.029 A 
ATOM     17  N   UNL     1       6.429  -5.367  -4.819  1.00  0.00    -0.354 N 
ATOM     18  C   UNL     1       5.640  -7.665  -1.241  1.00  0.00     0.074 A 
ATOM     19  C   UNL     1       5.561  -6.809  -0.077  1.00  0.00     0.031 C 
ATOM     20  C   UNL     1       6.336  -3.546  -6.121  1.00  0.00     0.029 A 
ATOM     21  C   UNL     1       6.700  -4.954  -6.099  1.00  0.00     0.049 A 
ATOM     22  H   UNL     1       6.504  -6.302  -4.522  1.00  0.00     0.167 HD
ATOM     23  C   UNL     1       5.462  -9.011  -1.256  1.00  0.00     0.031 A 
ATOM     24  C   UNL     1       7.255  -5.611  -7.132  1.00  0.00     0.031 A 
ATOM     25  C   UNL     1       5.742  -9.824  -2.414  1.00  0.00     0.049 A 
ATOM     26  C   UNL     1       7.504  -7.073  -6.978  1.00  0.00     0.074 A 
ATOM     27  C   UNL     1       5.635 -11.197  -2.548  1.00  0.00     0.029 A 
ATOM     28  N   UNL     1       6.291  -9.348  -3.596  1.00  0.00    -0.354 N 
ATOM     29  N   UNL     1       7.108  -7.859  -6.005  1.00  0.00    -0.248 NA
ATOM     30  C   UNL     1       8.266  -7.744  -8.033  1.00  0.00     0.031 C 
ATOM     31  C   UNL     1       6.247 -11.560  -3.753  1.00  0.00     0.029 A 
ATOM     32  C   UNL     1       6.661 -10.408  -4.405  1.00  0.00     0.049 A 
ATOM     33  H   UNL     1       6.401  -8.397  -3.825  1.00  0.00     0.167 HD
ATOM     34  C   UNL     1       7.562  -9.125  -6.331  1.00  0.00     0.074 A 
ATOM     35  C   UNL     1       8.258  -9.000  -7.599  1.00  0.00     0.031 C 
ATOM     36  C   UNL     1       7.401 -10.280  -5.639  1.00  0.00     0.031 A 
BRANCH  23  37
ATOM     37  C   UNL     1       4.959  -9.733  -0.027  1.00  0.00    -0.014 A 
ATOM     38  C   UNL     1       5.831 -10.463   0.791  1.00  0.00     0.009 A 
ATOM     39  C   UNL     1       3.578  -9.891   0.182  1.00  0.00     0.009 A 
ATOM     40  C   UNL     1       5.330 -11.311   1.790  1.00  0.00     0.001 A 
ATOM     41  C   UNL     1       3.077 -10.711   1.198  1.00  0.00     0.001 A 
ATOM     42  C   UNL     1       3.956 -11.428   1.999  1.00  0.00     0.000 A 
ENDBRANCH  23  37
BRANCH  24  43
ATOM     43  C   UNL     1       7.673  -4.802  -8.305  1.00  0.00    -0.014 A 
ATOM     44  C   UNL     1       8.634  -3.785  -8.119  1.00  0.00     0.009 A 
ATOM     45  C   UNL     1       6.998  -4.877  -9.527  1.00  0.00     0.009 A 
ATOM     46  C   UNL     1       8.839  -2.806  -9.089  1.00  0.00     0.001 A 
ATOM     47  C   UNL     1       7.239  -3.916 -10.516  1.00  0.00     0.001 A 
ATOM     48  C   UNL     1       8.135  -2.870 -10.287  1.00  0.00     0.000 A 
ENDBRANCH  24  43
BRANCH  36  49
ATOM     49  C   UNL     1       8.036 -11.518  -6.201  1.00  0.00    -0.014 A 
ATOM     50  C   UNL     1       7.238 -12.569  -6.677  1.00  0.00     0.009 A 
ATOM     51  C   UNL     1       9.429 -11.681  -6.165  1.00  0.00     0.009 A 
ATOM     52  C   UNL     1       7.818 -13.775  -7.070  1.00  0.00     0.001 A 
ATOM     53  C   UNL     1      10.010 -12.874  -6.595  1.00  0.00     0.001 A 
ATOM     54  C   UNL     1       9.204 -13.925  -7.032  1.00  0.00     0.000 A 
ENDBRANCH  36  49
ENDBRANCH  10  11
ENDBRANCH   3   5
ENDBRANCH   2   3
ENDBRANCH   1   2
BRANCH   1  55
ATOM     55  C   UNL     1       3.724  -0.606   2.003  1.00  0.00     0.275 C 
BRANCH  55  56
ATOM     56  O   UNL     1       3.255  -1.604   1.078  1.00  0.00    -0.458 OA
BRANCH  56  57
ATOM     57  C   UNL     1       1.913  -1.854   1.096  1.00  0.00     0.345 C 
ATOM     58  O   UNL     1       1.133  -1.465   1.948  1.00  0.00    -0.246 OA
BRANCH  57  59
ATOM     59  C   UNL     1       1.525  -2.613  -0.109  1.00  0.00     0.141 A 
ATOM     60  C   UNL     1       2.065  -3.807  -0.400  1.00  0.00     0.112 A 
ATOM     61  C   UNL     1       0.565  -2.041  -1.073  1.00  0.00     0.268 A 
ATOM     62  N   UNL     1       1.806  -4.472  -1.598  1.00  0.00    -0.299 N 
ATOM     63  N   UNL     1       0.413  -2.721  -2.250  1.00  0.00    -0.273 N 
ATOM     64  O   UNL     1       0.000  -0.970  -0.884  1.00  0.00    -0.268 OA
ATOM     65  C   UNL     1       1.042  -3.881  -2.598  1.00  0.00     0.328 A 
ATOM     66  H   UNL     1      -0.208  -2.337  -2.909  1.00  0.00     0.175 HD
ATOM     67  O   UNL     1       0.960  -4.324  -3.741  1.00  0.00    -0.248 OA
BRANCH  62  68
ATOM     68  C   UNL     1       2.510  -5.706  -1.911  1.00  0.00     0.131 C 
BRANCH  68  69
ATOM     69  C   UNL     1       1.815  -7.045  -1.653  1.00  0.00     0.025 C 
ATOM     70  C   UNL     1       0.994  -7.617  -2.812  1.00  0.00     0.022 C 
ATOM     71  C   UNL     1       0.917  -7.086  -0.423  1.00  0.00     0.142 C 
ATOM     72  C   UNL     1      -0.409  -7.037  -2.744  1.00  0.00     0.137 C 
ATOM     73  S   UNL     1      -0.727  -6.726  -1.015  1.00  0.00     0.150 S 
ATOM     74  O   UNL     1      -0.992  -5.319  -0.821  1.00  0.00    -0.229 OA
ATOM     75  O   UNL     1      -1.620  -7.752  -0.509  1.00  0.00    -0.229 OA
ENDBRANCH  68  69
ENDBRANCH  62  68
ENDBRANCH  57  59
ENDBRANCH  56  57
ENDBRANCH  55  56
ENDBRANCH   1  55
TORSDOF 13
