REMARK SMILES O=C(COc1nc(NCc2cccc(Cl)c2)nc2c1CCC2)OCCOC(=O)c1ccc(-c2c3nc(c(-c4ccccc4)c4ccc([nH]4)c(-c4ccccc4)c4nc(c(-c5ccccc5)c5ccc2[nH]5)C=C4)C=C3)cc1
REMARK SMILES IDX 23 1 2 2 1 3 3 4 4 5 5 6 6 7 19 8 7 9 18 10 20 11 17 12
REMARK SMILES IDX 22 13 21 14 8 15 9 17 10 18 11 19 16 20 12 21 14 22 13 23
REMARK SMILES IDX 15 24 24 25 25 26 26 27 27 28 28 29 29 30 30 31 76 32 31 33
REMARK SMILES IDX 75 34 32 35 33 36 34 37 69 38 35 39 74 40 68 41 70 42 36 43
REMARK SMILES IDX 73 44 67 45 66 46 37 48 59 49 44 50 58 51 45 52 48 53 57 54
REMARK SMILES IDX 71 55 46 56 47 57 56 59 72 60 49 61 38 62 39 63 43 64 40 65
REMARK SMILES IDX 42 66 41 67 60 68 61 69 65 70 62 71 64 72 63 73 50 74 51 75
REMARK SMILES IDX 55 76 52 77 54 78 53 79
REMARK H PARENT 8 16 70 47 48 58
REMARK Flexibility Score: inf
ROOT
ATOM      1  O   UNL     1       3.150  -1.086  -0.424  1.00  0.00    -0.460 OA
ENDROOT
BRANCH   1   2
ATOM      2  C   UNL     1       2.442  -0.384   0.495  1.00  0.00     0.344 C 
ATOM      3  O   UNL     1       1.220  -0.510   0.561  1.00  0.00    -0.248 OA
BRANCH   2   4
ATOM      4  C   UNL     1       3.190   0.595   1.395  1.00  0.00     0.353 C 
BRANCH   4   5
ATOM      5  O   UNL     1       4.123   0.048   2.312  1.00  0.00    -0.465 OA
BRANCH   5   6
ATOM      6  C   UNL     1       3.466  -0.211   3.485  1.00  0.00     0.222 A 
ATOM      7  N   UNL     1       2.481  -1.119   3.447  1.00  0.00    -0.177 NA
ATOM      8  C   UNL     1       3.789   0.493   4.599  1.00  0.00     0.036 A 
ATOM      9  C   UNL     1       1.773  -1.302   4.573  1.00  0.00     0.226 A 
ATOM     10  C   UNL     1       3.018   0.230   5.701  1.00  0.00     0.053 A 
ATOM     11  C   UNL     1       4.736   1.613   4.820  1.00  0.00     0.043 C 
ATOM     12  N   UNL     1       2.010  -0.651   5.727  1.00  0.00    -0.218 NA
ATOM     13  C   UNL     1       3.367   1.165   6.824  1.00  0.00     0.057 C 
ATOM     14  C   UNL     1       4.733   1.695   6.354  1.00  0.00     0.011 C 
BRANCH   9  15
ATOM     15  N   UNL     1       0.728  -2.168   4.462  1.00  0.00    -0.350 N 
ATOM     16  H   UNL     1       0.519  -2.533   3.572  1.00  0.00     0.164 HD
BRANCH  15  17
ATOM     17  C   UNL     1      -0.086  -2.578   5.567  1.00  0.00     0.152 C 
BRANCH  17  18
ATOM     18  C   UNL     1      -1.546  -2.351   5.252  1.00  0.00    -0.027 A 
ATOM     19  C   UNL     1      -2.426  -3.430   5.085  1.00  0.00     0.005 A 
ATOM     20  C   UNL     1      -2.047  -1.043   5.145  1.00  0.00     0.026 A 
ATOM     21  C   UNL     1      -3.783  -3.208   4.836  1.00  0.00     0.002 A 
ATOM     22  C   UNL     1      -3.402  -0.828   4.896  1.00  0.00     0.041 A 
ATOM     23  C   UNL     1      -4.272  -1.905   4.746  1.00  0.00     0.020 A 
ATOM     24  Cl  UNL     1      -4.006   0.780   4.786  1.00  0.00    -0.084 Cl
ENDBRANCH  17  18
ENDBRANCH  15  17
ENDBRANCH   9  15
ENDBRANCH   5   6
ENDBRANCH   4   5
ENDBRANCH   2   4
ENDBRANCH   1   2
BRANCH   1  25
ATOM     25  C   UNL     1       4.500  -0.766  -0.824  1.00  0.00     0.274 C 
BRANCH  25  26
ATOM     26  C   UNL     1       4.504   0.197  -2.016  1.00  0.00     0.275 C 
BRANCH  26  27
ATOM     27  O   UNL     1       4.112   1.516  -1.588  1.00  0.00    -0.458 OA
BRANCH  27  28
ATOM     28  C   UNL     1       2.836   1.886  -1.862  1.00  0.00     0.338 C 
ATOM     29  O   UNL     1       2.026   1.280  -2.538  1.00  0.00    -0.246 OA
BRANCH  28  30
ATOM     30  C   UNL     1       2.501   3.063  -1.026  1.00  0.00     0.060 A 
ATOM     31  C   UNL     1       1.266   3.077  -0.365  1.00  0.00     0.016 A 
ATOM     32  C   UNL     1       3.405   4.115  -0.846  1.00  0.00     0.016 A 
ATOM     33  C   UNL     1       0.929   4.150   0.464  1.00  0.00     0.010 A 
ATOM     34  C   UNL     1       3.063   5.191  -0.021  1.00  0.00     0.010 A 
ATOM     35  C   UNL     1       1.815   5.224   0.623  1.00  0.00    -0.014 A 
BRANCH  35  36
ATOM     36  C   UNL     1       1.393   6.431   1.373  1.00  0.00     0.031 A 
ATOM     37  C   UNL     1       0.815   7.596   0.621  1.00  0.00     0.074 A 
ATOM     38  C   UNL     1       1.511   6.494   2.712  1.00  0.00     0.049 A 
ATOM     39  N   UNL     1       0.322   8.716   1.085  1.00  0.00    -0.248 NA
ATOM     40  C   UNL     1       0.790   7.484  -0.846  1.00  0.00     0.031 C 
ATOM     41  C   UNL     1       2.043   5.435   3.567  1.00  0.00     0.029 A 
ATOM     42  N   UNL     1       1.182   7.502   3.585  1.00  0.00    -0.354 N 
ATOM     43  C   UNL     1      -0.093   9.432  -0.030  1.00  0.00     0.074 A 
ATOM     44  C   UNL     1       0.252   8.643  -1.194  1.00  0.00     0.031 C 
ATOM     45  C   UNL     1       1.998   5.847   4.846  1.00  0.00     0.029 A 
ATOM     46  C   UNL     1       1.444   7.201   4.897  1.00  0.00     0.049 A 
ATOM     47  H   UNL     1       0.794   8.360   3.296  1.00  0.00     0.167 HD
ATOM     48  C   UNL     1      -0.721  10.629  -0.084  1.00  0.00     0.031 A 
ATOM     49  C   UNL     1       1.255   7.928   6.016  1.00  0.00     0.031 A 
ATOM     50  C   UNL     1      -1.044  11.433   1.062  1.00  0.00     0.049 A 
ATOM     51  C   UNL     1       0.632   9.296   5.929  1.00  0.00     0.074 A 
ATOM     52  C   UNL     1      -1.711  12.645   1.102  1.00  0.00     0.029 A 
ATOM     53  N   UNL     1      -0.708  11.115   2.368  1.00  0.00    -0.354 N 
ATOM     54  N   UNL     1       0.184   9.931   4.874  1.00  0.00    -0.248 NA
ATOM     55  C   UNL     1       0.479  10.041   7.188  1.00  0.00     0.031 C 
ATOM     56  C   UNL     1      -1.729  13.088   2.428  1.00  0.00     0.029 A 
ATOM     57  C   UNL     1      -1.119  12.127   3.218  1.00  0.00     0.049 A 
ATOM     58  H   UNL     1      -0.245  10.293   2.649  1.00  0.00     0.167 HD
ATOM     59  C   UNL     1      -0.329  11.134   5.344  1.00  0.00     0.074 A 
ATOM     60  C   UNL     1      -0.136  11.144   6.778  1.00  0.00     0.031 C 
ATOM     61  C   UNL     1      -0.919  12.134   4.644  1.00  0.00     0.031 A 
BRANCH  48  62
ATOM     62  C   UNL     1      -1.093  11.148  -1.442  1.00  0.00    -0.014 A 
ATOM     63  C   UNL     1      -2.154  10.580  -2.164  1.00  0.00     0.009 A 
ATOM     64  C   UNL     1      -0.399  12.237  -1.990  1.00  0.00     0.009 A 
ATOM     65  C   UNL     1      -2.493  11.074  -3.425  1.00  0.00     0.001 A 
ATOM     66  C   UNL     1      -0.756  12.744  -3.240  1.00  0.00     0.001 A 
ATOM     67  C   UNL     1      -1.796  12.157  -3.960  1.00  0.00     0.000 A 
ENDBRANCH  48  62
BRANCH  49  68
ATOM     68  C   UNL     1       1.639   7.356   7.330  1.00  0.00    -0.014 A 
ATOM     69  C   UNL     1       0.657   6.882   8.212  1.00  0.00     0.009 A 
ATOM     70  C   UNL     1       2.991   7.257   7.697  1.00  0.00     0.009 A 
ATOM     71  C   UNL     1       1.021   6.325   9.440  1.00  0.00     0.001 A 
ATOM     72  C   UNL     1       3.352   6.683   8.918  1.00  0.00     0.001 A 
ATOM     73  C   UNL     1       2.367   6.221   9.790  1.00  0.00     0.000 A 
ENDBRANCH  49  68
BRANCH  61  74
ATOM     74  C   UNL     1      -1.420  13.330   5.403  1.00  0.00    -0.014 A 
ATOM     75  C   UNL     1      -0.537  14.318   5.861  1.00  0.00     0.009 A 
ATOM     76  C   UNL     1      -2.802  13.523   5.562  1.00  0.00     0.009 A 
ATOM     77  C   UNL     1      -1.029  15.476   6.469  1.00  0.00     0.001 A 
ATOM     78  C   UNL     1      -3.291  14.690   6.151  1.00  0.00     0.001 A 
ATOM     79  C   UNL     1      -2.405  15.665   6.605  1.00  0.00     0.000 A 
ENDBRANCH  61  74
ENDBRANCH  35  36
ENDBRANCH  28  30
ENDBRANCH  27  28
ENDBRANCH  26  27
ENDBRANCH  25  26
ENDBRANCH   1  25
TORSDOF 16
