REMARK SMILES COc1ccc2cc([C@@H](C)C(=O)OCCOC(=O)c3ccc(-c4c5nc(c(-c6ccccc6)c6ccc([nH]6)c(-c6ccccc6)c6nc(c(-c7ccccc7)c7ccc4[nH]7)C=C6)C=C5)cc3)ccc2c1
REMARK SMILES IDX 14 1 13 2 11 3 12 4 9 5 10 6 8 7 3 8 4 9 70 10 5 11 69 12
REMARK SMILES IDX 6 13 68 14 7 15 67 16 2 17 1 18 15 19 16 20 17 21 18 22
REMARK SMILES IDX 19 23 20 24 66 25 21 26 65 27 22 28 23 29 24 30 59 31 25 32
REMARK SMILES IDX 64 33 58 34 60 35 26 36 63 37 57 38 56 39 27 41 49 42 34 43
REMARK SMILES IDX 48 44 35 45 38 46 47 47 61 48 36 49 37 50 46 52 62 53 39 54
REMARK SMILES IDX 28 55 29 56 33 57 30 58 32 59 31 60 50 61 51 62 55 63 52 64
REMARK SMILES IDX 54 65 53 66 40 67 41 68 45 69 42 70 44 71 43 72
REMARK H PARENT 60 40 38 51
REMARK Flexibility Score: inf
ROOT
ATOM      1  C   UNL     1       4.048   5.638   7.498  1.00  0.00     0.274 C 
ENDROOT
BRANCH   1   2
ATOM      2  O   UNL     1       3.178   4.502   7.328  1.00  0.00    -0.462 OA
BRANCH   2   3
ATOM      3  C   UNL     1       2.336   4.214   8.353  1.00  0.00     0.313 C 
ATOM      4  O   UNL     1       2.317   4.817   9.423  1.00  0.00    -0.252 OA
BRANCH   3   5
ATOM      5  C   UNL     1       1.427   3.020   8.087  1.00  0.00     0.126 C 
ATOM      6  C   UNL     1       2.004   1.770   8.749  1.00  0.00     0.025 C 
BRANCH   5   7
ATOM      7  C   UNL     1       1.043   2.784   6.634  1.00  0.00    -0.033 A 
ATOM      8  C   UNL     1       0.823   1.511   1.719  1.00  0.00     0.119 A 
ATOM      9  C   UNL     1       2.146   1.320   2.107  1.00  0.00     0.047 A 
ATOM     10  C   UNL     1      -0.102   2.029   2.626  1.00  0.00     0.055 A 
ATOM     11  C   UNL     1       2.532   1.594   3.421  1.00  0.00     0.012 A 
ATOM     12  C   UNL     1       0.270   2.299   3.953  1.00  0.00    -0.015 A 
ATOM     13  C   UNL     1       1.601   2.067   4.359  1.00  0.00    -0.018 A 
ATOM     14  C   UNL     1      -0.654   2.785   4.887  1.00  0.00     0.009 A 
ATOM     15  C   UNL     1       1.970   2.311   5.692  1.00  0.00     0.013 A 
ATOM     16  C   UNL     1      -0.273   3.020   6.210  1.00  0.00     0.005 A 
BRANCH   8  17
ATOM     17  O   UNL     1       0.355   1.258   0.457  1.00  0.00    -0.497 OA
ATOM     18  C   UNL     1       0.834   0.033  -0.092  1.00  0.00     0.278 C 
ENDBRANCH   8  17
ENDBRANCH   5   7
ENDBRANCH   3   5
ENDBRANCH   2   3
ENDBRANCH   1   2
BRANCH   1  19
ATOM     19  C   UNL     1       3.505   6.871   6.773  1.00  0.00     0.275 C 
BRANCH  19  20
ATOM     20  O   UNL     1       2.313   7.366   7.409  1.00  0.00    -0.458 OA
BRANCH  20  21
ATOM     21  C   UNL     1       1.153   6.970   6.838  1.00  0.00     0.338 C 
ATOM     22  O   UNL     1       1.007   6.301   5.831  1.00  0.00    -0.246 OA
BRANCH  21  23
ATOM     23  C   UNL     1       0.027   7.371   7.692  1.00  0.00     0.060 A 
ATOM     24  C   UNL     1      -0.689   6.368   8.347  1.00  0.00     0.016 A 
ATOM     25  C   UNL     1      -0.377   8.704   7.774  1.00  0.00     0.016 A 
ATOM     26  C   UNL     1      -1.825   6.687   9.082  1.00  0.00     0.010 A 
ATOM     27  C   UNL     1      -1.515   9.026   8.519  1.00  0.00     0.010 A 
ATOM     28  C   UNL     1      -2.253   8.018   9.165  1.00  0.00    -0.014 A 
BRANCH  28  29
ATOM     29  C   UNL     1      -3.504   8.337   9.890  1.00  0.00     0.031 A 
ATOM     30  C   UNL     1      -4.754   8.659   9.124  1.00  0.00     0.074 A 
ATOM     31  C   UNL     1      -3.524   8.304  11.235  1.00  0.00     0.049 A 
ATOM     32  N   UNL     1      -5.932   9.007   9.575  1.00  0.00    -0.248 NA
ATOM     33  C   UNL     1      -4.668   8.575   7.657  1.00  0.00     0.031 C 
ATOM     34  C   UNL     1      -2.388   7.956  12.090  1.00  0.00     0.029 A 
ATOM     35  N   UNL     1      -4.542   8.563  12.117  1.00  0.00    -0.354 N 
ATOM     36  C   UNL     1      -6.723   9.202   8.451  1.00  0.00     0.074 A 
ATOM     37  C   UNL     1      -5.889   8.947   7.296  1.00  0.00     0.031 C 
ATOM     38  C   UNL     1      -2.776   8.015  13.375  1.00  0.00     0.029 A 
ATOM     39  C   UNL     1      -4.170   8.446  13.433  1.00  0.00     0.049 A 
ATOM     40  H   UNL     1      -5.452   8.809  11.833  1.00  0.00     0.167 HD
ATOM     41  C   UNL     1      -8.027   9.562   8.387  1.00  0.00     0.031 A 
ATOM     42  C   UNL     1      -4.868   8.681  14.559  1.00  0.00     0.031 A 
ATOM     43  C   UNL     1      -8.857   9.817   9.534  1.00  0.00     0.049 A 
ATOM     44  C   UNL     1      -6.295   9.141  14.459  1.00  0.00     0.074 A 
ATOM     45  C   UNL     1     -10.191  10.185   9.569  1.00  0.00     0.029 A 
ATOM     46  N   UNL     1      -8.431   9.730  10.849  1.00  0.00    -0.354 N 
ATOM     47  N   UNL     1      -7.028   9.329  13.389  1.00  0.00    -0.248 NA
ATOM     48  C   UNL     1      -6.988   9.423  15.724  1.00  0.00     0.031 C 
ATOM     49  C   UNL     1     -10.561  10.360  10.907  1.00  0.00     0.029 A 
ATOM     50  C   UNL     1      -9.469  10.057  11.705  1.00  0.00     0.049 A 
ATOM     51  H   UNL     1      -7.524   9.474  11.134  1.00  0.00     0.167 HD
ATOM     52  C   UNL     1      -8.272   9.737  13.851  1.00  0.00     0.074 A 
ATOM     53  C   UNL     1      -8.200   9.751  15.298  1.00  0.00     0.031 C 
ATOM     54  C   UNL     1      -9.377  10.071  13.141  1.00  0.00     0.031 A 
BRANCH  41  55
ATOM     55  C   UNL     1      -8.626   9.736   7.021  1.00  0.00    -0.014 A 
ATOM     56  C   UNL     1      -8.956   8.630   6.224  1.00  0.00     0.009 A 
ATOM     57  C   UNL     1      -8.889  11.028   6.539  1.00  0.00     0.009 A 
ATOM     58  C   UNL     1      -9.514   8.816   4.957  1.00  0.00     0.001 A 
ATOM     59  C   UNL     1      -9.467  11.209   5.282  1.00  0.00     0.001 A 
ATOM     60  C   UNL     1      -9.771  10.104   4.489  1.00  0.00     0.000 A 
ENDBRANCH  41  55
BRANCH  42  61
ATOM     61  C   UNL     1      -4.217   8.514  15.883  1.00  0.00    -0.014 A 
ATOM     62  C   UNL     1      -4.574   7.451  16.726  1.00  0.00     0.009 A 
ATOM     63  C   UNL     1      -3.239   9.425  16.312  1.00  0.00     0.009 A 
ATOM     64  C   UNL     1      -3.976   7.315  17.981  1.00  0.00     0.001 A 
ATOM     65  C   UNL     1      -2.626   9.271  17.557  1.00  0.00     0.001 A 
ATOM     66  C   UNL     1      -3.001   8.222  18.393  1.00  0.00     0.000 A 
ENDBRANCH  42  61
BRANCH  54  67
ATOM     67  C   UNL     1     -10.599  10.456  13.922  1.00  0.00    -0.014 A 
ATOM     68  C   UNL     1     -10.694  11.709  14.546  1.00  0.00     0.009 A 
ATOM     69  C   UNL     1     -11.679   9.565  14.010  1.00  0.00     0.009 A 
ATOM     70  C   UNL     1     -11.839  12.050  15.270  1.00  0.00     0.001 A 
ATOM     71  C   UNL     1     -12.830   9.917  14.714  1.00  0.00     0.001 A 
ATOM     72  C   UNL     1     -12.906  11.156  15.350  1.00  0.00     0.000 A 
ENDBRANCH  54  67
ENDBRANCH  28  29
ENDBRANCH  21  23
ENDBRANCH  20  21
ENDBRANCH  19  20
ENDBRANCH   1  19
TORSDOF 13
