REMARK SMILES C[C@H]1CCC[C@]1(C(=O)OCCOC(=O)c1ccc(-c2c3nc(c(-c4ccccc4)c4ccc([nH]4)c(-c4ccccc4)c4nc(c(-c5ccccc5)c5ccc2[nH]5)C=C4)C=C3)cc1)c1ccc2c(c1)OCO2
REMARK SMILES IDX 11 1 10 2 9 3 7 4 8 5 6 6 1 7 2 8 3 9 4 10 5 11 63 12 64 13
REMARK SMILES IDX 68 14 65 15 67 16 66 17 69 18 71 19 70 20 12 21 13 22 14 23
REMARK SMILES IDX 15 24 16 25 62 26 17 27 61 28 18 29 19 30 20 31 55 32 21 33
REMARK SMILES IDX 60 34 54 35 56 36 22 37 59 38 53 39 52 40 23 42 45 43 30 44
REMARK SMILES IDX 44 45 31 46 34 47 43 48 57 49 32 50 33 51 42 53 58 54 35 55
REMARK SMILES IDX 24 56 25 57 29 58 26 59 28 60 27 61 46 62 47 63 51 64 48 65
REMARK SMILES IDX 50 66 49 67 36 68 37 69 41 70 38 71 40 72 39 73
REMARK H PARENT 56 41 34 52
REMARK Flexibility Score: inf
ROOT
ATOM      1  C   UNL     1      -0.604   1.072   4.822  1.00  0.00     0.275 C 
ENDROOT
BRANCH   1   2
ATOM      2  C   UNL     1      -1.666   0.686   3.796  1.00  0.00     0.274 C 
BRANCH   2   3
ATOM      3  O   UNL     1      -1.044   0.404   2.524  1.00  0.00    -0.461 OA
BRANCH   3   4
ATOM      4  C   UNL     1      -1.176   1.324   1.526  1.00  0.00     0.316 C 
ATOM      5  O   UNL     1      -1.825   2.354   1.667  1.00  0.00    -0.251 OA
BRANCH   4   6
ATOM      6  C   UNL     1      -0.564   0.828   0.175  1.00  0.00     0.096 C 
ATOM      7  C   UNL     1       1.613  -0.058   1.395  1.00  0.00     0.009 C 
ATOM      8  C   UNL     1       0.530  -0.291   0.348  1.00  0.00     0.008 C 
ATOM      9  C   UNL     1      -0.255  -1.591   0.510  1.00  0.00     0.005 C 
ATOM     10  C   UNL     1      -1.399  -1.426  -0.480  1.00  0.00     0.002 C 
ATOM     11  C   UNL     1      -1.739   0.067  -0.514  1.00  0.00     0.024 C 
BRANCH   6  12
ATOM     12  C   UNL     1      -0.026   1.948  -0.770  1.00  0.00    -0.027 A 
ATOM     13  C   UNL     1      -0.123   3.333  -0.487  1.00  0.00     0.009 A 
ATOM     14  C   UNL     1       0.622   1.596  -1.979  1.00  0.00     0.055 A 
ATOM     15  C   UNL     1       0.474   4.312  -1.300  1.00  0.00     0.051 A 
ATOM     16  C   UNL     1       1.234   2.573  -2.742  1.00  0.00     0.166 A 
ATOM     17  C   UNL     1       1.175   3.897  -2.401  1.00  0.00     0.165 A 
ATOM     18  O   UNL     1       1.964   2.361  -3.870  1.00  0.00    -0.454 OA
ATOM     19  O   UNL     1       1.865   4.690  -3.261  1.00  0.00    -0.454 OA
ATOM     20  C   UNL     1       2.450   3.696  -4.127  1.00  0.00     0.468 C 
ENDBRANCH   6  12
ENDBRANCH   4   6
ENDBRANCH   3   4
ENDBRANCH   2   3
ENDBRANCH   1   2
BRANCH   1  21
ATOM     21  O   UNL     1      -0.006   2.309   4.406  1.00  0.00    -0.458 OA
BRANCH  21  22
ATOM     22  C   UNL     1       1.313   2.454   4.659  1.00  0.00     0.338 C 
ATOM     23  O   UNL     1       2.029   1.694   5.297  1.00  0.00    -0.246 OA
BRANCH  22  24
ATOM     24  C   UNL     1       1.792   3.704   4.031  1.00  0.00     0.060 A 
ATOM     25  C   UNL     1       1.271   4.123   2.807  1.00  0.00     0.016 A 
ATOM     26  C   UNL     1       2.820   4.433   4.629  1.00  0.00     0.016 A 
ATOM     27  C   UNL     1       1.807   5.234   2.155  1.00  0.00     0.010 A 
ATOM     28  C   UNL     1       3.305   5.591   4.007  1.00  0.00     0.010 A 
ATOM     29  C   UNL     1       2.824   5.992   2.747  1.00  0.00    -0.014 A 
BRANCH  29  30
ATOM     30  C   UNL     1       3.444   7.144   2.027  1.00  0.00     0.031 A 
ATOM     31  C   UNL     1       4.930   7.148   1.776  1.00  0.00     0.074 A 
ATOM     32  C   UNL     1       2.711   8.178   1.565  1.00  0.00     0.049 A 
ATOM     33  N   UNL     1       5.711   8.141   1.432  1.00  0.00    -0.248 NA
ATOM     34  C   UNL     1       5.629   5.865   1.949  1.00  0.00     0.031 C 
ATOM     35  C   UNL     1       1.253   8.292   1.622  1.00  0.00     0.029 A 
ATOM     36  N   UNL     1       3.106   9.337   0.937  1.00  0.00    -0.354 N 
ATOM     37  C   UNL     1       7.000   7.622   1.430  1.00  0.00     0.074 A 
ATOM     38  C   UNL     1       6.894   6.223   1.786  1.00  0.00     0.031 C 
ATOM     39  C   UNL     1       0.875   9.425   1.010  1.00  0.00     0.029 A 
ATOM     40  C   UNL     1       2.065  10.174   0.616  1.00  0.00     0.049 A 
ATOM     41  H   UNL     1       4.047   9.546   0.736  1.00  0.00     0.167 HD
ATOM     42  C   UNL     1       8.168   8.258   1.173  1.00  0.00     0.031 A 
ATOM     43  C   UNL     1       2.061  11.425   0.116  1.00  0.00     0.031 A 
ATOM     44  C   UNL     1       8.272   9.632   0.761  1.00  0.00     0.049 A 
ATOM     45  C   UNL     1       3.367  12.133  -0.117  1.00  0.00     0.074 A 
ATOM     46  C   UNL     1       9.413  10.377   0.514  1.00  0.00     0.029 A 
ATOM     47  N   UNL     1       7.191  10.457   0.501  1.00  0.00    -0.354 N 
ATOM     48  N   UNL     1       4.589  11.681   0.025  1.00  0.00    -0.248 NA
ATOM     49  C   UNL     1       3.290  13.538  -0.544  1.00  0.00     0.031 C 
ATOM     50  C   UNL     1       9.020  11.664   0.129  1.00  0.00     0.029 A 
ATOM     51  C   UNL     1       7.636  11.704   0.097  1.00  0.00     0.049 A 
ATOM     52  H   UNL     1       6.246  10.196   0.591  1.00  0.00     0.167 HD
ATOM     53  C   UNL     1       5.425  12.744  -0.295  1.00  0.00     0.074 A 
ATOM     54  C   UNL     1       4.572  13.854  -0.665  1.00  0.00     0.031 C 
ATOM     55  C   UNL     1       6.778  12.798  -0.272  1.00  0.00     0.031 A 
BRANCH  42  56
ATOM     56  C   UNL     1       9.436   7.486   1.397  1.00  0.00    -0.014 A 
ATOM     57  C   UNL     1       9.870   6.499   0.501  1.00  0.00     0.009 A 
ATOM     58  C   UNL     1      10.222   7.776   2.525  1.00  0.00     0.009 A 
ATOM     59  C   UNL     1      11.052   5.796   0.747  1.00  0.00     0.001 A 
ATOM     60  C   UNL     1      11.415   7.090   2.755  1.00  0.00     0.001 A 
ATOM     61  C   UNL     1      11.825   6.095   1.870  1.00  0.00     0.000 A 
ENDBRANCH  42  56
BRANCH  43  62
ATOM     62  C   UNL     1       0.773  12.130  -0.122  1.00  0.00    -0.014 A 
ATOM     63  C   UNL     1       0.355  12.430  -1.428  1.00  0.00     0.009 A 
ATOM     64  C   UNL     1      -0.039  12.517   0.956  1.00  0.00     0.009 A 
ATOM     65  C   UNL     1      -0.844  13.114  -1.646  1.00  0.00     0.001 A 
ATOM     66  C   UNL     1      -1.252  13.171   0.733  1.00  0.00     0.001 A 
ATOM     67  C   UNL     1      -1.649  13.476  -0.567  1.00  0.00     0.000 A 
ENDBRANCH  43  62
BRANCH  55  68
ATOM     68  C   UNL     1       7.420  14.089  -0.687  1.00  0.00    -0.014 A 
ATOM     69  C   UNL     1       7.439  15.198   0.172  1.00  0.00     0.009 A 
ATOM     70  C   UNL     1       8.047  14.184  -1.939  1.00  0.00     0.009 A 
ATOM     71  C   UNL     1       8.050  16.388  -0.228  1.00  0.00     0.001 A 
ATOM     72  C   UNL     1       8.675  15.368  -2.327  1.00  0.00     0.001 A 
ATOM     73  C   UNL     1       8.670  16.471  -1.475  1.00  0.00     0.000 A 
ENDBRANCH  55  68
ENDBRANCH  29  30
ENDBRANCH  22  24
ENDBRANCH  21  22
ENDBRANCH   1  21
TORSDOF 12
