REMARK SMILES CC[C@H]1SC[C@H](C(=O)OCCOC(=O)c2ccc(-c3c4nc(c(-c5ccccc5)c5ccc([nH]5)c(-c5ccccc5)c5nc(c(-c6ccccc6)c6ccc3[nH]6)C=C5)C=C4)cc2)N1C(=O)Cc1ccc(F)c(F)c1
REMARK SMILES IDX 10 1 9 2 7 3 8 4 6 5 3 6 4 7 63 8 5 9 2 10 1 11 64 12 65 13
REMARK SMILES IDX 66 14 67 15 68 16 74 17 69 18 72 19 70 20 73 21 71 22 11 23
REMARK SMILES IDX 12 24 13 25 14 26 15 27 16 28 62 29 17 30 61 31 18 32 19 33
REMARK SMILES IDX 20 34 55 35 21 36 60 37 54 38 56 39 22 40 59 41 53 42 52 43
REMARK SMILES IDX 23 45 45 46 30 47 44 48 31 49 34 50 43 51 57 52 32 53 33 54
REMARK SMILES IDX 42 56 58 57 35 58 24 59 25 60 29 61 26 62 28 63 27 64 46 65
REMARK SMILES IDX 47 66 51 67 48 68 50 69 49 70 36 71 37 72 41 73 38 74 40 75
REMARK SMILES IDX 39 76
REMARK H PARENT 56 44 34 55
REMARK Flexibility Score: inf
ROOT
ATOM      1  C   UNL     1       2.502   3.531   5.643  1.00  0.00     0.274 C 
ENDROOT
BRANCH   1   2
ATOM      2  O   UNL     1       2.602   2.583   4.568  1.00  0.00    -0.461 OA
BRANCH   2   3
ATOM      3  C   UNL     1       1.692   1.571   4.526  1.00  0.00     0.329 C 
ATOM      4  O   UNL     1       0.975   1.246   5.464  1.00  0.00    -0.250 OA
BRANCH   3   5
ATOM      5  C   UNL     1       1.598   1.018   3.088  1.00  0.00     0.206 C 
ATOM      6  C   UNL     1       1.289  -1.304   2.298  1.00  0.00     0.144 C 
ATOM      7  S   UNL     1       3.084  -1.099   2.422  1.00  0.00    -0.134 SA
ATOM      8  N   UNL     1       0.719  -0.161   2.989  1.00  0.00    -0.316 N 
ATOM      9  C   UNL     1       2.984   0.702   2.526  1.00  0.00     0.109 C 
BRANCH   6  10
ATOM     10  C   UNL     1       0.825  -1.420   0.826  1.00  0.00     0.033 C 
ATOM     11  C   UNL     1       1.071  -0.226  -0.092  1.00  0.00     0.007 C 
ENDBRANCH   6  10
BRANCH   8  12
ATOM     12  C   UNL     1      -0.626  -0.032   3.296  1.00  0.00     0.228 C 
ATOM     13  O   UNL     1      -1.191   1.063   3.258  1.00  0.00    -0.274 OA
BRANCH  12  14
ATOM     14  C   UNL     1      -1.361  -1.278   3.784  1.00  0.00     0.135 C 
BRANCH  14  15
ATOM     15  C   UNL     1      -2.035  -2.084   2.701  1.00  0.00    -0.036 A 
ATOM     16  C   UNL     1      -2.968  -1.489   1.836  1.00  0.00     0.007 A 
ATOM     17  C   UNL     1      -1.729  -3.446   2.541  1.00  0.00     0.046 A 
ATOM     18  C   UNL     1      -3.541  -2.227   0.797  1.00  0.00     0.043 A 
ATOM     19  C   UNL     1      -2.303  -4.171   1.501  1.00  0.00     0.159 A 
ATOM     20  C   UNL     1      -3.196  -3.564   0.629  1.00  0.00     0.158 A 
ATOM     21  F   UNL     1      -1.968  -5.459   1.339  1.00  0.00    -0.204 F 
ATOM     22  F   UNL     1      -3.728  -4.260  -0.385  1.00  0.00    -0.204 F 
ENDBRANCH  14  15
ENDBRANCH  12  14
ENDBRANCH   8  12
ENDBRANCH   3   5
ENDBRANCH   2   3
ENDBRANCH   1   2
BRANCH   1  23
ATOM     23  C   UNL     1       2.506   4.943   5.047  1.00  0.00     0.275 C 
BRANCH  23  24
ATOM     24  O   UNL     1       1.292   5.220   4.312  1.00  0.00    -0.458 OA
BRANCH  24  25
ATOM     25  C   UNL     1       1.288   4.810   3.021  1.00  0.00     0.338 C 
ATOM     26  O   UNL     1       2.184   4.231   2.429  1.00  0.00    -0.246 OA
BRANCH  25  27
ATOM     27  C   UNL     1      -0.015   5.082   2.386  1.00  0.00     0.060 A 
ATOM     28  C   UNL     1      -0.621   4.044   1.675  1.00  0.00     0.016 A 
ATOM     29  C   UNL     1      -0.577   6.361   2.373  1.00  0.00     0.016 A 
ATOM     30  C   UNL     1      -1.762   4.279   0.921  1.00  0.00     0.010 A 
ATOM     31  C   UNL     1      -1.735   6.596   1.621  1.00  0.00     0.010 A 
ATOM     32  C   UNL     1      -2.319   5.561   0.870  1.00  0.00    -0.014 A 
BRANCH  32  33
ATOM     33  C   UNL     1      -3.471   5.791  -0.033  1.00  0.00     0.031 A 
ATOM     34  C   UNL     1      -3.277   6.530  -1.326  1.00  0.00     0.074 A 
ATOM     35  C   UNL     1      -4.666   5.247   0.261  1.00  0.00     0.049 A 
ATOM     36  N   UNL     1      -4.150   6.792  -2.266  1.00  0.00    -0.248 NA
ATOM     37  C   UNL     1      -1.924   7.038  -1.602  1.00  0.00     0.031 C 
ATOM     38  C   UNL     1      -4.965   4.459   1.458  1.00  0.00     0.029 A 
ATOM     39  N   UNL     1      -5.844   5.253  -0.441  1.00  0.00    -0.354 N 
ATOM     40  C   UNL     1      -3.460   7.513  -3.232  1.00  0.00     0.074 A 
ATOM     41  C   UNL     1      -2.100   7.660  -2.759  1.00  0.00     0.031 C 
ATOM     42  C   UNL     1      -6.237   4.035   1.395  1.00  0.00     0.029 A 
ATOM     43  C   UNL     1      -6.852   4.554   0.176  1.00  0.00     0.049 A 
ATOM     44  H   UNL     1      -5.957   5.714  -1.303  1.00  0.00     0.167 HD
ATOM     45  C   UNL     1      -3.917   8.006  -4.408  1.00  0.00     0.031 A 
ATOM     46  C   UNL     1      -8.131   4.361  -0.193  1.00  0.00     0.031 A 
ATOM     47  C   UNL     1      -5.265   7.852  -4.886  1.00  0.00     0.049 A 
ATOM     48  C   UNL     1      -8.622   4.950  -1.484  1.00  0.00     0.074 A 
ATOM     49  C   UNL     1      -5.820   8.315  -6.067  1.00  0.00     0.029 A 
ATOM     50  N   UNL     1      -6.270   7.181  -4.208  1.00  0.00    -0.354 N 
ATOM     51  N   UNL     1      -7.960   5.638  -2.383  1.00  0.00    -0.248 NA
ATOM     52  C   UNL     1     -10.038   4.732  -1.812  1.00  0.00     0.031 C 
ATOM     53  C   UNL     1      -7.174   7.957  -6.084  1.00  0.00     0.029 A 
ATOM     54  C   UNL     1      -7.448   7.232  -4.936  1.00  0.00     0.049 A 
ATOM     55  H   UNL     1      -6.163   6.733  -3.338  1.00  0.00     0.167 HD
ATOM     56  C   UNL     1      -8.874   5.924  -3.388  1.00  0.00     0.074 A 
ATOM     57  C   UNL     1     -10.130   5.315  -2.999  1.00  0.00     0.031 C 
ATOM     58  C   UNL     1      -8.691   6.630  -4.530  1.00  0.00     0.031 A 
BRANCH  45  59
ATOM     59  C   UNL     1      -2.951   8.802  -5.238  1.00  0.00    -0.014 A 
ATOM     60  C   UNL     1      -1.920   8.180  -5.959  1.00  0.00     0.009 A 
ATOM     61  C   UNL     1      -3.088  10.196  -5.311  1.00  0.00     0.009 A 
ATOM     62  C   UNL     1      -1.025   8.945  -6.711  1.00  0.00     0.001 A 
ATOM     63  C   UNL     1      -2.207  10.956  -6.082  1.00  0.00     0.001 A 
ATOM     64  C   UNL     1      -1.170  10.331  -6.774  1.00  0.00     0.000 A 
ENDBRANCH  45  59
BRANCH  46  65
ATOM     65  C   UNL     1      -9.044   3.588   0.686  1.00  0.00    -0.014 A 
ATOM     66  C   UNL     1      -9.488   2.311   0.315  1.00  0.00     0.009 A 
ATOM     67  C   UNL     1      -9.476   4.132   1.906  1.00  0.00     0.009 A 
ATOM     68  C   UNL     1     -10.362   1.601   1.142  1.00  0.00     0.001 A 
ATOM     69  C   UNL     1     -10.329   3.409   2.742  1.00  0.00     0.001 A 
ATOM     70  C   UNL     1     -10.777   2.147   2.356  1.00  0.00     0.000 A 
ENDBRANCH  46  65
BRANCH  58  71
ATOM     71  C   UNL     1      -9.875   6.763  -5.444  1.00  0.00    -0.014 A 
ATOM     72  C   UNL     1     -10.946   7.612  -5.125  1.00  0.00     0.009 A 
ATOM     73  C   UNL     1      -9.912   6.039  -6.645  1.00  0.00     0.009 A 
ATOM     74  C   UNL     1     -12.049   7.705  -5.976  1.00  0.00     0.001 A 
ATOM     75  C   UNL     1     -11.005   6.154  -7.506  1.00  0.00     0.001 A 
ATOM     76  C   UNL     1     -12.076   6.978  -7.165  1.00  0.00     0.000 A 
ENDBRANCH  58  71
ENDBRANCH  32  33
ENDBRANCH  25  27
ENDBRANCH  24  25
ENDBRANCH  23  24
ENDBRANCH   1  23
TORSDOF 15
