REMARK SMILES Cc1ccc(O[C@H](C)C(=O)NNC(=O)[C@@H]2[C@@H](C(=O)OCCOC(=O)c3ccc(-c4c5nc(c(-c6ccccc6)c6ccc([nH]6)c(-c6ccccc6)c6nc(c(-c7ccccc7)c7ccc4[nH]7)C=C6)C=C5)cc3)[C@@H]3C=C[C@H]2C3)cc1C
REMARK SMILES IDX 19 1 17 2 18 3 16 4 15 5 76 6 73 7 75 8 77 9 74 10 13 11
REMARK SMILES IDX 12 12 14 14 11 15 9 16 10 17 7 19 8 20 6 21 5 22 1 23 2 24
REMARK SMILES IDX 3 25 79 26 4 27 78 28 80 29 20 30 21 31 22 32 23 33 24 34
REMARK SMILES IDX 25 35 26 36 72 37 27 38 71 39 28 40 29 41 30 42 65 43 31 44
REMARK SMILES IDX 70 45 64 46 66 47 32 48 69 49 63 50 62 51 33 53 55 54 40 55
REMARK SMILES IDX 54 56 41 57 44 58 53 59 67 60 42 61 43 62 52 64 68 65 45 66
REMARK SMILES IDX 34 67 35 68 39 69 36 70 38 71 37 72 56 73 57 74 61 75 58 76
REMARK SMILES IDX 60 77 59 78 46 79 47 80 51 81 48 82 50 83 49 84
REMARK H PARENT 12 13 11 18 66 52 44 63
REMARK Flexibility Score: inf
ROOT
ATOM      1  O   UNL     1       0.410   4.923  -1.300  1.00  0.00    -0.462 OA
ENDROOT
BRANCH   1   2
ATOM      2  C   UNL     1      -0.754   5.620  -1.249  1.00  0.00     0.310 C 
ATOM      3  O   UNL     1      -0.835   6.838  -1.369  1.00  0.00    -0.252 OA
BRANCH   2   4
ATOM      4  C   UNL     1      -1.952   4.750  -0.932  1.00  0.00     0.119 C 
ATOM      5  C   UNL     1      -1.907   3.269  -1.472  1.00  0.00     0.102 C 
ATOM      6  C   UNL     1      -3.221   3.190  -2.295  1.00  0.00     0.025 C 
ATOM      7  C   UNL     1      -3.222   5.317  -1.622  1.00  0.00     0.027 C 
ATOM      8  C   UNL     1      -4.419   3.369  -1.397  1.00  0.00    -0.027 C 
ATOM      9  C   UNL     1      -3.217   4.567  -2.954  1.00  0.00     0.017 C 
ATOM     10  C   UNL     1      -4.421   4.647  -0.993  1.00  0.00    -0.027 C 
BRANCH   5  11
ATOM     11  C   UNL     1      -1.723   2.299  -0.305  1.00  0.00     0.242 C 
ATOM     12  N   UNL     1      -2.059   0.977  -0.410  1.00  0.00    -0.267 N 
ATOM     13  H   UNL     1      -1.810   0.388   0.338  1.00  0.00     0.191 HD
ATOM     14  O   UNL     1      -1.160   2.658   0.734  1.00  0.00    -0.273 OA
BRANCH  12  15
ATOM     15  N   UNL     1      -2.719   0.397  -1.476  1.00  0.00    -0.264 N 
ATOM     16  C   UNL     1      -3.751  -0.503  -1.345  1.00  0.00     0.279 C 
ATOM     17  O   UNL     1      -4.437  -0.766  -2.338  1.00  0.00    -0.269 OA
ATOM     18  H   UNL     1      -2.433   0.642  -2.386  1.00  0.00     0.191 HD
BRANCH  16  19
ATOM     19  C   UNL     1      -3.931  -1.275  -0.023  1.00  0.00     0.260 C 
ATOM     20  C   UNL     1      -2.724  -2.214   0.113  1.00  0.00     0.064 C 
BRANCH  19  21
ATOM     21  O   UNL     1      -4.061  -0.402   1.099  1.00  0.00    -0.481 OA
BRANCH  21  22
ATOM     22  C   UNL     1      -4.426  -0.938   2.307  1.00  0.00     0.120 A 
ATOM     23  C   UNL     1      -5.234  -2.377   6.313  1.00  0.00     0.044 C 
ATOM     24  C   UNL     1      -4.979  -1.831   4.935  1.00  0.00    -0.048 A 
ATOM     25  C   UNL     1      -5.078  -2.697   3.837  1.00  0.00     0.007 A 
ATOM     26  C   UNL     1      -4.649  -0.483   4.707  1.00  0.00    -0.045 A 
ATOM     27  C   UNL     1      -4.821  -2.252   2.537  1.00  0.00     0.047 A 
ATOM     28  C   UNL     1      -4.372  -0.057   3.391  1.00  0.00     0.050 A 
ATOM     29  C   UNL     1      -4.600   0.543   5.806  1.00  0.00     0.045 C 
ENDBRANCH  21  22
ENDBRANCH  19  21
ENDBRANCH  16  19
ENDBRANCH  12  15
ENDBRANCH   5  11
ENDBRANCH   2   4
ENDBRANCH   1   2
BRANCH   1  30
ATOM     30  C   UNL     1       1.607   5.717  -1.425  1.00  0.00     0.274 C 
BRANCH  30  31
ATOM     31  C   UNL     1       2.102   5.771  -2.868  1.00  0.00     0.275 C 
BRANCH  31  32
ATOM     32  O   UNL     1       1.150   6.448  -3.708  1.00  0.00    -0.458 OA
BRANCH  32  33
ATOM     33  C   UNL     1       0.523   5.670  -4.617  1.00  0.00     0.338 C 
ATOM     34  O   UNL     1       0.681   4.477  -4.813  1.00  0.00    -0.246 OA
BRANCH  33  35
ATOM     35  C   UNL     1      -0.445   6.467  -5.386  1.00  0.00     0.060 A 
ATOM     36  C   UNL     1      -1.566   6.997  -4.749  1.00  0.00     0.016 A 
ATOM     37  C   UNL     1      -0.327   6.531  -6.774  1.00  0.00     0.016 A 
ATOM     38  C   UNL     1      -2.628   7.486  -5.508  1.00  0.00     0.010 A 
ATOM     39  C   UNL     1      -1.349   7.119  -7.525  1.00  0.00     0.010 A 
ATOM     40  C   UNL     1      -2.531   7.562  -6.905  1.00  0.00    -0.014 A 
BRANCH  40  41
ATOM     41  C   UNL     1      -3.665   8.067  -7.726  1.00  0.00     0.031 A 
ATOM     42  C   UNL     1      -4.282   7.193  -8.788  1.00  0.00     0.074 A 
ATOM     43  C   UNL     1      -4.145   9.311  -7.537  1.00  0.00     0.049 A 
ATOM     44  N   UNL     1      -5.113   7.519  -9.747  1.00  0.00    -0.248 NA
ATOM     45  C   UNL     1      -3.906   5.770  -8.778  1.00  0.00     0.031 C 
ATOM     46  C   UNL     1      -3.691  10.255  -6.515  1.00  0.00     0.029 A 
ATOM     47  N   UNL     1      -5.128   9.997  -8.208  1.00  0.00    -0.354 N 
ATOM     48  C   UNL     1      -5.307   6.360 -10.490  1.00  0.00     0.074 A 
ATOM     49  C   UNL     1      -4.516   5.321  -9.866  1.00  0.00     0.031 C 
ATOM     50  C   UNL     1      -4.413  11.382  -6.605  1.00  0.00     0.029 A 
ATOM     51  C   UNL     1      -5.317  11.275  -7.744  1.00  0.00     0.049 A 
ATOM     52  H   UNL     1      -5.646   9.610  -8.950  1.00  0.00     0.167 HD
ATOM     53  C   UNL     1      -6.067   6.181 -11.597  1.00  0.00     0.031 A 
ATOM     54  C   UNL     1      -6.093  12.273  -8.207  1.00  0.00     0.031 A 
ATOM     55  C   UNL     1      -6.891   7.199 -12.192  1.00  0.00     0.049 A 
ATOM     56  C   UNL     1      -6.906  12.062  -9.449  1.00  0.00     0.074 A 
ATOM     57  C   UNL     1      -7.698   7.111 -13.315  1.00  0.00     0.029 A 
ATOM     58  N   UNL     1      -7.033   8.485 -11.698  1.00  0.00    -0.354 N 
ATOM     59  N   UNL     1      -7.015  10.986 -10.190  1.00  0.00    -0.248 NA
ATOM     60  C   UNL     1      -7.685  13.211  -9.931  1.00  0.00     0.031 C 
ATOM     61  C   UNL     1      -8.309   8.354 -13.514  1.00  0.00     0.029 A 
ATOM     62  C   UNL     1      -7.909   9.202 -12.495  1.00  0.00     0.049 A 
ATOM     63  H   UNL     1      -6.578   8.837 -10.899  1.00  0.00     0.167 HD
ATOM     64  C   UNL     1      -7.877  11.327 -11.222  1.00  0.00     0.074 A 
ATOM     65  C   UNL     1      -8.277  12.702 -11.003  1.00  0.00     0.031 C 
ATOM     66  C   UNL     1      -8.294  10.568 -12.264  1.00  0.00     0.031 A 
BRANCH  53  67
ATOM     67  C   UNL     1      -6.009   4.839 -12.268  1.00  0.00    -0.014 A 
ATOM     68  C   UNL     1      -6.686   3.728 -11.746  1.00  0.00     0.009 A 
ATOM     69  C   UNL     1      -5.295   4.700 -13.469  1.00  0.00     0.009 A 
ATOM     70  C   UNL     1      -6.628   2.495 -12.402  1.00  0.00     0.001 A 
ATOM     71  C   UNL     1      -5.256   3.473 -14.133  1.00  0.00     0.001 A 
ATOM     72  C   UNL     1      -5.917   2.370 -13.595  1.00  0.00     0.000 A 
ENDBRANCH  53  67
BRANCH  54  73
ATOM     73  C   UNL     1      -6.088  13.586  -7.516  1.00  0.00    -0.014 A 
ATOM     74  C   UNL     1      -7.188  13.989  -6.746  1.00  0.00     0.009 A 
ATOM     75  C   UNL     1      -4.972  14.433  -7.607  1.00  0.00     0.009 A 
ATOM     76  C   UNL     1      -7.174  15.220  -6.088  1.00  0.00     0.001 A 
ATOM     77  C   UNL     1      -4.950  15.651  -6.927  1.00  0.00     0.001 A 
ATOM     78  C   UNL     1      -6.053  16.046  -6.173  1.00  0.00     0.000 A 
ENDBRANCH  54  73
BRANCH  66  79
ATOM     79  C   UNL     1      -9.252  11.204 -13.226  1.00  0.00    -0.014 A 
ATOM     80  C   UNL     1      -8.801  12.106 -14.202  1.00  0.00     0.009 A 
ATOM     81  C   UNL     1     -10.614  10.877 -13.172  1.00  0.00     0.009 A 
ATOM     82  C   UNL     1      -9.705  12.689 -15.091  1.00  0.00     0.001 A 
ATOM     83  C   UNL     1     -11.513  11.448 -14.073  1.00  0.00     0.001 A 
ATOM     84  C   UNL     1     -11.059  12.358 -15.027  1.00  0.00     0.000 A 
ENDBRANCH  66  79
ENDBRANCH  40  41
ENDBRANCH  33  35
ENDBRANCH  32  33
ENDBRANCH  31  32
ENDBRANCH  30  31
ENDBRANCH   1  30
TORSDOF 16
