REMARK SMILES O=C(CCC1CC[NH+]([C@H]2CCO[C@@]3(CCSC3)C2)CC1)OCCOC(=O)c1ccc(-c2c3nc(c(-c4ccccc4)c4ccc([nH]4)c(-c4ccccc4)c4nc(c(-c5ccccc5)c5ccc2[nH]5)C=C4)C=C3)cc1
REMARK SMILES IDX 22 1 21 2 2 3 1 4 3 5 4 6 5 7 6 8 20 9 7 10 19 11 8 12 9 14
REMARK SMILES IDX 10 15 18 16 11 17 13 18 12 19 14 20 17 21 15 22 16 23 23 24
REMARK SMILES IDX 24 25 25 26 26 27 27 28 28 29 74 30 29 31 73 32 30 33 31 34
REMARK SMILES IDX 32 35 67 36 33 37 72 38 66 39 68 40 34 41 71 42 65 43 64 44
REMARK SMILES IDX 35 46 57 47 42 48 56 49 43 50 46 51 55 52 69 53 44 54 45 55
REMARK SMILES IDX 54 57 70 58 47 59 36 60 37 61 41 62 38 63 40 64 39 65 58 66
REMARK SMILES IDX 59 67 63 68 60 69 62 70 61 71 48 72 49 73 53 74 50 75 52 76
REMARK SMILES IDX 51 77
REMARK H PARENT 8 13 68 45 46 56
REMARK Flexibility Score: inf
ROOT
ATOM      1  C   UNL     1       4.846   3.201  -9.334  1.00  0.00     0.274 C 
ENDROOT
BRANCH   1   2
ATOM      2  O   UNL     1       4.044   4.389  -9.195  1.00  0.00    -0.462 OA
BRANCH   2   3
ATOM      3  C   UNL     1       4.019   4.965  -7.964  1.00  0.00     0.305 C 
ATOM      4  O   UNL     1       3.018   4.955  -7.259  1.00  0.00    -0.252 OA
BRANCH   3   5
ATOM      5  C   UNL     1       5.282   5.731  -7.609  1.00  0.00     0.123 C 
BRANCH   5   6
ATOM      6  C   UNL     1       5.702   5.582  -6.149  1.00  0.00     0.016 C 
BRANCH   6   7
ATOM      7  C   UNL     1       5.962   4.107  -5.789  1.00  0.00     0.001 C 
ATOM      8  C   UNL     1       5.427   3.771  -4.393  1.00  0.00     0.065 C 
ATOM      9  C   UNL     1       7.413   3.680  -6.089  1.00  0.00     0.065 C 
ATOM     10  C   UNL     1       6.482   3.637  -3.309  1.00  0.00     0.262 C 
ATOM     11  C   UNL     1       8.307   3.565  -4.861  1.00  0.00     0.262 C 
ATOM     12  N   UNL     1       7.682   2.911  -3.719  1.00  0.00    -0.332 N 
ATOM     13  H   UNL     1       8.388   2.991  -2.986  1.00  0.00     0.348 HD
BRANCH  12  14
ATOM     14  C   UNL     1       7.586   1.438  -3.676  1.00  0.00     0.189 C 
ATOM     15  C   UNL     1       6.637   0.732  -4.658  1.00  0.00     0.093 C 
ATOM     16  C   UNL     1       8.979   0.773  -3.752  1.00  0.00     0.101 C 
ATOM     17  C   UNL     1       6.671  -0.779  -4.487  1.00  0.00     0.167 C 
ATOM     18  C   UNL     1       8.894  -0.760  -3.591  1.00  0.00     0.084 C 
ATOM     19  O   UNL     1       7.997  -1.282  -4.584  1.00  0.00    -0.374 OA
ATOM     20  C   UNL     1      10.250  -1.433  -3.861  1.00  0.00     0.047 C 
ATOM     21  C   UNL     1       8.505  -1.226  -2.173  1.00  0.00     0.105 C 
ATOM     22  C   UNL     1      11.140  -1.228  -2.652  1.00  0.00     0.072 C 
ATOM     23  S   UNL     1      10.043  -1.420  -1.227  1.00  0.00    -0.159 SA
ENDBRANCH  12  14
ENDBRANCH   6   7
ENDBRANCH   5   6
ENDBRANCH   3   5
ENDBRANCH   2   3
ENDBRANCH   1   2
BRANCH   1  24
ATOM     24  C   UNL     1       5.839   3.295 -10.495  1.00  0.00     0.275 C 
BRANCH  24  25
ATOM     25  O   UNL     1       6.599   4.510 -10.420  1.00  0.00    -0.458 OA
BRANCH  25  26
ATOM     26  C   UNL     1       6.033   5.564 -11.067  1.00  0.00     0.338 C 
ATOM     27  O   UNL     1       5.084   5.538 -11.823  1.00  0.00    -0.246 OA
BRANCH  26  28
ATOM     28  C   UNL     1       6.630   6.814 -10.545  1.00  0.00     0.060 A 
ATOM     29  C   UNL     1       5.767   7.880 -10.257  1.00  0.00     0.016 A 
ATOM     30  C   UNL     1       8.000   6.923 -10.296  1.00  0.00     0.016 A 
ATOM     31  C   UNL     1       6.276   9.068  -9.731  1.00  0.00     0.010 A 
ATOM     32  C   UNL     1       8.512   8.120  -9.795  1.00  0.00     0.010 A 
ATOM     33  C   UNL     1       7.655   9.204  -9.534  1.00  0.00    -0.014 A 
BRANCH  33  34
ATOM     34  C   UNL     1       8.245  10.537  -9.281  1.00  0.00     0.031 A 
ATOM     35  C   UNL     1       8.630  11.368 -10.471  1.00  0.00     0.074 A 
ATOM     36  C   UNL     1       8.491  10.980  -8.037  1.00  0.00     0.049 A 
ATOM     37  N   UNL     1       9.245  12.521 -10.515  1.00  0.00    -0.248 NA
ATOM     38  C   UNL     1       8.284  10.813 -11.791  1.00  0.00     0.031 C 
ATOM     39  C   UNL     1       8.147  10.282  -6.801  1.00  0.00     0.029 A 
ATOM     40  N   UNL     1       9.120  12.126  -7.618  1.00  0.00    -0.354 N 
ATOM     41  C   UNL     1       9.365  12.825 -11.864  1.00  0.00     0.074 A 
ATOM     42  C   UNL     1       8.781  11.729 -12.605  1.00  0.00     0.031 C 
ATOM     43  C   UNL     1       8.599  11.001  -5.758  1.00  0.00     0.029 A 
ATOM     44  C   UNL     1       9.285  12.193  -6.257  1.00  0.00     0.049 A 
ATOM     45  H   UNL     1       9.424  12.831  -8.234  1.00  0.00     0.167 HD
ATOM     46  C   UNL     1       9.919  13.917 -12.441  1.00  0.00     0.031 A 
ATOM     47  C   UNL     1       9.941  13.099  -5.505  1.00  0.00     0.031 A 
ATOM     48  C   UNL     1      10.539  14.987 -11.714  1.00  0.00     0.049 A 
ATOM     49  C   UNL     1      10.614  14.272  -6.168  1.00  0.00     0.074 A 
ATOM     50  C   UNL     1      11.111  16.146 -12.206  1.00  0.00     0.029 A 
ATOM     51  N   UNL     1      10.688  15.016 -10.337  1.00  0.00    -0.354 N 
ATOM     52  N   UNL     1      10.673  14.580  -7.442  1.00  0.00    -0.248 NA
ATOM     53  C   UNL     1      11.310  15.224  -5.289  1.00  0.00     0.031 C 
ATOM     54  C   UNL     1      11.656  16.851 -11.129  1.00  0.00     0.029 A 
ATOM     55  C   UNL     1      11.374  16.157  -9.962  1.00  0.00     0.049 A 
ATOM     56  H   UNL     1      10.355  14.327  -9.717  1.00  0.00     0.167 HD
ATOM     57  C   UNL     1      11.385  15.772  -7.513  1.00  0.00     0.074 A 
ATOM     58  C   UNL     1      11.735  16.134  -6.156  1.00  0.00     0.031 C 
ATOM     59  C   UNL     1      11.713  16.504  -8.606  1.00  0.00     0.031 A 
BRANCH  46  60
ATOM     60  C   UNL     1       9.917  13.960 -13.941  1.00  0.00    -0.014 A 
ATOM     61  C   UNL     1       8.732  14.174 -14.662  1.00  0.00     0.009 A 
ATOM     62  C   UNL     1      11.116  13.759 -14.641  1.00  0.00     0.009 A 
ATOM     63  C   UNL     1       8.740  14.139 -16.057  1.00  0.00     0.001 A 
ATOM     64  C   UNL     1      11.125  13.751 -16.036  1.00  0.00     0.001 A 
ATOM     65  C   UNL     1       9.937  13.928 -16.742  1.00  0.00     0.000 A 
ENDBRANCH  46  60
BRANCH  47  66
ATOM     66  C   UNL     1      10.018  12.918  -4.033  1.00  0.00    -0.014 A 
ATOM     67  C   UNL     1       9.285  13.746  -3.170  1.00  0.00     0.009 A 
ATOM     68  C   UNL     1      10.835  11.917  -3.484  1.00  0.00     0.009 A 
ATOM     69  C   UNL     1       9.380  13.584  -1.785  1.00  0.00     0.001 A 
ATOM     70  C   UNL     1      10.910  11.743  -2.100  1.00  0.00     0.001 A 
ATOM     71  C   UNL     1      10.188  12.580  -1.252  1.00  0.00     0.000 A 
ENDBRANCH  47  66
BRANCH  59  72
ATOM     72  C   UNL     1      12.460  17.790  -8.389  1.00  0.00    -0.014 A 
ATOM     73  C   UNL     1      13.826  17.796  -8.073  1.00  0.00     0.009 A 
ATOM     74  C   UNL     1      11.801  19.014  -8.589  1.00  0.00     0.009 A 
ATOM     75  C   UNL     1      14.515  19.004  -7.946  1.00  0.00     0.001 A 
ATOM     76  C   UNL     1      12.497  20.219  -8.486  1.00  0.00     0.001 A 
ATOM     77  C   UNL     1      13.852  20.213  -8.160  1.00  0.00     0.000 A 
ENDBRANCH  59  72
ENDBRANCH  33  34
ENDBRANCH  26  28
ENDBRANCH  25  26
ENDBRANCH  24  25
ENDBRANCH   1  24
TORSDOF 14
