REMARK SMILES Cc1ccc(C2=NN(C(=O)CCC(=O)OCCOC(=O)c3ccc(-c4c5nc(c(-c6ccccc6)c6ccc([nH]6)c(-c6ccccc6)c6nc(c(-c7ccccc7)c7ccc4[nH]7)C=C6)C=C5)cc3)[C@H](C[C@@H]3C=c4cccc(C)c4=NC3=O)C2)cc1
REMARK SMILES IDX 15 1 13 2 14 3 12 4 11 5 9 6 10 7 8 8 6 9 7 10 83 11 69 12
REMARK SMILES IDX 5 13 1 14 2 15 3 16 85 17 4 18 84 19 70 20 71 21 72 22 81 23
REMARK SMILES IDX 73 24 80 25 82 26 74 27 79 28 75 29 77 30 76 31 78 32 16 33
REMARK SMILES IDX 17 34 18 35 19 36 20 37 21 38 22 39 68 40 23 41 67 42 24 43
REMARK SMILES IDX 25 44 26 45 61 46 27 47 66 48 60 49 62 50 28 51 65 52 59 53
REMARK SMILES IDX 58 54 29 56 51 57 36 58 50 59 37 60 40 61 49 62 63 63 38 64
REMARK SMILES IDX 39 65 48 67 64 68 41 69 30 70 31 71 35 72 32 73 34 74 33 75
REMARK SMILES IDX 52 76 53 77 57 78 54 79 56 80 55 81 42 82 43 83 47 84 44 85
REMARK SMILES IDX 46 86 45 87
REMARK H PARENT 62 55 40 66
REMARK Flexibility Score: inf
ROOT
ATOM      1  O   UNL     1      -5.430   1.645  -0.296  1.00  0.00    -0.462 OA
ENDROOT
BRANCH   1   2
ATOM      2  C   UNL     1      -6.481   0.927   0.131  1.00  0.00     0.306 C 
ATOM      3  O   UNL     1      -7.321   0.399  -0.574  1.00  0.00    -0.252 OA
BRANCH   2   4
ATOM      4  C   UNL     1      -6.451   0.666   1.598  1.00  0.00     0.132 C 
BRANCH   4   5
ATOM      5  C   UNL     1      -6.673  -0.823   1.778  1.00  0.00     0.114 C 
BRANCH   5   6
ATOM      6  C   UNL     1      -5.344  -1.543   1.815  1.00  0.00     0.243 C 
ATOM      7  O   UNL     1      -4.983  -1.989   2.912  1.00  0.00    -0.273 OA
BRANCH   6   8
ATOM      8  N   UNL     1      -4.527  -1.605   0.687  1.00  0.00    -0.230 N 
ATOM      9  C   UNL     1      -2.559  -1.136  -0.082  1.00  0.00     0.070 C 
ATOM     10  N   UNL     1      -3.209  -1.350   1.009  1.00  0.00    -0.174 NA
ATOM     11  C   UNL     1      -3.298  -1.367  -1.349  1.00  0.00     0.086 C 
ATOM     12  C   UNL     1      -4.725  -1.512  -0.800  1.00  0.00     0.118 C 
BRANCH   9  13
ATOM     13  C   UNL     1      -1.157  -0.750  -0.089  1.00  0.00    -0.002 A 
ATOM     14  C   UNL     1       2.993   0.263   0.017  1.00  0.00     0.044 C 
ATOM     15  C   UNL     1       1.532  -0.074  -0.014  1.00  0.00    -0.051 A 
ATOM     16  C   UNL     1       1.140  -1.421  -0.004  1.00  0.00     0.004 A 
ATOM     17  C   UNL     1       0.556   0.934  -0.048  1.00  0.00     0.004 A 
ATOM     18  C   UNL     1      -0.206  -1.762  -0.037  1.00  0.00     0.010 A 
ATOM     19  C   UNL     1      -0.798   0.598  -0.082  1.00  0.00     0.010 A 
ENDBRANCH   9  13
BRANCH  12  20
ATOM     20  C   UNL     1      -5.455  -2.603  -1.617  1.00  0.00     0.045 C 
BRANCH  20  21
ATOM     21  C   UNL     1      -6.945  -2.788  -1.317  1.00  0.00     0.106 C 
ATOM     22  C   UNL     1      -7.090  -3.518  -0.030  1.00  0.00    -0.003 C 
ATOM     23  C   UNL     1      -7.723  -3.464  -2.465  1.00  0.00     0.253 C 
ATOM     24  C   UNL     1      -8.064  -4.380   0.220  1.00  0.00    -0.003 A 
ATOM     25  N   UNL     1      -8.716  -4.376  -2.164  1.00  0.00    -0.212 NA
ATOM     26  O   UNL     1      -7.475  -3.159  -3.631  1.00  0.00    -0.272 OA
ATOM     27  C   UNL     1      -8.321  -4.863   1.550  1.00  0.00     0.010 A 
ATOM     28  C   UNL     1      -8.869  -4.808  -0.952  1.00  0.00     0.077 A 
ATOM     29  C   UNL     1      -9.292  -5.757   1.752  1.00  0.00     0.001 A 
ATOM     30  C   UNL     1      -9.859  -5.895  -0.636  1.00  0.00    -0.025 A 
ATOM     31  C   UNL     1     -10.024  -6.307   0.636  1.00  0.00     0.005 A 
ATOM     32  C   UNL     1     -10.530  -6.553  -1.797  1.00  0.00     0.047 C 
ENDBRANCH  20  21
ENDBRANCH  12  20
ENDBRANCH   6   8
ENDBRANCH   5   6
ENDBRANCH   4   5
ENDBRANCH   2   4
ENDBRANCH   1   2
BRANCH   1  33
ATOM     33  C   UNL     1      -5.060   1.808  -1.685  1.00  0.00     0.274 C 
BRANCH  33  34
ATOM     34  C   UNL     1      -5.749   1.180  -2.944  1.00  0.00     0.275 C 
BRANCH  34  35
ATOM     35  O   UNL     1      -7.117   0.674  -3.064  1.00  0.00    -0.458 OA
BRANCH  35  36
ATOM     36  C   UNL     1      -8.359   1.236  -2.911  1.00  0.00     0.338 C 
ATOM     37  O   UNL     1      -9.386   0.708  -3.276  1.00  0.00    -0.246 OA
BRANCH  36  38
ATOM     38  C   UNL     1      -8.393   2.485  -2.137  1.00  0.00     0.060 A 
ATOM     39  C   UNL     1      -9.063   2.555  -0.895  1.00  0.00     0.016 A 
ATOM     40  C   UNL     1      -7.480   3.430  -2.515  1.00  0.00     0.016 A 
ATOM     41  C   UNL     1      -8.634   3.473   0.077  1.00  0.00     0.010 A 
ATOM     42  C   UNL     1      -6.935   4.160  -1.499  1.00  0.00     0.010 A 
ATOM     43  C   UNL     1      -7.506   4.235  -0.204  1.00  0.00    -0.014 A 
BRANCH  43  44
ATOM     44  C   UNL     1      -6.914   5.315   0.598  1.00  0.00     0.031 A 
ATOM     45  C   UNL     1      -6.301   5.227   1.936  1.00  0.00     0.074 A 
ATOM     46  C   UNL     1      -6.779   6.449  -0.128  1.00  0.00     0.049 A 
ATOM     47  N   UNL     1      -6.168   6.243   2.724  1.00  0.00    -0.248 NA
ATOM     48  C   UNL     1      -5.744   4.012   2.510  1.00  0.00     0.031 C 
ATOM     49  C   UNL     1      -5.952   7.620   0.055  1.00  0.00     0.029 A 
ATOM     50  N   UNL     1      -7.508   6.744  -1.284  1.00  0.00    -0.354 N 
ATOM     51  C   UNL     1      -5.259   5.895   3.704  1.00  0.00     0.074 A 
ATOM     52  C   UNL     1      -5.130   4.462   3.613  1.00  0.00     0.031 C 
ATOM     53  C   UNL     1      -6.425   8.595  -0.750  1.00  0.00     0.029 A 
ATOM     54  C   UNL     1      -7.667   8.110  -1.352  1.00  0.00     0.049 A 
ATOM     55  H   UNL     1      -7.849   6.089  -1.936  1.00  0.00     0.167 HD
ATOM     56  C   UNL     1      -4.556   6.864   4.358  1.00  0.00     0.031 A 
ATOM     57  C   UNL     1      -8.926   8.624  -1.237  1.00  0.00     0.031 A 
ATOM     58  C   UNL     1      -4.865   8.182   3.817  1.00  0.00     0.049 A 
ATOM     59  C   UNL     1      -8.989   9.457   0.013  1.00  0.00     0.074 A 
ATOM     60  C   UNL     1      -4.198   8.991   2.912  1.00  0.00     0.029 A 
ATOM     61  N   UNL     1      -6.152   8.685   3.932  1.00  0.00    -0.354 N 
ATOM     62  N   UNL     1      -8.227   9.258   1.052  1.00  0.00    -0.248 NA
ATOM     63  C   UNL     1      -9.876  10.598   0.167  1.00  0.00     0.031 C 
ATOM     64  C   UNL     1      -5.127   9.942   2.417  1.00  0.00     0.029 A 
ATOM     65  C   UNL     1      -6.341   9.726   3.046  1.00  0.00     0.049 A 
ATOM     66  H   UNL     1      -6.834   8.348   4.557  1.00  0.00     0.167 HD
ATOM     67  C   UNL     1      -8.395  10.290   1.929  1.00  0.00     0.074 A 
ATOM     68  C   UNL     1      -9.478  11.073   1.361  1.00  0.00     0.031 C 
ATOM     69  C   UNL     1      -7.604  10.445   3.029  1.00  0.00     0.031 A 
BRANCH  56  70
ATOM     70  C   UNL     1      -3.377   6.619   5.273  1.00  0.00    -0.014 A 
ATOM     71  C   UNL     1      -2.370   7.601   5.390  1.00  0.00     0.009 A 
ATOM     72  C   UNL     1      -3.207   5.468   6.060  1.00  0.00     0.009 A 
ATOM     73  C   UNL     1      -1.231   7.420   6.186  1.00  0.00     0.001 A 
ATOM     74  C   UNL     1      -2.057   5.271   6.845  1.00  0.00     0.001 A 
ATOM     75  C   UNL     1      -1.066   6.244   6.902  1.00  0.00     0.000 A 
ENDBRANCH  56  70
BRANCH  57  76
ATOM     76  C   UNL     1     -10.018   7.698  -1.717  1.00  0.00    -0.014 A 
ATOM     77  C   UNL     1     -10.032   7.337  -3.086  1.00  0.00     0.009 A 
ATOM     78  C   UNL     1     -10.723   6.873  -0.821  1.00  0.00     0.009 A 
ATOM     79  C   UNL     1     -10.647   6.156  -3.525  1.00  0.00     0.001 A 
ATOM     80  C   UNL     1     -11.348   5.695  -1.269  1.00  0.00     0.001 A 
ATOM     81  C   UNL     1     -11.289   5.325  -2.612  1.00  0.00     0.000 A 
ENDBRANCH  57  76
BRANCH  69  82
ATOM     82  C   UNL     1      -7.896  11.351   4.190  1.00  0.00    -0.014 A 
ATOM     83  C   UNL     1      -9.179  11.800   4.515  1.00  0.00     0.009 A 
ATOM     84  C   UNL     1      -6.865  11.618   5.121  1.00  0.00     0.009 A 
ATOM     85  C   UNL     1      -9.416  12.507   5.698  1.00  0.00     0.001 A 
ATOM     86  C   UNL     1      -7.108  12.273   6.325  1.00  0.00     0.001 A 
ATOM     87  C   UNL     1      -8.387  12.727   6.609  1.00  0.00     0.000 A 
ENDBRANCH  69  82
ENDBRANCH  43  44
ENDBRANCH  36  38
ENDBRANCH  35  36
ENDBRANCH  34  35
ENDBRANCH  33  34
ENDBRANCH   1  33
TORSDOF 17
