REMARK SMILES Cc1cc(C[N@@H+]2C[C@@H](C(=O)OCCOC(=O)c3ccc(-c4c5nc(c(-c6ccccc6)c6ccc([nH]6)c(-c6ccccc6)c6nc(c(-c7ccccc7)c7ccc4[nH]7)C=C6)C=C5)cc3)[C@H](C3CC3)C2)on1
REMARK SMILES IDX 12 1 11 2 9 3 10 4 8 5 6 6 7 7 69 8 65 10 5 11 4 12 1 13
REMARK SMILES IDX 2 14 3 15 71 16 70 17 66 18 67 19 68 20 13 21 14 22 15 23
REMARK SMILES IDX 16 24 17 25 18 26 64 27 19 28 63 29 20 30 21 31 22 32 57 33
REMARK SMILES IDX 23 34 62 35 56 36 58 37 24 38 61 39 55 40 54 41 25 43 47 44
REMARK SMILES IDX 32 45 46 46 33 47 36 48 45 49 59 50 34 51 35 52 44 54 60 55
REMARK SMILES IDX 37 56 26 57 27 58 31 59 28 60 30 61 29 62 48 63 49 64 53 65
REMARK SMILES IDX 50 66 52 67 51 68 38 69 39 70 43 71 40 72 42 73 41 74
REMARK H PARENT 6 9 58 42 36 53
REMARK Flexibility Score: inf
ROOT
ATOM      1  C   UNL     1      -4.486   3.768   2.626  1.00  0.00     0.274 C 
ENDROOT
BRANCH   1   2
ATOM      2  O   UNL     1      -4.125   2.441   2.183  1.00  0.00    -0.462 OA
BRANCH   2   3
ATOM      3  C   UNL     1      -2.798   2.245   1.973  1.00  0.00     0.315 C 
ATOM      4  O   UNL     1      -1.947   3.081   2.256  1.00  0.00    -0.252 OA
BRANCH   3   5
ATOM      5  C   UNL     1      -2.441   0.904   1.349  1.00  0.00     0.163 C 
ATOM      6  N   UNL     1      -3.162  -1.268   0.659  1.00  0.00    -0.328 N 
ATOM      7  C   UNL     1      -3.595   0.136   0.714  1.00  0.00     0.278 C 
ATOM      8  C   UNL     1      -2.336  -1.483   1.848  1.00  0.00     0.267 C 
ATOM      9  H   UNL     1      -3.981  -1.876   0.669  1.00  0.00     0.348 HD
ATOM     10  C   UNL     1      -1.891  -0.095   2.364  1.00  0.00     0.067 C 
BRANCH   6  11
ATOM     11  C   UNL     1      -2.540  -1.702  -0.604  1.00  0.00     0.341 C 
BRANCH  11  12
ATOM     12  C   UNL     1      -1.199  -1.148  -0.939  1.00  0.00     0.191 A 
ATOM     13  C   UNL     1       2.355  -0.306  -1.120  1.00  0.00     0.070 C 
ATOM     14  C   UNL     1       0.891  -0.509  -1.239  1.00  0.00     0.081 A 
ATOM     15  C   UNL     1       0.095  -1.530  -0.667  1.00  0.00     0.078 A 
ATOM     16  N   UNL     1       0.135   0.391  -1.879  1.00  0.00    -0.085 NA
ATOM     17  O   UNL     1      -1.175  -0.019  -1.698  1.00  0.00    -0.355 OA
ENDBRANCH  11  12
ENDBRANCH   6  11
BRANCH  10  18
ATOM     18  C   UNL     1      -0.412  -0.093   2.678  1.00  0.00    -0.001 C 
ATOM     19  C   UNL     1       0.634   0.529   1.787  1.00  0.00     0.004 C 
ATOM     20  C   UNL     1       0.367   1.126   3.123  1.00  0.00     0.004 C 
ENDBRANCH  10  18
ENDBRANCH   3   5
ENDBRANCH   2   3
ENDBRANCH   1   2
BRANCH   1  21
ATOM     21  C   UNL     1      -4.761   3.844   4.133  1.00  0.00     0.275 C 
BRANCH  21  22
ATOM     22  O   UNL     1      -3.574   3.624   4.926  1.00  0.00    -0.458 OA
BRANCH  22  23
ATOM     23  C   UNL     1      -3.505   2.419   5.538  1.00  0.00     0.338 C 
ATOM     24  O   UNL     1      -4.355   1.536   5.500  1.00  0.00    -0.246 OA
BRANCH  23  25
ATOM     25  C   UNL     1      -2.166   2.182   6.123  1.00  0.00     0.060 A 
ATOM     26  C   UNL     1      -1.575   0.964   5.795  1.00  0.00     0.016 A 
ATOM     27  C   UNL     1      -1.490   3.058   6.978  1.00  0.00     0.016 A 
ATOM     28  C   UNL     1      -0.277   0.668   6.188  1.00  0.00     0.010 A 
ATOM     29  C   UNL     1      -0.196   2.728   7.437  1.00  0.00     0.010 A 
ATOM     30  C   UNL     1       0.435   1.548   7.005  1.00  0.00    -0.014 A 
BRANCH  30  31
ATOM     31  C   UNL     1       1.793   1.116   7.422  1.00  0.00     0.031 A 
ATOM     32  C   UNL     1       1.927   0.023   8.446  1.00  0.00     0.074 A 
ATOM     33  C   UNL     1       2.888   1.528   6.753  1.00  0.00     0.049 A 
ATOM     34  N   UNL     1       3.006  -0.568   8.894  1.00  0.00    -0.248 NA
ATOM     35  C   UNL     1       0.672  -0.497   9.011  1.00  0.00     0.031 C 
ATOM     36  C   UNL     1       2.893   2.449   5.618  1.00  0.00     0.029 A 
ATOM     37  N   UNL     1       4.210   1.180   6.905  1.00  0.00    -0.354 N 
ATOM     38  C   UNL     1       2.561  -1.526   9.796  1.00  0.00     0.074 A 
ATOM     39  C   UNL     1       1.115  -1.450   9.817  1.00  0.00     0.031 C 
ATOM     40  C   UNL     1       4.153   2.577   5.164  1.00  0.00     0.029 A 
ATOM     41  C   UNL     1       5.053   1.800   6.014  1.00  0.00     0.049 A 
ATOM     42  H   UNL     1       4.524   0.545   7.589  1.00  0.00     0.167 HD
ATOM     43  C   UNL     1       3.287  -2.375  10.560  1.00  0.00     0.031 A 
ATOM     44  C   UNL     1       6.398   1.772   5.918  1.00  0.00     0.031 A 
ATOM     45  C   UNL     1       4.724  -2.419  10.591  1.00  0.00     0.049 A 
ATOM     46  C   UNL     1       7.191   0.946   6.901  1.00  0.00     0.074 A 
ATOM     47  C   UNL     1       5.547  -3.181  11.402  1.00  0.00     0.029 A 
ATOM     48  N   UNL     1       5.553  -1.657   9.783  1.00  0.00    -0.354 N 
ATOM     49  N   UNL     1       6.766   0.098   7.807  1.00  0.00    -0.248 NA
ATOM     50  C   UNL     1       8.655   1.086   6.853  1.00  0.00     0.031 C 
ATOM     51  C   UNL     1       6.874  -2.830  11.130  1.00  0.00     0.029 A 
ATOM     52  C   UNL     1       6.879  -1.908  10.097  1.00  0.00     0.049 A 
ATOM     53  H   UNL     1       5.246  -1.031   9.088  1.00  0.00     0.167 HD
ATOM     54  C   UNL     1       7.907  -0.407   8.421  1.00  0.00     0.074 A 
ATOM     55  C   UNL     1       9.043   0.204   7.763  1.00  0.00     0.031 C 
ATOM     56  C   UNL     1       8.006  -1.292   9.444  1.00  0.00     0.031 A 
BRANCH  43  57
ATOM     57  C   UNL     1       2.521  -3.245  11.516  1.00  0.00    -0.014 A 
ATOM     58  C   UNL     1       1.770  -4.346  11.077  1.00  0.00     0.009 A 
ATOM     59  C   UNL     1       2.545  -2.938  12.886  1.00  0.00     0.009 A 
ATOM     60  C   UNL     1       1.029  -5.100  11.990  1.00  0.00     0.001 A 
ATOM     61  C   UNL     1       1.827  -3.710  13.798  1.00  0.00     0.001 A 
ATOM     62  C   UNL     1       1.060  -4.783  13.348  1.00  0.00     0.000 A 
ENDBRANCH  43  57
BRANCH  44  63
ATOM     63  C   UNL     1       7.112   2.621   4.921  1.00  0.00    -0.014 A 
ATOM     64  C   UNL     1       7.926   2.052   3.929  1.00  0.00     0.009 A 
ATOM     65  C   UNL     1       7.053   4.021   5.019  1.00  0.00     0.009 A 
ATOM     66  C   UNL     1       8.691   2.864   3.085  1.00  0.00     0.001 A 
ATOM     67  C   UNL     1       7.789   4.831   4.151  1.00  0.00     0.001 A 
ATOM     68  C   UNL     1       8.619   4.252   3.195  1.00  0.00     0.000 A 
ENDBRANCH  44  63
BRANCH  56  69
ATOM     69  C   UNL     1       9.391  -1.683   9.889  1.00  0.00    -0.014 A 
ATOM     70  C   UNL     1      10.240  -0.773  10.539  1.00  0.00     0.009 A 
ATOM     71  C   UNL     1       9.846  -2.993   9.671  1.00  0.00     0.009 A 
ATOM     72  C   UNL     1      11.532  -1.152  10.914  1.00  0.00     0.001 A 
ATOM     73  C   UNL     1      11.124  -3.381  10.079  1.00  0.00     0.001 A 
ATOM     74  C   UNL     1      11.970  -2.456  10.688  1.00  0.00     0.000 A 
ENDBRANCH  56  69
ENDBRANCH  30  31
ENDBRANCH  23  25
ENDBRANCH  22  23
ENDBRANCH  21  22
ENDBRANCH   1  21
TORSDOF 14
