REMARK SMILES COc1ccc(-c2nc3ccc(C)cc3[nH]2)c(C(=O)OCCOC(=O)c2ccc(-c3c4nc(c(-c5ccccc5)c5ccc([nH]5)c(-c5ccccc5)c5nc(c(-c6ccccc6)c6ccc3[nH]6)C=C5)C=C4)cc2)c1OC
REMARK SMILES IDX 22 1 21 2 20 3 18 4 19 5 17 6 3 7 4 8 74 9 5 10 6 11 2 12
REMARK SMILES IDX 1 13 75 14 76 15 7 16 8 17 16 18 9 19 15 20 10 22 14 23
REMARK SMILES IDX 11 24 12 25 13 26 23 27 24 28 25 29 26 30 27 31 73 32 28 33
REMARK SMILES IDX 72 34 29 35 30 36 31 37 66 38 32 39 71 40 65 41 67 42 33 43
REMARK SMILES IDX 70 44 64 45 63 46 34 48 56 49 41 50 55 51 42 52 45 53 54 54
REMARK SMILES IDX 68 55 43 56 44 57 53 59 69 60 46 61 35 62 36 63 40 64 37 65
REMARK SMILES IDX 39 66 38 67 57 68 58 69 62 70 59 71 61 72 60 73 47 74 48 75
REMARK SMILES IDX 52 76 49 77 51 78 50 79
REMARK H PARENT 16 21 67 47 45 58
REMARK Flexibility Score: inf
ROOT
ATOM      1  C   UNL     1       6.559  -4.187  -3.250  1.00  0.00     0.275 C 
ENDROOT
BRANCH   1   2
ATOM      2  C   UNL     1       6.252  -2.706  -3.479  1.00  0.00     0.275 C 
BRANCH   2   3
ATOM      3  O   UNL     1       4.933  -2.468  -2.993  1.00  0.00    -0.458 OA
BRANCH   3   4
ATOM      4  C   UNL     1       4.298  -1.400  -3.511  1.00  0.00     0.342 C 
ATOM      5  O   UNL     1       4.768  -0.456  -4.127  1.00  0.00    -0.246 OA
BRANCH   4   6
ATOM      6  C   UNL     1       2.861  -1.617  -3.287  1.00  0.00     0.116 A 
ATOM      7  C   UNL     1       1.010  -1.594  -1.757  1.00  0.00     0.161 A 
ATOM      8  C   UNL     1       0.164  -1.967  -2.814  1.00  0.00     0.051 A 
ATOM      9  C   UNL     1       2.378  -1.451  -1.980  1.00  0.00     0.176 A 
ATOM     10  C   UNL     1       0.673  -2.190  -4.109  1.00  0.00     0.017 A 
ATOM     11  C   UNL     1       2.040  -2.020  -4.369  1.00  0.00     0.036 A 
BRANCH   7  12
ATOM     12  O   UNL     1       0.478  -1.526  -0.498  1.00  0.00    -0.493 OA
ATOM     13  C   UNL     1       0.008  -0.210  -0.201  1.00  0.00     0.278 C 
ENDBRANCH   7  12
BRANCH   9  14
ATOM     14  O   UNL     1       3.320  -1.377  -0.990  1.00  0.00    -0.492 OA
ATOM     15  C   UNL     1       3.213  -0.307  -0.072  1.00  0.00     0.278 C 
ENDBRANCH   9  14
BRANCH  11  16
ATOM     16  C   UNL     1       2.682  -2.464  -5.622  1.00  0.00     0.139 A 
ATOM     17  N   UNL     1       3.891  -2.989  -5.633  1.00  0.00    -0.228 NA
ATOM     18  N   UNL     1       2.169  -2.487  -6.905  1.00  0.00    -0.338 N 
ATOM     19  C   UNL     1       4.145  -3.420  -6.893  1.00  0.00     0.089 A 
ATOM     20  C   UNL     1       3.087  -3.116  -7.729  1.00  0.00     0.066 A 
ATOM     21  H   UNL     1       1.300  -2.119  -7.184  1.00  0.00     0.168 HD
ATOM     22  C   UNL     1       5.250  -4.136  -7.364  1.00  0.00     0.031 A 
ATOM     23  C   UNL     1       3.087  -3.501  -9.075  1.00  0.00     0.031 A 
ATOM     24  C   UNL     1       5.201  -4.653  -8.656  1.00  0.00     0.006 A 
ATOM     25  C   UNL     1       4.122  -4.364  -9.499  1.00  0.00    -0.049 A 
ATOM     26  C   UNL     1       4.031  -5.095 -10.808  1.00  0.00     0.044 C 
ENDBRANCH  11  16
ENDBRANCH   4   6
ENDBRANCH   3   4
ENDBRANCH   2   3
ENDBRANCH   1   2
BRANCH   1  27
ATOM     27  O   UNL     1       5.724  -5.027  -4.080  1.00  0.00    -0.458 OA
BRANCH  27  28
ATOM     28  C   UNL     1       4.535  -5.422  -3.550  1.00  0.00     0.338 C 
ATOM     29  O   UNL     1       4.164  -5.292  -2.395  1.00  0.00    -0.246 OA
BRANCH  28  30
ATOM     30  C   UNL     1       3.673  -6.006  -4.613  1.00  0.00     0.060 A 
ATOM     31  C   UNL     1       2.294  -5.747  -4.591  1.00  0.00     0.016 A 
ATOM     32  C   UNL     1       4.210  -6.775  -5.647  1.00  0.00     0.016 A 
ATOM     33  C   UNL     1       1.462  -6.206  -5.624  1.00  0.00     0.010 A 
ATOM     34  C   UNL     1       3.379  -7.236  -6.676  1.00  0.00     0.010 A 
ATOM     35  C   UNL     1       1.998  -6.956  -6.676  1.00  0.00    -0.014 A 
BRANCH  35  36
ATOM     36  C   UNL     1       1.143  -7.633  -7.690  1.00  0.00     0.031 A 
ATOM     37  C   UNL     1       0.805  -9.072  -7.478  1.00  0.00     0.074 A 
ATOM     38  C   UNL     1       0.696  -7.034  -8.809  1.00  0.00     0.049 A 
ATOM     39  N   UNL     1       0.182  -9.893  -8.281  1.00  0.00    -0.248 NA
ATOM     40  C   UNL     1       1.162  -9.642  -6.170  1.00  0.00     0.031 C 
ATOM     41  C   UNL     1       0.754  -5.611  -9.082  1.00  0.00     0.029 A 
ATOM     42  N   UNL     1       0.154  -7.563  -9.959  1.00  0.00    -0.354 N 
ATOM     43  C   UNL     1      -0.003 -11.050  -7.546  1.00  0.00     0.074 A 
ATOM     44  C   UNL     1       0.658 -10.861  -6.272  1.00  0.00     0.031 C 
ATOM     45  C   UNL     1       0.439  -5.389 -10.371  1.00  0.00     0.029 A 
ATOM     46  C   UNL     1       0.125  -6.664 -11.002  1.00  0.00     0.049 A 
ATOM     47  H   UNL     1      -0.178  -8.487 -10.028  1.00  0.00     0.167 HD
ATOM     48  C   UNL     1      -0.706 -12.153  -7.886  1.00  0.00     0.031 A 
ATOM     49  C   UNL     1      -0.092  -6.849 -12.319  1.00  0.00     0.031 A 
ATOM     50  C   UNL     1      -1.289 -12.376  -9.179  1.00  0.00     0.049 A 
ATOM     51  C   UNL     1      -0.572  -8.191 -12.787  1.00  0.00     0.074 A 
ATOM     52  C   UNL     1      -1.994 -13.477  -9.630  1.00  0.00     0.029 A 
ATOM     53  N   UNL     1      -1.200 -11.492 -10.245  1.00  0.00    -0.354 N 
ATOM     54  N   UNL     1      -0.783  -9.272 -12.080  1.00  0.00    -0.248 NA
ATOM     55  C   UNL     1      -0.920  -8.320 -14.209  1.00  0.00     0.031 C 
ATOM     56  C   UNL     1      -2.270 -13.289 -10.989  1.00  0.00     0.029 A 
ATOM     57  C   UNL     1      -1.794 -12.043 -11.367  1.00  0.00     0.049 A 
ATOM     58  H   UNL     1      -0.776 -10.605 -10.208  1.00  0.00     0.167 HD
ATOM     59  C   UNL     1      -1.376 -10.179 -12.944  1.00  0.00     0.074 A 
ATOM     60  C   UNL     1      -1.444  -9.539 -14.243  1.00  0.00     0.031 C 
ATOM     61  C   UNL     1      -1.866 -11.409 -12.660  1.00  0.00     0.031 A 
BRANCH  48  62
ATOM     62  C   UNL     1      -0.836 -13.198  -6.821  1.00  0.00    -0.014 A 
ATOM     63  C   UNL     1      -1.636 -12.970  -5.688  1.00  0.00     0.009 A 
ATOM     64  C   UNL     1      -0.106 -14.389  -6.917  1.00  0.00     0.009 A 
ATOM     65  C   UNL     1      -1.658 -13.896  -4.645  1.00  0.00     0.001 A 
ATOM     66  C   UNL     1      -0.151 -15.324  -5.884  1.00  0.00     0.001 A 
ATOM     67  C   UNL     1      -0.914 -15.071  -4.744  1.00  0.00     0.000 A 
ENDBRANCH  48  62
BRANCH  49  68
ATOM     68  C   UNL     1       0.142  -5.748 -13.290  1.00  0.00    -0.014 A 
ATOM     69  C   UNL     1      -0.921  -5.024 -13.846  1.00  0.00     0.009 A 
ATOM     70  C   UNL     1       1.452  -5.444 -13.695  1.00  0.00     0.009 A 
ATOM     71  C   UNL     1      -0.676  -4.027 -14.796  1.00  0.00     0.001 A 
ATOM     72  C   UNL     1       1.696  -4.433 -14.628  1.00  0.00     0.001 A 
ATOM     73  C   UNL     1       0.630  -3.729 -15.183  1.00  0.00     0.000 A 
ENDBRANCH  49  68
BRANCH  61  74
ATOM     74  C   UNL     1      -2.597 -12.134 -13.751  1.00  0.00    -0.014 A 
ATOM     75  C   UNL     1      -1.922 -12.718 -14.832  1.00  0.00     0.009 A 
ATOM     76  C   UNL     1      -3.989 -12.295 -13.647  1.00  0.00     0.009 A 
ATOM     77  C   UNL     1      -2.631 -13.442 -15.794  1.00  0.00     0.001 A 
ATOM     78  C   UNL     1      -4.690 -13.042 -14.593  1.00  0.00     0.001 A 
ATOM     79  C   UNL     1      -4.010 -13.611 -15.668  1.00  0.00     0.000 A 
ENDBRANCH  61  74
ENDBRANCH  35  36
ENDBRANCH  28  30
ENDBRANCH  27  28
ENDBRANCH   1  27
TORSDOF 14
