REMARK SMILES CC1=C(CC(=O)OCCOC(=O)c2ccc(-c3c4nc(c(-c5ccccc5)c5ccc([nH]5)c(-c5ccccc5)c5nc(c(-c6ccccc6)c6ccc3[nH]6)C=C5)C=C4)cc2)c2cc(F)ccc2/C1=C\c1cccc(OCc2ccccc2)c1
REMARK SMILES IDX 7 1 5 2 6 3 4 4 3 5 1 6 2 7 68 8 61 9 67 10 69 11 62 12
REMARK SMILES IDX 66 13 63 14 65 15 64 16 70 17 71 18 83 19 72 20 74 21 73 22
REMARK SMILES IDX 75 23 76 24 77 25 78 26 82 27 79 28 81 29 80 30 8 31 9 32
REMARK SMILES IDX 10 33 11 34 12 35 13 36 14 37 60 38 15 39 59 40 16 41 17 42
REMARK SMILES IDX 18 43 53 44 19 45 58 46 52 47 54 48 20 49 57 50 51 51 50 52
REMARK SMILES IDX 21 54 43 55 28 56 42 57 29 58 32 59 41 60 55 61 30 62 31 63
REMARK SMILES IDX 40 65 56 66 33 67 22 68 23 69 27 70 24 71 26 72 25 73 44 74
REMARK SMILES IDX 45 75 49 76 46 77 48 78 47 79 34 80 35 81 39 82 36 83 38 84
REMARK SMILES IDX 37 85
REMARK H PARENT 54 53 32 64
REMARK Flexibility Score: inf
ROOT
ATOM      1  O   UNL     1       0.506  -3.095   2.500  1.00  0.00    -0.462 OA
ENDROOT
BRANCH   1   2
ATOM      2  C   UNL     1       1.816  -2.826   2.263  1.00  0.00     0.310 C 
ATOM      3  O   UNL     1       2.712  -2.945   3.096  1.00  0.00    -0.252 OA
BRANCH   2   4
ATOM      4  C   UNL     1       2.120  -2.358   0.845  1.00  0.00     0.159 C 
BRANCH   4   5
ATOM      5  C   UNL     1       0.979  -2.328  -0.115  1.00  0.00    -0.025 C 
ATOM      6  C   UNL     1       0.371   0.140  -0.023  1.00  0.00     0.045 C 
ATOM      7  C   UNL     1       0.213  -1.274  -0.477  1.00  0.00    -0.039 C 
ATOM      8  C   UNL     1      -0.799  -1.715  -1.449  1.00  0.00    -0.014 C 
ATOM      9  C   UNL     1       0.534  -3.496  -0.896  1.00  0.00    -0.011 A 
ATOM     10  C   UNL     1      -0.570  -3.152  -1.692  1.00  0.00    -0.010 A 
ATOM     11  C   UNL     1      -1.719  -0.911  -2.009  1.00  0.00     0.017 C 
ATOM     12  C   UNL     1       1.065  -4.775  -0.960  1.00  0.00     0.048 A 
ATOM     13  C   UNL     1      -1.181  -4.102  -2.505  1.00  0.00     0.012 A 
ATOM     14  C   UNL     1       0.449  -5.721  -1.774  1.00  0.00     0.123 A 
ATOM     15  C   UNL     1      -0.671  -5.401  -2.535  1.00  0.00     0.040 A 
ATOM     16  F   UNL     1       0.958  -6.959  -1.843  1.00  0.00    -0.207 F 
BRANCH  11  17
ATOM     17  C   UNL     1      -2.672  -1.326  -3.035  1.00  0.00    -0.021 A 
ATOM     18  C   UNL     1      -3.890  -1.911  -2.677  1.00  0.00     0.008 A 
ATOM     19  C   UNL     1      -2.318  -1.204  -4.386  1.00  0.00     0.054 A 
ATOM     20  C   UNL     1      -4.734  -2.411  -3.666  1.00  0.00     0.004 A 
ATOM     21  C   UNL     1      -3.180  -1.669  -5.378  1.00  0.00     0.120 A 
ATOM     22  C   UNL     1      -4.373  -2.297  -5.010  1.00  0.00     0.046 A 
BRANCH  21  23
ATOM     23  O   UNL     1      -2.997  -1.535  -6.727  1.00  0.00    -0.489 OA
BRANCH  23  24
ATOM     24  C   UNL     1      -1.977  -0.642  -7.195  1.00  0.00     0.265 C 
BRANCH  24  25
ATOM     25  C   UNL     1      -2.209   0.832  -6.916  1.00  0.00    -0.011 A 
ATOM     26  C   UNL     1      -3.447   1.330  -6.483  1.00  0.00     0.007 A 
ATOM     27  C   UNL     1      -1.152   1.737  -7.100  1.00  0.00     0.007 A 
ATOM     28  C   UNL     1      -3.607   2.682  -6.176  1.00  0.00     0.000 A 
ATOM     29  C   UNL     1      -1.319   3.094  -6.813  1.00  0.00     0.000 A 
ATOM     30  C   UNL     1      -2.542   3.563  -6.339  1.00  0.00     0.000 A 
ENDBRANCH  24  25
ENDBRANCH  23  24
ENDBRANCH  21  23
ENDBRANCH  11  17
ENDBRANCH   4   5
ENDBRANCH   2   4
ENDBRANCH   1   2
BRANCH   1  31
ATOM     31  C   UNL     1       0.189  -3.584   3.820  1.00  0.00     0.274 C 
BRANCH  31  32
ATOM     32  C   UNL     1       0.031  -5.102   3.812  1.00  0.00     0.275 C 
BRANCH  32  33
ATOM     33  O   UNL     1       1.245  -5.704   3.334  1.00  0.00    -0.458 OA
BRANCH  33  34
ATOM     34  C   UNL     1       1.110  -6.522   2.267  1.00  0.00     0.338 C 
ATOM     35  O   UNL     1       0.080  -6.873   1.721  1.00  0.00    -0.246 OA
BRANCH  34  36
ATOM     36  C   UNL     1       2.443  -6.973   1.836  1.00  0.00     0.060 A 
ATOM     37  C   UNL     1       2.678  -8.337   1.689  1.00  0.00     0.016 A 
ATOM     38  C   UNL     1       3.428  -6.046   1.483  1.00  0.00     0.016 A 
ATOM     39  C   UNL     1       3.921  -8.770   1.229  1.00  0.00     0.010 A 
ATOM     40  C   UNL     1       4.625  -6.476   0.918  1.00  0.00     0.010 A 
ATOM     41  C   UNL     1       4.902  -7.844   0.828  1.00  0.00    -0.014 A 
BRANCH  41  42
ATOM     42  C   UNL     1       6.222  -8.319   0.347  1.00  0.00     0.031 A 
ATOM     43  C   UNL     1       7.471  -8.024   1.131  1.00  0.00     0.074 A 
ATOM     44  C   UNL     1       6.296  -9.034  -0.792  1.00  0.00     0.049 A 
ATOM     45  N   UNL     1       8.679  -8.499   0.956  1.00  0.00    -0.248 NA
ATOM     46  C   UNL     1       7.362  -7.063   2.240  1.00  0.00     0.031 C 
ATOM     47  C   UNL     1       5.170  -9.321  -1.682  1.00  0.00     0.029 A 
ATOM     48  N   UNL     1       7.359  -9.674  -1.378  1.00  0.00    -0.354 N 
ATOM     49  C   UNL     1       9.464  -7.898   1.932  1.00  0.00     0.074 A 
ATOM     50  C   UNL     1       8.619  -6.974   2.650  1.00  0.00     0.031 C 
ATOM     51  C   UNL     1       5.588 -10.132  -2.666  1.00  0.00     0.029 A 
ATOM     52  C   UNL     1       7.012 -10.406  -2.487  1.00  0.00     0.049 A 
ATOM     53  H   UNL     1       8.281  -9.613  -1.038  1.00  0.00     0.167 HD
ATOM     54  C   UNL     1      10.765  -8.123   2.227  1.00  0.00     0.031 A 
ATOM     55  C   UNL     1       7.746 -11.234  -3.255  1.00  0.00     0.031 A 
ATOM     56  C   UNL     1      11.601  -9.052   1.519  1.00  0.00     0.049 A 
ATOM     57  C   UNL     1       9.184 -11.486  -2.903  1.00  0.00     0.074 A 
ATOM     58  C   UNL     1      12.906  -9.416   1.796  1.00  0.00     0.029 A 
ATOM     59  N   UNL     1      11.215  -9.757   0.390  1.00  0.00    -0.354 N 
ATOM     60  N   UNL     1       9.883 -11.003  -1.904  1.00  0.00    -0.248 NA
ATOM     61  C   UNL     1       9.931 -12.409  -3.769  1.00  0.00     0.031 C 
ATOM     62  C   UNL     1      13.331 -10.296   0.798  1.00  0.00     0.029 A 
ATOM     63  C   UNL     1      12.271 -10.527  -0.064  1.00  0.00     0.049 A 
ATOM     64  H   UNL     1      10.324  -9.715  -0.026  1.00  0.00     0.167 HD
ATOM     65  C   UNL     1      11.145 -11.573  -2.011  1.00  0.00     0.074 A 
ATOM     66  C   UNL     1      11.112 -12.450  -3.164  1.00  0.00     0.031 C 
ATOM     67  C   UNL     1      12.230 -11.385  -1.221  1.00  0.00     0.031 A 
BRANCH  54  68
ATOM     68  C   UNL     1      11.363  -7.360   3.376  1.00  0.00    -0.014 A 
ATOM     69  C   UNL     1      12.359  -6.401   3.138  1.00  0.00     0.009 A 
ATOM     70  C   UNL     1      10.985  -7.633   4.701  1.00  0.00     0.009 A 
ATOM     71  C   UNL     1      12.965  -5.730   4.202  1.00  0.00     0.001 A 
ATOM     72  C   UNL     1      11.572  -6.939   5.761  1.00  0.00     0.001 A 
ATOM     73  C   UNL     1      12.566  -5.994   5.512  1.00  0.00     0.000 A 
ENDBRANCH  54  68
BRANCH  55  74
ATOM     74  C   UNL     1       7.090 -11.935  -4.388  1.00  0.00    -0.014 A 
ATOM     75  C   UNL     1       6.713 -11.231  -5.543  1.00  0.00     0.009 A 
ATOM     76  C   UNL     1       6.762 -13.296  -4.286  1.00  0.00     0.009 A 
ATOM     77  C   UNL     1       6.000 -11.868  -6.560  1.00  0.00     0.001 A 
ATOM     78  C   UNL     1       6.069 -13.936  -5.316  1.00  0.00     0.001 A 
ATOM     79  C   UNL     1       5.679 -13.220  -6.447  1.00  0.00     0.000 A 
ENDBRANCH  55  74
BRANCH  67  80
ATOM     80  C   UNL     1      13.489 -12.128  -1.566  1.00  0.00    -0.014 A 
ATOM     81  C   UNL     1      13.948 -13.152  -0.722  1.00  0.00     0.009 A 
ATOM     82  C   UNL     1      14.283 -11.733  -2.652  1.00  0.00     0.009 A 
ATOM     83  C   UNL     1      15.187 -13.754  -0.948  1.00  0.00     0.001 A 
ATOM     84  C   UNL     1      15.510 -12.355  -2.891  1.00  0.00     0.001 A 
ATOM     85  C   UNL     1      15.966 -13.356  -2.033  1.00  0.00     0.000 A 
ENDBRANCH  67  80
ENDBRANCH  41  42
ENDBRANCH  34  36
ENDBRANCH  33  34
ENDBRANCH  32  33
ENDBRANCH  31  32
ENDBRANCH   1  31
TORSDOF 16
