REMARK SMILES O=C(CCC(=O)OCCOC(=O)c1ccc(-c2c3nc(c(-c4ccccc4)c4ccc([nH]4)c(-c4ccccc4)c4nc(c(-c5ccccc5)c5ccc2[nH]5)C=C4)C=C3)cc1)/[NH+]=C1\S[C@H]2CS(=O)(=O)C[C@@H]2N1c1ccc(Oc2ccccc2)cc1
REMARK SMILES IDX 7 1 5 2 6 3 4 4 3 5 2 6 1 7 61 8 62 9 63 11 71 12 64 13
REMARK SMILES IDX 70 14 65 15 69 16 66 17 67 18 68 19 72 20 73 21 84 22 74 23
REMARK SMILES IDX 83 24 75 25 76 26 77 27 78 28 82 29 79 30 81 31 80 32 8 33
REMARK SMILES IDX 9 34 10 35 11 36 12 37 13 38 14 39 60 40 15 41 59 42 16 43
REMARK SMILES IDX 17 44 18 45 53 46 19 47 58 48 52 49 54 50 20 51 57 52 51 53
REMARK SMILES IDX 50 54 21 56 43 57 28 58 42 59 29 60 32 61 41 62 55 63 30 64
REMARK SMILES IDX 31 65 40 67 56 68 33 69 22 70 23 71 27 72 24 73 26 74 25 75
REMARK SMILES IDX 44 76 45 77 49 78 46 79 48 80 47 81 34 82 35 83 39 84 36 85
REMARK SMILES IDX 38 86 37 87
REMARK H PARENT 61 10 54 55 32 66
REMARK Flexibility Score: inf
ROOT
ATOM      1  O   UNL     1       3.842   2.389   0.337  1.00  0.00    -0.462 OA
ENDROOT
BRANCH   1   2
ATOM      2  C   UNL     1       3.472   2.106  -0.931  1.00  0.00     0.306 C 
ATOM      3  O   UNL     1       3.956   2.623  -1.931  1.00  0.00    -0.252 OA
BRANCH   2   4
ATOM      4  C   UNL     1       2.348   1.108  -0.975  1.00  0.00     0.135 C 
BRANCH   4   5
ATOM      5  C   UNL     1       2.613  -0.287  -0.419  1.00  0.00     0.139 C 
BRANCH   5   6
ATOM      6  C   UNL     1       2.610  -0.558   1.087  1.00  0.00     0.308 C 
ATOM      7  O   UNL     1       1.740  -1.294   1.553  1.00  0.00    -0.247 OA
ATOM      8  N   UNL     1       3.540   0.023   1.909  1.00  0.00    -0.204 N 
ATOM      9  C   UNL     1       4.651  -0.576   2.206  1.00  0.00     0.319 C 
ATOM     10  H   UNL     1       3.361   0.916   2.283  1.00  0.00     0.316 HD
ATOM     11  S   UNL     1       5.324  -2.024   1.402  1.00  0.00    -0.029 SA
ATOM     12  N   UNL     1       5.571  -0.122   3.159  1.00  0.00    -0.217 N 
ATOM     13  C   UNL     1       6.962  -1.801   2.167  1.00  0.00     0.120 C 
ATOM     14  C   UNL     1       6.944  -0.396   2.776  1.00  0.00     0.212 C 
ATOM     15  C   UNL     1       8.243  -1.759   1.354  1.00  0.00     0.156 C 
ATOM     16  C   UNL     1       8.149  -0.387   3.688  1.00  0.00     0.188 C 
ATOM     17  S   UNL     1       9.396  -0.975   2.514  1.00  0.00     0.155 S 
ATOM     18  O   UNL     1      10.201  -1.995   3.144  1.00  0.00    -0.229 OA
ATOM     19  O   UNL     1       9.974   0.182   1.862  1.00  0.00    -0.229 OA
BRANCH  12  20
ATOM     20  C   UNL     1       5.255   0.022   4.512  1.00  0.00     0.128 A 
ATOM     21  C   UNL     1       5.871   0.998   5.307  1.00  0.00     0.056 A 
ATOM     22  C   UNL     1       4.347  -0.850   5.124  1.00  0.00     0.056 A 
ATOM     23  C   UNL     1       5.661   1.038   6.689  1.00  0.00     0.051 A 
ATOM     24  C   UNL     1       4.129  -0.809   6.500  1.00  0.00     0.051 A 
ATOM     25  C   UNL     1       4.818   0.109   7.295  1.00  0.00     0.127 A 
BRANCH  25  26
ATOM     26  O   UNL     1       4.724   0.186   8.671  1.00  0.00    -0.457 OA
BRANCH  26  27
ATOM     27  C   UNL     1       4.098  -0.859   9.306  1.00  0.00     0.127 A 
ATOM     28  C   UNL     1       2.832  -0.636   9.842  1.00  0.00     0.047 A 
ATOM     29  C   UNL     1       4.700  -2.118   9.386  1.00  0.00     0.047 A 
ATOM     30  C   UNL     1       2.129  -1.700  10.402  1.00  0.00     0.004 A 
ATOM     31  C   UNL     1       3.989  -3.181   9.938  1.00  0.00     0.004 A 
ATOM     32  C   UNL     1       2.701  -2.974  10.437  1.00  0.00     0.000 A 
ENDBRANCH  26  27
ENDBRANCH  25  26
ENDBRANCH  12  20
ENDBRANCH   5   6
ENDBRANCH   4   5
ENDBRANCH   2   4
ENDBRANCH   1   2
BRANCH   1  33
ATOM     33  C   UNL     1       5.046   3.162   0.486  1.00  0.00     0.274 C 
BRANCH  33  34
ATOM     34  C   UNL     1       6.261   2.259   0.340  1.00  0.00     0.275 C 
BRANCH  34  35
ATOM     35  O   UNL     1       6.599   1.926  -1.016  1.00  0.00    -0.458 OA
BRANCH  35  36
ATOM     36  C   UNL     1       6.234   0.686  -1.390  1.00  0.00     0.338 C 
ATOM     37  O   UNL     1       5.577  -0.119  -0.740  1.00  0.00    -0.246 OA
BRANCH  36  38
ATOM     38  C   UNL     1       6.897   0.261  -2.599  1.00  0.00     0.060 A 
ATOM     39  C   UNL     1       6.457   0.696  -3.842  1.00  0.00     0.016 A 
ATOM     40  C   UNL     1       7.955  -0.642  -2.453  1.00  0.00     0.016 A 
ATOM     41  C   UNL     1       7.153   0.268  -4.961  1.00  0.00     0.010 A 
ATOM     42  C   UNL     1       8.689  -1.012  -3.557  1.00  0.00     0.010 A 
ATOM     43  C   UNL     1       8.302  -0.533  -4.808  1.00  0.00    -0.014 A 
BRANCH  43  44
ATOM     44  C   UNL     1       9.205  -0.733  -5.946  1.00  0.00     0.031 A 
ATOM     45  C   UNL     1       9.349  -2.078  -6.569  1.00  0.00     0.074 A 
ATOM     46  C   UNL     1       9.897   0.347  -6.348  1.00  0.00     0.049 A 
ATOM     47  N   UNL     1      10.016  -2.411  -7.638  1.00  0.00    -0.248 NA
ATOM     48  C   UNL     1       8.681  -3.204  -5.894  1.00  0.00     0.031 C 
ATOM     49  C   UNL     1       9.852   1.664  -5.695  1.00  0.00     0.029 A 
ATOM     50  N   UNL     1      10.733   0.534  -7.410  1.00  0.00    -0.354 N 
ATOM     51  C   UNL     1       9.851  -3.782  -7.768  1.00  0.00     0.074 A 
ATOM     52  C   UNL     1       9.064  -4.230  -6.642  1.00  0.00     0.031 C 
ATOM     53  C   UNL     1      10.545   2.543  -6.430  1.00  0.00     0.029 A 
ATOM     54  C   UNL     1      11.116   1.844  -7.571  1.00  0.00     0.049 A 
ATOM     55  H   UNL     1      11.031  -0.195  -8.000  1.00  0.00     0.167 HD
ATOM     56  C   UNL     1      10.311  -4.578  -8.760  1.00  0.00     0.031 A 
ATOM     57  C   UNL     1      11.824   2.412  -8.560  1.00  0.00     0.031 A 
ATOM     58  C   UNL     1      11.105  -4.077  -9.850  1.00  0.00     0.049 A 
ATOM     59  C   UNL     1      12.271   1.517  -9.676  1.00  0.00     0.074 A 
ATOM     60  C   UNL     1      11.633  -4.757 -10.930  1.00  0.00     0.029 A 
ATOM     61  N   UNL     1      11.482  -2.744  -9.988  1.00  0.00    -0.354 N 
ATOM     62  N   UNL     1      12.062   0.229  -9.827  1.00  0.00    -0.248 NA
ATOM     63  C   UNL     1      13.036   2.142 -10.756  1.00  0.00     0.031 C 
ATOM     64  C   UNL     1      12.357  -3.841 -11.703  1.00  0.00     0.029 A 
ATOM     65  C   UNL     1      12.241  -2.581 -11.131  1.00  0.00     0.049 A 
ATOM     66  H   UNL     1      11.242  -2.022  -9.363  1.00  0.00     0.167 HD
ATOM     67  C   UNL     1      12.671  -0.117 -11.021  1.00  0.00     0.074 A 
ATOM     68  C   UNL     1      13.225   1.111 -11.568  1.00  0.00     0.031 C 
ATOM     69  C   UNL     1      12.779  -1.332 -11.612  1.00  0.00     0.031 A 
BRANCH  56  70
ATOM     70  C   UNL     1       9.979  -6.042  -8.679  1.00  0.00    -0.014 A 
ATOM     71  C   UNL     1       8.660  -6.500  -8.844  1.00  0.00     0.009 A 
ATOM     72  C   UNL     1      10.989  -6.980  -8.414  1.00  0.00     0.009 A 
ATOM     73  C   UNL     1       8.354  -7.856  -8.701  1.00  0.00     0.001 A 
ATOM     74  C   UNL     1      10.684  -8.339  -8.298  1.00  0.00     0.001 A 
ATOM     75  C   UNL     1       9.367  -8.775  -8.430  1.00  0.00     0.000 A 
ENDBRANCH  56  70
BRANCH  57  76
ATOM     76  C   UNL     1      12.080   3.875  -8.544  1.00  0.00    -0.014 A 
ATOM     77  C   UNL     1      11.443   4.724  -9.461  1.00  0.00     0.009 A 
ATOM     78  C   UNL     1      12.907   4.444  -7.561  1.00  0.00     0.009 A 
ATOM     79  C   UNL     1      11.640   6.108  -9.404  1.00  0.00     0.001 A 
ATOM     80  C   UNL     1      13.079   5.829  -7.487  1.00  0.00     0.001 A 
ATOM     81  C   UNL     1      12.451   6.659  -8.413  1.00  0.00     0.000 A 
ENDBRANCH  57  76
BRANCH  69  82
ATOM     82  C   UNL     1      13.526  -1.365 -12.910  1.00  0.00    -0.014 A 
ATOM     83  C   UNL     1      14.924  -1.256 -12.936  1.00  0.00     0.009 A 
ATOM     84  C   UNL     1      12.823  -1.540 -14.111  1.00  0.00     0.009 A 
ATOM     85  C   UNL     1      15.605  -1.288 -14.152  1.00  0.00     0.001 A 
ATOM     86  C   UNL     1      13.510  -1.599 -15.321  1.00  0.00     0.001 A 
ATOM     87  C   UNL     1      14.898  -1.464 -15.341  1.00  0.00     0.000 A 
ENDBRANCH  69  82
ENDBRANCH  43  44
ENDBRANCH  36  38
ENDBRANCH  35  36
ENDBRANCH  34  35
ENDBRANCH  33  34
ENDBRANCH   1  33
TORSDOF 16
