REMARK SMILES C=CC[N@@H+](CC(=O)OCCOC(=O)c1ccc(-c2c3nc(c(-c4ccccc4)c4ccc([nH]4)c(-c4ccccc4)c4nc(c(-c5ccccc5)c5ccc2[nH]5)C=C4)C=C3)cc1)C1CCCCC1
REMARK SMILES IDX 9 1 8 2 6 3 7 4 5 5 4 6 3 8 2 9 1 10 62 11 63 12 67 13 64 14
REMARK SMILES IDX 66 15 65 16 10 17 11 18 12 19 13 20 14 21 15 22 61 23 16 24
REMARK SMILES IDX 60 25 17 26 18 27 19 28 54 29 20 30 59 31 53 32 55 33 21 34
REMARK SMILES IDX 58 35 52 36 51 37 22 39 44 40 29 41 43 42 30 43 33 44 42 45
REMARK SMILES IDX 56 46 31 47 32 48 41 50 57 51 34 52 23 53 24 54 28 55 25 56
REMARK SMILES IDX 27 57 26 58 45 59 46 60 50 61 47 62 49 63 48 64 35 65 36 66
REMARK SMILES IDX 40 67 37 68 39 69 38 70
REMARK H PARENT 4 7 55 38 33 49
REMARK Flexibility Score: inf
ROOT
ATOM      1  C   UNL     1      -3.995   1.431   0.929  1.00  0.00     0.274 C 
ENDROOT
BRANCH   1   2
ATOM      2  O   UNL     1      -3.119   0.798  -0.020  1.00  0.00    -0.458 OA
BRANCH   2   3
ATOM      3  C   UNL     1      -3.586  -0.254  -0.739  1.00  0.00     0.361 C 
ATOM      4  O   UNL     1      -4.666  -0.801  -0.545  1.00  0.00    -0.245 OA
BRANCH   3   5
ATOM      5  C   UNL     1      -2.642  -0.672  -1.882  1.00  0.00     0.387 C 
BRANCH   5   6
ATOM      6  N   UNL     1      -1.194  -0.391  -1.693  1.00  0.00    -0.320 N 
ATOM      7  H   UNL     1      -0.673  -0.986  -2.336  1.00  0.00     0.349 HD
BRANCH   6   8
ATOM      8  C   UNL     1      -0.737  -0.845  -0.378  1.00  0.00     0.291 C 
BRANCH   8   9
ATOM      9  C   UNL     1       0.668  -1.367  -0.353  1.00  0.00     0.025 C 
ATOM     10  C   UNL     1       1.570  -1.004   0.570  1.00  0.00     0.010 C 
ENDBRANCH   8   9
ENDBRANCH   6   8
BRANCH   6  11
ATOM     11  C   UNL     1      -0.664   0.874  -2.278  1.00  0.00     0.184 C 
ATOM     12  C   UNL     1      -1.640   2.066  -2.280  1.00  0.00     0.065 C 
ATOM     13  C   UNL     1       0.707   1.329  -1.728  1.00  0.00     0.065 C 
ATOM     14  C   UNL     1      -1.088   3.376  -2.835  1.00  0.00     0.006 C 
ATOM     15  C   UNL     1       1.216   2.652  -2.297  1.00  0.00     0.006 C 
ATOM     16  C   UNL     1       0.192   3.758  -2.117  1.00  0.00     0.000 C 
ENDBRANCH   6  11
ENDBRANCH   5   6
ENDBRANCH   3   5
ENDBRANCH   2   3
ENDBRANCH   1   2
BRANCH   1  17
ATOM     17  C   UNL     1      -3.926   2.953   0.721  1.00  0.00     0.275 C 
BRANCH  17  18
ATOM     18  O   UNL     1      -4.076   3.382  -0.651  1.00  0.00    -0.458 OA
BRANCH  18  19
ATOM     19  C   UNL     1      -5.150   2.918  -1.324  1.00  0.00     0.338 C 
ATOM     20  O   UNL     1      -6.085   2.286  -0.876  1.00  0.00    -0.246 OA
BRANCH  19  21
ATOM     21  C   UNL     1      -4.970   3.180  -2.763  1.00  0.00     0.060 A 
ATOM     22  C   UNL     1      -5.042   2.095  -3.643  1.00  0.00     0.016 A 
ATOM     23  C   UNL     1      -4.821   4.481  -3.248  1.00  0.00     0.016 A 
ATOM     24  C   UNL     1      -5.017   2.314  -5.019  1.00  0.00     0.010 A 
ATOM     25  C   UNL     1      -4.882   4.707  -4.627  1.00  0.00     0.010 A 
ATOM     26  C   UNL     1      -5.046   3.629  -5.513  1.00  0.00    -0.014 A 
BRANCH  26  27
ATOM     27  C   UNL     1      -5.551   3.877  -6.890  1.00  0.00     0.031 A 
ATOM     28  C   UNL     1      -4.699   4.475  -7.966  1.00  0.00     0.074 A 
ATOM     29  C   UNL     1      -6.853   3.607  -7.123  1.00  0.00     0.049 A 
ATOM     30  N   UNL     1      -5.048   4.843  -9.173  1.00  0.00    -0.248 NA
ATOM     31  C   UNL     1      -3.281   4.692  -7.652  1.00  0.00     0.031 C 
ATOM     32  C   UNL     1      -7.781   3.027  -6.145  1.00  0.00     0.029 A 
ATOM     33  N   UNL     1      -7.627   3.784  -8.241  1.00  0.00    -0.354 N 
ATOM     34  C   UNL     1      -3.898   5.348  -9.764  1.00  0.00     0.074 A 
ATOM     35  C   UNL     1      -2.842   5.250  -8.775  1.00  0.00     0.031 C 
ATOM     36  C   UNL     1      -8.984   2.870  -6.712  1.00  0.00     0.029 A 
ATOM     37  C   UNL     1      -8.939   3.412  -8.061  1.00  0.00     0.049 A 
ATOM     38  H   UNL     1      -7.278   4.141  -9.089  1.00  0.00     0.167 HD
ATOM     39  C   UNL     1      -3.746   5.852 -11.014  1.00  0.00     0.031 A 
ATOM     40  C   UNL     1     -10.007   3.532  -8.870  1.00  0.00     0.031 A 
ATOM     41  C   UNL     1      -4.813   5.965 -11.979  1.00  0.00     0.049 A 
ATOM     42  C   UNL     1      -9.821   4.159 -10.217  1.00  0.00     0.074 A 
ATOM     43  C   UNL     1      -4.754   6.442 -13.278  1.00  0.00     0.029 A 
ATOM     44  N   UNL     1      -6.134   5.609 -11.746  1.00  0.00    -0.354 N 
ATOM     45  N   UNL     1      -8.721   4.608 -10.769  1.00  0.00    -0.248 NA
ATOM     46  C   UNL     1     -11.022   4.305 -11.048  1.00  0.00     0.031 C 
ATOM     47  C   UNL     1      -6.049   6.432 -13.808  1.00  0.00     0.029 A 
ATOM     48  C   UNL     1      -6.905   5.889 -12.863  1.00  0.00     0.049 A 
ATOM     49  H   UNL     1      -6.473   5.215 -10.910  1.00  0.00     0.167 HD
ATOM     50  C   UNL     1      -9.092   5.075 -12.020  1.00  0.00     0.074 A 
ATOM     51  C   UNL     1     -10.516   4.836 -12.152  1.00  0.00     0.031 C 
ATOM     52  C   UNL     1      -8.322   5.654 -12.973  1.00  0.00     0.031 A 
BRANCH  39  53
ATOM     53  C   UNL     1      -2.385   6.363 -11.401  1.00  0.00    -0.014 A 
ATOM     54  C   UNL     1      -1.315   5.487 -11.643  1.00  0.00     0.009 A 
ATOM     55  C   UNL     1      -2.184   7.741 -11.580  1.00  0.00     0.009 A 
ATOM     56  C   UNL     1      -0.065   5.984 -12.025  1.00  0.00     0.001 A 
ATOM     57  C   UNL     1      -0.942   8.234 -11.986  1.00  0.00     0.001 A 
ATOM     58  C   UNL     1       0.119   7.356 -12.199  1.00  0.00     0.000 A 
ENDBRANCH  39  53
BRANCH  40  59
ATOM     59  C   UNL     1     -11.345   3.087  -8.401  1.00  0.00    -0.014 A 
ATOM     60  C   UNL     1     -11.970   1.970  -8.974  1.00  0.00     0.009 A 
ATOM     61  C   UNL     1     -11.995   3.767  -7.357  1.00  0.00     0.009 A 
ATOM     62  C   UNL     1     -13.227   1.557  -8.524  1.00  0.00     0.001 A 
ATOM     63  C   UNL     1     -13.235   3.331  -6.888  1.00  0.00     0.001 A 
ATOM     64  C   UNL     1     -13.855   2.232  -7.479  1.00  0.00     0.000 A 
ENDBRANCH  40  59
BRANCH  52  65
ATOM     65  C   UNL     1      -9.007   6.042 -14.252  1.00  0.00    -0.014 A 
ATOM     66  C   UNL     1      -9.874   7.144 -14.307  1.00  0.00     0.009 A 
ATOM     67  C   UNL     1      -8.758   5.310 -15.423  1.00  0.00     0.009 A 
ATOM     68  C   UNL     1     -10.502   7.487 -15.506  1.00  0.00     0.001 A 
ATOM     69  C   UNL     1      -9.364   5.673 -16.626  1.00  0.00     0.001 A 
ATOM     70  C   UNL     1     -10.242   6.755 -16.665  1.00  0.00     0.000 A 
ENDBRANCH  52  65
ENDBRANCH  26  27
ENDBRANCH  19  21
ENDBRANCH  18  19
ENDBRANCH  17  18
ENDBRANCH   1  17
TORSDOF 15
