REMARK SMILES CCCc1cc(OC(F)(F)F)cc2c1O[C@H](C(F)(F)F)C(C(=O)OCCOC(=O)c1ccc(-c3c4nc(c(-c5ccccc5)c5ccc([nH]5)c(-c5ccccc5)c5nc(c(-c6ccccc6)c6ccc3[nH]6)C=C5)C=C4)cc1)=C2
REMARK SMILES IDX 25 1 24 2 22 3 23 4 21 5 4 6 5 7 14 8 6 9 13 10 15 11 12 12
REMARK SMILES IDX 78 13 16 14 3 15 2 16 1 17 7 18 8 19 9 20 10 21 11 22 17 23
REMARK SMILES IDX 18 24 19 25 20 26 26 27 27 28 28 29 29 30 30 31 31 32 77 33
REMARK SMILES IDX 32 34 76 35 33 36 34 37 35 38 70 39 36 40 75 41 69 42 71 43
REMARK SMILES IDX 37 44 74 45 68 46 67 47 38 49 60 50 45 51 59 52 46 53 49 54
REMARK SMILES IDX 58 55 72 56 47 57 48 58 57 60 73 61 50 62 39 63 40 64 44 65
REMARK SMILES IDX 41 66 43 67 42 68 61 69 62 70 66 71 63 72 65 73 64 74 51 75
REMARK SMILES IDX 52 76 56 77 53 78 55 79 54 80
REMARK H PARENT 71 48 49 59
REMARK Flexibility Score: inf
ROOT
ATOM      1  C   UNL     1       4.486  -8.122  -2.866  1.00  0.00     0.275 C 
ENDROOT
BRANCH   1   2
ATOM      2  O   UNL     1       3.420  -7.151  -2.956  1.00  0.00    -0.459 OA
BRANCH   2   3
ATOM      3  C   UNL     1       3.773  -5.886  -2.629  1.00  0.00     0.338 C 
ATOM      4  O   UNL     1       4.887  -5.509  -2.304  1.00  0.00    -0.246 OA
BRANCH   3   5
ATOM      5  C   UNL     1       2.643  -4.947  -2.726  1.00  0.00     0.087 C 
ATOM      6  C   UNL     1       0.086  -1.714  -2.149  1.00  0.00    -0.002 A 
ATOM      7  C   UNL     1      -1.277  -1.968  -1.926  1.00  0.00     0.054 A 
ATOM      8  C   UNL     1       0.949  -2.809  -2.261  1.00  0.00     0.131 A 
ATOM      9  C   UNL     1      -1.753  -3.276  -1.780  1.00  0.00     0.130 A 
ATOM     10  C   UNL     1       0.485  -4.131  -2.136  1.00  0.00     0.021 A 
ATOM     11  O   UNL     1       2.279  -2.545  -2.479  1.00  0.00    -0.475 OA
ATOM     12  C   UNL     1      -0.868  -4.354  -1.891  1.00  0.00     0.058 A 
ATOM     13  C   UNL     1       1.442  -5.237  -2.205  1.00  0.00     0.027 C 
ATOM     14  C   UNL     1       2.951  -3.567  -3.249  1.00  0.00     0.316 C 
BRANCH   6  15
ATOM     15  C   UNL     1       0.585  -0.294  -2.310  1.00  0.00     0.039 C 
BRANCH  15  16
ATOM     16  C   UNL     1       0.320   0.619  -1.109  1.00  0.00     0.001 C 
ATOM     17  C   UNL     1       0.998   0.145   0.168  1.00  0.00     0.004 C 
ENDBRANCH  15  16
ENDBRANCH   6  15
BRANCH   9  18
ATOM     18  O   UNL     1      -3.048  -3.637  -1.535  1.00  0.00    -0.406 OA
BRANCH  18  19
ATOM     19  C   UNL     1      -3.958  -2.607  -1.185  1.00  0.00     0.573 C 
ATOM     20  F   UNL     1      -3.513  -1.900  -0.124  1.00  0.00    -0.132 F 
ATOM     21  F   UNL     1      -4.169  -1.774  -2.227  1.00  0.00    -0.132 F 
ATOM     22  F   UNL     1      -5.139  -3.169  -0.850  1.00  0.00    -0.132 F 
ENDBRANCH  18  19
ENDBRANCH   9  18
BRANCH  14  23
ATOM     23  C   UNL     1       2.650  -3.404  -4.752  1.00  0.00     0.430 C 
ATOM     24  F   UNL     1       3.135  -2.225  -5.215  1.00  0.00    -0.167 F 
ATOM     25  F   UNL     1       3.232  -4.383  -5.480  1.00  0.00    -0.167 F 
ATOM     26  F   UNL     1       1.330  -3.435  -5.039  1.00  0.00    -0.167 F 
ENDBRANCH  14  23
ENDBRANCH   3   5
ENDBRANCH   2   3
ENDBRANCH   1   2
BRANCH   1  27
ATOM     27  C   UNL     1       5.164  -8.341  -4.217  1.00  0.00     0.275 C 
BRANCH  27  28
ATOM     28  O   UNL     1       5.807  -7.128  -4.650  1.00  0.00    -0.458 OA
BRANCH  28  29
ATOM     29  C   UNL     1       5.384  -6.630  -5.830  1.00  0.00     0.338 C 
ATOM     30  O   UNL     1       4.551  -7.123  -6.585  1.00  0.00    -0.246 OA
BRANCH  29  31
ATOM     31  C   UNL     1       6.074  -5.366  -6.136  1.00  0.00     0.060 A 
ATOM     32  C   UNL     1       6.060  -4.310  -5.224  1.00  0.00     0.016 A 
ATOM     33  C   UNL     1       6.606  -5.175  -7.410  1.00  0.00     0.016 A 
ATOM     34  C   UNL     1       6.451  -3.033  -5.624  1.00  0.00     0.010 A 
ATOM     35  C   UNL     1       7.113  -3.923  -7.766  1.00  0.00     0.010 A 
ATOM     36  C   UNL     1       6.999  -2.823  -6.896  1.00  0.00    -0.014 A 
BRANCH  36  37
ATOM     37  C   UNL     1       7.419  -1.468  -7.352  1.00  0.00     0.031 A 
ATOM     38  C   UNL     1       6.862  -0.904  -8.634  1.00  0.00     0.074 A 
ATOM     39  C   UNL     1       8.315  -0.744  -6.651  1.00  0.00     0.049 A 
ATOM     40  N   UNL     1       7.304   0.091  -9.362  1.00  0.00    -0.248 NA
ATOM     41  C   UNL     1       5.663  -1.561  -9.180  1.00  0.00     0.031 C 
ATOM     42  C   UNL     1       8.891  -1.111  -5.357  1.00  0.00     0.029 A 
ATOM     43  N   UNL     1       8.908   0.461  -6.945  1.00  0.00    -0.354 N 
ATOM     44  C   UNL     1       6.487   0.126 -10.487  1.00  0.00     0.074 A 
ATOM     45  C   UNL     1       5.517  -0.937 -10.340  1.00  0.00     0.031 C 
ATOM     46  C   UNL     1       9.729  -0.144  -4.956  1.00  0.00     0.029 A 
ATOM     47  C   UNL     1       9.833   0.857  -6.010  1.00  0.00     0.049 A 
ATOM     48  H   UNL     1       8.691   0.988  -7.748  1.00  0.00     0.167 HD
ATOM     49  C   UNL     1       6.552   0.962 -11.551  1.00  0.00     0.031 A 
ATOM     50  C   UNL     1      10.715   1.874  -6.020  1.00  0.00     0.031 A 
ATOM     51  C   UNL     1       7.480   2.056 -11.666  1.00  0.00     0.049 A 
ATOM     52  C   UNL     1      10.797   2.767  -7.223  1.00  0.00     0.074 A 
ATOM     53  C   UNL     1       7.623   2.962 -12.703  1.00  0.00     0.029 A 
ATOM     54  N   UNL     1       8.406   2.406 -10.697  1.00  0.00    -0.354 N 
ATOM     55  N   UNL     1      10.085   2.736  -8.323  1.00  0.00    -0.248 NA
ATOM     56  C   UNL     1      11.820   3.822  -7.196  1.00  0.00     0.031 C 
ATOM     57  C   UNL     1       8.657   3.844 -12.374  1.00  0.00     0.029 A 
ATOM     58  C   UNL     1       9.126   3.513 -11.113  1.00  0.00     0.049 A 
ATOM     59  H   UNL     1       8.534   1.938  -9.841  1.00  0.00     0.167 HD
ATOM     60  C   UNL     1      10.559   3.777  -9.109  1.00  0.00     0.074 A 
ATOM     61  C   UNL     1      11.611   4.428  -8.357  1.00  0.00     0.031 C 
ATOM     62  C   UNL     1      10.158   4.158 -10.345  1.00  0.00     0.031 A 
BRANCH  49  63
ATOM     63  C   UNL     1       5.623   0.699 -12.703  1.00  0.00    -0.014 A 
ATOM     64  C   UNL     1       4.253   0.992 -12.630  1.00  0.00     0.009 A 
ATOM     65  C   UNL     1       6.145   0.186 -13.902  1.00  0.00     0.009 A 
ATOM     66  C   UNL     1       3.420   0.747 -13.725  1.00  0.00     0.001 A 
ATOM     67  C   UNL     1       5.315  -0.033 -15.003  1.00  0.00     0.001 A 
ATOM     68  C   UNL     1       3.952   0.240 -14.911  1.00  0.00     0.000 A 
ENDBRANCH  49  63
BRANCH  50  69
ATOM     69  C   UNL     1      11.641   2.060  -4.872  1.00  0.00    -0.014 A 
ATOM     70  C   UNL     1      11.490   3.152  -4.005  1.00  0.00     0.009 A 
ATOM     71  C   UNL     1      12.672   1.137  -4.631  1.00  0.00     0.009 A 
ATOM     72  C   UNL     1      12.363   3.324  -2.928  1.00  0.00     0.001 A 
ATOM     73  C   UNL     1      13.523   1.295  -3.536  1.00  0.00     0.001 A 
ATOM     74  C   UNL     1      13.373   2.392  -2.690  1.00  0.00     0.000 A 
ENDBRANCH  50  69
BRANCH  62  75
ATOM     75  C   UNL     1      10.819   5.366 -10.940  1.00  0.00    -0.014 A 
ATOM     76  C   UNL     1      12.111   5.298 -11.481  1.00  0.00     0.009 A 
ATOM     77  C   UNL     1      10.113   6.578 -11.002  1.00  0.00     0.009 A 
ATOM     78  C   UNL     1      12.693   6.430 -12.054  1.00  0.00     0.001 A 
ATOM     79  C   UNL     1      10.689   7.701 -11.595  1.00  0.00     0.001 A 
ATOM     80  C   UNL     1      11.980   7.628 -12.115  1.00  0.00     0.000 A 
ENDBRANCH  62  75
ENDBRANCH  36  37
ENDBRANCH  29  31
ENDBRANCH  28  29
ENDBRANCH  27  28
ENDBRANCH   1  27
TORSDOF 16
