REMARK SMILES Cn1cc2cc(C(=O)OCCOC(=O)c3ccc(-c4c5nc(c(-c6ccccc6)c6ccc([nH]6)c(-c6ccccc6)c6nc(c(-c7ccccc7)c7ccc4[nH]7)C=C6)C=C5)cc3)ccc2n1
REMARK SMILES IDX 11 1 10 2 9 3 7 4 8 5 6 6 1 7 2 8 3 9 66 10 4 11 65 12 5 13
REMARK SMILES IDX 64 14 63 15 12 16 13 17 14 18 15 19 16 20 62 21 17 22 61 23
REMARK SMILES IDX 18 24 19 25 20 26 55 27 21 28 60 29 54 30 56 31 22 32 59 33
REMARK SMILES IDX 53 34 52 35 23 37 45 38 30 39 44 40 31 41 34 42 43 43 57 44
REMARK SMILES IDX 32 45 33 46 42 48 58 49 35 50 24 51 25 52 29 53 26 54 28 55
REMARK SMILES IDX 27 56 46 57 47 58 51 59 48 60 50 61 49 62 36 63 37 64 41 65
REMARK SMILES IDX 38 66 40 67 39 68
REMARK H PARENT 56 36 34 47
REMARK Flexibility Score: inf
ROOT
ATOM      1  C   UNL     1       6.193  -1.867   1.125  1.00  0.00     0.275 C 
ENDROOT
BRANCH   1   2
ATOM      2  C   UNL     1       6.020  -0.902  -0.048  1.00  0.00     0.275 C 
BRANCH   2   3
ATOM      3  O   UNL     1       4.743  -0.235   0.025  1.00  0.00    -0.458 OA
BRANCH   3   4
ATOM      4  C   UNL     1       3.773  -0.725  -0.785  1.00  0.00     0.338 C 
ATOM      5  O   UNL     1       3.884  -1.651  -1.574  1.00  0.00    -0.246 OA
BRANCH   4   6
ATOM      6  C   UNL     1       2.472  -0.059  -0.511  1.00  0.00     0.060 A 
ATOM      7  C   UNL     1      -3.332   0.337   0.158  1.00  0.00     0.173 C 
ATOM      8  N   UNL     1      -1.894   0.364   0.030  1.00  0.00    -0.275 N 
ATOM      9  C   UNL     1      -1.098  -0.681  -0.341  1.00  0.00     0.117 A 
ATOM     10  N   UNL     1      -1.227   1.515   0.273  1.00  0.00    -0.173 NA
ATOM     11  C   UNL     1       0.164  -0.160  -0.347  1.00  0.00     0.021 A 
ATOM     12  C   UNL     1       0.066   1.215   0.063  1.00  0.00     0.092 A 
ATOM     13  C   UNL     1       1.315  -0.858  -0.679  1.00  0.00     0.027 A 
ATOM     14  C   UNL     1       1.221   2.009   0.179  1.00  0.00     0.032 A 
ATOM     15  C   UNL     1       2.426   1.318  -0.107  1.00  0.00     0.018 A 
ENDBRANCH   4   6
ENDBRANCH   3   4
ENDBRANCH   2   3
ENDBRANCH   1   2
BRANCH   1  16
ATOM     16  O   UNL     1       5.217  -2.919   1.027  1.00  0.00    -0.458 OA
BRANCH  16  17
ATOM     17  C   UNL     1       4.508  -3.177   2.149  1.00  0.00     0.338 C 
ATOM     18  O   UNL     1       4.647  -2.675   3.250  1.00  0.00    -0.246 OA
BRANCH  17  19
ATOM     19  C   UNL     1       3.485  -4.197   1.857  1.00  0.00     0.060 A 
ATOM     20  C   UNL     1       2.564  -3.979   0.836  1.00  0.00     0.016 A 
ATOM     21  C   UNL     1       3.364  -5.318   2.676  1.00  0.00     0.016 A 
ATOM     22  C   UNL     1       1.468  -4.828   0.682  1.00  0.00     0.010 A 
ATOM     23  C   UNL     1       2.319  -6.223   2.459  1.00  0.00     0.010 A 
ATOM     24  C   UNL     1       1.333  -5.969   1.487  1.00  0.00    -0.014 A 
BRANCH  24  25
ATOM     25  C   UNL     1       0.144  -6.861   1.353  1.00  0.00     0.031 A 
ATOM     26  C   UNL     1      -0.755  -7.111   2.540  1.00  0.00     0.074 A 
ATOM     27  C   UNL     1      -0.155  -7.446   0.176  1.00  0.00     0.049 A 
ATOM     28  N   UNL     1      -1.727  -7.978   2.676  1.00  0.00    -0.248 NA
ATOM     29  C   UNL     1      -0.520  -6.285   3.735  1.00  0.00     0.031 C 
ATOM     30  C   UNL     1       0.582  -7.268  -1.077  1.00  0.00     0.029 A 
ATOM     31  N   UNL     1      -1.173  -8.307  -0.161  1.00  0.00    -0.354 N 
ATOM     32  C   UNL     1      -2.171  -7.850   3.987  1.00  0.00     0.074 A 
ATOM     33  C   UNL     1      -1.365  -6.819   4.605  1.00  0.00     0.031 C 
ATOM     34  C   UNL     1      -0.033  -7.955  -2.051  1.00  0.00     0.029 A 
ATOM     35  C   UNL     1      -1.153  -8.694  -1.479  1.00  0.00     0.049 A 
ATOM     36  H   UNL     1      -1.851  -8.616   0.482  1.00  0.00     0.167 HD
ATOM     37  C   UNL     1      -3.156  -8.529   4.623  1.00  0.00     0.031 A 
ATOM     38  C   UNL     1      -1.919  -9.575  -2.151  1.00  0.00     0.031 A 
ATOM     39  C   UNL     1      -3.997  -9.518   4.002  1.00  0.00     0.049 A 
ATOM     40  C   UNL     1      -2.986 -10.337  -1.421  1.00  0.00     0.074 A 
ATOM     41  C   UNL     1      -5.033 -10.245   4.565  1.00  0.00     0.029 A 
ATOM     42  N   UNL     1      -3.912  -9.906   2.675  1.00  0.00    -0.354 N 
ATOM     43  N   UNL     1      -3.352 -10.248  -0.166  1.00  0.00    -0.248 NA
ATOM     44  C   UNL     1      -3.732 -11.338  -2.198  1.00  0.00     0.031 C 
ATOM     45  C   UNL     1      -5.552 -11.100   3.585  1.00  0.00     0.029 A 
ATOM     46  C   UNL     1      -4.867 -10.871   2.403  1.00  0.00     0.049 A 
ATOM     47  H   UNL     1      -3.267  -9.549   2.023  1.00  0.00     0.167 HD
ATOM     48  C   UNL     1      -4.371 -11.176  -0.003  1.00  0.00     0.074 A 
ATOM     49  C   UNL     1      -4.584 -11.800  -1.293  1.00  0.00     0.031 C 
ATOM     50  C   UNL     1      -5.064 -11.489   1.119  1.00  0.00     0.031 A 
BRANCH  37  51
ATOM     51  C   UNL     1      -3.350  -8.256   6.089  1.00  0.00    -0.014 A 
ATOM     52  C   UNL     1      -3.942  -7.069   6.546  1.00  0.00     0.009 A 
ATOM     53  C   UNL     1      -2.957  -9.225   7.027  1.00  0.00     0.009 A 
ATOM     54  C   UNL     1      -4.103  -6.843   7.915  1.00  0.00     0.001 A 
ATOM     55  C   UNL     1      -3.143  -9.008   8.393  1.00  0.00     0.001 A 
ATOM     56  C   UNL     1      -3.707  -7.813   8.836  1.00  0.00     0.000 A 
ENDBRANCH  37  51
BRANCH  38  57
ATOM     57  C   UNL     1      -1.669  -9.820  -3.595  1.00  0.00    -0.014 A 
ATOM     58  C   UNL     1      -2.582  -9.375  -4.562  1.00  0.00     0.009 A 
ATOM     59  C   UNL     1      -0.509 -10.492  -4.013  1.00  0.00     0.009 A 
ATOM     60  C   UNL     1      -2.342  -9.606  -5.919  1.00  0.00     0.001 A 
ATOM     61  C   UNL     1      -0.258 -10.695  -5.371  1.00  0.00     0.001 A 
ATOM     62  C   UNL     1      -1.177 -10.258  -6.322  1.00  0.00     0.000 A 
ENDBRANCH  38  57
BRANCH  50  63
ATOM     63  C   UNL     1      -6.132 -12.536   0.992  1.00  0.00    -0.014 A 
ATOM     64  C   UNL     1      -5.803 -13.896   0.886  1.00  0.00     0.009 A 
ATOM     65  C   UNL     1      -7.483 -12.159   1.003  1.00  0.00     0.009 A 
ATOM     66  C   UNL     1      -6.809 -14.857   0.764  1.00  0.00     0.001 A 
ATOM     67  C   UNL     1      -8.487 -13.123   0.904  1.00  0.00     0.001 A 
ATOM     68  C   UNL     1      -8.149 -14.470   0.776  1.00  0.00     0.000 A 
ENDBRANCH  50  63
ENDBRANCH  24  25
ENDBRANCH  17  19
ENDBRANCH  16  17
ENDBRANCH   1  16
TORSDOF 11
