REMARK SMILES CC(C)C[C@H](CNC(=O)c1ccc(O)cc1O)C(=O)OCCOC(=O)c1ccc(-c2c3nc(c(-c4ccccc4)c4ccc([nH]4)c(-c4ccccc4)c4nc(c(-c5ccccc5)c5ccc2[nH]5)C=C4)C=C3)cc1
REMARK SMILES IDX 21 1 20 2 18 3 19 4 5 5 4 6 2 7 1 8 3 9 6 10 7 11 8 12 9 14
REMARK SMILES IDX 10 15 11 16 16 17 12 18 15 19 13 20 17 21 14 23 22 25 23 26
REMARK SMILES IDX 24 27 25 28 26 29 27 30 73 31 28 32 72 33 29 34 30 35 31 36
REMARK SMILES IDX 66 37 32 38 71 39 65 40 67 41 33 42 70 43 64 44 63 45 34 47
REMARK SMILES IDX 56 48 41 49 55 50 42 51 45 52 54 53 68 54 43 55 44 56 53 58
REMARK SMILES IDX 69 59 46 60 35 61 36 62 40 63 37 64 39 65 38 66 57 67 58 68
REMARK SMILES IDX 62 69 59 70 61 71 60 72 47 73 48 74 52 75 49 76 51 77 50 78
REMARK H PARENT 7 13 17 22 14 24 67 46 45 57
REMARK Flexibility Score: inf
ROOT
ATOM      1  C   UNL     1      -5.127  -1.300   1.725  1.00  0.00     0.274 C 
ENDROOT
BRANCH   1   2
ATOM      2  O   UNL     1      -3.692  -1.415   1.841  1.00  0.00    -0.462 OA
BRANCH   2   3
ATOM      3  C   UNL     1      -3.073  -1.904   0.737  1.00  0.00     0.310 C 
ATOM      4  O   UNL     1      -3.662  -2.232  -0.288  1.00  0.00    -0.252 OA
BRANCH   3   5
ATOM      5  C   UNL     1      -1.562  -1.984   0.856  1.00  0.00     0.118 C 
BRANCH   5   6
ATOM      6  C   UNL     1      -0.976  -3.306   1.383  1.00  0.00     0.020 C 
BRANCH   6   7
ATOM      7  C   UNL     1      -1.796  -4.596   1.202  1.00  0.00    -0.017 C 
ATOM      8  C   UNL     1      -2.018  -4.996  -0.256  1.00  0.00     0.007 C 
ATOM      9  C   UNL     1      -1.073  -5.745   1.918  1.00  0.00     0.007 C 
ENDBRANCH   6   7
ENDBRANCH   5   6
BRANCH   5  10
ATOM     10  C   UNL     1      -0.965  -0.736   1.537  1.00  0.00     0.131 C 
BRANCH  10  11
ATOM     11  N   UNL     1      -0.880  -0.829   2.990  1.00  0.00    -0.351 N 
ATOM     12  C   UNL     1       0.249  -0.783   3.771  1.00  0.00     0.255 C 
ATOM     13  H   UNL     1      -1.733  -0.937   3.469  1.00  0.00     0.163 HD
ATOM     14  O   UNL     1       0.248  -1.221   4.918  1.00  0.00    -0.269 OA
BRANCH  12  15
ATOM     15  C   UNL     1       1.512  -0.271   3.205  1.00  0.00     0.081 A 
ATOM     16  C   UNL     1       1.547   0.986   2.587  1.00  0.00     0.021 A 
ATOM     17  C   UNL     1       2.675  -1.042   3.292  1.00  0.00     0.132 A 
ATOM     18  C   UNL     1       2.728   1.435   1.993  1.00  0.00     0.047 A 
ATOM     19  C   UNL     1       3.848  -0.603   2.685  1.00  0.00     0.093 A 
ATOM     20  C   UNL     1       3.863   0.627   2.034  1.00  0.00     0.119 A 
BRANCH  17  21
ATOM     21  O   UNL     1       2.719  -2.240   3.953  1.00  0.00    -0.507 OA
ATOM     22  H   UNL     1       1.950  -2.570   4.375  1.00  0.00     0.293 HD
ENDBRANCH  17  21
BRANCH  20  23
ATOM     23  O   UNL     1       5.028   1.018   1.442  1.00  0.00    -0.508 OA
ATOM     24  H   UNL     1       5.073   1.841   0.995  1.00  0.00     0.293 HD
ENDBRANCH  20  23
ENDBRANCH  12  15
ENDBRANCH  10  11
ENDBRANCH   5  10
ENDBRANCH   3   5
ENDBRANCH   2   3
ENDBRANCH   1   2
BRANCH   1  25
ATOM     25  C   UNL     1      -5.580   0.062   1.179  1.00  0.00     0.275 C 
BRANCH  25  26
ATOM     26  O   UNL     1      -5.202   0.265  -0.197  1.00  0.00    -0.458 OA
BRANCH  26  27
ATOM     27  C   UNL     1      -4.075   0.990  -0.387  1.00  0.00     0.338 C 
ATOM     28  O   UNL     1      -3.382   1.510   0.471  1.00  0.00    -0.246 OA
BRANCH  27  29
ATOM     29  C   UNL     1      -3.676   0.968  -1.804  1.00  0.00     0.060 A 
ATOM     30  C   UNL     1      -2.451   0.376  -2.128  1.00  0.00     0.016 A 
ATOM     31  C   UNL     1      -4.426   1.618  -2.784  1.00  0.00     0.016 A 
ATOM     32  C   UNL     1      -1.967   0.424  -3.433  1.00  0.00     0.010 A 
ATOM     33  C   UNL     1      -3.934   1.678  -4.094  1.00  0.00     0.010 A 
ATOM     34  C   UNL     1      -2.697   1.092  -4.421  1.00  0.00    -0.014 A 
BRANCH  34  35
ATOM     35  C   UNL     1      -2.128   1.237  -5.781  1.00  0.00     0.031 A 
ATOM     36  C   UNL     1      -1.513   2.543  -6.193  1.00  0.00     0.074 A 
ATOM     37  C   UNL     1      -2.140   0.198  -6.635  1.00  0.00     0.049 A 
ATOM     38  N   UNL     1      -1.054   2.908  -7.362  1.00  0.00    -0.248 NA
ATOM     39  C   UNL     1      -1.399   3.573  -5.149  1.00  0.00     0.031 C 
ATOM     40  C   UNL     1      -2.645  -1.140  -6.330  1.00  0.00     0.029 A 
ATOM     41  N   UNL     1      -1.721   0.114  -7.938  1.00  0.00    -0.354 N 
ATOM     42  C   UNL     1      -0.620   4.218  -7.204  1.00  0.00     0.074 A 
ATOM     43  C   UNL     1      -0.873   4.584  -5.826  1.00  0.00     0.031 C 
ATOM     44  C   UNL     1      -2.518  -1.911  -7.423  1.00  0.00     0.029 A 
ATOM     45  C   UNL     1      -1.969  -1.108  -8.513  1.00  0.00     0.049 A 
ATOM     46  H   UNL     1      -1.285   0.857  -8.415  1.00  0.00     0.167 HD
ATOM     47  C   UNL     1      -0.068   5.043  -8.125  1.00  0.00     0.031 A 
ATOM     48  C   UNL     1      -1.809  -1.521  -9.784  1.00  0.00     0.031 A 
ATOM     49  C   UNL     1       0.179   4.679  -9.494  1.00  0.00     0.049 A 
ATOM     50  C   UNL     1      -1.267  -0.564 -10.809  1.00  0.00     0.074 A 
ATOM     51  C   UNL     1       0.739   5.444 -10.503  1.00  0.00     0.029 A 
ATOM     52  N   UNL     1      -0.122   3.444 -10.047  1.00  0.00    -0.354 N 
ATOM     53  N   UNL     1      -0.873   0.677 -10.652  1.00  0.00    -0.248 NA
ATOM     54  C   UNL     1      -1.155  -1.062 -12.187  1.00  0.00     0.031 C 
ATOM     55  C   UNL     1       0.735   4.686 -11.680  1.00  0.00     0.029 A 
ATOM     56  C   UNL     1       0.215   3.434 -11.390  1.00  0.00     0.049 A 
ATOM     57  H   UNL     1      -0.517   2.687  -9.558  1.00  0.00     0.167 HD
ATOM     58  C   UNL     1      -0.454   1.103 -11.905  1.00  0.00     0.074 A 
ATOM     59  C   UNL     1      -0.627  -0.016 -12.809  1.00  0.00     0.031 C 
ATOM     60  C   UNL     1       0.031   2.313 -12.274  1.00  0.00     0.031 A 
BRANCH  47  61
ATOM     61  C   UNL     1       0.253   6.442  -7.688  1.00  0.00    -0.014 A 
ATOM     62  C   UNL     1       1.357   6.718  -6.867  1.00  0.00     0.009 A 
ATOM     63  C   UNL     1      -0.556   7.504  -8.121  1.00  0.00     0.009 A 
ATOM     64  C   UNL     1       1.625   8.027  -6.462  1.00  0.00     0.001 A 
ATOM     65  C   UNL     1      -0.273   8.814  -7.733  1.00  0.00     0.001 A 
ATOM     66  C   UNL     1       0.811   9.074  -6.896  1.00  0.00     0.000 A 
ENDBRANCH  47  61
BRANCH  48  67
ATOM     67  C   UNL     1      -2.221  -2.894 -10.171  1.00  0.00    -0.014 A 
ATOM     68  C   UNL     1      -1.264  -3.871 -10.481  1.00  0.00     0.009 A 
ATOM     69  C   UNL     1      -3.583  -3.234 -10.228  1.00  0.00     0.009 A 
ATOM     70  C   UNL     1      -1.664  -5.157 -10.854  1.00  0.00     0.001 A 
ATOM     71  C   UNL     1      -3.978  -4.526 -10.576  1.00  0.00     0.001 A 
ATOM     72  C   UNL     1      -3.018  -5.485 -10.895  1.00  0.00     0.000 A 
ENDBRANCH  48  67
BRANCH  60  73
ATOM     73  C   UNL     1       0.431   2.482 -13.712  1.00  0.00    -0.014 A 
ATOM     74  C   UNL     1      -0.534   2.646 -14.717  1.00  0.00     0.009 A 
ATOM     75  C   UNL     1       1.790   2.523 -14.056  1.00  0.00     0.009 A 
ATOM     76  C   UNL     1      -0.143   2.825 -16.045  1.00  0.00     0.001 A 
ATOM     77  C   UNL     1       2.178   2.724 -15.381  1.00  0.00     0.001 A 
ATOM     78  C   UNL     1       1.211   2.868 -16.375  1.00  0.00     0.000 A 
ENDBRANCH  60  73
ENDBRANCH  34  35
ENDBRANCH  27  29
ENDBRANCH  26  27
ENDBRANCH  25  26
ENDBRANCH   1  25
TORSDOF 18
