REMARK SMILES C[C@@H](Oc1ccc2c(c1)OCO2)C(=O)N1CCn2nc(C(=O)OCCOC(=O)c3ccc(-c4c5nc(c(-c6ccccc6)c6ccc([nH]6)c(-c6ccccc6)c6nc(c(-c7ccccc7)c7ccc4[nH]7)C=C6)C=C5)cc3)cc2C1
REMARK SMILES IDX 24 1 23 2 21 3 22 4 20 5 15 6 16 7 79 8 17 9 78 10 18 11
REMARK SMILES IDX 77 12 19 13 13 14 14 15 2 16 1 17 3 18 4 19 5 20 9 21 6 22
REMARK SMILES IDX 8 23 7 24 10 25 12 26 11 27 25 28 26 29 27 30 28 31 29 32
REMARK SMILES IDX 30 33 76 34 31 35 75 36 32 37 33 38 34 39 69 40 35 41 74 42
REMARK SMILES IDX 68 43 70 44 36 45 73 46 67 47 66 48 37 50 59 51 44 52 58 53
REMARK SMILES IDX 45 54 48 55 57 56 71 57 46 58 47 59 56 61 72 62 49 63 38 64
REMARK SMILES IDX 39 65 43 66 40 67 42 68 41 69 60 70 61 71 65 72 62 73 64 74
REMARK SMILES IDX 63 75 50 76 51 77 55 78 52 79 54 80 53 81
REMARK H PARENT 70 49 48 60
REMARK Flexibility Score: inf
ROOT
ATOM      1  C   UNL     1      -7.446  -0.490  -6.858  1.00  0.00     0.275 C 
ENDROOT
BRANCH   1   2
ATOM      2  O   UNL     1      -6.591  -0.195  -5.741  1.00  0.00    -0.457 OA
BRANCH   2   3
ATOM      3  C   UNL     1      -6.040  -1.282  -5.110  1.00  0.00     0.358 C 
ATOM      4  O   UNL     1      -6.396  -2.441  -5.317  1.00  0.00    -0.244 OA
BRANCH   3   5
ATOM      5  C   UNL     1      -4.935  -0.904  -4.219  1.00  0.00     0.170 A 
ATOM      6  N   UNL     1      -1.579   0.662  -1.469  1.00  0.00    -0.332 N 
ATOM      7  C   UNL     1      -1.130  -0.715  -1.706  1.00  0.00     0.143 C 
ATOM      8  C   UNL     1      -2.848   1.157  -1.988  1.00  0.00     0.175 C 
ATOM      9  C   UNL     1      -2.056  -1.697  -2.410  1.00  0.00     0.166 C 
ATOM     10  C   UNL     1      -3.538   0.228  -2.897  1.00  0.00     0.059 A 
ATOM     11  N   UNL     1      -3.190  -1.073  -3.026  1.00  0.00    -0.265 N 
ATOM     12  C   UNL     1      -4.615   0.397  -3.739  1.00  0.00     0.063 A 
ATOM     13  N   UNL     1      -4.047  -1.805  -3.751  1.00  0.00    -0.165 NA
BRANCH   6  14
ATOM     14  C   UNL     1      -0.844   1.600  -0.734  1.00  0.00     0.263 C 
ATOM     15  O   UNL     1      -1.384   2.622  -0.294  1.00  0.00    -0.271 OA
BRANCH  14  16
ATOM     16  C   UNL     1       0.670   1.399  -0.521  1.00  0.00     0.259 C 
ATOM     17  C   UNL     1       0.992   0.258   0.437  1.00  0.00     0.064 C 
BRANCH  16  18
ATOM     18  O   UNL     1       1.223   1.204  -1.831  1.00  0.00    -0.481 OA
BRANCH  18  19
ATOM     19  C   UNL     1       2.543   1.530  -1.936  1.00  0.00     0.124 A 
ATOM     20  C   UNL     1       3.508   0.555  -1.636  1.00  0.00     0.050 A 
ATOM     21  C   UNL     1       2.903   2.749  -2.514  1.00  0.00     0.097 A 
ATOM     22  C   UNL     1       4.859   0.799  -1.881  1.00  0.00     0.054 A 
ATOM     23  C   UNL     1       4.245   2.956  -2.761  1.00  0.00     0.169 A 
ATOM     24  C   UNL     1       5.194   2.007  -2.452  1.00  0.00     0.166 A 
ATOM     25  O   UNL     1       4.791   4.055  -3.349  1.00  0.00    -0.453 OA
ATOM     26  O   UNL     1       6.450   2.391  -2.802  1.00  0.00    -0.454 OA
ATOM     27  C   UNL     1       6.182   3.673  -3.405  1.00  0.00     0.468 C 
ENDBRANCH  18  19
ENDBRANCH  16  18
ENDBRANCH  14  16
ENDBRANCH   6  14
ENDBRANCH   3   5
ENDBRANCH   2   3
ENDBRANCH   1   2
BRANCH   1  28
ATOM     28  C   UNL     1      -6.646  -0.615  -8.149  1.00  0.00     0.275 C 
BRANCH  28  29
ATOM     29  O   UNL     1      -5.847  -1.797  -8.151  1.00  0.00    -0.458 OA
BRANCH  29  30
ATOM     30  C   UNL     1      -4.570  -1.637  -7.733  1.00  0.00     0.338 C 
ATOM     31  O   UNL     1      -4.099  -0.656  -7.183  1.00  0.00    -0.246 OA
BRANCH  30  32
ATOM     32  C   UNL     1      -3.755  -2.740  -8.261  1.00  0.00     0.060 A 
ATOM     33  C   UNL     1      -2.389  -2.720  -7.965  1.00  0.00     0.016 A 
ATOM     34  C   UNL     1      -4.279  -3.558  -9.273  1.00  0.00     0.016 A 
ATOM     35  C   UNL     1      -1.523  -3.365  -8.824  1.00  0.00     0.010 A 
ATOM     36  C   UNL     1      -3.414  -4.184 -10.139  1.00  0.00     0.010 A 
ATOM     37  C   UNL     1      -2.047  -4.008  -9.951  1.00  0.00    -0.014 A 
BRANCH  37  38
ATOM     38  C   UNL     1      -1.122  -4.511 -10.941  1.00  0.00     0.031 A 
ATOM     39  C   UNL     1      -0.444  -5.769 -10.569  1.00  0.00     0.074 A 
ATOM     40  C   UNL     1      -0.968  -3.933 -12.145  1.00  0.00     0.049 A 
ATOM     41  N   UNL     1       0.814  -5.944 -10.346  1.00  0.00    -0.248 NA
ATOM     42  C   UNL     1      -1.281  -6.947 -10.308  1.00  0.00     0.031 C 
ATOM     43  C   UNL     1      -1.772  -2.883 -12.773  1.00  0.00     0.029 A 
ATOM     44  N   UNL     1      -0.087  -4.274 -13.120  1.00  0.00    -0.354 N 
ATOM     45  C   UNL     1       0.963  -7.290 -10.034  1.00  0.00     0.074 A 
ATOM     46  C   UNL     1      -0.368  -7.830  -9.905  1.00  0.00     0.031 C 
ATOM     47  C   UNL     1      -1.489  -2.846 -14.097  1.00  0.00     0.029 A 
ATOM     48  C   UNL     1      -0.397  -3.767 -14.370  1.00  0.00     0.049 A 
ATOM     49  H   UNL     1       0.705  -4.835 -12.952  1.00  0.00     0.167 HD
ATOM     50  C   UNL     1       2.174  -7.907 -10.075  1.00  0.00     0.031 A 
ATOM     51  C   UNL     1       0.162  -4.156 -15.542  1.00  0.00     0.031 A 
ATOM     52  C   UNL     1       3.258  -6.964 -10.150  1.00  0.00     0.049 A 
ATOM     53  C   UNL     1       1.451  -4.822 -15.226  1.00  0.00     0.074 A 
ATOM     54  C   UNL     1       3.748  -5.982  -9.314  1.00  0.00     0.029 A 
ATOM     55  N   UNL     1       3.777  -6.698 -11.395  1.00  0.00    -0.354 N 
ATOM     56  N   UNL     1       2.484  -4.190 -14.746  1.00  0.00    -0.248 NA
ATOM     57  C   UNL     1       1.453  -6.262 -15.015  1.00  0.00     0.031 C 
ATOM     58  C   UNL     1       4.137  -4.921 -10.182  1.00  0.00     0.029 A 
ATOM     59  C   UNL     1       3.908  -5.336 -11.496  1.00  0.00     0.049 A 
ATOM     60  H   UNL     1       4.012  -7.360 -12.085  1.00  0.00     0.167 HD
ATOM     61  C   UNL     1       3.030  -5.058 -13.811  1.00  0.00     0.074 A 
ATOM     62  C   UNL     1       2.421  -6.355 -14.097  1.00  0.00     0.031 C 
ATOM     63  C   UNL     1       3.702  -4.589 -12.717  1.00  0.00     0.031 A 
BRANCH  50  64
ATOM     64  C   UNL     1       2.362  -9.363 -10.389  1.00  0.00    -0.014 A 
ATOM     65  C   UNL     1       3.650  -9.917 -10.283  1.00  0.00     0.009 A 
ATOM     66  C   UNL     1       1.384 -10.140 -11.035  1.00  0.00     0.009 A 
ATOM     67  C   UNL     1       3.954 -11.159 -10.851  1.00  0.00     0.001 A 
ATOM     68  C   UNL     1       1.673 -11.399 -11.567  1.00  0.00     0.001 A 
ATOM     69  C   UNL     1       2.966 -11.896 -11.499  1.00  0.00     0.000 A 
ENDBRANCH  50  64
BRANCH  51  70
ATOM     70  C   UNL     1      -0.491  -4.275 -16.863  1.00  0.00    -0.014 A 
ATOM     71  C   UNL     1       0.273  -4.429 -18.030  1.00  0.00     0.009 A 
ATOM     72  C   UNL     1      -1.876  -4.511 -16.951  1.00  0.00     0.009 A 
ATOM     73  C   UNL     1      -0.323  -4.843 -19.230  1.00  0.00     0.001 A 
ATOM     74  C   UNL     1      -2.471  -4.920 -18.148  1.00  0.00     0.001 A 
ATOM     75  C   UNL     1      -1.691  -5.102 -19.284  1.00  0.00     0.000 A 
ENDBRANCH  51  70
BRANCH  63  76
ATOM     76  C   UNL     1       4.002  -3.110 -12.655  1.00  0.00    -0.014 A 
ATOM     77  C   UNL     1       2.992  -2.129 -12.650  1.00  0.00     0.009 A 
ATOM     78  C   UNL     1       5.323  -2.701 -12.427  1.00  0.00     0.009 A 
ATOM     79  C   UNL     1       3.302  -0.780 -12.454  1.00  0.00     0.001 A 
ATOM     80  C   UNL     1       5.630  -1.356 -12.210  1.00  0.00     0.001 A 
ATOM     81  C   UNL     1       4.622  -0.395 -12.229  1.00  0.00     0.000 A 
ENDBRANCH  63  76
ENDBRANCH  37  38
ENDBRANCH  30  32
ENDBRANCH  29  30
ENDBRANCH  28  29
ENDBRANCH   1  28
TORSDOF 15
