REMARK SMILES Cc1cscc1C(=O)NC1(C(=O)OCCOC(=O)c2ccc(-c3c4nc(c(-c5ccccc5)c5ccc([nH]5)c(-c5ccccc5)c5nc(c(-c6ccccc6)c6ccc3[nH]6)C=C5)C=C4)cc2)CCCC1
REMARK SMILES IDX 14 1 13 2 11 3 12 4 10 5 67 6 70 7 68 8 69 9 9 10 7 11 8 12
REMARK SMILES IDX 6 14 1 15 2 16 3 17 4 18 5 19 15 20 16 21 17 22 18 23 19 24
REMARK SMILES IDX 20 25 66 26 21 27 65 28 22 29 23 30 24 31 59 32 25 33 64 34
REMARK SMILES IDX 58 35 60 36 26 37 63 38 57 39 56 40 27 42 49 43 34 44 48 45
REMARK SMILES IDX 35 46 38 47 47 48 61 49 36 50 37 51 46 53 62 54 39 55 28 56
REMARK SMILES IDX 29 57 33 58 30 59 32 60 31 61 50 62 51 63 55 64 52 65 54 66
REMARK SMILES IDX 53 67 40 68 41 69 45 70 42 71 44 72 43 73
REMARK H PARENT 9 13 60 41 38 52
REMARK Flexibility Score: inf
ROOT
ATOM      1  C   UNL     1       5.945   0.515   2.734  1.00  0.00     0.274 C 
ENDROOT
BRANCH   1   2
ATOM      2  O   UNL     1       5.434   0.387   1.391  1.00  0.00    -0.460 OA
BRANCH   2   3
ATOM      3  C   UNL     1       4.089   0.533   1.216  1.00  0.00     0.331 C 
ATOM      4  O   UNL     1       3.288   0.693   2.129  1.00  0.00    -0.249 OA
BRANCH   3   5
ATOM      5  C   UNL     1       3.681   0.423  -0.282  1.00  0.00     0.138 C 
ATOM      6  C   UNL     1       3.571  -1.030  -0.716  1.00  0.00     0.040 C 
ATOM      7  C   UNL     1       4.799   0.973  -1.223  1.00  0.00     0.040 C 
ATOM      8  C   UNL     1       4.978  -1.440  -1.131  1.00  0.00     0.003 C 
ATOM      9  C   UNL     1       5.551  -0.218  -1.809  1.00  0.00     0.003 C 
BRANCH   5  10
ATOM     10  N   UNL     1       2.517   1.321  -0.486  1.00  0.00    -0.336 N 
ATOM     11  C   UNL     1       1.190   1.533  -0.299  1.00  0.00     0.253 C 
ATOM     12  O   UNL     1       0.952   2.745  -0.446  1.00  0.00    -0.269 OA
ATOM     13  H   UNL     1       2.857   2.107  -0.971  1.00  0.00     0.165 HD
BRANCH  11  14
ATOM     14  C   UNL     1       0.059   0.623  -0.040  1.00  0.00     0.053 A 
ATOM     15  C   UNL     1       0.854  -1.833   0.563  1.00  0.00     0.046 C 
ATOM     16  C   UNL     1      -0.145  -0.779   0.282  1.00  0.00    -0.028 A 
ATOM     17  C   UNL     1      -1.494  -1.116   0.321  1.00  0.00     0.069 A 
ATOM     18  S   UNL     1      -2.532   0.198   0.087  1.00  0.00    -0.151 S 
ATOM     19  C   UNL     1      -1.202   1.230  -0.109  1.00  0.00     0.079 A 
ENDBRANCH  11  14
ENDBRANCH   5  10
ENDBRANCH   3   5
ENDBRANCH   2   3
ENDBRANCH   1   2
BRANCH   1  20
ATOM     20  C   UNL     1       6.788   1.781   2.850  1.00  0.00     0.275 C 
BRANCH  20  21
ATOM     21  O   UNL     1       5.944   2.927   2.644  1.00  0.00    -0.458 OA
BRANCH  21  22
ATOM     22  C   UNL     1       6.260   3.711   1.589  1.00  0.00     0.338 C 
ATOM     23  O   UNL     1       7.200   3.598   0.824  1.00  0.00    -0.246 OA
BRANCH  22  24
ATOM     24  C   UNL     1       5.246   4.766   1.465  1.00  0.00     0.060 A 
ATOM     25  C   UNL     1       3.944   4.427   1.095  1.00  0.00     0.016 A 
ATOM     26  C   UNL     1       5.617   6.100   1.621  1.00  0.00     0.016 A 
ATOM     27  C   UNL     1       3.019   5.432   0.814  1.00  0.00     0.010 A 
ATOM     28  C   UNL     1       4.667   7.103   1.411  1.00  0.00     0.010 A 
ATOM     29  C   UNL     1       3.368   6.780   0.976  1.00  0.00    -0.014 A 
BRANCH  29  30
ATOM     30  C   UNL     1       2.401   7.865   0.664  1.00  0.00     0.031 A 
ATOM     31  C   UNL     1       2.700   8.846  -0.437  1.00  0.00     0.074 A 
ATOM     32  C   UNL     1       1.263   7.991   1.374  1.00  0.00     0.049 A 
ATOM     33  N   UNL     1       2.092   9.966  -0.738  1.00  0.00    -0.248 NA
ATOM     34  C   UNL     1       3.844   8.531  -1.309  1.00  0.00     0.031 C 
ATOM     35  C   UNL     1       0.819   7.088   2.437  1.00  0.00     0.029 A 
ATOM     36  N   UNL     1       0.272   8.939   1.307  1.00  0.00    -0.354 N 
ATOM     37  C   UNL     1       2.807  10.513  -1.796  1.00  0.00     0.074 A 
ATOM     38  C   UNL     1       3.894   9.603  -2.088  1.00  0.00     0.031 C 
ATOM     39  C   UNL     1      -0.365   7.513   2.907  1.00  0.00     0.029 A 
ATOM     40  C   UNL     1      -0.728   8.753   2.229  1.00  0.00     0.049 A 
ATOM     41  H   UNL     1       0.278   9.681   0.659  1.00  0.00     0.167 HD
ATOM     42  C   UNL     1       2.582  11.671  -2.460  1.00  0.00     0.031 A 
ATOM     43  C   UNL     1      -1.799   9.512   2.525  1.00  0.00     0.031 A 
ATOM     44  C   UNL     1       1.482  12.560  -2.198  1.00  0.00     0.049 A 
ATOM     45  C   UNL     1      -2.014  10.805   1.791  1.00  0.00     0.074 A 
ATOM     46  C   UNL     1       1.171  13.756  -2.822  1.00  0.00     0.029 A 
ATOM     47  N   UNL     1       0.502  12.338  -1.245  1.00  0.00    -0.354 N 
ATOM     48  N   UNL     1      -1.297  11.338   0.832  1.00  0.00    -0.248 NA
ATOM     49  C   UNL     1      -3.178  11.607   2.193  1.00  0.00     0.031 C 
ATOM     50  C   UNL     1       0.015  14.273  -2.224  1.00  0.00     0.029 A 
ATOM     51  C   UNL     1      -0.410  13.379  -1.256  1.00  0.00     0.049 A 
ATOM     52  H   UNL     1       0.461  11.556  -0.648  1.00  0.00     0.167 HD
ATOM     53  C   UNL     1      -1.925  12.534   0.513  1.00  0.00     0.074 A 
ATOM     54  C   UNL     1      -3.092  12.638   1.364  1.00  0.00     0.031 C 
ATOM     55  C   UNL     1      -1.562  13.467  -0.400  1.00  0.00     0.031 A 
BRANCH  42  56
ATOM     56  C   UNL     1       3.575  12.067  -3.515  1.00  0.00    -0.014 A 
ATOM     57  C   UNL     1       3.587  11.452  -4.776  1.00  0.00     0.009 A 
ATOM     58  C   UNL     1       4.488  13.100  -3.251  1.00  0.00     0.009 A 
ATOM     59  C   UNL     1       4.514  11.848  -5.744  1.00  0.00     0.001 A 
ATOM     60  C   UNL     1       5.399  13.508  -4.227  1.00  0.00     0.001 A 
ATOM     61  C   UNL     1       5.415  12.877  -5.470  1.00  0.00     0.000 A 
ENDBRANCH  42  56
BRANCH  43  62
ATOM     62  C   UNL     1      -2.728   9.093   3.604  1.00  0.00    -0.014 A 
ATOM     63  C   UNL     1      -4.015   8.628   3.297  1.00  0.00     0.009 A 
ATOM     64  C   UNL     1      -2.329   9.155   4.949  1.00  0.00     0.009 A 
ATOM     65  C   UNL     1      -4.891   8.249   4.317  1.00  0.00     0.001 A 
ATOM     66  C   UNL     1      -3.197   8.751   5.965  1.00  0.00     0.001 A 
ATOM     67  C   UNL     1      -4.479   8.306   5.649  1.00  0.00     0.000 A 
ENDBRANCH  43  62
BRANCH  55  68
ATOM     68  C   UNL     1      -2.450  14.669  -0.533  1.00  0.00    -0.014 A 
ATOM     69  C   UNL     1      -2.408  15.704   0.413  1.00  0.00     0.009 A 
ATOM     70  C   UNL     1      -3.314  14.779  -1.632  1.00  0.00     0.009 A 
ATOM     71  C   UNL     1      -3.239  16.817   0.274  1.00  0.00     0.001 A 
ATOM     72  C   UNL     1      -4.129  15.903  -1.779  1.00  0.00     0.001 A 
ATOM     73  C   UNL     1      -4.095  16.917  -0.822  1.00  0.00     0.000 A 
ENDBRANCH  55  68
ENDBRANCH  29  30
ENDBRANCH  22  24
ENDBRANCH  21  22
ENDBRANCH  20  21
ENDBRANCH   1  20
TORSDOF 13
