REMARK SMILES CC(C)[NH2+][C@@]1(C(=O)OCCOC(=O)c2ccc(-c3c4nc(c(-c5ccccc5)c5ccc([nH]5)c(-c5ccccc5)c5nc(c(-c6ccccc6)c6ccc3[nH]6)C=C5)C=C4)cc2)CC[C@H](Oc2ccccc2F)C1
REMARK SMILES IDX 9 1 8 2 6 3 7 4 5 5 62 6 73 7 63 8 64 9 4 10 2 13 1 14 3 15
REMARK SMILES IDX 65 16 66 17 67 18 71 19 68 20 70 21 72 22 69 23 10 24 11 25
REMARK SMILES IDX 12 26 13 27 14 28 15 29 61 30 16 31 60 32 17 33 18 34 19 35
REMARK SMILES IDX 54 36 20 37 59 38 53 39 55 40 21 41 58 42 52 43 51 44 22 46
REMARK SMILES IDX 44 47 29 48 43 49 30 50 33 51 42 52 56 53 31 54 32 55 41 57
REMARK SMILES IDX 57 58 34 59 23 60 24 61 28 62 25 63 27 64 26 65 45 66 46 67
REMARK SMILES IDX 50 68 47 69 49 70 48 71 35 72 36 73 40 74 37 75 39 76 38 77
REMARK H PARENT 4 11 4 12 55 45 33 56
REMARK Flexibility Score: inf
ROOT
ATOM      1  C   UNL     1       0.796  -0.661   5.814  1.00  0.00     0.274 C 
ENDROOT
BRANCH   1   2
ATOM      2  O   UNL     1      -0.316  -0.397   4.944  1.00  0.00    -0.457 OA
BRANCH   2   3
ATOM      3  C   UNL     1      -0.095   0.530   3.974  1.00  0.00     0.368 C 
ATOM      4  O   UNL     1       0.947   1.174   3.915  1.00  0.00    -0.245 OA
BRANCH   3   5
ATOM      5  C   UNL     1      -1.323   0.717   3.013  1.00  0.00     0.198 C 
ATOM      6  C   UNL     1      -2.160   1.939   3.400  1.00  0.00     0.085 C 
ATOM      7  C   UNL     1      -2.364  -0.426   3.155  1.00  0.00     0.126 C 
ATOM      8  C   UNL     1      -3.009   1.467   4.562  1.00  0.00     0.052 C 
ATOM      9  C   UNL     1      -3.315  -0.015   4.301  1.00  0.00     0.180 C 
BRANCH   5  10
ATOM     10  N   UNL     1      -0.951   0.818   1.574  1.00  0.00    -0.330 N 
ATOM     11  H   UNL     1      -0.981  -0.129   1.198  1.00  0.00     0.347 HD
ATOM     12  H   UNL     1      -1.622   1.497   1.213  1.00  0.00     0.347 HD
BRANCH  10  13
ATOM     13  C   UNL     1       0.338   1.388   1.174  1.00  0.00     0.176 C 
ATOM     14  C   UNL     1       0.378   1.383  -0.360  1.00  0.00     0.075 C 
ATOM     15  C   UNL     1       0.674   2.810   1.640  1.00  0.00     0.075 C 
ENDBRANCH  10  13
ENDBRANCH   5  10
BRANCH   9  16
ATOM     16  O   UNL     1      -3.076  -0.856   5.435  1.00  0.00    -0.487 OA
BRANCH  16  17
ATOM     17  C   UNL     1      -3.663  -0.536   6.629  1.00  0.00     0.155 A 
ATOM     18  C   UNL     1      -4.784   0.282   6.779  1.00  0.00     0.049 A 
ATOM     19  C   UNL     1      -3.053  -1.055   7.776  1.00  0.00     0.165 A 
ATOM     20  C   UNL     1      -5.227   0.644   8.056  1.00  0.00     0.004 A 
ATOM     21  C   UNL     1      -3.503  -0.716   9.050  1.00  0.00     0.043 A 
ATOM     22  F   UNL     1      -1.991  -1.869   7.669  1.00  0.00    -0.203 F 
ATOM     23  C   UNL     1      -4.582   0.154   9.191  1.00  0.00     0.003 A 
ENDBRANCH  16  17
ENDBRANCH   9  16
ENDBRANCH   3   5
ENDBRANCH   2   3
ENDBRANCH   1   2
BRANCH   1  24
ATOM     24  C   UNL     1       1.550  -1.921   5.384  1.00  0.00     0.275 C 
BRANCH  24  25
ATOM     25  O   UNL     1       1.953  -1.881   3.999  1.00  0.00    -0.458 OA
BRANCH  25  26
ATOM     26  C   UNL     1       1.128  -2.528   3.140  1.00  0.00     0.338 C 
ATOM     27  O   UNL     1       0.106  -3.139   3.425  1.00  0.00    -0.246 OA
BRANCH  26  28
ATOM     28  C   UNL     1       1.571  -2.345   1.741  1.00  0.00     0.060 A 
ATOM     29  C   UNL     1       0.592  -2.118   0.768  1.00  0.00     0.016 A 
ATOM     30  C   UNL     1       2.914  -2.441   1.363  1.00  0.00     0.016 A 
ATOM     31  C   UNL     1       0.957  -1.949  -0.569  1.00  0.00     0.010 A 
ATOM     32  C   UNL     1       3.276  -2.298   0.014  1.00  0.00     0.010 A 
ATOM     33  C   UNL     1       2.300  -2.040  -0.961  1.00  0.00    -0.014 A 
BRANCH  33  34
ATOM     34  C   UNL     1       2.638  -1.967  -2.408  1.00  0.00     0.031 A 
ATOM     35  C   UNL     1       2.360  -3.159  -3.278  1.00  0.00     0.074 A 
ATOM     36  C   UNL     1       3.118  -0.838  -2.964  1.00  0.00     0.049 A 
ATOM     37  N   UNL     1       2.518  -3.297  -4.569  1.00  0.00    -0.248 NA
ATOM     38  C   UNL     1       1.841  -4.356  -2.598  1.00  0.00     0.031 C 
ATOM     39  C   UNL     1       3.406   0.398  -2.245  1.00  0.00     0.029 A 
ATOM     40  N   UNL     1       3.417  -0.537  -4.272  1.00  0.00    -0.354 N 
ATOM     41  C   UNL     1       2.118  -4.595  -4.858  1.00  0.00     0.074 A 
ATOM     42  C   UNL     1       1.712  -5.202  -3.608  1.00  0.00     0.031 C 
ATOM     43  C   UNL     1       3.763   1.349  -3.126  1.00  0.00     0.029 A 
ATOM     44  C   UNL     1       3.825   0.764  -4.463  1.00  0.00     0.049 A 
ATOM     45  H   UNL     1       3.346  -1.191  -5.004  1.00  0.00     0.167 HD
ATOM     46  C   UNL     1       2.112  -5.235  -6.050  1.00  0.00     0.031 A 
ATOM     47  C   UNL     1       4.233   1.401  -5.580  1.00  0.00     0.031 A 
ATOM     48  C   UNL     1       2.592  -4.667  -7.281  1.00  0.00     0.049 A 
ATOM     49  C   UNL     1       4.321   0.629  -6.872  1.00  0.00     0.074 A 
ATOM     50  C   UNL     1       2.682  -5.261  -8.527  1.00  0.00     0.029 A 
ATOM     51  N   UNL     1       3.087  -3.378  -7.415  1.00  0.00    -0.354 N 
ATOM     52  N   UNL     1       3.942  -0.599  -7.131  1.00  0.00    -0.248 NA
ATOM     53  C   UNL     1       4.920   1.325  -8.022  1.00  0.00     0.031 C 
ATOM     54  C   UNL     1       3.292  -4.354  -9.400  1.00  0.00     0.029 A 
ATOM     55  C   UNL     1       3.511  -3.169  -8.717  1.00  0.00     0.049 A 
ATOM     56  H   UNL     1       3.130  -2.712  -6.692  1.00  0.00     0.167 HD
ATOM     57  C   UNL     1       4.242  -0.816  -8.471  1.00  0.00     0.074 A 
ATOM     58  C   UNL     1       4.808   0.416  -8.979  1.00  0.00     0.031 C 
ATOM     59  C   UNL     1       4.072  -1.938  -9.212  1.00  0.00     0.031 A 
BRANCH  46  60
ATOM     60  C   UNL     1       1.646  -6.663  -6.049  1.00  0.00    -0.014 A 
ATOM     61  C   UNL     1       0.293  -6.990  -5.862  1.00  0.00     0.009 A 
ATOM     62  C   UNL     1       2.579  -7.697  -6.225  1.00  0.00     0.009 A 
ATOM     63  C   UNL     1      -0.108  -8.327  -5.812  1.00  0.00     0.001 A 
ATOM     64  C   UNL     1       2.170  -9.030  -6.203  1.00  0.00     0.001 A 
ATOM     65  C   UNL     1       0.830  -9.345  -5.985  1.00  0.00     0.000 A 
ENDBRANCH  46  60
BRANCH  47  66
ATOM     66  C   UNL     1       4.667   2.828  -5.532  1.00  0.00    -0.014 A 
ATOM     67  C   UNL     1       3.989   3.814  -6.267  1.00  0.00     0.009 A 
ATOM     68  C   UNL     1       5.804   3.203  -4.798  1.00  0.00     0.009 A 
ATOM     69  C   UNL     1       4.455   5.133  -6.289  1.00  0.00     0.001 A 
ATOM     70  C   UNL     1       6.245   4.528  -4.790  1.00  0.00     0.001 A 
ATOM     71  C   UNL     1       5.579   5.489  -5.546  1.00  0.00     0.000 A 
ENDBRANCH  47  66
BRANCH  59  72
ATOM     72  C   UNL     1       4.460  -1.879 -10.665  1.00  0.00    -0.014 A 
ATOM     73  C   UNL     1       5.804  -1.822 -11.066  1.00  0.00     0.009 A 
ATOM     74  C   UNL     1       3.461  -1.935 -11.650  1.00  0.00     0.009 A 
ATOM     75  C   UNL     1       6.136  -1.790 -12.422  1.00  0.00     0.001 A 
ATOM     76  C   UNL     1       3.797  -1.936 -13.005  1.00  0.00     0.001 A 
ATOM     77  C   UNL     1       5.134  -1.854 -13.390  1.00  0.00     0.000 A 
ENDBRANCH  59  72
ENDBRANCH  33  34
ENDBRANCH  26  28
ENDBRANCH  25  26
ENDBRANCH  24  25
ENDBRANCH   1  24
TORSDOF 15
