REMARK SMILES CC[C@H](C)[C@@H](C)[C@](C)(O)C(=O)OCCOC(=O)c1ccc(-c2c3nc(c(-c4ccccc4)c4ccc([nH]4)c(-c4ccccc4)c4nc(c(-c5ccccc5)c5ccc2[nH]5)C=C4)C=C3)cc1
REMARK SMILES IDX 13 1 12 2 10 3 11 4 7 5 8 6 5 7 6 8 3 9 4 10 2 11 1 12 9 13
REMARK SMILES IDX 14 15 15 16 16 17 17 18 18 19 19 20 65 21 20 22 64 23 21 24
REMARK SMILES IDX 22 25 23 26 58 27 24 28 63 29 57 30 59 31 25 32 62 33 56 34
REMARK SMILES IDX 55 35 26 37 48 38 33 39 47 40 34 41 37 42 46 43 60 44 35 45
REMARK SMILES IDX 36 46 45 48 61 49 38 50 27 51 28 52 32 53 29 54 31 55 30 56
REMARK SMILES IDX 49 57 50 58 54 59 51 60 53 61 52 62 39 63 40 64 44 65 41 66
REMARK SMILES IDX 43 67 42 68
REMARK H PARENT 9 14 59 36 37 47
REMARK Flexibility Score: inf
ROOT
ATOM      1  C   UNL     1       4.372   3.475  -5.069  1.00  0.00     0.274 C 
ENDROOT
BRANCH   1   2
ATOM      2  O   UNL     1       2.952   3.730  -5.080  1.00  0.00    -0.460 OA
BRANCH   2   3
ATOM      3  C   UNL     1       2.189   2.823  -4.402  1.00  0.00     0.338 C 
ATOM      4  O   UNL     1       2.635   1.901  -3.729  1.00  0.00    -0.249 OA
BRANCH   3   5
ATOM      5  C   UNL     1       0.672   3.121  -4.564  1.00  0.00     0.161 C 
ATOM      6  C   UNL     1       0.181   3.699  -3.235  1.00  0.00     0.055 C 
BRANCH   5   7
ATOM      7  C   UNL     1       0.003   1.777  -5.068  1.00  0.00     0.032 C 
ATOM      8  C   UNL     1       0.006   1.758  -6.611  1.00  0.00     0.011 C 
BRANCH   7   9
ATOM      9  C   UNL     1      -1.393   1.426  -4.445  1.00  0.00    -0.008 C 
ATOM     10  C   UNL     1      -2.298   0.586  -5.359  1.00  0.00     0.008 C 
BRANCH   9  11
ATOM     11  C   UNL     1      -1.262   0.717  -3.067  1.00  0.00     0.000 C 
ATOM     12  C   UNL     1      -0.871  -0.757  -3.111  1.00  0.00     0.004 C 
ENDBRANCH   9  11
ENDBRANCH   7   9
ENDBRANCH   5   7
BRANCH   5  13
ATOM     13  O   UNL     1       0.413   4.158  -5.523  1.00  0.00    -0.378 OA
ATOM     14  H   UNL     1       0.819   4.986  -5.222  1.00  0.00     0.212 HD
ENDBRANCH   5  13
ENDBRANCH   3   5
ENDBRANCH   2   3
ENDBRANCH   1   2
BRANCH   1  15
ATOM     15  C   UNL     1       5.080   4.362  -4.050  1.00  0.00     0.275 C 
BRANCH  15  16
ATOM     16  O   UNL     1       4.606   4.056  -2.727  1.00  0.00    -0.458 OA
BRANCH  16  17
ATOM     17  C   UNL     1       4.105   5.095  -2.025  1.00  0.00     0.338 C 
ATOM     18  O   UNL     1       4.055   6.267  -2.367  1.00  0.00    -0.246 OA
BRANCH  17  19
ATOM     19  C   UNL     1       3.581   4.624  -0.732  1.00  0.00     0.060 A 
ATOM     20  C   UNL     1       2.636   3.600  -0.691  1.00  0.00     0.016 A 
ATOM     21  C   UNL     1       3.931   5.298   0.437  1.00  0.00     0.016 A 
ATOM     22  C   UNL     1       1.958   3.322   0.494  1.00  0.00     0.010 A 
ATOM     23  C   UNL     1       3.325   4.944   1.647  1.00  0.00     0.010 A 
ATOM     24  C   UNL     1       2.298   3.983   1.683  1.00  0.00    -0.014 A 
BRANCH  24  25
ATOM     25  C   UNL     1       1.553   3.718   2.945  1.00  0.00     0.031 A 
ATOM     26  C   UNL     1       0.856   4.847   3.662  1.00  0.00     0.074 A 
ATOM     27  C   UNL     1       1.480   2.474   3.458  1.00  0.00     0.049 A 
ATOM     28  N   UNL     1       0.338   4.868   4.865  1.00  0.00    -0.248 NA
ATOM     29  C   UNL     1       0.739   6.122   2.937  1.00  0.00     0.031 C 
ATOM     30  C   UNL     1       2.053   1.267   2.859  1.00  0.00     0.029 A 
ATOM     31  N   UNL     1       0.878   2.018   4.606  1.00  0.00    -0.354 N 
ATOM     32  C   UNL     1      -0.094   6.174   5.068  1.00  0.00     0.074 A 
ATOM     33  C   UNL     1       0.207   6.911   3.860  1.00  0.00     0.031 C 
ATOM     34  C   UNL     1       1.734   0.206   3.615  1.00  0.00     0.029 A 
ATOM     35  C   UNL     1       1.012   0.665   4.797  1.00  0.00     0.049 A 
ATOM     36  H   UNL     1       0.396   2.606   5.232  1.00  0.00     0.167 HD
ATOM     37  C   UNL     1      -0.677   6.713   6.165  1.00  0.00     0.031 A 
ATOM     38  C   UNL     1       0.635  -0.120   5.824  1.00  0.00     0.031 A 
ATOM     39  C   UNL     1      -1.036   5.973   7.345  1.00  0.00     0.049 A 
ATOM     40  C   UNL     1      -0.014   0.496   7.027  1.00  0.00     0.074 A 
ATOM     41  C   UNL     1      -1.628   6.435   8.508  1.00  0.00     0.029 A 
ATOM     42  N   UNL     1      -0.862   4.607   7.499  1.00  0.00    -0.354 N 
ATOM     43  N   UNL     1      -0.328   1.750   7.244  1.00  0.00    -0.248 NA
ATOM     44  C   UNL     1      -0.337  -0.409   8.140  1.00  0.00     0.031 C 
ATOM     45  C   UNL     1      -1.795   5.349   9.376  1.00  0.00     0.029 A 
ATOM     46  C   UNL     1      -1.336   4.209   8.737  1.00  0.00     0.049 A 
ATOM     47  H   UNL     1      -0.462   4.009   6.828  1.00  0.00     0.167 HD
ATOM     48  C   UNL     1      -0.879   1.786   8.517  1.00  0.00     0.074 A 
ATOM     49  C   UNL     1      -0.884   0.425   9.014  1.00  0.00     0.031 C 
ATOM     50  C   UNL     1      -1.329   2.854   9.217  1.00  0.00     0.031 A 
BRANCH  37  51
ATOM     51  C   UNL     1      -0.924   8.194   6.157  1.00  0.00    -0.014 A 
ATOM     52  C   UNL     1      -1.990   8.758   5.442  1.00  0.00     0.009 A 
ATOM     53  C   UNL     1      -0.088   9.033   6.912  1.00  0.00     0.009 A 
ATOM     54  C   UNL     1      -2.197  10.139   5.461  1.00  0.00     0.001 A 
ATOM     55  C   UNL     1      -0.311  10.410   6.947  1.00  0.00     0.001 A 
ATOM     56  C   UNL     1      -1.360  10.963   6.215  1.00  0.00     0.000 A 
ENDBRANCH  37  51
BRANCH  38  57
ATOM     57  C   UNL     1       0.915  -1.577   5.779  1.00  0.00    -0.014 A 
ATOM     58  C   UNL     1      -0.126  -2.495   5.583  1.00  0.00     0.009 A 
ATOM     59  C   UNL     1       2.228  -2.054   5.920  1.00  0.00     0.009 A 
ATOM     60  C   UNL     1       0.141  -3.865   5.539  1.00  0.00     0.001 A 
ATOM     61  C   UNL     1       2.495  -3.422   5.850  1.00  0.00     0.001 A 
ATOM     62  C   UNL     1       1.451  -4.327   5.666  1.00  0.00     0.000 A 
ENDBRANCH  38  57
BRANCH  50  63
ATOM     63  C   UNL     1      -1.874   2.587  10.588  1.00  0.00    -0.014 A 
ATOM     64  C   UNL     1      -1.014   2.363  11.673  1.00  0.00     0.009 A 
ATOM     65  C   UNL     1      -3.261   2.583  10.800  1.00  0.00     0.009 A 
ATOM     66  C   UNL     1      -1.535   2.114  12.944  1.00  0.00     0.001 A 
ATOM     67  C   UNL     1      -3.778   2.350  12.075  1.00  0.00     0.001 A 
ATOM     68  C   UNL     1      -2.915   2.110  13.144  1.00  0.00     0.000 A 
ENDBRANCH  50  63
ENDBRANCH  24  25
ENDBRANCH  17  19
ENDBRANCH  16  17
ENDBRANCH  15  16
ENDBRANCH   1  15
TORSDOF 15
