REMARK SMILES COc1ccc(-c2cc(CC3(C(=O)OCCOC(=O)c4ccc(-c5c6nc(c(-c7ccccc7)c7ccc([nH]7)c(-c7ccccc7)c7nc(c(-c8ccccc8)c8ccc5[nH]8)C=C7)C=C6)cc4)CCN(C(=O)C4CCCC4)CC3)on2)cc1
REMARK SMILES IDX 15 1 14 2 12 3 13 4 11 5 68 6 79 7 69 8 78 9 70 10 71 11
REMARK SMILES IDX 72 12 10 13 9 14 7 15 8 16 81 17 80 18 6 19 3 20 4 21 83 22
REMARK SMILES IDX 5 23 82 24 2 25 1 26 73 27 74 28 77 29 75 30 76 31 16 32
REMARK SMILES IDX 17 33 18 34 19 35 20 36 21 37 67 38 22 39 66 40 23 41 24 42
REMARK SMILES IDX 25 43 60 44 26 45 65 46 59 47 61 48 27 49 64 50 58 51 57 52
REMARK SMILES IDX 28 54 50 55 35 56 49 57 36 58 39 59 48 60 62 61 37 62 38 63
REMARK SMILES IDX 47 65 63 66 40 67 29 68 30 69 34 70 31 71 33 72 32 73 51 74
REMARK SMILES IDX 52 75 56 76 53 77 55 78 54 79 41 80 42 81 46 82 43 83 45 84
REMARK SMILES IDX 44 85
REMARK H PARENT 61 53 39 64
REMARK Flexibility Score: inf
ROOT
ATOM      1  C   UNL     1       4.318  -6.629 -12.406  1.00  0.00     0.274 C 
ENDROOT
BRANCH   1   2
ATOM      2  O   UNL     1       3.465  -5.714 -11.684  1.00  0.00    -0.462 OA
BRANCH   2   3
ATOM      3  C   UNL     1       3.579  -5.718 -10.332  1.00  0.00     0.312 C 
ATOM      4  O   UNL     1       4.387  -6.405  -9.714  1.00  0.00    -0.252 OA
BRANCH   3   5
ATOM      5  C   UNL     1       2.572  -4.794  -9.612  1.00  0.00     0.078 C 
ATOM      6  C   UNL     1       1.677  -4.021 -10.616  1.00  0.00     0.041 C 
ATOM      7  C   UNL     1       1.720  -5.768  -8.766  1.00  0.00     0.041 C 
ATOM      8  C   UNL     1       0.361  -3.510 -10.038  1.00  0.00     0.120 C 
ATOM      9  C   UNL     1       0.393  -5.206  -8.276  1.00  0.00     0.120 C 
ATOM     10  N   UNL     1      -0.356  -4.583  -9.355  1.00  0.00    -0.342 N 
ATOM     11  C   UNL     1      -1.681  -4.811  -9.689  1.00  0.00     0.225 C 
ATOM     12  O   UNL     1      -2.249  -4.122 -10.544  1.00  0.00    -0.275 OA
BRANCH   5  13
ATOM     13  C   UNL     1       3.466  -3.845  -8.769  1.00  0.00     0.097 C 
BRANCH  13  14
ATOM     14  C   UNL     1       2.847  -3.081  -7.664  1.00  0.00     0.138 A 
ATOM     15  C   UNL     1       2.069  -2.138  -5.828  1.00  0.00     0.114 A 
ATOM     16  C   UNL     1       2.761  -3.276  -6.306  1.00  0.00     0.077 A 
ATOM     17  N   UNL     1       1.783  -1.299  -6.832  1.00  0.00    -0.080 NA
ATOM     18  O   UNL     1       2.308  -1.874  -7.973  1.00  0.00    -0.361 OA
BRANCH  15  19
ATOM     19  C   UNL     1       1.675  -1.858  -4.461  1.00  0.00     0.004 A 
ATOM     20  C   UNL     1       0.904  -1.318  -1.826  1.00  0.00     0.118 A 
ATOM     21  C   UNL     1      -0.035  -1.776  -2.751  1.00  0.00     0.047 A 
ATOM     22  C   UNL     1       2.238  -1.161  -2.208  1.00  0.00     0.047 A 
ATOM     23  C   UNL     1       0.344  -2.032  -4.070  1.00  0.00     0.014 A 
ATOM     24  C   UNL     1       2.624  -1.431  -3.525  1.00  0.00     0.014 A 
BRANCH  20  25
ATOM     25  O   UNL     1       0.433  -1.093  -0.561  1.00  0.00    -0.497 OA
ATOM     26  C   UNL     1       0.998   0.048   0.079  1.00  0.00     0.278 C 
ENDBRANCH  20  25
ENDBRANCH  15  19
ENDBRANCH  13  14
ENDBRANCH   5  13
BRANCH  11  27
ATOM     27  C   UNL     1      -2.482  -5.946  -9.053  1.00  0.00     0.078 C 
ATOM     28  C   UNL     1      -1.945  -7.345  -9.354  1.00  0.00     0.013 C 
ATOM     29  C   UNL     1      -2.700  -5.870  -7.538  1.00  0.00     0.013 C 
ATOM     30  C   UNL     1      -2.476  -8.191  -8.209  1.00  0.00     0.001 C 
ATOM     31  C   UNL     1      -2.410  -7.272  -6.998  1.00  0.00     0.001 C 
ENDBRANCH  11  27
ENDBRANCH   3   5
ENDBRANCH   2   3
ENDBRANCH   1   2
BRANCH   1  32
ATOM     32  C   UNL     1       5.442  -5.868 -13.100  1.00  0.00     0.275 C 
BRANCH  32  33
ATOM     33  O   UNL     1       6.241  -5.207 -12.105  1.00  0.00    -0.458 OA
BRANCH  33  34
ATOM     34  C   UNL     1       6.501  -3.901 -12.334  1.00  0.00     0.338 C 
ATOM     35  O   UNL     1       6.201  -3.253 -13.334  1.00  0.00    -0.246 OA
BRANCH  34  36
ATOM     36  C   UNL     1       7.178  -3.296 -11.173  1.00  0.00     0.060 A 
ATOM     37  C   UNL     1       6.745  -3.573  -9.878  1.00  0.00     0.016 A 
ATOM     38  C   UNL     1       8.148  -2.319 -11.385  1.00  0.00     0.016 A 
ATOM     39  C   UNL     1       7.161  -2.768  -8.815  1.00  0.00     0.010 A 
ATOM     40  C   UNL     1       8.652  -1.594 -10.300  1.00  0.00     0.010 A 
ATOM     41  C   UNL     1       8.113  -1.758  -9.010  1.00  0.00    -0.014 A 
BRANCH  41  42
ATOM     42  C   UNL     1       8.474  -0.800  -7.921  1.00  0.00     0.031 A 
ATOM     43  C   UNL     1       8.341   0.687  -8.161  1.00  0.00     0.074 A 
ATOM     44  C   UNL     1       8.897  -1.219  -6.711  1.00  0.00     0.049 A 
ATOM     45  N   UNL     1       8.847   1.685  -7.479  1.00  0.00    -0.248 NA
ATOM     46  C   UNL     1       7.557   1.102  -9.335  1.00  0.00     0.031 C 
ATOM     47  C   UNL     1       9.025  -2.611  -6.278  1.00  0.00     0.029 A 
ATOM     48  N   UNL     1       9.289  -0.495  -5.609  1.00  0.00    -0.354 N 
ATOM     49  C   UNL     1       8.521   2.833  -8.192  1.00  0.00     0.074 A 
ATOM     50  C   UNL     1       7.758   2.412  -9.347  1.00  0.00     0.031 C 
ATOM     51  C   UNL     1       9.410  -2.639  -4.992  1.00  0.00     0.029 A 
ATOM     52  C   UNL     1       9.647  -1.274  -4.536  1.00  0.00     0.049 A 
ATOM     53  H   UNL     1       9.311   0.489  -5.592  1.00  0.00     0.167 HD
ATOM     54  C   UNL     1       8.837   4.122  -7.918  1.00  0.00     0.031 A 
ATOM     55  C   UNL     1      10.149  -0.937  -3.333  1.00  0.00     0.031 A 
ATOM     56  C   UNL     1       9.523   4.557  -6.732  1.00  0.00     0.049 A 
ATOM     57  C   UNL     1      10.444   0.503  -3.024  1.00  0.00     0.074 A 
ATOM     58  C   UNL     1       9.942   5.832  -6.390  1.00  0.00     0.029 A 
ATOM     59  N   UNL     1       9.839   3.733  -5.666  1.00  0.00    -0.354 N 
ATOM     60  N   UNL     1      10.276   1.560  -3.780  1.00  0.00    -0.248 NA
ATOM     61  C   UNL     1      11.018   0.792  -1.701  1.00  0.00     0.031 C 
ATOM     62  C   UNL     1      10.508   5.779  -5.110  1.00  0.00     0.029 A 
ATOM     63  C   UNL     1      10.414   4.476  -4.650  1.00  0.00     0.049 A 
ATOM     64  H   UNL     1       9.678   2.762  -5.635  1.00  0.00     0.167 HD
ATOM     65  C   UNL     1      10.727   2.636  -3.027  1.00  0.00     0.074 A 
ATOM     66  C   UNL     1      11.143   2.111  -1.744  1.00  0.00     0.031 C 
ATOM     67  C   UNL     1      10.807   3.942  -3.376  1.00  0.00     0.031 A 
BRANCH  54  68
ATOM     68  C   UNL     1       8.475   5.155  -8.945  1.00  0.00    -0.014 A 
ATOM     69  C   UNL     1       7.160   5.620  -9.085  1.00  0.00     0.009 A 
ATOM     70  C   UNL     1       9.480   5.693  -9.766  1.00  0.00     0.009 A 
ATOM     71  C   UNL     1       6.854   6.587 -10.046  1.00  0.00     0.001 A 
ATOM     72  C   UNL     1       9.175   6.675 -10.709  1.00  0.00     0.001 A 
ATOM     73  C   UNL     1       7.861   7.116 -10.854  1.00  0.00     0.000 A 
ENDBRANCH  54  68
BRANCH  55  74
ATOM     74  C   UNL     1      10.454  -1.993  -2.335  1.00  0.00    -0.014 A 
ATOM     75  C   UNL     1       9.659  -2.139  -1.188  1.00  0.00     0.009 A 
ATOM     76  C   UNL     1      11.548  -2.853  -2.520  1.00  0.00     0.009 A 
ATOM     77  C   UNL     1       9.965  -3.114  -0.236  1.00  0.00     0.001 A 
ATOM     78  C   UNL     1      11.834  -3.845  -1.580  1.00  0.00     0.001 A 
ATOM     79  C   UNL     1      11.048  -3.969  -0.436  1.00  0.00     0.000 A 
ENDBRANCH  55  74
BRANCH  67  80
ATOM     80  C   UNL     1      11.329   4.892  -2.340  1.00  0.00    -0.014 A 
ATOM     81  C   UNL     1      12.703   4.984  -2.071  1.00  0.00     0.009 A 
ATOM     82  C   UNL     1      10.437   5.715  -1.638  1.00  0.00     0.009 A 
ATOM     83  C   UNL     1      13.171   5.862  -1.092  1.00  0.00     0.001 A 
ATOM     84  C   UNL     1      10.909   6.604  -0.671  1.00  0.00     0.001 A 
ATOM     85  C   UNL     1      12.274   6.671  -0.393  1.00  0.00     0.000 A 
ENDBRANCH  67  80
ENDBRANCH  41  42
ENDBRANCH  34  36
ENDBRANCH  33  34
ENDBRANCH  32  33
ENDBRANCH   1  32
TORSDOF 16
