REMARK SMILES O=C(C[C@H]1S/C(=[NH+]\N=C\c2cc(Br)ccc2OCc2ccccc2)NC1=O)OCCOC(=O)c1ccc(-c2c3nc(c(-c4ccccc4)c4ccc([nH]4)c(-c4ccccc4)c4nc(c(-c5ccccc5)c5ccc2[nH]5)C=C4)C=C3)cc1
REMARK SMILES IDX 1 1 2 2 3 3 4 4 5 5 26 6 6 7 25 8 27 9 7 10 8 13 9 14 10 15
REMARK SMILES IDX 11 16 16 17 12 18 15 19 13 20 14 21 17 22 18 23 19 24 20 25
REMARK SMILES IDX 24 26 21 27 23 28 22 29 28 30 29 31 30 32 31 33 32 34 33 35
REMARK SMILES IDX 34 36 35 37 81 38 36 39 80 40 37 41 38 42 39 43 74 44 40 45
REMARK SMILES IDX 79 46 73 47 75 48 41 49 78 50 72 51 71 52 42 54 64 55 49 56
REMARK SMILES IDX 63 57 50 58 53 59 62 60 76 61 51 62 52 63 61 65 77 66 54 67
REMARK SMILES IDX 43 68 44 69 48 70 45 71 47 72 46 73 65 74 66 75 70 76 67 77
REMARK SMILES IDX 69 78 68 79 55 80 56 81 60 82 57 83 59 84 58 85
REMARK H PARENT 25 11 7 12 75 53 53 64
REMARK Flexibility Score: inf
ROOT
ATOM      1  O   UNL     1       1.824   1.039  -0.685  1.00  0.00    -0.252 OA
ATOM      2  C   UNL     1       2.887   0.496  -0.393  1.00  0.00     0.307 C 
ENDROOT
BRANCH   2   3
ATOM      3  C   UNL     1       3.731  -0.134  -1.474  1.00  0.00     0.150 C 
BRANCH   3   4
ATOM      4  C   UNL     1       4.707   0.826  -2.144  1.00  0.00     0.184 C 
ATOM      5  S   UNL     1       4.385   0.906  -3.942  1.00  0.00    -0.020 SA
ATOM      6  C   UNL     1       4.542   2.256  -1.679  1.00  0.00     0.322 C 
ATOM      7  C   UNL     1       3.556   2.424  -3.773  1.00  0.00     0.337 C 
ATOM      8  N   UNL     1       3.788   2.969  -2.556  1.00  0.00    -0.202 N 
ATOM      9  O   UNL     1       4.985   2.691  -0.625  1.00  0.00    -0.246 OA
ATOM     10  N   UNL     1       2.816   3.047  -4.618  1.00  0.00    -0.142 N 
ATOM     11  H   UNL     1       3.422   3.851  -2.315  1.00  0.00     0.316 HD
ATOM     12  H   UNL     1       2.339   3.875  -4.380  1.00  0.00     0.343 HD
BRANCH  10  13
ATOM     13  N   UNL     1       2.727   2.487  -5.887  1.00  0.00    -0.093 NA
ATOM     14  C   UNL     1       1.560   2.737  -6.388  1.00  0.00     0.170 C 
BRANCH  14  15
ATOM     15  C   UNL     1       1.261   2.488  -7.795  1.00  0.00     0.040 A 
ATOM     16  C   UNL     1       0.571   1.293  -8.053  1.00  0.00     0.029 A 
ATOM     17  C   UNL     1       1.546   3.397  -8.824  1.00  0.00     0.128 A 
ATOM     18  C   UNL     1       0.184   0.986  -9.354  1.00  0.00     0.018 A 
ATOM     19  C   UNL     1       1.161   3.047 -10.128  1.00  0.00     0.048 A 
ATOM     20  Br  UNL     1      -0.766  -0.609  -9.704  1.00  0.00    -0.051 Br
ATOM     21  C   UNL     1       0.482   1.855 -10.397  1.00  0.00     0.019 A 
BRANCH  17  22
ATOM     22  O   UNL     1       2.103   4.644  -8.791  1.00  0.00    -0.488 OA
BRANCH  22  23
ATOM     23  C   UNL     1       2.551   5.275  -7.590  1.00  0.00     0.265 C 
BRANCH  23  24
ATOM     24  C   UNL     1       1.452   5.731  -6.651  1.00  0.00    -0.011 A 
ATOM     25  C   UNL     1       1.764   5.977  -5.304  1.00  0.00     0.007 A 
ATOM     26  C   UNL     1       0.120   5.864  -7.067  1.00  0.00     0.007 A 
ATOM     27  C   UNL     1       0.756   6.249  -4.378  1.00  0.00     0.000 A 
ATOM     28  C   UNL     1      -0.887   6.134  -6.140  1.00  0.00     0.000 A 
ATOM     29  C   UNL     1      -0.571   6.309  -4.794  1.00  0.00     0.000 A 
ENDBRANCH  23  24
ENDBRANCH  22  23
ENDBRANCH  17  22
ENDBRANCH  14  15
ENDBRANCH  10  13
ENDBRANCH   3   4
ENDBRANCH   2   3
BRANCH   2  30
ATOM     30  O   UNL     1       3.332   0.488   0.880  1.00  0.00    -0.462 OA
BRANCH  30  31
ATOM     31  C   UNL     1       4.613  -0.017   1.315  1.00  0.00     0.274 C 
BRANCH  31  32
ATOM     32  C   UNL     1       4.460  -1.398   1.950  1.00  0.00     0.275 C 
BRANCH  32  33
ATOM     33  O   UNL     1       4.102  -2.362   0.943  1.00  0.00    -0.458 OA
BRANCH  33  34
ATOM     34  C   UNL     1       2.772  -2.608   0.806  1.00  0.00     0.338 C 
ATOM     35  O   UNL     1       1.878  -2.205   1.519  1.00  0.00    -0.246 OA
BRANCH  34  36
ATOM     36  C   UNL     1       2.549  -3.308  -0.482  1.00  0.00     0.060 A 
ATOM     37  C   UNL     1       1.385  -3.013  -1.206  1.00  0.00     0.016 A 
ATOM     38  C   UNL     1       3.479  -4.221  -0.988  1.00  0.00     0.016 A 
ATOM     39  C   UNL     1       1.135  -3.654  -2.422  1.00  0.00     0.010 A 
ATOM     40  C   UNL     1       3.227  -4.861  -2.201  1.00  0.00     0.010 A 
ATOM     41  C   UNL     1       2.042  -4.603  -2.909  1.00  0.00    -0.014 A 
BRANCH  41  42
ATOM     42  C   UNL     1       1.705  -5.462  -4.068  1.00  0.00     0.031 A 
ATOM     43  C   UNL     1       1.186  -6.846  -3.804  1.00  0.00     0.074 A 
ATOM     44  C   UNL     1       1.927  -5.053  -5.329  1.00  0.00     0.049 A 
ATOM     45  N   UNL     1       0.965  -7.825  -4.642  1.00  0.00    -0.248 NA
ATOM     46  C   UNL     1       0.894  -7.173  -2.398  1.00  0.00     0.031 C 
ATOM     47  C   UNL     1       2.409  -3.732  -5.722  1.00  0.00     0.029 A 
ATOM     48  N   UNL     1       1.803  -5.738  -6.512  1.00  0.00    -0.354 N 
ATOM     49  C   UNL     1       0.527  -8.889  -3.865  1.00  0.00     0.074 A 
ATOM     50  C   UNL     1       0.534  -8.444  -2.489  1.00  0.00     0.031 C 
ATOM     51  C   UNL     1       2.570  -3.710  -7.058  1.00  0.00     0.029 A 
ATOM     52  C   UNL     1       2.234  -5.025  -7.603  1.00  0.00     0.049 A 
ATOM     53  H   UNL     1       1.440  -6.651  -6.572  1.00  0.00     0.167 HD
ATOM     54  C   UNL     1       0.153 -10.129  -4.260  1.00  0.00     0.031 A 
ATOM     55  C   UNL     1       2.376  -5.403  -8.888  1.00  0.00     0.031 A 
ATOM     56  C   UNL     1       0.161 -10.582  -5.623  1.00  0.00     0.049 A 
ATOM     57  C   UNL     1       2.013  -6.804  -9.301  1.00  0.00     0.074 A 
ATOM     58  C   UNL     1      -0.231 -11.809  -6.127  1.00  0.00     0.029 A 
ATOM     59  N   UNL     1       0.599  -9.827  -6.699  1.00  0.00    -0.354 N 
ATOM     60  N   UNL     1       1.560  -7.792  -8.566  1.00  0.00    -0.248 NA
ATOM     61  C   UNL     1       2.178  -7.141 -10.723  1.00  0.00     0.031 C 
ATOM     62  C   UNL     1       0.019 -11.815  -7.503  1.00  0.00     0.029 A 
ATOM     63  C   UNL     1       0.516 -10.572  -7.863  1.00  0.00     0.049 A 
ATOM     64  H   UNL     1       0.922  -8.898  -6.645  1.00  0.00     0.167 HD
ATOM     65  C   UNL     1       1.359  -8.855  -9.438  1.00  0.00     0.074 A 
ATOM     66  C   UNL     1       1.738  -8.393 -10.758  1.00  0.00     0.031 C 
ATOM     67  C   UNL     1       0.896 -10.100  -9.169  1.00  0.00     0.031 A 
BRANCH  54  68
ATOM     68  C   UNL     1      -0.250 -11.092  -3.181  1.00  0.00    -0.014 A 
ATOM     69  C   UNL     1      -1.459 -10.943  -2.483  1.00  0.00     0.009 A 
ATOM     70  C   UNL     1       0.600 -12.159  -2.852  1.00  0.00     0.009 A 
ATOM     71  C   UNL     1      -1.786 -11.818  -1.445  1.00  0.00     0.001 A 
ATOM     72  C   UNL     1       0.257 -13.048  -1.832  1.00  0.00     0.001 A 
ATOM     73  C   UNL     1      -0.929 -12.869  -1.121  1.00  0.00     0.000 A 
ENDBRANCH  54  68
BRANCH  55  74
ATOM     74  C   UNL     1       2.917  -4.438  -9.878  1.00  0.00    -0.014 A 
ATOM     75  C   UNL     1       2.075  -3.842 -10.829  1.00  0.00     0.009 A 
ATOM     76  C   UNL     1       4.279  -4.100  -9.867  1.00  0.00     0.009 A 
ATOM     77  C   UNL     1       2.592  -2.937 -11.759  1.00  0.00     0.001 A 
ATOM     78  C   UNL     1       4.787  -3.177 -10.783  1.00  0.00     0.001 A 
ATOM     79  C   UNL     1       3.945  -2.601 -11.732  1.00  0.00     0.000 A 
ENDBRANCH  55  74
BRANCH  67  80
ATOM     80  C   UNL     1       0.731 -11.049 -10.324  1.00  0.00    -0.014 A 
ATOM     81  C   UNL     1       1.837 -11.676 -10.916  1.00  0.00     0.009 A 
ATOM     82  C   UNL     1      -0.559 -11.375 -10.772  1.00  0.00     0.009 A 
ATOM     83  C   UNL     1       1.654 -12.600 -11.948  1.00  0.00     0.001 A 
ATOM     84  C   UNL     1      -0.740 -12.316 -11.787  1.00  0.00     0.001 A 
ATOM     85  C   UNL     1       0.366 -12.924 -12.377  1.00  0.00     0.000 A 
ENDBRANCH  67  80
ENDBRANCH  41  42
ENDBRANCH  34  36
ENDBRANCH  33  34
ENDBRANCH  32  33
ENDBRANCH  31  32
ENDBRANCH  30  31
ENDBRANCH   2  30
TORSDOF 17
