REMARK SMILES Cc1nnc(S[C@@H](C)CCO)c(C(=O)OCCOC(=O)c2ccc(-c3c4nc(c(-c5ccccc5)c5ccc([nH]5)c(-c5ccccc5)c5nc(c(-c6ccccc6)c6ccc3[nH]6)C=C5)C=C4)cc2)c1C
REMARK SMILES IDX 15 1 13 2 14 3 12 4 1 5 2 6 3 7 69 8 4 9 70 10 5 11 6 12
REMARK SMILES IDX 7 13 8 14 9 15 10 16 11 17 16 19 17 20 18 21 19 22 20 23
REMARK SMILES IDX 21 24 22 25 68 26 23 27 67 28 24 29 25 30 26 31 61 32 27 33
REMARK SMILES IDX 66 34 60 35 62 36 28 37 65 38 59 39 58 40 29 42 51 43 36 44
REMARK SMILES IDX 50 45 37 46 40 47 49 48 63 49 38 50 39 51 48 53 64 54 41 55
REMARK SMILES IDX 30 56 31 57 35 58 32 59 34 60 33 61 52 62 53 63 57 64 54 65
REMARK SMILES IDX 56 66 55 67 42 68 43 69 47 70 44 71 46 72 45 73
REMARK H PARENT 11 18 62 41 40 52
REMARK Flexibility Score: inf
ROOT
ATOM      1  O   UNL     1       0.954   4.970   0.393  1.00  0.00    -0.458 OA
ENDROOT
BRANCH   1   2
ATOM      2  C   UNL     1       1.926   4.803   1.326  1.00  0.00     0.341 C 
ATOM      3  O   UNL     1       2.713   5.611   1.738  1.00  0.00    -0.246 OA
BRANCH   2   4
ATOM      4  C   UNL     1       1.666   3.449   1.838  1.00  0.00     0.098 A 
ATOM      5  C   UNL     1       0.904  -0.043   0.458  1.00  0.00     0.069 C 
ATOM      6  C   UNL     1       1.115   1.142   1.351  1.00  0.00     0.064 A 
ATOM      7  N   UNL     1       0.836   0.969   2.651  1.00  0.00    -0.155 NA
ATOM      8  C   UNL     1       1.572   2.372   0.896  1.00  0.00    -0.011 A 
ATOM      9  N   UNL     1       1.013   2.008   3.554  1.00  0.00    -0.143 NA
ATOM     10  C   UNL     1       1.900   2.560  -0.566  1.00  0.00     0.047 C 
ATOM     11  C   UNL     1       1.404   3.253   3.188  1.00  0.00     0.134 A 
BRANCH  11  12
ATOM     12  S   UNL     1       1.769   4.194   4.640  1.00  0.00    -0.100 SA
BRANCH  12  13
ATOM     13  C   UNL     1       1.274   5.998   4.814  1.00  0.00     0.052 C 
ATOM     14  C   UNL     1       2.537   6.532   5.521  1.00  0.00     0.020 C 
BRANCH  13  15
ATOM     15  C   UNL     1       0.938   6.958   3.670  1.00  0.00     0.043 C 
BRANCH  15  16
ATOM     16  C   UNL     1      -0.232   7.941   3.865  1.00  0.00     0.157 C 
BRANCH  16  17
ATOM     17  O   UNL     1      -0.544   8.210   5.217  1.00  0.00    -0.396 OA
ATOM     18  H   UNL     1      -0.825   7.390   5.654  1.00  0.00     0.210 HD
ENDBRANCH  16  17
ENDBRANCH  15  16
ENDBRANCH  13  15
ENDBRANCH  12  13
ENDBRANCH  11  12
ENDBRANCH   2   4
ENDBRANCH   1   2
BRANCH   1  19
ATOM     19  C   UNL     1       0.402   6.267   0.163  1.00  0.00     0.275 C 
BRANCH  19  20
ATOM     20  C   UNL     1      -1.109   6.133   0.411  1.00  0.00     0.275 C 
BRANCH  20  21
ATOM     21  O   UNL     1      -1.410   5.789   1.787  1.00  0.00    -0.458 OA
BRANCH  21  22
ATOM     22  C   UNL     1      -1.904   4.553   2.073  1.00  0.00     0.338 C 
ATOM     23  O   UNL     1      -2.077   3.644   1.282  1.00  0.00    -0.246 OA
BRANCH  22  24
ATOM     24  C   UNL     1      -2.134   4.449   3.547  1.00  0.00     0.060 A 
ATOM     25  C   UNL     1      -1.871   3.250   4.217  1.00  0.00     0.016 A 
ATOM     26  C   UNL     1      -2.603   5.541   4.284  1.00  0.00     0.016 A 
ATOM     27  C   UNL     1      -1.979   3.177   5.616  1.00  0.00     0.010 A 
ATOM     28  C   UNL     1      -2.704   5.477   5.679  1.00  0.00     0.010 A 
ATOM     29  C   UNL     1      -2.394   4.293   6.360  1.00  0.00    -0.014 A 
BRANCH  29  30
ATOM     30  C   UNL     1      -2.775   4.149   7.790  1.00  0.00     0.031 A 
ATOM     31  C   UNL     1      -4.169   3.666   8.083  1.00  0.00     0.074 A 
ATOM     32  C   UNL     1      -1.959   4.462   8.816  1.00  0.00     0.049 A 
ATOM     33  N   UNL     1      -4.718   3.352   9.228  1.00  0.00    -0.248 NA
ATOM     34  C   UNL     1      -5.066   3.526   6.923  1.00  0.00     0.031 C 
ATOM     35  C   UNL     1      -0.600   4.985   8.702  1.00  0.00     0.029 A 
ATOM     36  N   UNL     1      -2.172   4.381  10.174  1.00  0.00    -0.354 N 
ATOM     37  C   UNL     1      -6.000   2.924   8.916  1.00  0.00     0.074 A 
ATOM     38  C   UNL     1      -6.178   3.089   7.492  1.00  0.00     0.031 C 
ATOM     39  C   UNL     1      -0.099   5.176   9.938  1.00  0.00     0.029 A 
ATOM     40  C   UNL     1      -1.096   4.778  10.933  1.00  0.00     0.049 A 
ATOM     41  H   UNL     1      -3.019   4.068  10.567  1.00  0.00     0.167 HD
ATOM     42  C   UNL     1      -6.943   2.405   9.733  1.00  0.00     0.031 A 
ATOM     43  C   UNL     1      -0.928   4.797  12.272  1.00  0.00     0.031 A 
ATOM     44  C   UNL     1      -6.812   2.288  11.153  1.00  0.00     0.049 A 
ATOM     45  C   UNL     1      -2.023   4.292  13.180  1.00  0.00     0.074 A 
ATOM     46  C   UNL     1      -7.713   1.762  12.059  1.00  0.00     0.029 A 
ATOM     47  N   UNL     1      -5.716   2.728  11.875  1.00  0.00    -0.354 N 
ATOM     48  N   UNL     1      -3.190   3.785  12.863  1.00  0.00    -0.248 NA
ATOM     49  C   UNL     1      -1.772   4.345  14.631  1.00  0.00     0.031 C 
ATOM     50  C   UNL     1      -7.180   1.921  13.340  1.00  0.00     0.029 A 
ATOM     51  C   UNL     1      -5.929   2.509  13.222  1.00  0.00     0.049 A 
ATOM     52  H   UNL     1      -4.907   3.134  11.488  1.00  0.00     0.167 HD
ATOM     53  C   UNL     1      -3.793   3.431  14.065  1.00  0.00     0.074 A 
ATOM     54  C   UNL     1      -2.871   3.785  15.122  1.00  0.00     0.031 C 
ATOM     55  C   UNL     1      -5.002   2.855  14.267  1.00  0.00     0.031 A 
BRANCH  42  56
ATOM     56  C   UNL     1      -8.196   1.908   9.082  1.00  0.00    -0.014 A 
ATOM     57  C   UNL     1      -8.182   0.703   8.361  1.00  0.00     0.009 A 
ATOM     58  C   UNL     1      -9.390   2.633   9.188  1.00  0.00     0.009 A 
ATOM     59  C   UNL     1      -9.339   0.246   7.731  1.00  0.00     0.001 A 
ATOM     60  C   UNL     1     -10.551   2.162   8.573  1.00  0.00     0.001 A 
ATOM     61  C   UNL     1     -10.522   0.975   7.841  1.00  0.00     0.000 A 
ENDBRANCH  42  56
BRANCH  43  62
ATOM     62  C   UNL     1       0.357   5.267  12.856  1.00  0.00    -0.014 A 
ATOM     63  C   UNL     1       1.289   4.341  13.351  1.00  0.00     0.009 A 
ATOM     64  C   UNL     1       0.651   6.636  12.939  1.00  0.00     0.009 A 
ATOM     65  C   UNL     1       2.484   4.778  13.929  1.00  0.00     0.001 A 
ATOM     66  C   UNL     1       1.854   7.069  13.505  1.00  0.00     0.001 A 
ATOM     67  C   UNL     1       2.768   6.140  14.003  1.00  0.00     0.000 A 
ENDBRANCH  43  62
BRANCH  55  68
ATOM     68  C   UNL     1      -5.430   2.539  15.670  1.00  0.00    -0.014 A 
ATOM     69  C   UNL     1      -5.980   3.533  16.492  1.00  0.00     0.009 A 
ATOM     70  C   UNL     1      -5.456   1.202  16.101  1.00  0.00     0.009 A 
ATOM     71  C   UNL     1      -6.562   3.191  17.714  1.00  0.00     0.001 A 
ATOM     72  C   UNL     1      -6.054   0.863  17.315  1.00  0.00     0.001 A 
ATOM     73  C   UNL     1      -6.611   1.857  18.118  1.00  0.00     0.000 A 
ENDBRANCH  55  68
ENDBRANCH  29  30
ENDBRANCH  22  24
ENDBRANCH  21  22
ENDBRANCH  20  21
ENDBRANCH  19  20
ENDBRANCH   1  19
TORSDOF 16
