REMARK SMILES COC[C@@H](C)[C@@](O)(C(=O)OCCOC(=O)c1ccc(-c2c3nc(c(-c4ccccc4)c4ccc([nH]4)c(-c4ccccc4)c4nc(c(-c5ccccc5)c5ccc2[nH]5)C=C4)C=C3)cc1)C(C)C
REMARK SMILES IDX 11 1 10 2 8 3 9 4 6 5 4 6 5 7 3 8 2 9 1 10 7 11 64 13 65 14
REMARK SMILES IDX 66 15 12 16 13 17 14 18 15 19 16 20 17 21 63 22 18 23 62 24
REMARK SMILES IDX 19 25 20 26 21 27 56 28 22 29 61 30 55 31 57 32 23 33 60 34
REMARK SMILES IDX 54 35 53 36 24 38 46 39 31 40 45 41 32 42 35 43 44 44 58 45
REMARK SMILES IDX 33 46 34 47 43 49 59 50 36 51 25 52 26 53 30 54 27 55 29 56
REMARK SMILES IDX 28 57 47 58 48 59 52 60 49 61 51 62 50 63 37 64 38 65 42 66
REMARK SMILES IDX 39 67 41 68 40 69
REMARK H PARENT 7 12 57 37 35 48
REMARK Flexibility Score: inf
ROOT
ATOM      1  C   UNL     1      -1.263  -1.359   5.896  1.00  0.00     0.274 C 
ENDROOT
BRANCH   1   2
ATOM      2  O   UNL     1      -0.764  -0.647   4.743  1.00  0.00    -0.460 OA
BRANCH   2   3
ATOM      3  C   UNL     1       0.238   0.241   4.956  1.00  0.00     0.338 C 
ATOM      4  O   UNL     1       0.685   0.519   6.069  1.00  0.00    -0.249 OA
BRANCH   3   5
ATOM      5  C   UNL     1       0.734   0.977   3.674  1.00  0.00     0.168 C 
BRANCH   5   6
ATOM      6  C   UNL     1      -0.007   0.558   2.362  1.00  0.00     0.055 C 
ATOM      7  C   UNL     1       0.143  -0.911   1.940  1.00  0.00     0.014 C 
BRANCH   6   8
ATOM      8  C   UNL     1       0.310   1.525   1.200  1.00  0.00     0.166 C 
BRANCH   8   9
ATOM      9  O   UNL     1      -0.326   1.163  -0.028  1.00  0.00    -0.384 OA
ATOM     10  C   UNL     1       0.528   0.491  -0.947  1.00  0.00     0.194 C 
ENDBRANCH   8   9
ENDBRANCH   6   8
ENDBRANCH   5   6
BRANCH   5  11
ATOM     11  O   UNL     1       0.285   2.336   3.965  1.00  0.00    -0.378 OA
ATOM     12  H   UNL     1      -0.685   2.360   3.977  1.00  0.00     0.212 HD
ENDBRANCH   5  11
BRANCH   5  13
ATOM     13  C   UNL     1       2.314   1.001   3.668  1.00  0.00     0.026 C 
ATOM     14  C   UNL     1       2.996  -0.072   2.820  1.00  0.00     0.011 C 
ATOM     15  C   UNL     1       2.947   2.366   3.344  1.00  0.00     0.011 C 
ENDBRANCH   5  13
ENDBRANCH   3   5
ENDBRANCH   2   3
ENDBRANCH   1   2
BRANCH   1  16
ATOM     16  C   UNL     1      -0.734  -2.790   5.883  1.00  0.00     0.275 C 
BRANCH  16  17
ATOM     17  O   UNL     1       0.700  -2.746   5.987  1.00  0.00    -0.458 OA
BRANCH  17  18
ATOM     18  C   UNL     1       1.383  -3.624   5.219  1.00  0.00     0.338 C 
ATOM     19  O   UNL     1       0.908  -4.519   4.534  1.00  0.00    -0.246 OA
BRANCH  18  20
ATOM     20  C   UNL     1       2.834  -3.330   5.282  1.00  0.00     0.060 A 
ATOM     21  C   UNL     1       3.302  -2.045   5.562  1.00  0.00     0.016 A 
ATOM     22  C   UNL     1       3.747  -4.336   4.959  1.00  0.00     0.016 A 
ATOM     23  C   UNL     1       4.659  -1.745   5.423  1.00  0.00     0.010 A 
ATOM     24  C   UNL     1       5.118  -4.054   4.920  1.00  0.00     0.010 A 
ATOM     25  C   UNL     1       5.592  -2.746   5.117  1.00  0.00    -0.014 A 
BRANCH  25  26
ATOM     26  C   UNL     1       7.047  -2.439   4.987  1.00  0.00     0.031 A 
ATOM     27  C   UNL     1       7.803  -2.822   3.738  1.00  0.00     0.074 A 
ATOM     28  C   UNL     1       7.717  -1.830   5.987  1.00  0.00     0.049 A 
ATOM     29  N   UNL     1       9.097  -2.880   3.539  1.00  0.00    -0.248 NA
ATOM     30  C   UNL     1       7.000  -3.207   2.566  1.00  0.00     0.031 C 
ATOM     31  C   UNL     1       7.132  -1.349   7.240  1.00  0.00     0.029 A 
ATOM     32  N   UNL     1       9.050  -1.512   6.103  1.00  0.00    -0.354 N 
ATOM     33  C   UNL     1       9.263  -3.377   2.251  1.00  0.00     0.074 A 
ATOM     34  C   UNL     1       7.938  -3.589   1.709  1.00  0.00     0.031 C 
ATOM     35  C   UNL     1       8.086  -0.759   7.975  1.00  0.00     0.029 A 
ATOM     36  C   UNL     1       9.368  -0.913   7.298  1.00  0.00     0.049 A 
ATOM     37  H   UNL     1       9.712  -1.695   5.398  1.00  0.00     0.167 HD
ATOM     38  C   UNL     1      10.413  -3.644   1.587  1.00  0.00     0.031 A 
ATOM     39  C   UNL     1      10.558  -0.573   7.828  1.00  0.00     0.031 A 
ATOM     40  C   UNL     1      11.733  -3.381   2.099  1.00  0.00     0.049 A 
ATOM     41  C   UNL     1      11.819  -0.891   7.084  1.00  0.00     0.074 A 
ATOM     42  C   UNL     1      12.957  -3.618   1.494  1.00  0.00     0.029 A 
ATOM     43  N   UNL     1      12.002  -2.799   3.326  1.00  0.00    -0.354 N 
ATOM     44  N   UNL     1      11.963  -1.458   5.912  1.00  0.00    -0.248 NA
ATOM     45  C   UNL     1      13.084  -0.549   7.751  1.00  0.00     0.031 C 
ATOM     46  C   UNL     1      13.967  -3.202   2.368  1.00  0.00     0.029 A 
ATOM     47  C   UNL     1      13.370  -2.671   3.498  1.00  0.00     0.049 A 
ATOM     48  H   UNL     1      11.321  -2.517   3.979  1.00  0.00     0.167 HD
ATOM     49  C   UNL     1      13.332  -1.548   5.704  1.00  0.00     0.074 A 
ATOM     50  C   UNL     1      13.975  -0.951   6.856  1.00  0.00     0.031 C 
ATOM     51  C   UNL     1      13.996  -2.088   4.654  1.00  0.00     0.031 A 
BRANCH  38  52
ATOM     52  C   UNL     1      10.304  -4.297   0.237  1.00  0.00    -0.014 A 
ATOM     53  C   UNL     1       9.926  -3.573  -0.902  1.00  0.00     0.009 A 
ATOM     54  C   UNL     1      10.645  -5.653   0.101  1.00  0.00     0.009 A 
ATOM     55  C   UNL     1       9.870  -4.201  -2.150  1.00  0.00     0.001 A 
ATOM     56  C   UNL     1      10.610  -6.272  -1.149  1.00  0.00     0.001 A 
ATOM     57  C   UNL     1      10.216  -5.547  -2.273  1.00  0.00     0.000 A 
ENDBRANCH  38  52
BRANCH  39  58
ATOM     58  C   UNL     1      10.607   0.046   9.177  1.00  0.00    -0.014 A 
ATOM     59  C   UNL     1      10.918   1.405   9.326  1.00  0.00     0.009 A 
ATOM     60  C   UNL     1      10.309  -0.716  10.319  1.00  0.00     0.009 A 
ATOM     61  C   UNL     1      10.933   1.988  10.595  1.00  0.00     0.001 A 
ATOM     62  C   UNL     1      10.297  -0.124  11.582  1.00  0.00     0.001 A 
ATOM     63  C   UNL     1      10.614   1.226  11.720  1.00  0.00     0.000 A 
ENDBRANCH  39  58
BRANCH  51  64
ATOM     64  C   UNL     1      15.495  -2.043   4.705  1.00  0.00    -0.014 A 
ATOM     65  C   UNL     1      16.215  -2.934   5.514  1.00  0.00     0.009 A 
ATOM     66  C   UNL     1      16.192  -1.109   3.924  1.00  0.00     0.009 A 
ATOM     67  C   UNL     1      17.609  -2.870   5.564  1.00  0.00     0.001 A 
ATOM     68  C   UNL     1      17.587  -1.060   3.962  1.00  0.00     0.001 A 
ATOM     69  C   UNL     1      18.293  -1.935   4.788  1.00  0.00     0.000 A 
ENDBRANCH  51  64
ENDBRANCH  25  26
ENDBRANCH  18  20
ENDBRANCH  17  18
ENDBRANCH  16  17
ENDBRANCH   1  16
TORSDOF 16
