REMARK SMILES CC1=C(C#N)c2nc(N)c(C#N)c(C)c2/C1=C/c1ccc(-c2ccc(C(=O)OCCOC(=O)c3ccc(-c4c5nc(c(-c6ccccc6)c6ccc([nH]6)c(-c6ccccc6)c6nc(c(-c7ccccc7)c7ccc4[nH]7)C=C6)C=C5)cc3)cc2)o1
REMARK SMILES IDX 29 1 28 2 26 3 27 4 25 5 22 6 23 7 83 8 24 9 82 10 21 11
REMARK SMILES IDX 18 12 19 13 84 14 20 15 17 16 1 17 2 18 3 19 16 20 6 21
REMARK SMILES IDX 15 22 7 23 13 24 8 25 10 26 14 27 4 28 5 29 9 30 11 33 12 34
REMARK SMILES IDX 30 35 31 36 32 37 33 38 34 39 35 40 81 41 36 42 80 43 37 44
REMARK SMILES IDX 38 45 39 46 74 47 40 48 79 49 73 50 75 51 41 52 78 53 72 54
REMARK SMILES IDX 71 55 42 57 64 58 49 59 63 60 50 61 53 62 62 63 76 64 51 65
REMARK SMILES IDX 52 66 61 68 77 69 54 70 43 71 44 72 48 73 45 74 47 75 46 76
REMARK SMILES IDX 65 77 66 78 70 79 67 80 69 81 68 82 55 83 56 84 60 85 57 86
REMARK SMILES IDX 59 87 58 88
REMARK H PARENT 9 31 9 32 75 56 53 67
REMARK Flexibility Score: inf
ROOT
ATOM      1  C   UNL     1       7.130   7.779  -5.646  1.00  0.00     0.275 C 
ENDROOT
BRANCH   1   2
ATOM      2  O   UNL     1       6.039   7.269  -4.850  1.00  0.00    -0.458 OA
BRANCH   2   3
ATOM      3  C   UNL     1       5.996   5.923  -4.708  1.00  0.00     0.338 C 
ATOM      4  O   UNL     1       6.750   5.113  -5.226  1.00  0.00    -0.246 OA
BRANCH   3   5
ATOM      5  C   UNL     1       4.931   5.518  -3.762  1.00  0.00     0.060 A 
ATOM      6  C   UNL     1       2.890   4.450  -2.161  1.00  0.00     0.017 A 
ATOM      7  C   UNL     1       4.197   3.995  -2.013  1.00  0.00     0.013 A 
ATOM      8  C   UNL     1       2.622   5.490  -3.066  1.00  0.00     0.013 A 
ATOM      9  C   UNL     1       5.197   4.500  -2.837  1.00  0.00     0.016 A 
ATOM     10  C   UNL     1       3.642   6.040  -3.854  1.00  0.00     0.016 A 
BRANCH   6  11
ATOM     11  C   UNL     1       1.815   3.738  -1.500  1.00  0.00     0.134 A 
ATOM     12  C   UNL     1       0.862   2.776   0.257  1.00  0.00     0.128 A 
ATOM     13  C   UNL     1       0.041   2.569  -0.847  1.00  0.00     0.051 A 
ATOM     14  O   UNL     1       1.950   3.508  -0.165  1.00  0.00    -0.457 OA
ATOM     15  C   UNL     1       0.659   3.163  -1.967  1.00  0.00     0.051 A 
BRANCH  12  16
ATOM     16  C   UNL     1       0.623   2.463   1.619  1.00  0.00     0.056 C 
ATOM     17  C   UNL     1       1.087  -0.383   0.161  1.00  0.00     0.046 C 
ATOM     18  C   UNL     1       0.513  -0.094   1.510  1.00  0.00    -0.023 C 
ATOM     19  C   UNL     1       0.123  -1.032   2.403  1.00  0.00     0.082 C 
ATOM     20  C   UNL     1       0.387   1.244   2.133  1.00  0.00    -0.008 C 
ATOM     21  C   UNL     1      -0.258  -0.355   3.639  1.00  0.00     0.092 A 
ATOM     22  C   UNL     1      -0.095   1.028   3.526  1.00  0.00     0.014 A 
ATOM     23  N   UNL     1      -0.719  -1.013   4.716  1.00  0.00    -0.228 NA
ATOM     24  C   UNL     1      -0.454   1.823   4.618  1.00  0.00    -0.019 A 
ATOM     25  C   UNL     1      -1.051  -0.256   5.777  1.00  0.00     0.142 A 
ATOM     26  C   UNL     1      -0.945   1.149   5.769  1.00  0.00     0.098 A 
ATOM     27  C   UNL     1      -0.358   3.322   4.579  1.00  0.00     0.046 C 
BRANCH  19  28
ATOM     28  C   UNL     1       0.113  -2.432   2.218  1.00  0.00     0.102 C 
ATOM     29  N   UNL     1       0.116  -3.578   2.020  1.00  0.00    -0.192 NA
ENDBRANCH  19  28
BRANCH  25  30
ATOM     30  N   UNL     1      -1.593  -0.963   6.831  1.00  0.00    -0.383 N 
ATOM     31  H   UNL     1      -1.645  -1.945   6.790  1.00  0.00     0.158 HD
ATOM     32  H   UNL     1      -1.928  -0.485   7.624  1.00  0.00     0.158 HD
ENDBRANCH  25  30
BRANCH  26  33
ATOM     33  C   UNL     1      -1.347   1.872   6.941  1.00  0.00     0.103 C 
ATOM     34  N   UNL     1      -1.652   2.460   7.894  1.00  0.00    -0.192 NA
ENDBRANCH  26  33
ENDBRANCH  12  16
ENDBRANCH   6  11
ENDBRANCH   3   5
ENDBRANCH   2   3
ENDBRANCH   1   2
BRANCH   1  35
ATOM     35  C   UNL     1       8.243   8.348  -4.763  1.00  0.00     0.275 C 
BRANCH  35  36
ATOM     36  O   UNL     1       8.943   7.293  -4.077  1.00  0.00    -0.458 OA
BRANCH  36  37
ATOM     37  C   UNL     1       8.559   7.099  -2.797  1.00  0.00     0.338 C 
ATOM     38  O   UNL     1       7.729   7.729  -2.164  1.00  0.00    -0.246 OA
BRANCH  37  39
ATOM     39  C   UNL     1       9.223   5.916  -2.237  1.00  0.00     0.060 A 
ATOM     40  C   UNL     1       8.687   4.673  -2.540  1.00  0.00     0.016 A 
ATOM     41  C   UNL     1      10.189   6.035  -1.244  1.00  0.00     0.016 A 
ATOM     42  C   UNL     1       8.961   3.579  -1.731  1.00  0.00     0.010 A 
ATOM     43  C   UNL     1      10.598   4.891  -0.547  1.00  0.00     0.010 A 
ATOM     44  C   UNL     1       9.946   3.658  -0.740  1.00  0.00    -0.014 A 
BRANCH  44  45
ATOM     45  C   UNL     1      10.275   2.458   0.083  1.00  0.00     0.031 A 
ATOM     46  C   UNL     1      10.239   2.524   1.589  1.00  0.00     0.074 A 
ATOM     47  C   UNL     1      10.589   1.292  -0.521  1.00  0.00     0.049 A 
ATOM     48  N   UNL     1      10.634   1.633   2.465  1.00  0.00    -0.248 NA
ATOM     49  C   UNL     1       9.701   3.754   2.193  1.00  0.00     0.031 C 
ATOM     50  C   UNL     1      10.605   1.060  -1.969  1.00  0.00     0.029 A 
ATOM     51  N   UNL     1      10.940   0.073   0.006  1.00  0.00    -0.354 N 
ATOM     52  C   UNL     1      10.443   2.214   3.713  1.00  0.00     0.074 A 
ATOM     53  C   UNL     1       9.919   3.543   3.483  1.00  0.00     0.031 C 
ATOM     54  C   UNL     1      10.881  -0.228  -2.209  1.00  0.00     0.029 A 
ATOM     55  C   UNL     1      11.184  -0.887  -0.948  1.00  0.00     0.049 A 
ATOM     56  H   UNL     1      11.009  -0.097   0.973  1.00  0.00     0.167 HD
ATOM     57  C   UNL     1      10.677   1.687   4.939  1.00  0.00     0.031 A 
ATOM     58  C   UNL     1      11.647  -2.146  -0.838  1.00  0.00     0.031 A 
ATOM     59  C   UNL     1      11.174   0.353   5.161  1.00  0.00     0.049 A 
ATOM     60  C   UNL     1      11.985  -2.678   0.522  1.00  0.00     0.074 A 
ATOM     61  C   UNL     1      11.439  -0.277   6.364  1.00  0.00     0.029 A 
ATOM     62  N   UNL     1      11.475  -0.557   4.159  1.00  0.00    -0.354 N 
ATOM     63  N   UNL     1      11.836  -2.103   1.690  1.00  0.00    -0.248 NA
ATOM     64  C   UNL     1      12.566  -4.025   0.579  1.00  0.00     0.031 C 
ATOM     65  C   UNL     1      11.964  -1.542   6.088  1.00  0.00     0.029 A 
ATOM     66  C   UNL     1      11.954  -1.732   4.716  1.00  0.00     0.049 A 
ATOM     67  H   UNL     1      11.364  -0.394   3.194  1.00  0.00     0.167 HD
ATOM     68  C   UNL     1      12.288  -3.023   2.625  1.00  0.00     0.074 A 
ATOM     69  C   UNL     1      12.695  -4.202   1.887  1.00  0.00     0.031 C 
ATOM     70  C   UNL     1      12.361  -2.897   3.972  1.00  0.00     0.031 A 
BRANCH  57  71
ATOM     71  C   UNL     1      10.435   2.563   6.141  1.00  0.00    -0.014 A 
ATOM     72  C   UNL     1       9.141   2.946   6.526  1.00  0.00     0.009 A 
ATOM     73  C   UNL     1      11.523   2.972   6.930  1.00  0.00     0.009 A 
ATOM     74  C   UNL     1       8.945   3.748   7.654  1.00  0.00     0.001 A 
ATOM     75  C   UNL     1      11.322   3.744   8.077  1.00  0.00     0.001 A 
ATOM     76  C   UNL     1      10.034   4.140   8.432  1.00  0.00     0.000 A 
ENDBRANCH  57  71
BRANCH  58  77
ATOM     77  C   UNL     1      11.842  -2.966  -2.064  1.00  0.00    -0.014 A 
ATOM     78  C   UNL     1      11.025  -4.078  -2.313  1.00  0.00     0.009 A 
ATOM     79  C   UNL     1      12.807  -2.608  -3.021  1.00  0.00     0.009 A 
ATOM     80  C   UNL     1      11.170  -4.813  -3.492  1.00  0.00     0.001 A 
ATOM     81  C   UNL     1      12.926  -3.323  -4.215  1.00  0.00     0.001 A 
ATOM     82  C   UNL     1      12.111  -4.428  -4.446  1.00  0.00     0.000 A 
ENDBRANCH  58  77
BRANCH  70  83
ATOM     83  C   UNL     1      12.882  -4.073   4.749  1.00  0.00    -0.014 A 
ATOM     84  C   UNL     1      14.239  -4.430   4.707  1.00  0.00     0.009 A 
ATOM     85  C   UNL     1      12.016  -4.787   5.593  1.00  0.00     0.009 A 
ATOM     86  C   UNL     1      14.712  -5.493   5.479  1.00  0.00     0.001 A 
ATOM     87  C   UNL     1      12.500  -5.826   6.390  1.00  0.00     0.001 A 
ATOM     88  C   UNL     1      13.845  -6.182   6.326  1.00  0.00     0.000 A 
ENDBRANCH  70  83
ENDBRANCH  44  45
ENDBRANCH  37  39
ENDBRANCH  36  37
ENDBRANCH  35  36
ENDBRANCH   1  35
TORSDOF 16
