REMARK SMILES C[C@@H](NC(=O)c1cc(C(=O)OCCOC(=O)c2ccc(-c3c4nc(c(-c5ccccc5)c5ccc([nH]5)c(-c5ccccc5)c5nc(c(-c6ccccc6)c6ccc3[nH]6)C=C5)C=C4)cc2)n(C)n1)c1ccccc1
REMARK SMILES IDX 12 1 11 2 9 3 10 4 8 5 6 6 7 7 67 8 65 9 66 10 4 11 3 12
REMARK SMILES IDX 5 14 2 15 1 16 68 17 69 18 73 19 70 20 72 21 71 22 13 23
REMARK SMILES IDX 14 24 15 25 16 26 17 27 18 28 64 29 19 30 63 31 20 32 21 33
REMARK SMILES IDX 22 34 57 35 23 36 62 37 56 38 58 39 24 40 61 41 55 42 54 43
REMARK SMILES IDX 25 45 47 46 32 47 46 48 33 49 36 50 45 51 59 52 34 53 35 54
REMARK SMILES IDX 44 56 60 57 37 58 26 59 27 60 31 61 28 62 30 63 29 64 48 65
REMARK SMILES IDX 49 66 53 67 50 68 52 69 51 70 38 71 39 72 43 73 40 74 42 75
REMARK SMILES IDX 41 76
REMARK H PARENT 3 13 58 44 36 55
REMARK Flexibility Score: inf
ROOT
ATOM      1  C   UNL     1      -6.735  -1.656   2.670  1.00  0.00     0.275 C 
ENDROOT
BRANCH   1   2
ATOM      2  O   UNL     1      -5.666  -0.709   2.879  1.00  0.00    -0.457 OA
BRANCH   2   3
ATOM      3  C   UNL     1      -4.670  -1.099   3.723  1.00  0.00     0.356 C 
ATOM      4  O   UNL     1      -4.656  -2.158   4.339  1.00  0.00    -0.244 OA
BRANCH   3   5
ATOM      5  C   UNL     1      -3.579  -0.158   3.711  1.00  0.00     0.146 A 
ATOM      6  C   UNL     1      -1.537   0.769   3.732  1.00  0.00     0.151 A 
ATOM      7  C   UNL     1      -2.232  -0.452   3.883  1.00  0.00     0.071 A 
ATOM      8  N   UNL     1      -2.404   1.787   3.613  1.00  0.00    -0.167 NA
ATOM      9  N   UNL     1      -3.617   1.203   3.549  1.00  0.00    -0.260 N 
ATOM     10  C   UNL     1      -4.750   2.090   3.424  1.00  0.00     0.174 C 
BRANCH   6  11
ATOM     11  C   UNL     1      -0.092   1.006   3.728  1.00  0.00     0.272 C 
ATOM     12  N   UNL     1       0.631   0.790   2.575  1.00  0.00    -0.344 N 
ATOM     13  H   UNL     1       1.511   1.231   2.558  1.00  0.00     0.164 HD
ATOM     14  O   UNL     1       0.506   1.433   4.716  1.00  0.00    -0.267 OA
BRANCH  12  15
ATOM     15  C   UNL     1       0.317   0.020   1.372  1.00  0.00     0.109 C 
ATOM     16  C   UNL     1       1.441   0.183   0.344  1.00  0.00     0.036 C 
BRANCH  15  17
ATOM     17  C   UNL     1      -1.014   0.335   0.720  1.00  0.00    -0.026 A 
ATOM     18  C   UNL     1      -1.466   1.647   0.532  1.00  0.00     0.006 A 
ATOM     19  C   UNL     1      -1.840  -0.719   0.303  1.00  0.00     0.006 A 
ATOM     20  C   UNL     1      -2.750   1.890   0.037  1.00  0.00     0.000 A 
ATOM     21  C   UNL     1      -3.123  -0.479  -0.185  1.00  0.00     0.000 A 
ATOM     22  C   UNL     1      -3.586   0.827  -0.299  1.00  0.00     0.000 A 
ENDBRANCH  15  17
ENDBRANCH  12  15
ENDBRANCH   6  11
ENDBRANCH   3   5
ENDBRANCH   2   3
ENDBRANCH   1   2
BRANCH   1  23
ATOM     23  C   UNL     1      -6.480  -2.480   1.407  1.00  0.00     0.275 C 
BRANCH  23  24
ATOM     24  O   UNL     1      -5.256  -3.206   1.577  1.00  0.00    -0.458 OA
BRANCH  24  25
ATOM     25  C   UNL     1      -4.806  -3.874   0.491  1.00  0.00     0.338 C 
ATOM     26  O   UNL     1      -5.414  -4.043  -0.552  1.00  0.00    -0.246 OA
BRANCH  25  27
ATOM     27  C   UNL     1      -3.396  -4.293   0.718  1.00  0.00     0.060 A 
ATOM     28  C   UNL     1      -2.656  -3.802   1.799  1.00  0.00     0.016 A 
ATOM     29  C   UNL     1      -2.769  -5.127  -0.211  1.00  0.00     0.016 A 
ATOM     30  C   UNL     1      -1.297  -4.095   1.923  1.00  0.00     0.010 A 
ATOM     31  C   UNL     1      -1.425  -5.486  -0.039  1.00  0.00     0.010 A 
ATOM     32  C   UNL     1      -0.670  -4.970   1.028  1.00  0.00    -0.014 A 
BRANCH  32  33
ATOM     33  C   UNL     1       0.748  -5.385   1.226  1.00  0.00     0.031 A 
ATOM     34  C   UNL     1       1.768  -5.201   0.134  1.00  0.00     0.074 A 
ATOM     35  C   UNL     1       1.119  -5.982   2.378  1.00  0.00     0.049 A 
ATOM     36  N   UNL     1       2.960  -5.731   0.021  1.00  0.00    -0.248 NA
ATOM     37  C   UNL     1       1.397  -4.316  -0.982  1.00  0.00     0.031 C 
ATOM     38  C   UNL     1       0.260  -6.193   3.547  1.00  0.00     0.029 A 
ATOM     39  N   UNL     1       2.319  -6.538   2.750  1.00  0.00    -0.354 N 
ATOM     40  C   UNL     1       3.455  -5.301  -1.204  1.00  0.00     0.074 A 
ATOM     41  C   UNL     1       2.441  -4.449  -1.791  1.00  0.00     0.031 C 
ATOM     42  C   UNL     1       0.963  -6.810   4.507  1.00  0.00     0.029 A 
ATOM     43  C   UNL     1       2.285  -7.134   3.989  1.00  0.00     0.049 A 
ATOM     44  H   UNL     1       3.125  -6.513   2.184  1.00  0.00     0.167 HD
ATOM     45  C   UNL     1       4.639  -5.604  -1.790  1.00  0.00     0.031 A 
ATOM     46  C   UNL     1       3.181  -7.914   4.620  1.00  0.00     0.031 A 
ATOM     47  C   UNL     1       5.664  -6.418  -1.189  1.00  0.00     0.049 A 
ATOM     48  C   UNL     1       4.465  -8.268   3.932  1.00  0.00     0.074 A 
ATOM     49  C   UNL     1       6.906  -6.755  -1.701  1.00  0.00     0.029 A 
ATOM     50  N   UNL     1       5.573  -7.012   0.059  1.00  0.00    -0.354 N 
ATOM     51  N   UNL     1       4.896  -7.901   2.751  1.00  0.00    -0.248 NA
ATOM     52  C   UNL     1       5.379  -9.160   4.659  1.00  0.00     0.031 C 
ATOM     53  C   UNL     1       7.551  -7.587  -0.779  1.00  0.00     0.029 A 
ATOM     54  C   UNL     1       6.730  -7.725   0.328  1.00  0.00     0.049 A 
ATOM     55  H   UNL     1       4.801  -6.938   0.666  1.00  0.00     0.167 HD
ATOM     56  C   UNL     1       6.135  -8.507   2.598  1.00  0.00     0.074 A 
ATOM     57  C   UNL     1       6.397  -9.246   3.815  1.00  0.00     0.031 C 
ATOM     58  C   UNL     1       6.979  -8.457   1.540  1.00  0.00     0.031 A 
BRANCH  45  59
ATOM     59  C   UNL     1       4.889  -5.092  -3.182  1.00  0.00    -0.014 A 
ATOM     60  C   UNL     1       5.213  -3.749  -3.426  1.00  0.00     0.009 A 
ATOM     61  C   UNL     1       4.890  -5.998  -4.256  1.00  0.00     0.009 A 
ATOM     62  C   UNL     1       5.515  -3.322  -4.722  1.00  0.00     0.001 A 
ATOM     63  C   UNL     1       5.216  -5.573  -5.545  1.00  0.00     0.001 A 
ATOM     64  C   UNL     1       5.524  -4.234  -5.778  1.00  0.00     0.000 A 
ENDBRANCH  45  59
BRANCH  46  65
ATOM     65  C   UNL     1       2.856  -8.483   5.954  1.00  0.00    -0.014 A 
ATOM     66  C   UNL     1       3.534  -8.049   7.101  1.00  0.00     0.009 A 
ATOM     67  C   UNL     1       1.859  -9.465   6.083  1.00  0.00     0.009 A 
ATOM     68  C   UNL     1       3.234  -8.600   8.349  1.00  0.00     0.001 A 
ATOM     69  C   UNL     1       1.538  -9.989   7.336  1.00  0.00     0.001 A 
ATOM     70  C   UNL     1       2.232  -9.563   8.466  1.00  0.00     0.000 A 
ENDBRANCH  46  65
BRANCH  58  71
ATOM     71  C   UNL     1       8.281  -9.192   1.673  1.00  0.00    -0.014 A 
ATOM     72  C   UNL     1       8.337 -10.593   1.599  1.00  0.00     0.009 A 
ATOM     73  C   UNL     1       9.469  -8.470   1.862  1.00  0.00     0.009 A 
ATOM     74  C   UNL     1       9.556 -11.257   1.747  1.00  0.00     0.001 A 
ATOM     75  C   UNL     1      10.689  -9.136   1.985  1.00  0.00     0.001 A 
ATOM     76  C   UNL     1      10.730 -10.528   1.937  1.00  0.00     0.000 A 
ENDBRANCH  58  71
ENDBRANCH  32  33
ENDBRANCH  25  27
ENDBRANCH  24  25
ENDBRANCH  23  24
ENDBRANCH   1  23
TORSDOF 14
