REMARK SMILES C[C@H](Oc1ccnc2c(F)cc(F)cc12)C(=O)OCCOC(=O)c1ccc(-c2c3nc(c(-c4ccccc4)c4ccc([nH]4)c(-c4ccccc4)c4nc(c(-c5ccccc5)c5ccc2[nH]5)C=C4)C=C3)cc1
REMARK SMILES IDX 19 1 18 2 16 3 17 4 2 5 1 6 3 7 4 8 5 9 15 10 6 11 8 12
REMARK SMILES IDX 14 13 7 14 9 15 12 16 10 17 11 18 13 19 20 20 21 21 22 22
REMARK SMILES IDX 23 23 24 24 25 25 71 26 26 27 70 28 27 29 28 30 29 31 64 32
REMARK SMILES IDX 30 33 69 34 63 35 65 36 31 37 68 38 62 39 61 40 32 42 54 43
REMARK SMILES IDX 39 44 53 45 40 46 43 47 52 48 66 49 41 50 42 51 51 53 67 54
REMARK SMILES IDX 44 55 33 56 34 57 38 58 35 59 37 60 36 61 55 62 56 63 60 64
REMARK SMILES IDX 57 65 59 66 58 67 45 68 46 69 50 70 47 71 49 72 48 73
REMARK H PARENT 65 41 43 52
REMARK Flexibility Score: inf
ROOT
ATOM      1  C   UNL     1      -2.965  -1.219   0.832  1.00  0.00     0.274 C 
ENDROOT
BRANCH   1   2
ATOM      2  O   UNL     1      -1.614  -0.734   0.691  1.00  0.00    -0.459 OA
BRANCH   2   3
ATOM      3  C   UNL     1      -0.750  -1.590   0.082  1.00  0.00     0.347 C 
ATOM      4  O   UNL     1      -1.054  -2.702  -0.343  1.00  0.00    -0.248 OA
BRANCH   3   5
ATOM      5  C   UNL     1       0.678  -1.036  -0.025  1.00  0.00     0.279 C 
ATOM      6  C   UNL     1       1.573  -1.972   0.787  1.00  0.00     0.066 C 
BRANCH   5   7
ATOM      7  O   UNL     1       0.928   0.274   0.468  1.00  0.00    -0.478 OA
BRANCH   7   8
ATOM      8  C   UNL     1       0.619   1.373  -0.292  1.00  0.00     0.131 A 
ATOM      9  C   UNL     1       0.053   1.325  -1.558  1.00  0.00     0.067 A 
ATOM     10  C   UNL     1       0.895   2.629   0.293  1.00  0.00     0.048 A 
ATOM     11  C   UNL     1      -0.269   2.516  -2.179  1.00  0.00     0.115 A 
ATOM     12  C   UNL     1       0.524   3.793  -0.419  1.00  0.00     0.110 A 
ATOM     13  C   UNL     1       1.530   2.760   1.548  1.00  0.00     0.053 A 
ATOM     14  N   UNL     1      -0.050   3.727  -1.637  1.00  0.00    -0.253 NA
ATOM     15  C   UNL     1       0.773   5.031   0.178  1.00  0.00     0.152 A 
ATOM     16  C   UNL     1       1.776   4.014   2.089  1.00  0.00     0.127 A 
ATOM     17  F   UNL     1       0.412   6.161  -0.453  1.00  0.00    -0.204 F 
ATOM     18  C   UNL     1       1.392   5.158   1.418  1.00  0.00     0.080 A 
ATOM     19  F   UNL     1       2.394   4.114   3.272  1.00  0.00    -0.207 F 
ENDBRANCH   7   8
ENDBRANCH   5   7
ENDBRANCH   3   5
ENDBRANCH   2   3
ENDBRANCH   1   2
BRANCH   1  20
ATOM     20  C   UNL     1      -3.852  -0.729  -0.311  1.00  0.00     0.275 C 
BRANCH  20  21
ATOM     21  O   UNL     1      -3.259  -1.067  -1.578  1.00  0.00    -0.458 OA
BRANCH  21  22
ATOM     22  C   UNL     1      -3.171  -0.051  -2.465  1.00  0.00     0.338 C 
ATOM     23  O   UNL     1      -3.602   1.081  -2.323  1.00  0.00    -0.246 OA
BRANCH  22  24
ATOM     24  C   UNL     1      -2.428  -0.460  -3.681  1.00  0.00     0.060 A 
ATOM     25  C   UNL     1      -1.433  -1.445  -3.662  1.00  0.00     0.016 A 
ATOM     26  C   UNL     1      -2.675   0.253  -4.859  1.00  0.00     0.016 A 
ATOM     27  C   UNL     1      -0.660  -1.680  -4.804  1.00  0.00     0.010 A 
ATOM     28  C   UNL     1      -1.947  -0.028  -6.015  1.00  0.00     0.010 A 
ATOM     29  C   UNL     1      -0.925  -0.987  -5.996  1.00  0.00    -0.014 A 
BRANCH  29  30
ATOM     30  C   UNL     1      -0.205  -1.298  -7.255  1.00  0.00     0.031 A 
ATOM     31  C   UNL     1       0.678  -0.277  -7.916  1.00  0.00     0.074 A 
ATOM     32  C   UNL     1      -0.415  -2.487  -7.853  1.00  0.00     0.049 A 
ATOM     33  N   UNL     1       1.230  -0.314  -9.103  1.00  0.00    -0.248 NA
ATOM     34  C   UNL     1       0.979   0.942  -7.150  1.00  0.00     0.031 C 
ATOM     35  C   UNL     1      -1.235  -3.573  -7.312  1.00  0.00     0.029 A 
ATOM     36  N   UNL     1       0.028  -2.970  -9.058  1.00  0.00    -0.354 N 
ATOM     37  C   UNL     1       1.926   0.880  -9.236  1.00  0.00     0.074 A 
ATOM     38  C   UNL     1       1.723   1.626  -8.011  1.00  0.00     0.031 C 
ATOM     39  C   UNL     1      -1.228  -4.598  -8.178  1.00  0.00     0.029 A 
ATOM     40  C   UNL     1      -0.458  -4.218  -9.357  1.00  0.00     0.049 A 
ATOM     41  H   UNL     1       0.635  -2.470  -9.650  1.00  0.00     0.167 HD
ATOM     42  C   UNL     1       2.666   1.313 -10.283  1.00  0.00     0.031 A 
ATOM     43  C   UNL     1      -0.337  -4.965 -10.470  1.00  0.00     0.031 A 
ATOM     44  C   UNL     1       2.872   0.574 -11.501  1.00  0.00     0.049 A 
ATOM     45  C   UNL     1       0.423  -4.432 -11.645  1.00  0.00     0.074 A 
ATOM     46  C   UNL     1       3.625   0.934 -12.607  1.00  0.00     0.029 A 
ATOM     47  N   UNL     1       2.327  -0.668 -11.775  1.00  0.00    -0.354 N 
ATOM     48  N   UNL     1       1.054  -3.290 -11.764  1.00  0.00    -0.248 NA
ATOM     49  C   UNL     1       0.473  -5.281 -12.844  1.00  0.00     0.031 C 
ATOM     50  C   UNL     1       3.506  -0.077 -13.565  1.00  0.00     0.029 A 
ATOM     51  C   UNL     1       2.711  -1.081 -13.039  1.00  0.00     0.049 A 
ATOM     52  H   UNL     1       1.752  -1.182 -11.162  1.00  0.00     0.167 HD
ATOM     53  C   UNL     1       1.585  -3.286 -13.046  1.00  0.00     0.074 A 
ATOM     54  C   UNL     1       1.209  -4.540 -13.664  1.00  0.00     0.031 C 
ATOM     55  C   UNL     1       2.321  -2.324 -13.650  1.00  0.00     0.031 A 
BRANCH  42  56
ATOM     56  C   UNL     1       3.311   2.663 -10.178  1.00  0.00    -0.014 A 
ATOM     57  C   UNL     1       4.501   2.838  -9.458  1.00  0.00     0.009 A 
ATOM     58  C   UNL     1       2.779   3.748 -10.894  1.00  0.00     0.009 A 
ATOM     59  C   UNL     1       5.145   4.077  -9.452  1.00  0.00     0.001 A 
ATOM     60  C   UNL     1       3.433   4.981 -10.899  1.00  0.00     0.001 A 
ATOM     61  C   UNL     1       4.615   5.144 -10.177  1.00  0.00     0.000 A 
ENDBRANCH  42  56
BRANCH  43  62
ATOM     62  C   UNL     1      -0.985  -6.298 -10.515  1.00  0.00    -0.014 A 
ATOM     63  C   UNL     1      -0.219  -7.457 -10.332  1.00  0.00     0.009 A 
ATOM     64  C   UNL     1      -2.375  -6.410 -10.671  1.00  0.00     0.009 A 
ATOM     65  C   UNL     1      -0.837  -8.709 -10.301  1.00  0.00     0.001 A 
ATOM     66  C   UNL     1      -2.990  -7.662 -10.621  1.00  0.00     0.001 A 
ATOM     67  C   UNL     1      -2.221  -8.809 -10.438  1.00  0.00     0.000 A 
ENDBRANCH  43  62
BRANCH  55  68
ATOM     68  C   UNL     1       2.784  -2.585 -15.052  1.00  0.00    -0.014 A 
ATOM     69  C   UNL     1       1.918  -2.401 -16.140  1.00  0.00     0.009 A 
ATOM     70  C   UNL     1       4.119  -2.945 -15.290  1.00  0.00     0.009 A 
ATOM     71  C   UNL     1       2.381  -2.585 -17.444  1.00  0.00     0.001 A 
ATOM     72  C   UNL     1       4.582  -3.111 -16.595  1.00  0.00     0.001 A 
ATOM     73  C   UNL     1       3.713  -2.933 -17.671  1.00  0.00     0.000 A 
ENDBRANCH  55  68
ENDBRANCH  29  30
ENDBRANCH  22  24
ENDBRANCH  21  22
ENDBRANCH  20  21
ENDBRANCH   1  20
TORSDOF 13
