REMARK SMILES COCC(=O)N[C@H]1CCCCC[C@@H]1C(=O)OCCOC(=O)c1ccc(-c2c3nc(c(-c4ccccc4)c4ccc([nH]4)c(-c4ccccc4)c4nc(c(-c5ccccc5)c5ccc2[nH]5)C=C4)C=C3)cc1
REMARK SMILES IDX 16 1 14 2 15 3 13 4 7 5 6 6 4 7 5 8 3 10 2 11 1 12 8 13 9 14
REMARK SMILES IDX 10 15 11 16 12 18 17 20 18 21 19 22 20 23 21 24 22 25 23 26
REMARK SMILES IDX 69 27 24 28 68 29 25 30 26 31 27 32 62 33 28 34 67 35 61 36
REMARK SMILES IDX 63 37 29 38 66 39 60 40 59 41 30 43 52 44 37 45 51 46 38 47
REMARK SMILES IDX 41 48 50 49 64 50 39 51 40 52 49 54 65 55 42 56 31 57 32 58
REMARK SMILES IDX 36 59 33 60 35 61 34 62 53 63 54 64 58 65 55 66 57 67 56 68
REMARK SMILES IDX 43 69 44 70 48 71 45 72 47 73 46 74
REMARK H PARENT 6 9 63 42 41 53
REMARK Flexibility Score: 90.00
ROOT
ATOM      1  O   UNL     1      -3.186  -4.289   3.123  1.00  0.00    -0.462 OA
ENDROOT
BRANCH   1   2
ATOM      2  C   UNL     1      -2.603  -3.343   3.897  1.00  0.00     0.311 C 
ATOM      3  O   UNL     1      -1.835  -3.593   4.819  1.00  0.00    -0.252 OA
BRANCH   2   4
ATOM      4  C   UNL     1      -3.057  -1.924   3.515  1.00  0.00     0.121 C 
BRANCH   4   5
ATOM      5  C   UNL     1      -2.550  -1.529   2.095  1.00  0.00     0.096 C 
BRANCH   5   6
ATOM      6  N   UNL     1      -3.637  -1.276   1.119  1.00  0.00    -0.350 N 
ATOM      7  C   UNL     1      -4.335  -2.083   0.276  1.00  0.00     0.246 C 
ATOM      8  O   UNL     1      -5.024  -1.538  -0.592  1.00  0.00    -0.272 OA
ATOM      9  H   UNL     1      -3.910  -0.331   1.073  1.00  0.00     0.163 HD
BRANCH   7  10
ATOM     10  C   UNL     1      -4.331  -3.598   0.427  1.00  0.00     0.259 C 
BRANCH  10  11
ATOM     11  O   UNL     1      -3.085  -4.249   0.288  1.00  0.00    -0.375 OA
ATOM     12  C   UNL     1      -2.669  -4.354  -1.067  1.00  0.00     0.195 C 
ENDBRANCH  10  11
ENDBRANCH   7  10
ENDBRANCH   5   6
BRANCH   5  13
ATOM     13  C   UNL     1      -1.614  -0.290   2.045  1.00  0.00     0.026 C 
BRANCH  13  14
ATOM     14  C   UNL     1      -2.249   1.060   2.418  1.00  0.00     0.002 C 
BRANCH  14  15
ATOM     15  C   UNL     1      -2.266   1.357   3.908  1.00  0.00     0.000 C 
BRANCH  15  16
ATOM     16  C   UNL     1      -3.117   0.390   4.713  1.00  0.00     0.001 CG0
ATOM     17  G   UNL     1      -2.588  -1.034   4.694  1.00  0.00     0.000 G0
ENDBRANCH  15  16
ENDBRANCH  14  15
ENDBRANCH  13  14
ENDBRANCH   5  13
ENDBRANCH   4   5
BRANCH   4  18
ATOM     18  C   UNL     1      -2.588  -1.034   4.694  1.00  0.00     0.017 CG0
ATOM     19  G   UNL     1      -3.117   0.390   4.713  1.00  0.00     0.000 G0
ENDBRANCH   4  18
ENDBRANCH   2   4
ENDBRANCH   1   2
BRANCH   1  20
ATOM     20  C   UNL     1      -2.816  -5.658   3.390  1.00  0.00     0.274 C 
BRANCH  20  21
ATOM     21  C   UNL     1      -1.590  -6.088   2.582  1.00  0.00     0.275 C 
BRANCH  21  22
ATOM     22  O   UNL     1      -0.463  -5.281   2.958  1.00  0.00    -0.458 OA
BRANCH  22  23
ATOM     23  C   UNL     1       0.316  -4.827   1.953  1.00  0.00     0.338 C 
ATOM     24  O   UNL     1       0.244  -5.084   0.766  1.00  0.00    -0.246 OA
BRANCH  23  25
ATOM     25  C   UNL     1       1.357  -3.965   2.533  1.00  0.00     0.060 A 
ATOM     26  C   UNL     1       1.009  -2.814   3.243  1.00  0.00     0.016 A 
ATOM     27  C   UNL     1       2.696  -4.288   2.325  1.00  0.00     0.016 A 
ATOM     28  C   UNL     1       1.998  -1.967   3.733  1.00  0.00     0.010 A 
ATOM     29  C   UNL     1       3.689  -3.469   2.863  1.00  0.00     0.010 A 
ATOM     30  C   UNL     1       3.347  -2.297   3.560  1.00  0.00    -0.014 A 
BRANCH  30  31
ATOM     31  C   UNL     1       4.412  -1.418   4.094  1.00  0.00     0.031 A 
ATOM     32  C   UNL     1       5.314  -0.680   3.149  1.00  0.00     0.074 A 
ATOM     33  C   UNL     1       4.582  -1.307   5.425  1.00  0.00     0.049 A 
ATOM     34  N   UNL     1       6.401  -0.000   3.406  1.00  0.00    -0.248 NA
ATOM     35  C   UNL     1       4.948  -0.721   1.724  1.00  0.00     0.031 C 
ATOM     36  C   UNL     1       3.740  -1.937   6.444  1.00  0.00     0.029 A 
ATOM     37  N   UNL     1       5.531  -0.630   6.148  1.00  0.00    -0.354 N 
ATOM     38  C   UNL     1       6.871   0.436   2.174  1.00  0.00     0.074 A 
ATOM     39  C   UNL     1       5.954  -0.058   1.169  1.00  0.00     0.031 C 
ATOM     40  C   UNL     1       4.206  -1.612   7.660  1.00  0.00     0.029 A 
ATOM     41  C   UNL     1       5.413  -0.807   7.505  1.00  0.00     0.049 A 
ATOM     42  H   UNL     1       6.228  -0.072   5.735  1.00  0.00     0.167 HD
ATOM     43  C   UNL     1       7.972   1.177   1.907  1.00  0.00     0.031 A 
ATOM     44  C   UNL     1       6.211  -0.401   8.509  1.00  0.00     0.031 A 
ATOM     45  C   UNL     1       8.876   1.669   2.913  1.00  0.00     0.049 A 
ATOM     46  C   UNL     1       7.457   0.371   8.183  1.00  0.00     0.074 A 
ATOM     47  C   UNL     1      10.021   2.430   2.748  1.00  0.00     0.029 A 
ATOM     48  N   UNL     1       8.732   1.449   4.274  1.00  0.00    -0.354 N 
ATOM     49  N   UNL     1       7.905   0.757   7.013  1.00  0.00    -0.248 NA
ATOM     50  C   UNL     1       8.311   0.756   9.315  1.00  0.00     0.031 C 
ATOM     51  C   UNL     1      10.591   2.637   4.009  1.00  0.00     0.029 A 
ATOM     52  C   UNL     1       9.776   2.045   4.961  1.00  0.00     0.049 A 
ATOM     53  H   UNL     1       7.997   0.944   4.690  1.00  0.00     0.167 HD
ATOM     54  C   UNL     1       9.086   1.441   7.267  1.00  0.00     0.074 A 
ATOM     55  C   UNL     1       9.273   1.434   8.704  1.00  0.00     0.031 C 
ATOM     56  C   UNL     1       9.941   2.022   6.391  1.00  0.00     0.031 A 
BRANCH  43  57
ATOM     57  C   UNL     1       8.281   1.461   0.465  1.00  0.00    -0.014 A 
ATOM     58  C   UNL     1       7.531   2.387  -0.276  1.00  0.00     0.009 A 
ATOM     59  C   UNL     1       9.357   0.805  -0.155  1.00  0.00     0.009 A 
ATOM     60  C   UNL     1       7.835   2.628  -1.618  1.00  0.00     0.001 A 
ATOM     61  C   UNL     1       9.673   1.066  -1.489  1.00  0.00     0.001 A 
ATOM     62  C   UNL     1       8.907   1.971  -2.222  1.00  0.00     0.000 A 
ENDBRANCH  43  57
BRANCH  44  63
ATOM     63  C   UNL     1       5.877  -0.755   9.912  1.00  0.00    -0.014 A 
ATOM     64  C   UNL     1       5.448   0.230  10.814  1.00  0.00     0.009 A 
ATOM     65  C   UNL     1       5.981  -2.083  10.356  1.00  0.00     0.009 A 
ATOM     66  C   UNL     1       5.145  -0.106  12.136  1.00  0.00     0.001 A 
ATOM     67  C   UNL     1       5.651  -2.420  11.670  1.00  0.00     0.001 A 
ATOM     68  C   UNL     1       5.241  -1.430  12.561  1.00  0.00     0.000 A 
ENDBRANCH  44  63
BRANCH  56  69
ATOM     69  C   UNL     1      11.136   2.720   6.970  1.00  0.00    -0.014 A 
ATOM     70  C   UNL     1      12.229   1.995   7.468  1.00  0.00     0.009 A 
ATOM     71  C   UNL     1      11.178   4.123   6.989  1.00  0.00     0.009 A 
ATOM     72  C   UNL     1      13.332   2.664   8.001  1.00  0.00     0.001 A 
ATOM     73  C   UNL     1      12.292   4.788   7.502  1.00  0.00     0.001 A 
ATOM     74  C   UNL     1      13.364   4.059   8.014  1.00  0.00     0.000 A 
ENDBRANCH  56  69
ENDBRANCH  30  31
ENDBRANCH  23  25
ENDBRANCH  22  23
ENDBRANCH  21  22
ENDBRANCH  20  21
ENDBRANCH   1  20
TORSDOF 14
