REMARK SMILES Cc1cccc(-n2ncc(C(=O)Nc3cccc(C(=O)OCCOC(=O)c4ccc(-c5c6nc(c(-c7ccccc7)c7ccc([nH]7)c(-c7ccccc7)c7nc(c(-c8ccccc8)c8ccc5[nH]8)C=C7)C=C6)cc4)c3C)c2C)c1
REMARK SMILES IDX 22 1 21 2 19 3 20 4 18 5 14 6 15 7 75 8 16 9 76 10 17 11
REMARK SMILES IDX 13 12 11 13 12 14 10 16 7 17 8 18 77 19 9 20 78 21 6 22 1 23
REMARK SMILES IDX 2 24 3 25 79 26 4 27 5 28 23 29 24 30 25 31 26 32 27 33
REMARK SMILES IDX 28 34 74 35 29 36 73 37 30 38 31 39 32 40 67 41 33 42 72 43
REMARK SMILES IDX 66 44 68 45 34 46 71 47 65 48 64 49 35 51 57 52 42 53 56 54
REMARK SMILES IDX 43 55 46 56 55 57 69 58 44 59 45 60 54 62 70 63 47 64 36 65
REMARK SMILES IDX 37 66 41 67 38 68 40 69 39 70 58 71 59 72 63 73 60 74 62 75
REMARK SMILES IDX 61 76 48 77 49 78 53 79 50 80 52 81 51 82
REMARK H PARENT 13 15 68 50 46 61
REMARK Flexibility Score: inf
ROOT
ATOM      1  C   UNL     1      -2.922  11.061  -4.191  1.00  0.00     0.275 C 
ENDROOT
BRANCH   1   2
ATOM      2  O   UNL     1      -3.098   9.882  -3.393  1.00  0.00    -0.458 OA
BRANCH   2   3
ATOM      3  C   UNL     1      -4.333   9.519  -2.988  1.00  0.00     0.338 C 
ATOM      4  O   UNL     1      -5.355  10.184  -3.063  1.00  0.00    -0.246 OA
BRANCH   3   5
ATOM      5  C   UNL     1      -4.275   8.104  -2.540  1.00  0.00     0.065 A 
ATOM      6  C   UNL     1      -4.570   6.261  -0.984  1.00  0.00     0.045 A 
ATOM      7  C   UNL     1      -4.247   5.368  -2.012  1.00  0.00     0.026 A 
ATOM      8  C   UNL     1      -4.683   7.646  -1.264  1.00  0.00    -0.013 A 
ATOM      9  C   UNL     1      -3.854   5.830  -3.263  1.00  0.00     0.003 A 
ATOM     10  C   UNL     1      -5.181   8.578  -0.188  1.00  0.00     0.047 C 
ATOM     11  C   UNL     1      -3.832   7.194  -3.513  1.00  0.00     0.016 A 
BRANCH   6  12
ATOM     12  N   UNL     1      -4.804   5.798   0.327  1.00  0.00    -0.322 N 
ATOM     13  C   UNL     1      -4.328   4.702   1.020  1.00  0.00     0.259 C 
ATOM     14  O   UNL     1      -4.901   4.410   2.071  1.00  0.00    -0.269 OA
ATOM     15  H   UNL     1      -5.423   6.361   0.846  1.00  0.00     0.170 HD
BRANCH  13  16
ATOM     16  C   UNL     1      -3.141   3.976   0.580  1.00  0.00     0.081 A 
ATOM     17  N   UNL     1      -1.625   2.373   0.262  1.00  0.00    -0.237 N 
ATOM     18  N   UNL     1      -1.119   3.460  -0.370  1.00  0.00    -0.175 NA
ATOM     19  C   UNL     1      -2.749   2.707   1.003  1.00  0.00     0.054 A 
ATOM     20  C   UNL     1      -2.040   4.404  -0.192  1.00  0.00     0.149 A 
ATOM     21  C   UNL     1      -3.283   1.893   2.132  1.00  0.00     0.068 C 
BRANCH  17  22
ATOM     22  C   UNL     1      -0.973   1.120   0.132  1.00  0.00     0.065 A 
ATOM     23  C   UNL     1       2.604  -0.147  -0.129  1.00  0.00     0.044 C 
ATOM     24  C   UNL     1       1.106  -0.120  -0.075  1.00  0.00    -0.049 A 
ATOM     25  C   UNL     1       0.379  -1.316  -0.030  1.00  0.00     0.003 A 
ATOM     26  C   UNL     1       0.418   1.098  -0.033  1.00  0.00     0.031 A 
ATOM     27  C   UNL     1      -1.014  -1.296   0.072  1.00  0.00     0.002 A 
ATOM     28  C   UNL     1      -1.693  -0.080   0.164  1.00  0.00     0.028 A 
ENDBRANCH  17  22
ENDBRANCH  13  16
ENDBRANCH   6  12
ENDBRANCH   3   5
ENDBRANCH   2   3
ENDBRANCH   1   2
BRANCH   1  29
ATOM     29  C   UNL     1      -3.412  12.446  -3.707  1.00  0.00     0.275 C 
BRANCH  29  30
ATOM     30  O   UNL     1      -4.037  12.637  -2.409  1.00  0.00    -0.458 OA
BRANCH  30  31
ATOM     31  C   UNL     1      -3.635  12.223  -1.185  1.00  0.00     0.338 C 
ATOM     32  O   UNL     1      -4.331  12.309  -0.183  1.00  0.00    -0.246 OA
BRANCH  31  33
ATOM     33  C   UNL     1      -2.335  11.564  -1.129  1.00  0.00     0.060 A 
ATOM     34  C   UNL     1      -2.237  10.318  -0.492  1.00  0.00     0.016 A 
ATOM     35  C   UNL     1      -1.274  12.120  -1.831  1.00  0.00     0.016 A 
ATOM     36  C   UNL     1      -1.089   9.568  -0.622  1.00  0.00     0.010 A 
ATOM     37  C   UNL     1      -0.203  11.322  -2.109  1.00  0.00     0.010 A 
ATOM     38  C   UNL     1      -0.088  10.106  -1.419  1.00  0.00    -0.014 A 
BRANCH  38  39
ATOM     39  C   UNL     1       1.292   9.726  -1.240  1.00  0.00     0.031 A 
ATOM     40  C   UNL     1       1.786   8.543  -1.934  1.00  0.00     0.074 A 
ATOM     41  C   UNL     1       1.938  10.636  -0.475  1.00  0.00     0.049 A 
ATOM     42  N   UNL     1       2.678   7.750  -1.463  1.00  0.00    -0.248 NA
ATOM     43  C   UNL     1       1.219   8.071  -3.203  1.00  0.00     0.031 C 
ATOM     44  C   UNL     1       3.332  10.923  -0.224  1.00  0.00     0.029 A 
ATOM     45  N   UNL     1       1.289  11.516   0.392  1.00  0.00    -0.354 N 
ATOM     46  C   UNL     1       3.129   7.035  -2.550  1.00  0.00     0.074 A 
ATOM     47  C   UNL     1       2.051   7.067  -3.506  1.00  0.00     0.031 C 
ATOM     48  C   UNL     1       3.415  11.670   0.903  1.00  0.00     0.029 A 
ATOM     49  C   UNL     1       2.078  11.775   1.492  1.00  0.00     0.049 A 
ATOM     50  H   UNL     1       0.395  11.898   0.240  1.00  0.00     0.167 HD
ATOM     51  C   UNL     1       4.468   6.796  -2.649  1.00  0.00     0.031 A 
ATOM     52  C   UNL     1       1.654  11.202   2.662  1.00  0.00     0.031 A 
ATOM     53  C   UNL     1       5.165   7.370  -1.488  1.00  0.00     0.049 A 
ATOM     54  C   UNL     1       2.469   9.961   2.986  1.00  0.00     0.074 A 
ATOM     55  C   UNL     1       5.878   8.545  -1.307  1.00  0.00     0.029 A 
ATOM     56  N   UNL     1       4.798   6.952  -0.217  1.00  0.00    -0.354 N 
ATOM     57  N   UNL     1       3.271   9.365   2.146  1.00  0.00    -0.248 NA
ATOM     58  C   UNL     1       2.387   9.262   4.264  1.00  0.00     0.031 C 
ATOM     59  C   UNL     1       5.900   8.840   0.092  1.00  0.00     0.029 A 
ATOM     60  C   UNL     1       5.200   7.850   0.757  1.00  0.00     0.049 A 
ATOM     61  H   UNL     1       4.311   6.117  -0.030  1.00  0.00     0.167 HD
ATOM     62  C   UNL     1       3.867   8.297   2.744  1.00  0.00     0.074 A 
ATOM     63  C   UNL     1       3.223   8.231   4.049  1.00  0.00     0.031 C 
ATOM     64  C   UNL     1       4.848   7.559   2.143  1.00  0.00     0.031 A 
BRANCH  51  65
ATOM     65  C   UNL     1       5.166   6.391  -3.926  1.00  0.00    -0.014 A 
ATOM     66  C   UNL     1       6.535   6.677  -4.079  1.00  0.00     0.009 A 
ATOM     67  C   UNL     1       4.550   5.744  -5.014  1.00  0.00     0.009 A 
ATOM     68  C   UNL     1       7.231   6.401  -5.263  1.00  0.00     0.001 A 
ATOM     69  C   UNL     1       5.234   5.485  -6.213  1.00  0.00     0.001 A 
ATOM     70  C   UNL     1       6.576   5.820  -6.339  1.00  0.00     0.000 A 
ENDBRANCH  51  65
BRANCH  52  71
ATOM     71  C   UNL     1       0.166  11.322   2.912  1.00  0.00    -0.014 A 
ATOM     72  C   UNL     1      -0.441  12.598   2.831  1.00  0.00     0.009 A 
ATOM     73  C   UNL     1      -0.687  10.209   2.969  1.00  0.00     0.009 A 
ATOM     74  C   UNL     1      -1.828  12.746   2.695  1.00  0.00     0.001 A 
ATOM     75  C   UNL     1      -2.082  10.362   2.874  1.00  0.00     0.001 A 
ATOM     76  C   UNL     1      -2.648  11.624   2.701  1.00  0.00     0.000 A 
ENDBRANCH  52  71
BRANCH  64  77
ATOM     77  C   UNL     1       5.569   6.436   2.832  1.00  0.00    -0.014 A 
ATOM     78  C   UNL     1       5.798   6.411   4.211  1.00  0.00     0.009 A 
ATOM     79  C   UNL     1       6.139   5.390   2.076  1.00  0.00     0.009 A 
ATOM     80  C   UNL     1       6.428   5.322   4.819  1.00  0.00     0.001 A 
ATOM     81  C   UNL     1       6.799   4.319   2.671  1.00  0.00     0.001 A 
ATOM     82  C   UNL     1       6.915   4.270   4.050  1.00  0.00     0.000 A 
ENDBRANCH  64  77
ENDBRANCH  38  39
ENDBRANCH  31  33
ENDBRANCH  30  31
ENDBRANCH  29  30
ENDBRANCH   1  29
TORSDOF 14
