REMARK SMILES O=C(Cn1nc(-c2ccc(Br)cc2)ccc1=O)N[C@H](C(=O)OCCOC(=O)c1ccc(-c2c3nc(c(-c4ccccc4)c4ccc([nH]4)c(-c4ccccc4)c4nc(c(-c5ccccc5)c5ccc2[nH]5)C=C4)C=C3)cc1)c1ccccc1
REMARK SMILES IDX 23 1 22 2 20 3 21 4 19 5 18 6 1 7 2 8 3 10 4 11 5 12 16 13
REMARK SMILES IDX 6 14 15 15 17 16 14 17 7 18 8 19 13 20 9 21 12 22 10 23
REMARK SMILES IDX 11 24 76 25 77 26 81 27 78 28 80 29 79 30 24 31 25 32 26 33
REMARK SMILES IDX 27 34 28 35 29 36 75 37 30 38 74 39 31 40 32 41 33 42 68 43
REMARK SMILES IDX 34 44 73 45 67 46 69 47 35 48 72 49 66 50 65 51 36 53 58 54
REMARK SMILES IDX 43 55 57 56 44 57 47 58 56 59 70 60 45 61 46 62 55 64 71 65
REMARK SMILES IDX 48 66 37 67 38 68 42 69 39 70 41 71 40 72 59 73 60 74 64 75
REMARK SMILES IDX 61 76 63 77 62 78 49 79 50 80 54 81 51 82 53 83 52 84
REMARK H PARENT 18 9 69 52 47 63
REMARK Flexibility Score: inf
ROOT
ATOM      1  C   UNL     1       5.658   0.831   0.763  1.00  0.00     0.274 C 
ENDROOT
BRANCH   1   2
ATOM      2  O   UNL     1       4.716   1.911   0.883  1.00  0.00    -0.460 OA
BRANCH   2   3
ATOM      3  C   UNL     1       3.643   1.836   0.051  1.00  0.00     0.333 C 
ATOM      4  O   UNL     1       3.575   1.038  -0.884  1.00  0.00    -0.249 OA
BRANCH   3   5
ATOM      5  C   UNL     1       2.521   2.872   0.375  1.00  0.00     0.223 C 
BRANCH   5   6
ATOM      6  N   UNL     1       2.681   3.604   1.639  1.00  0.00    -0.337 N 
ATOM      7  O   UNL     1       2.935   1.883   3.155  1.00  0.00    -0.273 OA
ATOM      8  C   UNL     1       2.782   3.068   2.906  1.00  0.00     0.242 C 
ATOM      9  H   UNL     1       2.721   4.586   1.574  1.00  0.00     0.164 HD
BRANCH   8  10
ATOM     10  C   UNL     1       2.794   4.124   4.015  1.00  0.00     0.248 C 
BRANCH  10  11
ATOM     11  N   UNL     1       4.096   4.783   4.000  1.00  0.00    -0.220 N 
ATOM     12  N   UNL     1       4.452   5.363   2.801  1.00  0.00    -0.169 NA
ATOM     13  C   UNL     1       4.959   4.639   5.076  1.00  0.00     0.267 A 
ATOM     14  C   UNL     1       5.696   5.675   2.632  1.00  0.00     0.091 A 
ATOM     15  C   UNL     1       6.336   5.139   4.867  1.00  0.00     0.075 A 
ATOM     16  O   UNL     1       4.667   4.140   6.159  1.00  0.00    -0.268 OA
ATOM     17  C   UNL     1       6.728   5.612   3.683  1.00  0.00     0.036 A 
BRANCH  14  18
ATOM     18  C   UNL     1       6.122   6.084   1.277  1.00  0.00     0.002 A 
ATOM     19  C   UNL     1       5.339   7.007   0.575  1.00  0.00     0.011 A 
ATOM     20  C   UNL     1       7.186   5.432   0.643  1.00  0.00     0.011 A 
ATOM     21  C   UNL     1       5.627   7.289  -0.760  1.00  0.00     0.016 A 
ATOM     22  C   UNL     1       7.467   5.712  -0.696  1.00  0.00     0.016 A 
ATOM     23  C   UNL     1       6.684   6.635  -1.391  1.00  0.00     0.018 A 
ATOM     24  Br  UNL     1       7.036   6.978  -3.216  1.00  0.00    -0.051 Br
ENDBRANCH  14  18
ENDBRANCH  10  11
ENDBRANCH   8  10
ENDBRANCH   5   6
BRANCH   5  25
ATOM     25  C   UNL     1       2.343   3.826  -0.839  1.00  0.00    -0.014 A 
ATOM     26  C   UNL     1       2.392   5.229  -0.748  1.00  0.00     0.006 A 
ATOM     27  C   UNL     1       2.165   3.288  -2.132  1.00  0.00     0.006 A 
ATOM     28  C   UNL     1       2.343   6.043  -1.887  1.00  0.00     0.000 A 
ATOM     29  C   UNL     1       2.140   4.099  -3.273  1.00  0.00     0.000 A 
ATOM     30  C   UNL     1       2.243   5.478  -3.151  1.00  0.00     0.000 A 
ENDBRANCH   5  25
ENDBRANCH   3   5
ENDBRANCH   2   3
ENDBRANCH   1   2
BRANCH   1  31
ATOM     31  C   UNL     1       5.234  -0.381   1.602  1.00  0.00     0.275 C 
BRANCH  31  32
ATOM     32  O   UNL     1       4.322  -1.241   0.889  1.00  0.00    -0.458 OA
BRANCH  32  33
ATOM     33  C   UNL     1       3.008  -1.077   1.159  1.00  0.00     0.338 C 
ATOM     34  O   UNL     1       2.481  -0.303   1.932  1.00  0.00    -0.246 OA
BRANCH  33  35
ATOM     35  C   UNL     1       2.191  -1.929   0.301  1.00  0.00     0.060 A 
ATOM     36  C   UNL     1       2.409  -3.304   0.264  1.00  0.00     0.016 A 
ATOM     37  C   UNL     1       1.127  -1.336  -0.390  1.00  0.00     0.016 A 
ATOM     38  C   UNL     1       1.569  -4.095  -0.510  1.00  0.00     0.010 A 
ATOM     39  C   UNL     1       0.282  -2.129  -1.153  1.00  0.00     0.010 A 
ATOM     40  C   UNL     1       0.513  -3.508  -1.227  1.00  0.00    -0.014 A 
BRANCH  40  41
ATOM     41  C   UNL     1      -0.333  -4.348  -2.092  1.00  0.00     0.031 A 
ATOM     42  C   UNL     1      -0.109  -4.335  -3.571  1.00  0.00     0.074 A 
ATOM     43  C   UNL     1      -1.271  -5.130  -1.531  1.00  0.00     0.049 A 
ATOM     44  N   UNL     1      -0.684  -5.061  -4.494  1.00  0.00    -0.248 NA
ATOM     45  C   UNL     1       0.891  -3.383  -4.085  1.00  0.00     0.031 C 
ATOM     46  C   UNL     1      -1.557  -5.200  -0.097  1.00  0.00     0.029 A 
ATOM     47  N   UNL     1      -2.141  -6.024  -2.094  1.00  0.00    -0.354 N 
ATOM     48  C   UNL     1      -0.103  -4.667  -5.691  1.00  0.00     0.074 A 
ATOM     49  C   UNL     1       0.828  -3.604  -5.390  1.00  0.00     0.031 C 
ATOM     50  C   UNL     1      -2.514  -6.119   0.110  1.00  0.00     0.029 A 
ATOM     51  C   UNL     1      -2.925  -6.677  -1.175  1.00  0.00     0.049 A 
ATOM     52  H   UNL     1      -2.198  -6.185  -3.064  1.00  0.00     0.167 HD
ATOM     53  C   UNL     1      -0.319  -5.171  -6.927  1.00  0.00     0.031 A 
ATOM     54  C   UNL     1      -3.863  -7.625  -1.354  1.00  0.00     0.031 A 
ATOM     55  C   UNL     1      -1.265  -6.216  -7.207  1.00  0.00     0.049 A 
ATOM     56  C   UNL     1      -4.128  -8.123  -2.747  1.00  0.00     0.074 A 
ATOM     57  C   UNL     1      -1.550  -6.814  -8.421  1.00  0.00     0.029 A 
ATOM     58  N   UNL     1      -2.086  -6.811  -6.260  1.00  0.00    -0.354 N 
ATOM     59  N   UNL     1      -3.537  -7.784  -3.868  1.00  0.00    -0.248 NA
ATOM     60  C   UNL     1      -5.179  -9.137  -2.903  1.00  0.00     0.031 C 
ATOM     61  C   UNL     1      -2.588  -7.727  -8.218  1.00  0.00     0.029 A 
ATOM     62  C   UNL     1      -2.903  -7.747  -6.868  1.00  0.00     0.049 A 
ATOM     63  H   UNL     1      -2.086  -6.598  -5.298  1.00  0.00     0.167 HD
ATOM     64  C   UNL     1      -4.132  -8.550  -4.861  1.00  0.00     0.074 A 
ATOM     65  C   UNL     1      -5.118  -9.386  -4.206  1.00  0.00     0.031 C 
ATOM     66  C   UNL     1      -3.885  -8.559  -6.194  1.00  0.00     0.031 A 
BRANCH  53  67
ATOM     67  C   UNL     1       0.477  -4.600  -8.066  1.00  0.00    -0.014 A 
ATOM     68  C   UNL     1      -0.165  -3.857  -9.068  1.00  0.00     0.009 A 
ATOM     69  C   UNL     1       1.853  -4.856  -8.187  1.00  0.00     0.009 A 
ATOM     70  C   UNL     1       0.550  -3.389 -10.172  1.00  0.00     0.001 A 
ATOM     71  C   UNL     1       2.571  -4.364  -9.278  1.00  0.00     0.001 A 
ATOM     72  C   UNL     1       1.918  -3.639 -10.274  1.00  0.00     0.000 A 
ENDBRANCH  53  67
BRANCH  54  73
ATOM     73  C   UNL     1      -4.577  -8.176  -0.174  1.00  0.00    -0.014 A 
ATOM     74  C   UNL     1      -5.468  -7.375   0.560  1.00  0.00     0.009 A 
ATOM     75  C   UNL     1      -4.321  -9.482   0.269  1.00  0.00     0.009 A 
ATOM     76  C   UNL     1      -6.065  -7.859   1.726  1.00  0.00     0.001 A 
ATOM     77  C   UNL     1      -4.942  -9.974   1.421  1.00  0.00     0.001 A 
ATOM     78  C   UNL     1      -5.804  -9.159   2.153  1.00  0.00     0.000 A 
ENDBRANCH  54  73
BRANCH  66  79
ATOM     79  C   UNL     1      -4.692  -9.495  -7.047  1.00  0.00    -0.014 A 
ATOM     80  C   UNL     1      -4.069 -10.594  -7.659  1.00  0.00     0.009 A 
ATOM     81  C   UNL     1      -6.035  -9.219  -7.345  1.00  0.00     0.009 A 
ATOM     82  C   UNL     1      -4.767 -11.386  -8.571  1.00  0.00     0.001 A 
ATOM     83  C   UNL     1      -6.740 -10.031  -8.235  1.00  0.00     0.001 A 
ATOM     84  C   UNL     1      -6.103 -11.105  -8.855  1.00  0.00     0.000 A 
ENDBRANCH  66  79
ENDBRANCH  40  41
ENDBRANCH  33  35
ENDBRANCH  32  33
ENDBRANCH  31  32
ENDBRANCH   1  31
TORSDOF 16
