REMARK SMILES COc1cccc([C@H]2CC(c3ccc(S(C)(=O)=O)cc3)=NN2c2ccc(C(=O)OCCOC(=O)c3ccc(-c4c5nc(c(-c6ccccc6)c6ccc([nH]6)c(-c6ccccc6)c6nc(c(-c7ccccc7)c7ccc4[nH]7)C=C6)C=C5)cc3)cc2)c1
REMARK SMILES IDX 30 1 29 2 27 3 28 4 26 5 23 6 24 7 84 8 25 9 83 10 22 11
REMARK SMILES IDX 8 12 9 13 10 14 21 15 7 16 3 17 4 18 85 19 5 20 6 21 2 22
REMARK SMILES IDX 1 23 11 24 12 25 20 26 13 27 19 28 14 29 15 30 16 31 17 32
REMARK SMILES IDX 18 33 31 34 32 35 33 36 34 37 35 38 36 39 82 40 37 41 81 42
REMARK SMILES IDX 38 43 39 44 40 45 75 46 41 47 80 48 74 49 76 50 42 51 79 52
REMARK SMILES IDX 73 53 72 54 43 56 65 57 50 58 64 59 51 60 54 61 63 62 77 63
REMARK SMILES IDX 52 64 53 65 62 67 78 68 55 69 44 70 45 71 49 72 46 73 48 74
REMARK SMILES IDX 47 75 66 76 67 77 71 78 68 79 70 80 69 81 56 82 57 83 61 84
REMARK SMILES IDX 58 85 60 86 59 87
REMARK H PARENT 76 55 54 66
REMARK Flexibility Score: inf
ROOT
ATOM      1  C   UNL     1       3.481   3.068  -9.827  1.00  0.00     0.275 C 
ENDROOT
BRANCH   1   2
ATOM      2  O   UNL     1       3.963   3.330  -8.492  1.00  0.00    -0.458 OA
BRANCH   2   3
ATOM      3  C   UNL     1       3.333   2.646  -7.506  1.00  0.00     0.338 C 
ATOM      4  O   UNL     1       2.419   1.848  -7.644  1.00  0.00    -0.246 OA
BRANCH   3   5
ATOM      5  C   UNL     1       3.940   2.930  -6.188  1.00  0.00     0.060 A 
ATOM      6  C   UNL     1       4.819   3.374  -3.552  1.00  0.00     0.060 A 
ATOM      7  C   UNL     1       4.688   2.077  -4.048  1.00  0.00     0.029 A 
ATOM      8  C   UNL     1       4.557   4.449  -4.415  1.00  0.00     0.029 A 
ATOM      9  C   UNL     1       4.211   1.859  -5.334  1.00  0.00     0.018 A 
ATOM     10  C   UNL     1       4.141   4.234  -5.738  1.00  0.00     0.018 A 
BRANCH   6  11
ATOM     11  N   UNL     1       5.127   3.565  -2.210  1.00  0.00    -0.257 N 
ATOM     12  C   UNL     1       4.183   4.164  -1.260  1.00  0.00     0.144 C 
ATOM     13  C   UNL     1       4.792   3.793   0.100  1.00  0.00     0.091 C 
ATOM     14  C   UNL     1       5.960   2.960  -0.346  1.00  0.00     0.071 C 
ATOM     15  N   UNL     1       6.106   2.824  -1.625  1.00  0.00    -0.176 NA
BRANCH  12  16
ATOM     16  C   UNL     1       2.748   3.678  -1.444  1.00  0.00    -0.019 A 
ATOM     17  C   UNL     1       1.035   1.940  -1.388  1.00  0.00     0.119 A 
ATOM     18  C   UNL     1       0.109   2.836  -1.922  1.00  0.00     0.046 A 
ATOM     19  C   UNL     1       2.354   2.352  -1.171  1.00  0.00     0.052 A 
ATOM     20  C   UNL     1       0.482   4.146  -2.207  1.00  0.00     0.004 A 
ATOM     21  C   UNL     1       1.791   4.565  -1.967  1.00  0.00     0.006 A 
BRANCH  17  22
ATOM     22  O   UNL     1       0.561   0.674  -1.175  1.00  0.00    -0.497 OA
ATOM     23  C   UNL     1       1.132  -0.011  -0.068  1.00  0.00     0.278 C 
ENDBRANCH  17  22
ENDBRANCH  12  16
BRANCH  14  24
ATOM     24  C   UNL     1       6.922   2.410   0.621  1.00  0.00    -0.002 A 
ATOM     25  C   UNL     1       8.287   2.597   0.364  1.00  0.00     0.011 A 
ATOM     26  C   UNL     1       6.499   1.752   1.778  1.00  0.00     0.011 A 
ATOM     27  C   UNL     1       9.236   2.156   1.286  1.00  0.00     0.021 A 
ATOM     28  C   UNL     1       7.449   1.284   2.690  1.00  0.00     0.021 A 
ATOM     29  C   UNL     1       8.811   1.496   2.442  1.00  0.00     0.067 A 
BRANCH  29  30
ATOM     30  S   UNL     1      10.026   0.975   3.633  1.00  0.00     0.175 S 
ATOM     31  C   UNL     1      11.050  -0.171   2.749  1.00  0.00     0.163 C 
ATOM     32  O   UNL     1      10.818   2.146   3.954  1.00  0.00    -0.224 OA
ATOM     33  O   UNL     1       9.332   0.235   4.670  1.00  0.00    -0.224 OA
ENDBRANCH  29  30
ENDBRANCH  14  24
ENDBRANCH   6  11
ENDBRANCH   3   5
ENDBRANCH   2   3
ENDBRANCH   1   2
BRANCH   1  34
ATOM     34  C   UNL     1       4.367   2.061 -10.563  1.00  0.00     0.275 C 
BRANCH  34  35
ATOM     35  O   UNL     1       4.254   0.754  -9.969  1.00  0.00    -0.458 OA
BRANCH  35  36
ATOM     36  C   UNL     1       5.358   0.317  -9.324  1.00  0.00     0.338 C 
ATOM     37  O   UNL     1       6.435   0.880  -9.223  1.00  0.00    -0.246 OA
BRANCH  36  38
ATOM     38  C   UNL     1       5.095  -0.978  -8.676  1.00  0.00     0.060 A 
ATOM     39  C   UNL     1       4.279  -1.005  -7.553  1.00  0.00     0.016 A 
ATOM     40  C   UNL     1       5.811  -2.114  -9.041  1.00  0.00     0.016 A 
ATOM     41  C   UNL     1       4.304  -2.100  -6.695  1.00  0.00     0.010 A 
ATOM     42  C   UNL     1       5.713  -3.272  -8.258  1.00  0.00     0.010 A 
ATOM     43  C   UNL     1       5.004  -3.264  -7.042  1.00  0.00    -0.014 A 
BRANCH  43  44
ATOM     44  C   UNL     1       5.011  -4.446  -6.128  1.00  0.00     0.031 A 
ATOM     45  C   UNL     1       6.315  -5.057  -5.670  1.00  0.00     0.074 A 
ATOM     46  C   UNL     1       3.851  -4.979  -5.688  1.00  0.00     0.049 A 
ATOM     47  N   UNL     1       6.524  -6.181  -5.028  1.00  0.00    -0.248 NA
ATOM     48  C   UNL     1       7.547  -4.317  -5.988  1.00  0.00     0.031 C 
ATOM     49  C   UNL     1       2.510  -4.476  -5.997  1.00  0.00     0.029 A 
ATOM     50  N   UNL     1       3.613  -6.060  -4.873  1.00  0.00    -0.354 N 
ATOM     51  C   UNL     1       7.905  -6.313  -4.928  1.00  0.00     0.074 A 
ATOM     52  C   UNL     1       8.486  -5.158  -5.579  1.00  0.00     0.031 C 
ATOM     53  C   UNL     1       1.599  -5.208  -5.341  1.00  0.00     0.029 A 
ATOM     54  C   UNL     1       2.277  -6.299  -4.654  1.00  0.00     0.049 A 
ATOM     55  H   UNL     1       4.330  -6.611  -4.485  1.00  0.00     0.167 HD
ATOM     56  C   UNL     1       8.625  -7.306  -4.351  1.00  0.00     0.031 A 
ATOM     57  C   UNL     1       1.651  -7.307  -4.017  1.00  0.00     0.031 A 
ATOM     58  C   UNL     1       8.049  -8.432  -3.661  1.00  0.00     0.049 A 
ATOM     59  C   UNL     1       2.467  -8.416  -3.423  1.00  0.00     0.074 A 
ATOM     60  C   UNL     1       8.697  -9.480  -3.029  1.00  0.00     0.029 A 
ATOM     61  N   UNL     1       6.689  -8.649  -3.500  1.00  0.00    -0.354 N 
ATOM     62  N   UNL     1       3.770  -8.552  -3.383  1.00  0.00    -0.248 NA
ATOM     63  C   UNL     1       1.724  -9.521  -2.801  1.00  0.00     0.031 C 
ATOM     64  C   UNL     1       7.728 -10.355  -2.525  1.00  0.00     0.029 A 
ATOM     65  C   UNL     1       6.478  -9.821  -2.793  1.00  0.00     0.049 A 
ATOM     66  H   UNL     1       5.979  -8.057  -3.838  1.00  0.00     0.167 HD
ATOM     67  C   UNL     1       4.004  -9.747  -2.716  1.00  0.00     0.074 A 
ATOM     68  C   UNL     1       2.709 -10.286  -2.352  1.00  0.00     0.031 C 
ATOM     69  C   UNL     1       5.186 -10.345  -2.435  1.00  0.00     0.031 A 
BRANCH  56  70
ATOM     70  C   UNL     1      10.125  -7.247  -4.475  1.00  0.00    -0.014 A 
ATOM     71  C   UNL     1      10.890  -6.308  -3.767  1.00  0.00     0.009 A 
ATOM     72  C   UNL     1      10.785  -8.181  -5.290  1.00  0.00     0.009 A 
ATOM     73  C   UNL     1      12.281  -6.283  -3.902  1.00  0.00     0.001 A 
ATOM     74  C   UNL     1      12.177  -8.174  -5.399  1.00  0.00     0.001 A 
ATOM     75  C   UNL     1      12.923  -7.218  -4.713  1.00  0.00     0.000 A 
ENDBRANCH  56  70
BRANCH  57  76
ATOM     76  C   UNL     1       0.165  -7.338  -3.959  1.00  0.00    -0.014 A 
ATOM     77  C   UNL     1      -0.507  -7.160  -2.742  1.00  0.00     0.009 A 
ATOM     78  C   UNL     1      -0.589  -7.539  -5.127  1.00  0.00     0.009 A 
ATOM     79  C   UNL     1      -1.903  -7.198  -2.693  1.00  0.00     0.001 A 
ATOM     80  C   UNL     1      -1.984  -7.542  -5.082  1.00  0.00     0.001 A 
ATOM     81  C   UNL     1      -2.640  -7.380  -3.863  1.00  0.00     0.000 A 
ENDBRANCH  57  76
BRANCH  69  82
ATOM     82  C   UNL     1       5.133 -11.628  -1.656  1.00  0.00    -0.014 A 
ATOM     83  C   UNL     1       4.695 -12.824  -2.246  1.00  0.00     0.009 A 
ATOM     84  C   UNL     1       5.553 -11.642  -0.317  1.00  0.00     0.009 A 
ATOM     85  C   UNL     1       4.646 -14.002  -1.498  1.00  0.00     0.001 A 
ATOM     86  C   UNL     1       5.530 -12.827   0.420  1.00  0.00     0.001 A 
ATOM     87  C   UNL     1       5.067 -14.003  -0.168  1.00  0.00     0.000 A 
ENDBRANCH  69  82
ENDBRANCH  43  44
ENDBRANCH  36  38
ENDBRANCH  35  36
ENDBRANCH  34  35
ENDBRANCH   1  34
TORSDOF 16
