REMARK SMILES O=C(OCCOC(=O)[C@H]1C=C[C@@H](NC(=O)c2ccc(Cl)cn2)C1)c1ccc(-c2c3nc(c(-c4ccccc4)c4ccc([nH]4)c(-c4ccccc4)c4nc(c(-c5ccccc5)c5ccc2[nH]5)C=C4)C=C3)cc1
REMARK SMILES IDX 4 1 3 2 2 3 1 4 24 5 25 6 71 7 26 8 70 9 27 10 28 11 29 12
REMARK SMILES IDX 64 13 30 14 69 15 63 16 65 17 31 18 68 19 62 20 61 21 32 23
REMARK SMILES IDX 54 24 39 25 53 26 40 27 43 28 52 29 66 30 41 31 42 32 51 34
REMARK SMILES IDX 67 35 44 36 33 37 34 38 38 39 35 40 37 41 36 42 55 43 56 44
REMARK SMILES IDX 60 45 57 46 59 47 58 48 45 49 46 50 50 51 47 52 49 53 48 54
REMARK SMILES IDX 5 55 6 56 7 57 8 58 9 59 10 60 23 61 11 62 12 63 13 64 14 65
REMARK SMILES IDX 15 67 16 68 17 69 22 70 18 71 21 72 19 73 20 74
REMARK H PARENT 65 22 43 33 13 66
REMARK Flexibility Score: inf
ROOT
ATOM      1  C   UNL     1       3.841   1.546  -0.819  1.00  0.00     0.275 C 
ENDROOT
BRANCH   1   2
ATOM      2  O   UNL     1       2.925   0.463  -1.034  1.00  0.00    -0.458 OA
BRANCH   2   3
ATOM      3  C   UNL     1       3.146  -0.857  -0.841  1.00  0.00     0.338 C 
ATOM      4  O   UNL     1       2.402  -1.686  -1.364  1.00  0.00    -0.246 OA
BRANCH   3   5
ATOM      5  C   UNL     1       4.146  -1.349   0.146  1.00  0.00     0.060 A 
ATOM      6  C   UNL     1       5.477  -0.927   0.242  1.00  0.00     0.016 A 
ATOM      7  C   UNL     1       3.710  -2.378   0.989  1.00  0.00     0.016 A 
ATOM      8  C   UNL     1       6.323  -1.437   1.239  1.00  0.00     0.010 A 
ATOM      9  C   UNL     1       4.562  -2.911   1.955  1.00  0.00     0.010 A 
ATOM     10  C   UNL     1       5.866  -2.417   2.122  1.00  0.00    -0.014 A 
BRANCH  10  11
ATOM     11  C   UNL     1       6.721  -2.966   3.209  1.00  0.00     0.031 A 
ATOM     12  C   UNL     1       7.113  -4.418   3.173  1.00  0.00     0.074 A 
ATOM     13  C   UNL     1       7.014  -2.220   4.295  1.00  0.00     0.049 A 
ATOM     14  N   UNL     1       7.766  -5.126   4.059  1.00  0.00    -0.248 NA
ATOM     15  C   UNL     1       6.717  -5.172   1.971  1.00  0.00     0.031 C 
ATOM     16  C   UNL     1       6.648  -0.815   4.495  1.00  0.00     0.029 A 
ATOM     17  N   UNL     1       7.604  -2.575   5.485  1.00  0.00    -0.354 N 
ATOM     18  C   UNL     1       7.864  -6.400   3.518  1.00  0.00     0.074 A 
ATOM     19  C   UNL     1       7.138  -6.391   2.268  1.00  0.00     0.031 C 
ATOM     20  C   UNL     1       6.915  -0.466   5.766  1.00  0.00     0.029 A 
ATOM     21  C   UNL     1       7.498  -1.609   6.460  1.00  0.00     0.049 A 
ATOM     22  H   UNL     1       8.059  -3.437   5.626  1.00  0.00     0.167 HD
ATOM     23  C   UNL     1       8.549  -7.470   3.988  1.00  0.00     0.031 A 
ATOM     24  C   UNL     1       7.814  -1.649   7.769  1.00  0.00     0.031 A 
ATOM     25  C   UNL     1       9.242  -7.489   5.245  1.00  0.00     0.049 A 
ATOM     26  C   UNL     1       8.490  -2.878   8.318  1.00  0.00     0.074 A 
ATOM     27  C   UNL     1      10.062  -8.470   5.773  1.00  0.00     0.029 A 
ATOM     28  N   UNL     1       9.168  -6.474   6.187  1.00  0.00    -0.354 N 
ATOM     29  N   UNL     1       8.761  -4.012   7.719  1.00  0.00    -0.248 NA
ATOM     30  C   UNL     1       8.967  -2.808   9.708  1.00  0.00     0.031 C 
ATOM     31  C   UNL     1      10.474  -8.052   7.045  1.00  0.00     0.029 A 
ATOM     32  C   UNL     1       9.932  -6.800   7.293  1.00  0.00     0.049 A 
ATOM     33  H   UNL     1       8.648  -5.644   6.084  1.00  0.00     0.167 HD
ATOM     34  C   UNL     1       9.511  -4.751   8.623  1.00  0.00     0.074 A 
ATOM     35  C   UNL     1       9.628  -3.951   9.824  1.00  0.00     0.031 C 
ATOM     36  C   UNL     1      10.082  -5.969   8.458  1.00  0.00     0.031 A 
BRANCH  23  37
ATOM     37  C   UNL     1       8.616  -8.669   3.086  1.00  0.00    -0.014 A 
ATOM     38  C   UNL     1       9.335  -8.601   1.879  1.00  0.00     0.009 A 
ATOM     39  C   UNL     1       7.946  -9.855   3.411  1.00  0.00     0.009 A 
ATOM     40  C   UNL     1       9.332  -9.674   0.988  1.00  0.00     0.001 A 
ATOM     41  C   UNL     1       7.968 -10.939   2.529  1.00  0.00     0.001 A 
ATOM     42  C   UNL     1       8.647 -10.842   1.313  1.00  0.00     0.000 A 
ENDBRANCH  23  37
BRANCH  24  43
ATOM     43  C   UNL     1       7.524  -0.493   8.662  1.00  0.00    -0.014 A 
ATOM     44  C   UNL     1       8.552   0.327   9.151  1.00  0.00     0.009 A 
ATOM     45  C   UNL     1       6.210  -0.241   9.082  1.00  0.00     0.009 A 
ATOM     46  C   UNL     1       8.276   1.331  10.084  1.00  0.00     0.001 A 
ATOM     47  C   UNL     1       5.932   0.771  10.004  1.00  0.00     0.001 A 
ATOM     48  C   UNL     1       6.968   1.548  10.515  1.00  0.00     0.000 A 
ENDBRANCH  24  43
BRANCH  36  49
ATOM     49  C   UNL     1      11.002  -6.444   9.544  1.00  0.00    -0.014 A 
ATOM     50  C   UNL     1      10.520  -6.941  10.762  1.00  0.00     0.009 A 
ATOM     51  C   UNL     1      12.388  -6.412   9.317  1.00  0.00     0.009 A 
ATOM     52  C   UNL     1      11.414  -7.371  11.746  1.00  0.00     0.001 A 
ATOM     53  C   UNL     1      13.276  -6.865  10.292  1.00  0.00     0.001 A 
ATOM     54  C   UNL     1      12.789  -7.336  11.509  1.00  0.00     0.000 A 
ENDBRANCH  36  49
ENDBRANCH  10  11
ENDBRANCH   3   5
ENDBRANCH   2   3
ENDBRANCH   1   2
BRANCH   1  55
ATOM     55  C   UNL     1       3.758   2.219   0.552  1.00  0.00     0.274 C 
BRANCH  55  56
ATOM     56  O   UNL     1       3.465   1.343   1.653  1.00  0.00    -0.462 OA
BRANCH  56  57
ATOM     57  C   UNL     1       2.141   1.247   1.959  1.00  0.00     0.312 C 
ATOM     58  O   UNL     1       1.242   1.725   1.271  1.00  0.00    -0.252 OA
BRANCH  57  59
ATOM     59  C   UNL     1       1.855   0.530   3.275  1.00  0.00     0.124 C 
ATOM     60  C   UNL     1       1.133  -0.765   3.051  1.00  0.00    -0.014 C 
ATOM     61  C   UNL     1       3.038   0.085   4.142  1.00  0.00     0.048 C 
ATOM     62  C   UNL     1       1.510  -1.694   3.938  1.00  0.00    -0.006 C 
ATOM     63  C   UNL     1       2.558  -1.180   4.879  1.00  0.00     0.106 C 
BRANCH  63  64
ATOM     64  N   UNL     1       3.582  -2.186   4.969  1.00  0.00    -0.344 N 
ATOM     65  C   UNL     1       3.746  -3.217   5.852  1.00  0.00     0.270 C 
ATOM     66  H   UNL     1       4.282  -2.120   4.280  1.00  0.00     0.164 HD
ATOM     67  O   UNL     1       4.447  -4.181   5.549  1.00  0.00    -0.267 OA
BRANCH  65  68
ATOM     68  C   UNL     1       3.071  -3.183   7.163  1.00  0.00     0.128 A 
ATOM     69  C   UNL     1       1.806  -3.735   7.303  1.00  0.00     0.036 A 
ATOM     70  N   UNL     1       3.802  -2.684   8.193  1.00  0.00    -0.250 NA
ATOM     71  C   UNL     1       1.251  -3.776   8.582  1.00  0.00     0.024 A 
ATOM     72  C   UNL     1       3.249  -2.774   9.424  1.00  0.00     0.132 A 
ATOM     73  C   UNL     1       1.988  -3.297   9.662  1.00  0.00     0.059 A 
ATOM     74  Cl  UNL     1       1.352  -3.357  11.254  1.00  0.00    -0.083 Cl
ENDBRANCH  65  68
ENDBRANCH  63  64
ENDBRANCH  57  59
ENDBRANCH  56  57
ENDBRANCH  55  56
ENDBRANCH   1  55
TORSDOF 13
