REMARK SMILES COc1ccc(-c2ccc3n(c2=O)C[C@H]2C[C@@H]3CN(C(=O)CCCC(=O)OCCOC(=O)c3ccc(-c4c5nc(c(-c6ccccc6)c6ccc([nH]6)c(-c6ccccc6)c6nc(c(-c7ccccc7)c7ccc4[nH]7)C=C6)C=C5)cc3)C2)cc1
REMARK SMILES IDX 25 1 26 2 24 3 23 4 22 5 20 6 21 7 19 8 7 9 8 10 12 11 9 12
REMARK SMILES IDX 11 13 13 14 10 15 14 16 17 17 15 18 16 19 18 20 81 21 6 22
REMARK SMILES IDX 3 23 4 24 83 25 5 26 82 27 2 28 1 29 27 30 28 31 29 32 30 33
REMARK SMILES IDX 31 34 32 35 33 36 34 37 80 38 35 39 79 40 36 41 37 42 38 43
REMARK SMILES IDX 73 44 39 45 78 46 72 47 74 48 40 49 77 50 71 51 70 52 41 54
REMARK SMILES IDX 63 55 48 56 62 57 49 58 52 59 61 60 75 61 50 62 51 63 60 65
REMARK SMILES IDX 76 66 53 67 42 68 43 69 47 70 44 71 46 72 45 73 64 74 65 75
REMARK SMILES IDX 69 76 66 77 68 78 67 79 54 80 55 81 59 82 56 83 58 84 57 85
REMARK H PARENT 74 53 52 64
REMARK Flexibility Score: inf
ROOT
ATOM      1  C   UNL     1      -1.889  -1.089  11.329  1.00  0.00     0.305 C 
ATOM      2  O   UNL     1      -1.631  -2.189  10.854  1.00  0.00    -0.252 OA
ENDROOT
BRANCH   1   3
ATOM      3  C   UNL     1      -1.718   0.195  10.542  1.00  0.00     0.123 C 
BRANCH   3   4
ATOM      4  C   UNL     1      -1.609   1.482  11.347  1.00  0.00     0.022 C 
BRANCH   4   5
ATOM      5  C   UNL     1      -0.473   1.521  12.368  1.00  0.00     0.101 C 
BRANCH   5   6
ATOM      6  C   UNL     1       0.908   1.666  11.751  1.00  0.00     0.222 C 
ATOM      7  O   UNL     1       1.265   2.779  11.355  1.00  0.00    -0.275 OA
BRANCH   6   8
ATOM      8  N   UNL     1       1.747   0.560  11.695  1.00  0.00    -0.342 N 
ATOM      9  C   UNL     1       2.143   0.090   6.514  1.00  0.00     0.047 A 
ATOM     10  C   UNL     1       3.203   0.812   6.915  1.00  0.00     0.016 A 
ATOM     11  C   UNL     1       1.494  -0.842   7.506  1.00  0.00     0.258 A 
ATOM     12  C   UNL     1       3.749   0.680   8.234  1.00  0.00     0.023 A 
ATOM     13  N   UNL     1       2.090  -0.920   8.780  1.00  0.00    -0.311 N 
ATOM     14  O   UNL     1       0.504  -1.502   7.189  1.00  0.00    -0.269 OA
ATOM     15  C   UNL     1       3.209  -0.166   9.125  1.00  0.00     0.026 A 
ATOM     16  C   UNL     1       1.523  -1.903   9.706  1.00  0.00     0.131 C 
ATOM     17  C   UNL     1       3.792  -0.281  10.520  1.00  0.00     0.056 C 
ATOM     18  C   UNL     1       2.046  -1.882  11.152  1.00  0.00     0.029 C 
ATOM     19  C   UNL     1       3.552  -1.669  11.113  1.00  0.00     0.019 C 
ATOM     20  C   UNL     1       3.168   0.793  11.428  1.00  0.00     0.129 C 
ATOM     21  C   UNL     1       1.400  -0.812  12.055  1.00  0.00     0.125 C 
BRANCH   9  22
ATOM     22  C   UNL     1       1.664   0.230   5.126  1.00  0.00    -0.013 A 
ATOM     23  C   UNL     1       0.805   0.551   2.460  1.00  0.00     0.118 A 
ATOM     24  C   UNL     1      -0.072   0.781   3.522  1.00  0.00     0.047 A 
ATOM     25  C   UNL     1       2.118   0.172   2.728  1.00  0.00     0.047 A 
ATOM     26  C   UNL     1       0.348   0.612   4.846  1.00  0.00     0.013 A 
ATOM     27  C   UNL     1       2.542   0.009   4.052  1.00  0.00     0.013 A 
BRANCH  23  28
ATOM     28  O   UNL     1       0.284   0.759   1.212  1.00  0.00    -0.497 OA
ATOM     29  C   UNL     1       0.919   0.055   0.151  1.00  0.00     0.278 C 
ENDBRANCH  23  28
ENDBRANCH   9  22
ENDBRANCH   6   8
ENDBRANCH   5   6
ENDBRANCH   4   5
ENDBRANCH   3   4
ENDBRANCH   1   3
BRANCH   1  30
ATOM     30  O   UNL     1      -2.334  -0.899  12.597  1.00  0.00    -0.462 OA
BRANCH  30  31
ATOM     31  C   UNL     1      -2.475  -2.091  13.393  1.00  0.00     0.274 C 
BRANCH  31  32
ATOM     32  C   UNL     1      -3.921  -2.586  13.413  1.00  0.00     0.275 C 
BRANCH  32  33
ATOM     33  O   UNL     1      -4.352  -3.019  12.111  1.00  0.00    -0.458 OA
BRANCH  33  34
ATOM     34  C   UNL     1      -4.870  -2.048  11.330  1.00  0.00     0.338 C 
ATOM     35  O   UNL     1      -5.065  -0.873  11.623  1.00  0.00    -0.246 OA
BRANCH  34  36
ATOM     36  C   UNL     1      -5.081  -2.568   9.980  1.00  0.00     0.060 A 
ATOM     37  C   UNL     1      -4.196  -2.193   8.965  1.00  0.00     0.016 A 
ATOM     38  C   UNL     1      -6.208  -3.337   9.699  1.00  0.00     0.016 A 
ATOM     39  C   UNL     1      -4.439  -2.559   7.652  1.00  0.00     0.010 A 
ATOM     40  C   UNL     1      -6.448  -3.716   8.380  1.00  0.00     0.010 A 
ATOM     41  C   UNL     1      -5.574  -3.310   7.354  1.00  0.00    -0.014 A 
BRANCH  41  42
ATOM     42  C   UNL     1      -5.907  -3.596   5.950  1.00  0.00     0.031 A 
ATOM     43  C   UNL     1      -7.044  -2.857   5.319  1.00  0.00     0.074 A 
ATOM     44  C   UNL     1      -5.194  -4.504   5.265  1.00  0.00     0.049 A 
ATOM     45  N   UNL     1      -7.666  -3.101   4.198  1.00  0.00    -0.248 NA
ATOM     46  C   UNL     1      -7.556  -1.689   6.058  1.00  0.00     0.031 C 
ATOM     47  C   UNL     1      -4.000  -5.194   5.758  1.00  0.00     0.029 A 
ATOM     48  N   UNL     1      -5.385  -5.013   4.009  1.00  0.00    -0.354 N 
ATOM     49  C   UNL     1      -8.673  -2.149   4.118  1.00  0.00     0.074 A 
ATOM     50  C   UNL     1      -8.576  -1.318   5.298  1.00  0.00     0.031 C 
ATOM     51  C   UNL     1      -3.575  -6.051   4.817  1.00  0.00     0.029 A 
ATOM     52  C   UNL     1      -4.506  -6.018   3.695  1.00  0.00     0.049 A 
ATOM     53  H   UNL     1      -6.082  -4.690   3.393  1.00  0.00     0.167 HD
ATOM     54  C   UNL     1      -9.602  -2.001   3.147  1.00  0.00     0.031 A 
ATOM     55  C   UNL     1      -4.496  -6.855   2.642  1.00  0.00     0.031 A 
ATOM     56  C   UNL     1      -9.668  -2.841   1.982  1.00  0.00     0.049 A 
ATOM     57  C   UNL     1      -5.587  -6.728   1.618  1.00  0.00     0.074 A 
ATOM     58  C   UNL     1     -10.573  -2.805   0.938  1.00  0.00     0.029 A 
ATOM     59  N   UNL     1      -8.777  -3.869   1.710  1.00  0.00    -0.354 N 
ATOM     60  N   UNL     1      -6.581  -5.872   1.573  1.00  0.00    -0.248 NA
ATOM     61  C   UNL     1      -5.568  -7.690   0.509  1.00  0.00     0.031 C 
ATOM     62  C   UNL     1     -10.252  -3.839   0.052  1.00  0.00     0.029 A 
ATOM     63  C   UNL     1      -9.119  -4.487   0.522  1.00  0.00     0.049 A 
ATOM     64  H   UNL     1      -8.014  -4.121   2.278  1.00  0.00     0.167 HD
ATOM     65  C   UNL     1      -7.293  -6.177   0.422  1.00  0.00     0.074 A 
ATOM     66  C   UNL     1      -6.611  -7.292  -0.206  1.00  0.00     0.031 C 
ATOM     67  C   UNL     1      -8.411  -5.591  -0.073  1.00  0.00     0.031 A 
BRANCH  54  68
ATOM     68  C   UNL     1     -10.646  -0.942   3.347  1.00  0.00    -0.014 A 
ATOM     69  C   UNL     1     -10.346   0.422   3.216  1.00  0.00     0.009 A 
ATOM     70  C   UNL     1     -11.958  -1.322   3.674  1.00  0.00     0.009 A 
ATOM     71  C   UNL     1     -11.332   1.386   3.441  1.00  0.00     0.001 A 
ATOM     72  C   UNL     1     -12.947  -0.357   3.874  1.00  0.00     0.001 A 
ATOM     73  C   UNL     1     -12.631   0.996   3.766  1.00  0.00     0.000 A 
ENDBRANCH  54  68
BRANCH  55  74
ATOM     74  C   UNL     1      -3.462  -7.917   2.549  1.00  0.00    -0.014 A 
ATOM     75  C   UNL     1      -2.454  -7.849   1.577  1.00  0.00     0.009 A 
ATOM     76  C   UNL     1      -3.468  -8.997   3.447  1.00  0.00     0.009 A 
ATOM     77  C   UNL     1      -1.482  -8.850   1.498  1.00  0.00     0.001 A 
ATOM     78  C   UNL     1      -2.480  -9.981   3.382  1.00  0.00     0.001 A 
ATOM     79  C   UNL     1      -1.492  -9.911   2.403  1.00  0.00     0.000 A 
ENDBRANCH  55  74
BRANCH  67  80
ATOM     80  C   UNL     1      -8.934  -6.122  -1.374  1.00  0.00    -0.014 A 
ATOM     81  C   UNL     1      -9.646  -7.329  -1.431  1.00  0.00     0.009 A 
ATOM     82  C   UNL     1      -8.758  -5.371  -2.546  1.00  0.00     0.009 A 
ATOM     83  C   UNL     1     -10.155  -7.785  -2.647  1.00  0.00     0.001 A 
ATOM     84  C   UNL     1      -9.288  -5.818  -3.755  1.00  0.00     0.001 A 
ATOM     85  C   UNL     1      -9.981  -7.027  -3.806  1.00  0.00     0.000 A 
ENDBRANCH  67  80
ENDBRANCH  41  42
ENDBRANCH  34  36
ENDBRANCH  33  34
ENDBRANCH  32  33
ENDBRANCH  31  32
ENDBRANCH  30  31
ENDBRANCH   1  30
TORSDOF 17
