REMARK SMILES C[C@H]1[C@H](C(=O)OCCOC(=O)c2ccc(-c3c4nc(c(-c5ccccc5)c5ccc([nH]5)c(-c5ccccc5)c5nc(c(-c6ccccc6)c6ccc3[nH]6)C=C5)C=C4)cc2)CCN1C(=O)Nc1ccc(F)cc1
REMARK SMILES IDX 7 1 6 2 4 3 5 4 3 5 1 6 2 7 62 8 60 9 61 10 63 11 64 12
REMARK SMILES IDX 65 13 66 15 67 16 72 17 68 18 71 19 69 20 70 21 8 22 9 23
REMARK SMILES IDX 10 24 11 25 12 26 13 27 59 28 14 29 58 30 15 31 16 32 17 33
REMARK SMILES IDX 52 34 18 35 57 36 51 37 53 38 19 39 56 40 50 41 49 42 20 44
REMARK SMILES IDX 42 45 27 46 41 47 28 48 31 49 40 50 54 51 29 52 30 53 39 55
REMARK SMILES IDX 55 56 32 57 21 58 22 59 26 60 23 61 25 62 24 63 43 64 44 65
REMARK SMILES IDX 48 66 45 67 47 68 46 69 33 70 34 71 38 72 35 73 37 74 36 75
REMARK H PARENT 65 14 53 43 31 54
REMARK Flexibility Score: inf
ROOT
ATOM      1  C   UNL     1      -0.579   2.915   3.243  1.00  0.00     0.274 C 
ENDROOT
BRANCH   1   2
ATOM      2  O   UNL     1      -0.520   1.834   2.290  1.00  0.00    -0.462 OA
BRANCH   2   3
ATOM      3  C   UNL     1      -0.825   2.145   1.004  1.00  0.00     0.311 C 
ATOM      4  O   UNL     1      -1.176   3.255   0.620  1.00  0.00    -0.252 OA
BRANCH   3   5
ATOM      5  C   UNL     1      -0.756   0.957   0.067  1.00  0.00     0.123 C 
ATOM      6  C   UNL     1       1.413   0.032  -0.857  1.00  0.00     0.032 C 
ATOM      7  C   UNL     1       0.427  -0.005   0.316  1.00  0.00     0.098 C 
ATOM      8  N   UNL     1      -0.184  -1.332   0.467  1.00  0.00    -0.321 N 
ATOM      9  C   UNL     1      -2.020   0.114   0.207  1.00  0.00     0.039 C 
ATOM     10  C   UNL     1      -1.546  -1.302  -0.031  1.00  0.00     0.122 C 
BRANCH   8  11
ATOM     11  C   UNL     1       0.372  -2.549   0.752  1.00  0.00     0.322 C 
ATOM     12  O   UNL     1      -0.265  -3.593   0.571  1.00  0.00    -0.248 OA
ATOM     13  N   UNL     1       1.679  -2.691   1.078  1.00  0.00    -0.308 N 
ATOM     14  H   UNL     1       2.055  -3.549   0.775  1.00  0.00     0.171 HD
BRANCH  13  15
ATOM     15  C   UNL     1       2.615  -1.898   1.749  1.00  0.00     0.043 A 
ATOM     16  C   UNL     1       3.962  -2.080   1.409  1.00  0.00     0.029 A 
ATOM     17  C   UNL     1       2.277  -0.996   2.758  1.00  0.00     0.029 A 
ATOM     18  C   UNL     1       4.950  -1.284   1.989  1.00  0.00     0.041 A 
ATOM     19  C   UNL     1       3.269  -0.206   3.348  1.00  0.00     0.041 A 
ATOM     20  C   UNL     1       4.592  -0.342   2.943  1.00  0.00     0.123 A 
ATOM     21  F   UNL     1       5.535   0.441   3.484  1.00  0.00    -0.207 F 
ENDBRANCH  13  15
ENDBRANCH   8  11
ENDBRANCH   3   5
ENDBRANCH   2   3
ENDBRANCH   1   2
BRANCH   1  22
ATOM     22  C   UNL     1       0.802   3.523   3.509  1.00  0.00     0.275 C 
BRANCH  22  23
ATOM     23  O   UNL     1       1.299   4.249   2.370  1.00  0.00    -0.458 OA
BRANCH  23  24
ATOM     24  C   UNL     1       2.040   3.515   1.510  1.00  0.00     0.338 C 
ATOM     25  O   UNL     1       2.347   2.341   1.608  1.00  0.00    -0.246 OA
BRANCH  24  26
ATOM     26  C   UNL     1       2.346   4.303   0.313  1.00  0.00     0.060 A 
ATOM     27  C   UNL     1       1.757   3.920  -0.895  1.00  0.00     0.016 A 
ATOM     28  C   UNL     1       3.287   5.330   0.358  1.00  0.00     0.016 A 
ATOM     29  C   UNL     1       2.120   4.550  -2.078  1.00  0.00     0.010 A 
ATOM     30  C   UNL     1       3.638   5.975  -0.828  1.00  0.00     0.010 A 
ATOM     31  C   UNL     1       3.065   5.580  -2.050  1.00  0.00    -0.014 A 
BRANCH  31  32
ATOM     32  C   UNL     1       3.475   6.242  -3.304  1.00  0.00     0.031 A 
ATOM     33  C   UNL     1       4.825   5.959  -3.889  1.00  0.00     0.074 A 
ATOM     34  C   UNL     1       2.638   7.111  -3.897  1.00  0.00     0.049 A 
ATOM     35  N   UNL     1       5.442   6.566  -4.868  1.00  0.00    -0.248 NA
ATOM     36  C   UNL     1       5.580   4.846  -3.291  1.00  0.00     0.031 C 
ATOM     37  C   UNL     1       1.275   7.410  -3.454  1.00  0.00     0.029 A 
ATOM     38  N   UNL     1       2.821   7.914  -4.992  1.00  0.00    -0.354 N 
ATOM     39  C   UNL     1       6.671   5.932  -4.985  1.00  0.00     0.074 A 
ATOM     40  C   UNL     1       6.713   4.892  -3.979  1.00  0.00     0.031 C 
ATOM     41  C   UNL     1       0.750   8.345  -4.262  1.00  0.00     0.029 A 
ATOM     42  C   UNL     1       1.759   8.748  -5.236  1.00  0.00     0.049 A 
ATOM     43  H   UNL     1       3.634   7.896  -5.547  1.00  0.00     0.167 HD
ATOM     44  C   UNL     1       7.677   6.207  -5.848  1.00  0.00     0.031 A 
ATOM     45  C   UNL     1       1.633   9.759  -6.115  1.00  0.00     0.031 A 
ATOM     46  C   UNL     1       7.624   7.246  -6.841  1.00  0.00     0.049 A 
ATOM     47  C   UNL     1       2.791  10.095  -7.010  1.00  0.00     0.074 A 
ATOM     48  C   UNL     1       8.591   7.612  -7.761  1.00  0.00     0.029 A 
ATOM     49  N   UNL     1       6.538   8.084  -7.043  1.00  0.00    -0.354 N 
ATOM     50  N   UNL     1       3.964   9.515  -7.091  1.00  0.00    -0.248 NA
ATOM     51  C   UNL     1       2.612  11.231  -7.925  1.00  0.00     0.031 C 
ATOM     52  C   UNL     1       8.103   8.697  -8.496  1.00  0.00     0.029 A 
ATOM     53  C   UNL     1       6.817   8.978  -8.062  1.00  0.00     0.049 A 
ATOM     54  H   UNL     1       5.695   8.048  -6.537  1.00  0.00     0.167 HD
ATOM     55  C   UNL     1       4.657  10.202  -8.078  1.00  0.00     0.074 A 
ATOM     56  C   UNL     1       3.771  11.237  -8.571  1.00  0.00     0.031 C 
ATOM     57  C   UNL     1       5.915   9.993  -8.537  1.00  0.00     0.031 A 
BRANCH  44  58
ATOM     58  C   UNL     1       8.936   5.402  -5.719  1.00  0.00    -0.014 A 
ATOM     59  C   UNL     1       9.007   4.079  -6.179  1.00  0.00     0.009 A 
ATOM     60  C   UNL     1      10.077   5.989  -5.151  1.00  0.00     0.009 A 
ATOM     61  C   UNL     1      10.192   3.350  -6.050  1.00  0.00     0.001 A 
ATOM     62  C   UNL     1      11.265   5.265  -5.041  1.00  0.00     0.001 A 
ATOM     63  C   UNL     1      11.320   3.945  -5.484  1.00  0.00     0.000 A 
ENDBRANCH  44  58
BRANCH  45  64
ATOM     64  C   UNL     1       0.381  10.553  -6.149  1.00  0.00    -0.014 A 
ATOM     65  C   UNL     1      -0.520  10.419  -7.215  1.00  0.00     0.009 A 
ATOM     66  C   UNL     1       0.070  11.434  -5.101  1.00  0.00     0.009 A 
ATOM     67  C   UNL     1      -1.702  11.164  -7.236  1.00  0.00     0.001 A 
ATOM     68  C   UNL     1      -1.123  12.159  -5.114  1.00  0.00     0.001 A 
ATOM     69  C   UNL     1      -2.005  12.027  -6.184  1.00  0.00     0.000 A 
ENDBRANCH  45  64
BRANCH  57  70
ATOM     70  C   UNL     1       6.389  10.874  -9.653  1.00  0.00    -0.014 A 
ATOM     71  C   UNL     1       6.828  12.183  -9.406  1.00  0.00     0.009 A 
ATOM     72  C   UNL     1       6.450  10.364 -10.959  1.00  0.00     0.009 A 
ATOM     73  C   UNL     1       7.304  12.973 -10.454  1.00  0.00     0.001 A 
ATOM     74  C   UNL     1       6.944  11.150 -12.000  1.00  0.00     0.001 A 
ATOM     75  C   UNL     1       7.366  12.454 -11.748  1.00  0.00     0.000 A 
ENDBRANCH  57  70
ENDBRANCH  31  32
ENDBRANCH  24  26
ENDBRANCH  23  24
ENDBRANCH  22  23
ENDBRANCH   1  22
TORSDOF 13
