REMARK SMILES C[C@@H](C(=O)OCCOC(=O)c1ccc(-c2c3nc(c(-c4ccccc4)c4ccc([nH]4)c(-c4ccccc4)c4nc(c(-c5ccccc5)c5ccc2[nH]5)C=C4)C=C3)cc1)c1ccc2c3cc(Cl)ccc3n(C(=O)c3cocn3)c2c1
REMARK SMILES IDX 6 1 5 2 3 3 4 4 2 5 1 6 59 7 60 8 79 9 61 10 78 11 62 12
REMARK SMILES IDX 70 13 63 14 69 15 64 16 68 17 65 18 67 19 66 20 71 21 72 22
REMARK SMILES IDX 73 23 74 24 77 25 75 26 76 27 7 28 8 29 9 30 10 31 11 32
REMARK SMILES IDX 12 33 58 34 13 35 57 36 14 37 15 38 16 39 51 40 17 41 56 42
REMARK SMILES IDX 50 43 52 44 18 45 55 46 49 47 48 48 19 50 41 51 26 52 40 53
REMARK SMILES IDX 27 54 30 55 39 56 53 57 28 58 29 59 38 61 54 62 31 63 20 64
REMARK SMILES IDX 21 65 25 66 22 67 24 68 23 69 42 70 43 71 47 72 44 73 46 74
REMARK SMILES IDX 45 75 32 76 33 77 37 78 34 79 36 80 35 81
REMARK H PARENT 52 49 30 60
REMARK Flexibility Score: inf
ROOT
ATOM      1  C   UNL     1       2.799  -1.969  -3.371  1.00  0.00     0.274 C 
ENDROOT
BRANCH   1   2
ATOM      2  O   UNL     1       2.500  -1.208  -2.186  1.00  0.00    -0.462 OA
BRANCH   2   3
ATOM      3  C   UNL     1       1.540  -0.253  -2.323  1.00  0.00     0.313 C 
ATOM      4  O   UNL     1       0.952  -0.021  -3.366  1.00  0.00    -0.252 OA
BRANCH   3   5
ATOM      5  C   UNL     1       1.287   0.521  -1.022  1.00  0.00     0.126 C 
ATOM      6  C   UNL     1       2.067   0.029   0.199  1.00  0.00     0.025 C 
BRANCH   5   7
ATOM      7  C   UNL     1      -0.214   0.581  -0.775  1.00  0.00    -0.032 A 
ATOM      8  C   UNL     1      -0.938   1.630  -1.353  1.00  0.00     0.005 A 
ATOM      9  C   UNL     1      -0.887  -0.454  -0.095  1.00  0.00     0.032 A 
ATOM     10  C   UNL     1      -2.328   1.642  -1.316  1.00  0.00     0.011 A 
ATOM     11  C   UNL     1      -2.289  -0.416  -0.032  1.00  0.00     0.058 A 
ATOM     12  C   UNL     1      -3.010   0.600  -0.659  1.00  0.00     0.008 A 
ATOM     13  N   UNL     1      -3.195  -1.277   0.595  1.00  0.00    -0.274 N 
ATOM     14  C   UNL     1      -4.388   0.318  -0.490  1.00  0.00     0.009 A 
ATOM     15  C   UNL     1      -4.490  -0.775   0.375  1.00  0.00     0.057 A 
ATOM     16  C   UNL     1      -5.552   0.942  -0.993  1.00  0.00     0.031 A 
ATOM     17  C   UNL     1      -5.748  -1.165   0.868  1.00  0.00     0.029 A 
ATOM     18  C   UNL     1      -6.799   0.483  -0.586  1.00  0.00     0.041 A 
ATOM     19  C   UNL     1      -6.897  -0.535   0.354  1.00  0.00     0.023 A 
ATOM     20  Cl  UNL     1      -8.218   1.209  -1.237  1.00  0.00    -0.084 Cl
BRANCH  13  21
ATOM     21  C   UNL     1      -2.820  -2.253   1.558  1.00  0.00     0.284 C 
ATOM     22  O   UNL     1      -2.664  -1.801   2.691  1.00  0.00    -0.266 OA
BRANCH  21  23
ATOM     23  C   UNL     1      -2.603  -3.686   1.288  1.00  0.00     0.167 A 
ATOM     24  C   UNL     1      -2.628  -4.378   0.103  1.00  0.00     0.231 A 
ATOM     25  N   UNL     1      -2.337  -4.617   2.292  1.00  0.00    -0.211 NA
ATOM     26  O   UNL     1      -2.457  -5.707   0.331  1.00  0.00    -0.451 OA
ATOM     27  C   UNL     1      -2.256  -5.772   1.671  1.00  0.00     0.308 A 
ENDBRANCH  21  23
ENDBRANCH  13  21
ENDBRANCH   5   7
ENDBRANCH   3   5
ENDBRANCH   2   3
ENDBRANCH   1   2
BRANCH   1  28
ATOM     28  C   UNL     1       2.105  -3.332  -3.348  1.00  0.00     0.275 C 
BRANCH  28  29
ATOM     29  O   UNL     1       0.711  -3.245  -3.725  1.00  0.00    -0.458 OA
BRANCH  29  30
ATOM     30  C   UNL     1      -0.171  -3.357  -2.712  1.00  0.00     0.338 C 
ATOM     31  O   UNL     1       0.087  -3.469  -1.517  1.00  0.00    -0.246 OA
BRANCH  30  32
ATOM     32  C   UNL     1      -1.571  -3.280  -3.173  1.00  0.00     0.060 A 
ATOM     33  C   UNL     1      -2.207  -2.052  -3.044  1.00  0.00     0.016 A 
ATOM     34  C   UNL     1      -2.340  -4.438  -3.370  1.00  0.00     0.016 A 
ATOM     35  C   UNL     1      -3.603  -2.001  -2.979  1.00  0.00     0.010 A 
ATOM     36  C   UNL     1      -3.755  -4.370  -3.335  1.00  0.00     0.010 A 
ATOM     37  C   UNL     1      -4.405  -3.155  -3.070  1.00  0.00    -0.014 A 
BRANCH  37  38
ATOM     38  C   UNL     1      -5.893  -3.025  -2.909  1.00  0.00     0.031 A 
ATOM     39  C   UNL     1      -6.669  -3.550  -1.716  1.00  0.00     0.074 A 
ATOM     40  C   UNL     1      -6.559  -2.254  -3.783  1.00  0.00     0.049 A 
ATOM     41  N   UNL     1      -7.958  -3.636  -1.480  1.00  0.00    -0.248 NA
ATOM     42  C   UNL     1      -5.864  -4.006  -0.593  1.00  0.00     0.031 C 
ATOM     43  C   UNL     1      -5.960  -1.568  -4.926  1.00  0.00     0.029 A 
ATOM     44  N   UNL     1      -7.879  -1.896  -3.818  1.00  0.00    -0.354 N 
ATOM     45  C   UNL     1      -8.087  -4.170  -0.192  1.00  0.00     0.074 A 
ATOM     46  C   UNL     1      -6.753  -4.423   0.293  1.00  0.00     0.031 C 
ATOM     47  C   UNL     1      -6.906  -0.847  -5.539  1.00  0.00     0.029 A 
ATOM     48  C   UNL     1      -8.188  -1.106  -4.891  1.00  0.00     0.049 A 
ATOM     49  H   UNL     1      -8.537  -2.178  -3.143  1.00  0.00     0.167 HD
ATOM     50  C   UNL     1      -9.198  -4.360   0.564  1.00  0.00     0.031 A 
ATOM     51  C   UNL     1      -9.379  -0.691  -5.351  1.00  0.00     0.031 A 
ATOM     52  C   UNL     1     -10.520  -3.997   0.143  1.00  0.00     0.049 A 
ATOM     53  C   UNL     1     -10.626  -1.060  -4.612  1.00  0.00     0.074 A 
ATOM     54  C   UNL     1     -11.726  -4.185   0.796  1.00  0.00     0.029 A 
ATOM     55  N   UNL     1     -10.795  -3.316  -1.028  1.00  0.00    -0.354 N 
ATOM     56  N   UNL     1     -10.754  -1.718  -3.485  1.00  0.00    -0.248 NA
ATOM     57  C   UNL     1     -11.894  -0.644  -5.220  1.00  0.00     0.031 C 
ATOM     58  C   UNL     1     -12.737  -3.624   0.005  1.00  0.00     0.029 A 
ATOM     59  C   UNL     1     -12.151  -3.071  -1.122  1.00  0.00     0.049 A 
ATOM     60  H   UNL     1     -10.124  -3.045  -1.696  1.00  0.00     0.167 HD
ATOM     61  C   UNL     1     -12.119  -1.790  -3.245  1.00  0.00     0.074 A 
ATOM     62  C   UNL     1     -12.773  -1.096  -4.335  1.00  0.00     0.031 C 
ATOM     63  C   UNL     1     -12.775  -2.384  -2.218  1.00  0.00     0.031 A 
BRANCH  50  64
ATOM     64  C   UNL     1      -9.039  -4.968   1.935  1.00  0.00    -0.014 A 
ATOM     65  C   UNL     1      -8.608  -4.200   3.029  1.00  0.00     0.009 A 
ATOM     66  C   UNL     1      -9.386  -6.312   2.151  1.00  0.00     0.009 A 
ATOM     67  C   UNL     1      -8.497  -4.773   4.301  1.00  0.00     0.001 A 
ATOM     68  C   UNL     1      -9.294  -6.877   3.427  1.00  0.00     0.001 A 
ATOM     69  C   UNL     1      -8.842  -6.109   4.499  1.00  0.00     0.000 A 
ENDBRANCH  50  64
BRANCH  51  70
ATOM     70  C   UNL     1      -9.408   0.027  -6.647  1.00  0.00    -0.014 A 
ATOM     71  C   UNL     1      -9.670   1.399  -6.710  1.00  0.00     0.009 A 
ATOM     72  C   UNL     1      -9.057  -0.661  -7.824  1.00  0.00     0.009 A 
ATOM     73  C   UNL     1      -9.570   2.073  -7.929  1.00  0.00     0.001 A 
ATOM     74  C   UNL     1      -8.925   0.021  -9.031  1.00  0.00     0.001 A 
ATOM     75  C   UNL     1      -9.185   1.388  -9.083  1.00  0.00     0.000 A 
ENDBRANCH  51  70
BRANCH  63  76
ATOM     76  C   UNL     1     -14.270  -2.304  -2.229  1.00  0.00    -0.014 A 
ATOM     77  C   UNL     1     -15.019  -3.143  -3.067  1.00  0.00     0.009 A 
ATOM     78  C   UNL     1     -14.933  -1.419  -1.368  1.00  0.00     0.009 A 
ATOM     79  C   UNL     1     -16.412  -3.077  -3.061  1.00  0.00     0.001 A 
ATOM     80  C   UNL     1     -16.327  -1.371  -1.349  1.00  0.00     0.001 A 
ATOM     81  C   UNL     1     -17.064  -2.194  -2.200  1.00  0.00     0.000 A 
ENDBRANCH  63  76
ENDBRANCH  37  38
ENDBRANCH  30  32
ENDBRANCH  29  30
ENDBRANCH  28  29
ENDBRANCH   1  28
TORSDOF 14
