REMARK SMILES O=C(OCCOC(=O)[C@@H]1CS[C@H](c2cc(Br)ccc2O)[NH2+]1)c1ccc(-c2c3nc(c(-c4ccccc4)c4ccc([nH]4)c(-c4ccccc4)c4nc(c(-c5ccccc5)c5ccc2[nH]5)C=C4)C=C3)cc1
REMARK SMILES IDX 4 1 3 2 2 3 1 4 22 5 23 6 69 7 24 8 68 9 25 10 26 11 27 12
REMARK SMILES IDX 62 13 28 14 67 15 61 16 63 17 29 18 66 19 60 20 59 21 30 23
REMARK SMILES IDX 52 24 37 25 51 26 38 27 41 28 50 29 64 30 39 31 40 32 49 34
REMARK SMILES IDX 65 35 42 36 31 37 32 38 36 39 33 40 35 41 34 42 53 43 54 44
REMARK SMILES IDX 58 45 55 46 57 47 56 48 43 49 44 50 48 51 45 52 47 53 46 54
REMARK SMILES IDX 5 55 6 56 7 57 8 58 9 59 10 60 21 61 11 62 12 63 13 66 14 67
REMARK SMILES IDX 19 68 15 69 18 70 16 71 17 72 20 73
REMARK H PARENT 63 22 41 33 21 64 21 65 20 74
REMARK Flexibility Score: inf
ROOT
ATOM      1  C   UNL     1       2.743  -0.779  -4.306  1.00  0.00     0.275 C 
ENDROOT
BRANCH   1   2
ATOM      2  O   UNL     1       4.021  -1.265  -3.852  1.00  0.00    -0.458 OA
BRANCH   2   3
ATOM      3  C   UNL     1       4.701  -1.025  -2.705  1.00  0.00     0.338 C 
ATOM      4  O   UNL     1       5.868  -1.405  -2.623  1.00  0.00    -0.246 OA
BRANCH   3   5
ATOM      5  C   UNL     1       4.064  -0.496  -1.455  1.00  0.00     0.060 A 
ATOM      6  C   UNL     1       2.925   0.308  -1.390  1.00  0.00     0.016 A 
ATOM      7  C   UNL     1       4.631  -0.931  -0.238  1.00  0.00     0.016 A 
ATOM      8  C   UNL     1       2.287   0.560  -0.172  1.00  0.00     0.010 A 
ATOM      9  C   UNL     1       3.993  -0.690   0.984  1.00  0.00     0.010 A 
ATOM     10  C   UNL     1       2.803   0.047   1.018  1.00  0.00    -0.014 A 
BRANCH  10  11
ATOM     11  C   UNL     1       2.192   0.441   2.305  1.00  0.00     0.031 A 
ATOM     12  C   UNL     1       2.850   1.545   3.074  1.00  0.00     0.074 A 
ATOM     13  C   UNL     1       1.057  -0.131   2.752  1.00  0.00     0.049 A 
ATOM     14  N   UNL     1       2.488   2.092   4.202  1.00  0.00    -0.248 NA
ATOM     15  C   UNL     1       4.059   2.136   2.472  1.00  0.00     0.031 C 
ATOM     16  C   UNL     1       0.270  -1.132   2.037  1.00  0.00     0.029 A 
ATOM     17  N   UNL     1       0.370   0.045   3.927  1.00  0.00    -0.354 N 
ATOM     18  C   UNL     1       3.407   3.106   4.430  1.00  0.00     0.074 A 
ATOM     19  C   UNL     1       4.372   3.069   3.357  1.00  0.00     0.031 C 
ATOM     20  C   UNL     1      -0.749  -1.540   2.814  1.00  0.00     0.029 A 
ATOM     21  C   UNL     1      -0.701  -0.807   4.074  1.00  0.00     0.049 A 
ATOM     22  H   UNL     1       0.620   0.717   4.602  1.00  0.00     0.167 HD
ATOM     23  C   UNL     1       3.429   4.005   5.438  1.00  0.00     0.031 A 
ATOM     24  C   UNL     1      -1.543  -0.970   5.113  1.00  0.00     0.031 A 
ATOM     25  C   UNL     1       2.484   4.016   6.516  1.00  0.00     0.049 A 
ATOM     26  C   UNL     1      -1.401  -0.050   6.298  1.00  0.00     0.074 A 
ATOM     27  C   UNL     1       2.414   4.881   7.591  1.00  0.00     0.029 A 
ATOM     28  N   UNL     1       1.455   3.098   6.664  1.00  0.00    -0.354 N 
ATOM     29  N   UNL     1      -0.570   0.951   6.469  1.00  0.00    -0.248 NA
ATOM     30  C   UNL     1      -2.331  -0.257   7.417  1.00  0.00     0.031 C 
ATOM     31  C   UNL     1       1.382   4.444   8.427  1.00  0.00     0.029 A 
ATOM     32  C   UNL     1       0.773   3.345   7.840  1.00  0.00     0.049 A 
ATOM     33  H   UNL     1       1.242   2.378   6.027  1.00  0.00     0.167 HD
ATOM     34  C   UNL     1      -0.902   1.516   7.692  1.00  0.00     0.074 A 
ATOM     35  C   UNL     1      -2.020   0.756   8.214  1.00  0.00     0.031 C 
ATOM     36  C   UNL     1      -0.339   2.572   8.329  1.00  0.00     0.031 A 
BRANCH  23  37
ATOM     37  C   UNL     1       4.536   5.016   5.426  1.00  0.00    -0.014 A 
ATOM     38  C   UNL     1       4.542   6.078   4.508  1.00  0.00     0.009 A 
ATOM     39  C   UNL     1       5.587   4.901   6.346  1.00  0.00     0.009 A 
ATOM     40  C   UNL     1       5.596   6.992   4.496  1.00  0.00     0.001 A 
ATOM     41  C   UNL     1       6.628   5.830   6.347  1.00  0.00     0.001 A 
ATOM     42  C   UNL     1       6.636   6.870   5.418  1.00  0.00     0.000 A 
ENDBRANCH  23  37
BRANCH  24  43
ATOM     43  C   UNL     1      -2.578  -2.042   5.107  1.00  0.00    -0.014 A 
ATOM     44  C   UNL     1      -3.947  -1.732   5.104  1.00  0.00     0.009 A 
ATOM     45  C   UNL     1      -2.196  -3.392   5.184  1.00  0.00     0.009 A 
ATOM     46  C   UNL     1      -4.907  -2.743   5.226  1.00  0.00     0.001 A 
ATOM     47  C   UNL     1      -3.157  -4.402   5.277  1.00  0.00     0.001 A 
ATOM     48  C   UNL     1      -4.511  -4.076   5.314  1.00  0.00     0.000 A 
ENDBRANCH  24  43
BRANCH  36  49
ATOM     49  C   UNL     1      -0.938   2.978   9.644  1.00  0.00    -0.014 A 
ATOM     50  C   UNL     1      -0.755   2.198  10.795  1.00  0.00     0.009 A 
ATOM     51  C   UNL     1      -1.638   4.191   9.742  1.00  0.00     0.009 A 
ATOM     52  C   UNL     1      -1.288   2.612  12.017  1.00  0.00     0.001 A 
ATOM     53  C   UNL     1      -2.140   4.618  10.971  1.00  0.00     0.001 A 
ATOM     54  C   UNL     1      -1.972   3.825  12.104  1.00  0.00     0.000 A 
ENDBRANCH  36  49
ENDBRANCH  10  11
ENDBRANCH   3   5
ENDBRANCH   2   3
ENDBRANCH   1   2
BRANCH   1  55
ATOM     55  C   UNL     1       1.547  -1.642  -3.887  1.00  0.00     0.274 C 
BRANCH  55  56
ATOM     56  O   UNL     1       1.644  -2.114  -2.535  1.00  0.00    -0.458 OA
BRANCH  56  57
ATOM     57  C   UNL     1       2.169  -3.376  -2.376  1.00  0.00     0.365 C 
ATOM     58  O   UNL     1       2.415  -4.134  -3.299  1.00  0.00    -0.245 OA
BRANCH  57  59
ATOM     59  C   UNL     1       2.509  -3.633  -0.900  1.00  0.00     0.304 C 
ATOM     60  C   UNL     1       3.341  -4.886  -0.653  1.00  0.00     0.153 C 
ATOM     61  N   UNL     1       1.330  -3.589  -0.003  1.00  0.00    -0.319 N 
ATOM     62  S   UNL     1       2.369  -5.858   0.528  1.00  0.00    -0.087 SA
ATOM     63  C   UNL     1       0.823  -4.958   0.149  1.00  0.00     0.278 C 
ATOM     64  H   UNL     1       0.607  -2.996  -0.411  1.00  0.00     0.348 HD
ATOM     65  H   UNL     1       1.590  -3.205   0.905  1.00  0.00     0.348 HD
BRANCH  63  66
ATOM     66  C   UNL     1       0.068  -5.471  -1.069  1.00  0.00     0.063 A 
ATOM     67  C   UNL     1       0.181  -6.812  -1.482  1.00  0.00     0.030 A 
ATOM     68  C   UNL     1      -0.764  -4.637  -1.835  1.00  0.00     0.125 A 
ATOM     69  C   UNL     1      -0.385  -7.244  -2.681  1.00  0.00     0.018 A 
ATOM     70  C   UNL     1      -1.313  -5.058  -3.047  1.00  0.00     0.048 A 
ATOM     71  Br  UNL     1      -0.155  -9.040  -3.224  1.00  0.00    -0.051 Br
ATOM     72  C   UNL     1      -1.101  -6.363  -3.483  1.00  0.00     0.019 A 
BRANCH  68  73
ATOM     73  O   UNL     1      -1.059  -3.374  -1.406  1.00  0.00    -0.507 OA
ATOM     74  H   UNL     1      -0.706  -3.061  -0.596  1.00  0.00     0.293 HD
ENDBRANCH  68  73
ENDBRANCH  63  66
ENDBRANCH  57  59
ENDBRANCH  56  57
ENDBRANCH  55  56
ENDBRANCH   1  55
TORSDOF 13
