REMARK SMILES O=C(OCCOC(=O)c1ccc(-c2ccc(Cl)c3ccccc23)o1)c1ccc(-c2c3nc(c(-c4ccccc4)c4ccc([nH]4)c(-c4ccccc4)c4nc(c(-c5ccccc5)c5ccc2[nH]5)C=C4)C=C3)cc1
REMARK SMILES IDX 4 1 3 2 2 3 1 4 25 5 26 6 72 7 27 8 71 9 28 10 29 11 30 12
REMARK SMILES IDX 65 13 31 14 70 15 64 16 66 17 32 18 69 19 63 20 62 21 33 23
REMARK SMILES IDX 55 24 40 25 54 26 41 27 44 28 53 29 67 30 42 31 43 32 52 34
REMARK SMILES IDX 68 35 45 36 34 37 35 38 39 39 36 40 38 41 37 42 56 43 57 44
REMARK SMILES IDX 61 45 58 46 60 47 59 48 46 49 47 50 51 51 48 52 50 53 49 54
REMARK SMILES IDX 5 55 6 56 7 57 8 58 9 59 10 60 24 61 11 62 12 63 13 64 14 65
REMARK SMILES IDX 23 66 15 67 18 68 22 69 16 70 19 71 21 72 17 73 20 74
REMARK H PARENT 66 22 44 33
REMARK Flexibility Score: inf
ROOT
ATOM      1  C   UNL     1       3.925  -1.559  -0.942  1.00  0.00     0.275 C 
ENDROOT
BRANCH   1   2
ATOM      2  O   UNL     1       3.158  -1.293   0.241  1.00  0.00    -0.458 OA
BRANCH   2   3
ATOM      3  C   UNL     1       3.275  -0.285   1.133  1.00  0.00     0.338 C 
ATOM      4  O   UNL     1       2.696  -0.378   2.214  1.00  0.00    -0.246 OA
BRANCH   3   5
ATOM      5  C   UNL     1       3.953   1.013   0.826  1.00  0.00     0.060 A 
ATOM      6  C   UNL     1       5.107   1.209   0.066  1.00  0.00     0.016 A 
ATOM      7  C   UNL     1       3.373   2.141   1.422  1.00  0.00     0.016 A 
ATOM      8  C   UNL     1       5.638   2.495  -0.127  1.00  0.00     0.010 A 
ATOM      9  C   UNL     1       3.868   3.429   1.198  1.00  0.00     0.010 A 
ATOM     10  C   UNL     1       5.024   3.616   0.438  1.00  0.00    -0.014 A 
BRANCH  10  11
ATOM     11  C   UNL     1       5.643   4.963   0.358  1.00  0.00     0.031 A 
ATOM     12  C   UNL     1       6.194   5.589   1.611  1.00  0.00     0.074 A 
ATOM     13  C   UNL     1       5.687   5.636  -0.807  1.00  0.00     0.049 A 
ATOM     14  N   UNL     1       6.777   6.750   1.769  1.00  0.00    -0.248 NA
ATOM     15  C   UNL     1       6.068   4.806   2.852  1.00  0.00     0.031 C 
ATOM     16  C   UNL     1       5.189   5.140  -2.088  1.00  0.00     0.029 A 
ATOM     17  N   UNL     1       6.160   6.890  -1.103  1.00  0.00    -0.354 N 
ATOM     18  C   UNL     1       7.088   6.830   3.121  1.00  0.00     0.074 A 
ATOM     19  C   UNL     1       6.559   5.642   3.752  1.00  0.00     0.031 C 
ATOM     20  C   UNL     1       5.348   6.088  -3.026  1.00  0.00     0.029 A 
ATOM     21  C   UNL     1       5.976   7.254  -2.416  1.00  0.00     0.049 A 
ATOM     22  H   UNL     1       6.590   7.473  -0.437  1.00  0.00     0.167 HD
ATOM     23  C   UNL     1       7.792   7.782   3.776  1.00  0.00     0.031 A 
ATOM     24  C   UNL     1       6.294   8.394  -3.057  1.00  0.00     0.031 A 
ATOM     25  C   UNL     1       8.318   8.961   3.147  1.00  0.00     0.049 A 
ATOM     26  C   UNL     1       7.034   9.464  -2.304  1.00  0.00     0.074 A 
ATOM     27  C   UNL     1       9.087   9.969   3.698  1.00  0.00     0.029 A 
ATOM     28  N   UNL     1       8.116   9.289   1.814  1.00  0.00    -0.354 N 
ATOM     29  N   UNL     1       7.406   9.479  -1.047  1.00  0.00    -0.248 NA
ATOM     30  C   UNL     1       7.434  10.654  -3.067  1.00  0.00     0.031 C 
ATOM     31  C   UNL     1       9.322  10.926   2.704  1.00  0.00     0.029 A 
ATOM     32  C   UNL     1       8.733  10.492   1.526  1.00  0.00     0.049 A 
ATOM     33  H   UNL     1       7.608   8.745   1.169  1.00  0.00     0.167 HD
ATOM     34  C   UNL     1       8.124  10.655  -0.878  1.00  0.00     0.074 A 
ATOM     35  C   UNL     1       8.133  11.326  -2.163  1.00  0.00     0.031 C 
ATOM     36  C   UNL     1       8.732  11.132   0.236  1.00  0.00     0.031 A 
BRANCH  23  37
ATOM     37  C   UNL     1       8.027   7.558   5.243  1.00  0.00    -0.014 A 
ATOM     38  C   UNL     1       8.876   6.529   5.688  1.00  0.00     0.009 A 
ATOM     39  C   UNL     1       7.362   8.346   6.194  1.00  0.00     0.009 A 
ATOM     40  C   UNL     1       9.007   6.256   7.050  1.00  0.00     0.001 A 
ATOM     41  C   UNL     1       7.519   8.089   7.558  1.00  0.00     0.001 A 
ATOM     42  C   UNL     1       8.327   7.035   7.984  1.00  0.00     0.000 A 
ENDBRANCH  23  37
BRANCH  24  43
ATOM     43  C   UNL     1       5.967   8.557  -4.498  1.00  0.00    -0.014 A 
ATOM     44  C   UNL     1       6.977   8.494  -5.471  1.00  0.00     0.009 A 
ATOM     45  C   UNL     1       4.643   8.775  -4.910  1.00  0.00     0.009 A 
ATOM     46  C   UNL     1       6.671   8.673  -6.823  1.00  0.00     0.001 A 
ATOM     47  C   UNL     1       4.338   8.931  -6.264  1.00  0.00     0.001 A 
ATOM     48  C   UNL     1       5.353   8.888  -7.219  1.00  0.00     0.000 A 
ENDBRANCH  24  43
BRANCH  36  49
ATOM     49  C   UNL     1       9.493  12.418   0.100  1.00  0.00    -0.014 A 
ATOM     50  C   UNL     1       8.829  13.649  -0.007  1.00  0.00     0.009 A 
ATOM     51  C   UNL     1      10.896  12.396   0.131  1.00  0.00     0.009 A 
ATOM     52  C   UNL     1       9.559  14.834  -0.106  1.00  0.00     0.001 A 
ATOM     53  C   UNL     1      11.622  13.585   0.059  1.00  0.00     0.001 A 
ATOM     54  C   UNL     1      10.953  14.802  -0.067  1.00  0.00     0.000 A 
ENDBRANCH  36  49
ENDBRANCH  10  11
ENDBRANCH   3   5
ENDBRANCH   2   3
ENDBRANCH   1   2
BRANCH   1  55
ATOM     55  C   UNL     1       3.335  -0.967  -2.222  1.00  0.00     0.275 C 
BRANCH  55  56
ATOM     56  O   UNL     1       3.000   0.424  -2.123  1.00  0.00    -0.456 OA
BRANCH  56  57
ATOM     57  C   UNL     1       1.708   0.709  -1.754  1.00  0.00     0.374 C 
ATOM     58  O   UNL     1       0.864  -0.137  -1.487  1.00  0.00    -0.242 OA
BRANCH  57  59
ATOM     59  C   UNL     1       1.525   2.142  -1.721  1.00  0.00     0.212 A 
ATOM     60  C   UNL     1       2.172   3.151  -2.410  1.00  0.00     0.059 A 
ATOM     61  O   UNL     1       0.577   2.696  -0.889  1.00  0.00    -0.449 OA
ATOM     62  C   UNL     1       1.629   4.371  -1.958  1.00  0.00     0.052 A 
ATOM     63  C   UNL     1       0.661   4.053  -1.026  1.00  0.00     0.135 A 
BRANCH  63  64
ATOM     64  C   UNL     1      -0.258   4.903  -0.262  1.00  0.00     0.025 A 
ATOM     65  C   UNL     1      -1.085   5.751  -1.012  1.00  0.00     0.014 A 
ATOM     66  C   UNL     1      -0.224   5.036   1.158  1.00  0.00    -0.006 A 
ATOM     67  C   UNL     1      -1.837   6.742  -0.393  1.00  0.00     0.022 A 
ATOM     68  C   UNL     1      -0.927   6.099   1.788  1.00  0.00     0.001 A 
ATOM     69  C   UNL     1       0.503   4.161   1.989  1.00  0.00     0.009 A 
ATOM     70  C   UNL     1      -1.743   6.931   0.986  1.00  0.00     0.048 A 
ATOM     71  C   UNL     1      -0.769   6.286   3.186  1.00  0.00     0.010 A 
ATOM     72  C   UNL     1       0.643   4.359   3.364  1.00  0.00     0.001 A 
ATOM     73  Cl  UNL     1      -2.677   8.231   1.653  1.00  0.00    -0.084 Cl
ATOM     74  C   UNL     1       0.024   5.441   3.961  1.00  0.00     0.001 A 
ENDBRANCH  63  64
ENDBRANCH  57  59
ENDBRANCH  56  57
ENDBRANCH  55  56
ENDBRANCH   1  55
TORSDOF 12
