REMARK SMILES Cc1ccc(S(=O)(=O)n2cc(C(=O)C(=O)N[C@@H](Cc3c[nH]c4ccccc34)C(=O)OCCOC(=O)c3ccc(-c4c5nc(c(-c6ccccc6)c6ccc([nH]6)c(-c6ccccc6)c6nc(c(-c7ccccc7)c7ccc4[nH]7)C=C6)C=C5)cc3)c3ccccc32)cc1
REMARK SMILES IDX 30 1 28 2 29 3 17 4 16 5 14 6 15 7 12 9 13 10 11 11 9 12
REMARK SMILES IDX 10 13 89 14 84 15 88 16 85 17 87 18 86 19 6 20 7 21 8 22
REMARK SMILES IDX 5 23 1 24 2 25 3 26 91 27 4 28 90 29 18 30 19 31 20 32 27 33
REMARK SMILES IDX 21 34 22 35 26 36 23 38 25 39 24 40 31 41 32 42 33 43 34 44
REMARK SMILES IDX 35 45 36 46 37 47 83 48 38 49 82 50 39 51 40 52 41 53 76 54
REMARK SMILES IDX 42 55 81 56 75 57 77 58 43 59 80 60 74 61 73 62 44 64 66 65
REMARK SMILES IDX 51 66 65 67 52 68 55 69 64 70 78 71 53 72 54 73 63 75 79 76
REMARK SMILES IDX 56 77 45 78 46 79 50 80 47 81 49 82 48 83 67 84 68 85 72 86
REMARK SMILES IDX 69 87 71 88 70 89 57 90 58 91 62 92 59 93 61 94 60 95
REMARK H PARENT 16 8 21 37 77 63 55 74
REMARK Flexibility Score: inf
ROOT
ATOM      1  O   UNL     1     -11.136   3.788  -2.129  1.00  0.00    -0.461 OA
ENDROOT
BRANCH   1   2
ATOM      2  C   UNL     1     -11.734   3.265  -1.022  1.00  0.00     0.329 C 
ATOM      3  O   UNL     1     -12.941   3.039  -0.948  1.00  0.00    -0.250 OA
BRANCH   2   4
ATOM      4  C   UNL     1     -10.720   2.843   0.055  1.00  0.00     0.197 C 
BRANCH   4   5
ATOM      5  N   UNL     1      -9.384   3.482  -0.117  1.00  0.00    -0.335 N 
ATOM      6  C   UNL     1      -8.097   2.949  -0.185  1.00  0.00     0.293 C 
ATOM      7  O   UNL     1      -7.137   3.692  -0.369  1.00  0.00    -0.265 OA
ATOM      8  H   UNL     1      -9.417   4.463  -0.199  1.00  0.00     0.164 HD
BRANCH   6   9
ATOM      9  C   UNL     1      -7.859   1.445  -0.002  1.00  0.00     0.252 C 
ATOM     10  O   UNL     1      -8.861   0.779   0.269  1.00  0.00    -0.283 OA
BRANCH   9  11
ATOM     11  C   UNL     1      -6.564   0.733   0.001  1.00  0.00     0.054 A 
ATOM     12  N   UNL     1      -4.549  -0.092   0.572  1.00  0.00    -0.240 N 
ATOM     13  C   UNL     1      -5.215   1.081   0.188  1.00  0.00     0.117 A 
ATOM     14  C   UNL     1      -5.504  -1.121   0.637  1.00  0.00     0.065 A 
ATOM     15  C   UNL     1      -6.548  -0.686  -0.158  1.00  0.00     0.012 A 
ATOM     16  C   UNL     1      -5.403  -2.465   1.044  1.00  0.00     0.028 A 
ATOM     17  C   UNL     1      -7.383  -1.644  -0.767  1.00  0.00     0.011 A 
ATOM     18  C   UNL     1      -6.184  -3.403   0.374  1.00  0.00     0.002 A 
ATOM     19  C   UNL     1      -7.126  -3.002  -0.564  1.00  0.00     0.001 A 
BRANCH  12  20
ATOM     20  S   UNL     1      -3.016  -0.738   0.110  1.00  0.00     0.268 S 
ATOM     21  O   UNL     1      -3.286  -1.272  -1.217  1.00  0.00    -0.201 OA
ATOM     22  O   UNL     1      -2.753  -1.628   1.238  1.00  0.00    -0.201 OA
BRANCH  20  23
ATOM     23  C   UNL     1      -1.440  -0.003  -0.051  1.00  0.00     0.088 A 
ATOM     24  C   UNL     1       2.823   0.675  -0.048  1.00  0.00     0.044 C 
ATOM     25  C   UNL     1       1.335   0.492  -0.115  1.00  0.00    -0.051 A 
ATOM     26  C   UNL     1       0.875  -0.800  -0.310  1.00  0.00     0.005 A 
ATOM     27  C   UNL     1       0.397   1.536   0.065  1.00  0.00     0.005 A 
ATOM     28  C   UNL     1      -0.485  -1.029  -0.294  1.00  0.00     0.022 A 
ATOM     29  C   UNL     1      -1.004   1.298   0.104  1.00  0.00     0.022 A 
ENDBRANCH  20  23
ENDBRANCH  12  20
ENDBRANCH   9  11
ENDBRANCH   6   9
ENDBRANCH   4   5
BRANCH   4  30
ATOM     30  C   UNL     1     -11.335   3.010   1.470  1.00  0.00     0.074 C 
BRANCH  30  31
ATOM     31  C   UNL     1     -12.131   4.277   1.602  1.00  0.00    -0.020 A 
ATOM     32  C   UNL     1     -13.499   4.416   1.462  1.00  0.00     0.087 A 
ATOM     33  C   UNL     1     -11.597   5.592   1.640  1.00  0.00     0.003 A 
ATOM     34  N   UNL     1     -13.797   5.740   1.314  1.00  0.00    -0.361 N 
ATOM     35  C   UNL     1     -12.637   6.472   1.346  1.00  0.00     0.046 A 
ATOM     36  C   UNL     1     -10.291   6.091   1.768  1.00  0.00     0.010 A 
ATOM     37  H   UNL     1     -14.702   6.111   1.201  1.00  0.00     0.166 HD
ATOM     38  C   UNL     1     -12.426   7.828   1.097  1.00  0.00     0.026 A 
ATOM     39  C   UNL     1     -10.060   7.442   1.520  1.00  0.00     0.001 A 
ATOM     40  C   UNL     1     -11.109   8.290   1.171  1.00  0.00     0.002 A 
ENDBRANCH  30  31
ENDBRANCH   4  30
ENDBRANCH   2   4
ENDBRANCH   1   2
BRANCH   1  41
ATOM     41  C   UNL     1     -12.031   4.024  -3.218  1.00  0.00     0.274 C 
BRANCH  41  42
ATOM     42  C   UNL     1     -11.430   3.587  -4.557  1.00  0.00     0.275 C 
BRANCH  42  43
ATOM     43  O   UNL     1     -10.639   2.361  -4.670  1.00  0.00    -0.458 OA
BRANCH  43  44
ATOM     44  C   UNL     1     -10.468   1.352  -3.777  1.00  0.00     0.338 C 
ATOM     45  O   UNL     1      -9.367   0.883  -3.535  1.00  0.00    -0.246 OA
BRANCH  44  46
ATOM     46  C   UNL     1     -11.679   0.800  -3.133  1.00  0.00     0.060 A 
ATOM     47  C   UNL     1     -11.581   0.116  -1.904  1.00  0.00     0.016 A 
ATOM     48  C   UNL     1     -12.918   1.081  -3.676  1.00  0.00     0.016 A 
ATOM     49  C   UNL     1     -12.726  -0.118  -1.126  1.00  0.00     0.010 A 
ATOM     50  C   UNL     1     -14.016   0.976  -2.859  1.00  0.00     0.010 A 
ATOM     51  C   UNL     1     -13.946   0.370  -1.585  1.00  0.00    -0.014 A 
BRANCH  51  52
ATOM     52  C   UNL     1     -15.274   0.204  -0.983  1.00  0.00     0.031 A 
ATOM     53  C   UNL     1     -15.785   0.975   0.177  1.00  0.00     0.074 A 
ATOM     54  C   UNL     1     -16.087  -0.520  -1.784  1.00  0.00     0.049 A 
ATOM     55  N   UNL     1     -16.966   1.507   0.217  1.00  0.00    -0.248 NA
ATOM     56  C   UNL     1     -15.015   1.198   1.409  1.00  0.00     0.031 C 
ATOM     57  C   UNL     1     -17.527  -0.656  -1.827  1.00  0.00     0.029 A 
ATOM     58  N   UNL     1     -15.645  -1.444  -2.727  1.00  0.00    -0.354 N 
ATOM     59  C   UNL     1     -17.161   2.039   1.477  1.00  0.00     0.074 A 
ATOM     60  C   UNL     1     -15.889   1.883   2.167  1.00  0.00     0.031 C 
ATOM     61  C   UNL     1     -17.830  -1.784  -2.502  1.00  0.00     0.029 A 
ATOM     62  C   UNL     1     -16.574  -2.472  -2.791  1.00  0.00     0.049 A 
ATOM     63  H   UNL     1     -14.818  -1.379  -3.257  1.00  0.00     0.167 HD
ATOM     64  C   UNL     1     -18.362   1.908   2.107  1.00  0.00     0.031 A 
ATOM     65  C   UNL     1     -16.181  -3.673  -2.268  1.00  0.00     0.031 A 
ATOM     66  C   UNL     1     -19.086   0.761   1.620  1.00  0.00     0.049 A 
ATOM     67  C   UNL     1     -16.958  -3.943  -1.004  1.00  0.00     0.074 A 
ATOM     68  C   UNL     1     -19.974   0.549   0.584  1.00  0.00     0.029 A 
ATOM     69  N   UNL     1     -18.684  -0.477   2.085  1.00  0.00    -0.354 N 
ATOM     70  N   UNL     1     -17.306  -3.029  -0.135  1.00  0.00    -0.248 NA
ATOM     71  C   UNL     1     -17.517  -5.257  -0.715  1.00  0.00     0.031 C 
ATOM     72  C   UNL     1     -20.032  -0.854   0.369  1.00  0.00     0.029 A 
ATOM     73  C   UNL     1     -19.208  -1.473   1.297  1.00  0.00     0.049 A 
ATOM     74  H   UNL     1     -18.105  -0.623   2.868  1.00  0.00     0.167 HD
ATOM     75  C   UNL     1     -18.223  -3.581   0.721  1.00  0.00     0.074 A 
ATOM     76  C   UNL     1     -18.279  -4.985   0.356  1.00  0.00     0.031 C 
ATOM     77  C   UNL     1     -18.960  -2.866   1.617  1.00  0.00     0.031 A 
BRANCH  64  78
ATOM     78  C   UNL     1     -18.995   3.043   2.866  1.00  0.00    -0.014 A 
ATOM     79  C   UNL     1     -20.402   3.092   2.958  1.00  0.00     0.009 A 
ATOM     80  C   UNL     1     -18.289   4.125   3.418  1.00  0.00     0.009 A 
ATOM     81  C   UNL     1     -21.078   4.183   3.518  1.00  0.00     0.001 A 
ATOM     82  C   UNL     1     -18.965   5.215   3.997  1.00  0.00     0.001 A 
ATOM     83  C   UNL     1     -20.357   5.251   4.032  1.00  0.00     0.000 A 
ENDBRANCH  64  78
BRANCH  65  84
ATOM     84  C   UNL     1     -14.712  -3.942  -2.475  1.00  0.00    -0.014 A 
ATOM     85  C   UNL     1     -14.235  -3.973  -3.809  1.00  0.00     0.009 A 
ATOM     86  C   UNL     1     -13.768  -3.777  -1.450  1.00  0.00     0.009 A 
ATOM     87  C   UNL     1     -12.895  -3.703  -4.112  1.00  0.00     0.001 A 
ATOM     88  C   UNL     1     -12.416  -3.540  -1.759  1.00  0.00     0.001 A 
ATOM     89  C   UNL     1     -11.990  -3.461  -3.086  1.00  0.00     0.000 A 
ENDBRANCH  65  84
BRANCH  77  90
ATOM     90  C   UNL     1     -19.617  -3.454   2.838  1.00  0.00    -0.014 A 
ATOM     91  C   UNL     1     -19.271  -4.705   3.364  1.00  0.00     0.009 A 
ATOM     92  C   UNL     1     -20.501  -2.664   3.607  1.00  0.00     0.009 A 
ATOM     93  C   UNL     1     -19.834  -5.178   4.553  1.00  0.00     0.001 A 
ATOM     94  C   UNL     1     -21.017  -3.107   4.826  1.00  0.00     0.001 A 
ATOM     95  C   UNL     1     -20.698  -4.376   5.288  1.00  0.00     0.000 A 
ENDBRANCH  77  90
ENDBRANCH  51  52
ENDBRANCH  44  46
ENDBRANCH  43  44
ENDBRANCH  42  43
ENDBRANCH  41  42
ENDBRANCH   1  41
TORSDOF 18
