REMARK SMILES COc1cc(C)c(S(=O)(=O)Nc2cc(C(=O)OCCOC(=O)c3ccc(-c4c5nc(c(-c6ccccc6)c6ccc([nH]6)c(-c6ccccc6)c6nc(c(-c7ccccc7)c7ccc4[nH]7)C=C6)C=C5)cc3)ccc2F)cc1OC
REMARK SMILES IDX 18 1 17 2 15 3 16 4 14 5 12 6 13 7 73 8 72 9 74 10 71 11
REMARK SMILES IDX 11 12 8 14 9 15 10 16 7 17 3 18 4 19 76 20 5 21 75 22 6 23
REMARK SMILES IDX 2 24 1 25 77 26 78 27 19 28 20 29 21 30 22 31 23 32 24 33
REMARK SMILES IDX 70 34 25 35 69 36 26 37 27 38 28 39 63 40 29 41 68 42 62 43
REMARK SMILES IDX 64 44 30 45 67 46 61 47 60 48 31 50 53 51 38 52 52 53 39 54
REMARK SMILES IDX 42 55 51 56 65 57 40 58 41 59 50 61 66 62 43 63 32 64 33 65
REMARK SMILES IDX 37 66 34 67 36 68 35 69 54 70 55 71 59 72 56 73 58 74 57 75
REMARK SMILES IDX 44 76 45 77 49 78 46 79 48 80 47 81
REMARK H PARENT 11 13 64 49 42 60
REMARK Flexibility Score: inf
ROOT
ATOM      1  C   UNL     1       5.549   0.479   5.178  1.00  0.00     0.275 C 
ENDROOT
BRANCH   1   2
ATOM      2  O   UNL     1       6.129  -0.830   5.292  1.00  0.00    -0.458 OA
BRANCH   2   3
ATOM      3  C   UNL     1       5.505  -1.723   4.505  1.00  0.00     0.338 C 
ATOM      4  O   UNL     1       4.641  -1.481   3.677  1.00  0.00    -0.246 OA
BRANCH   3   5
ATOM      5  C   UNL     1       5.837  -3.127   4.734  1.00  0.00     0.062 A 
ATOM      6  C   UNL     1       4.523  -5.140   4.852  1.00  0.00     0.085 A 
ATOM      7  C   UNL     1       4.783  -3.855   5.315  1.00  0.00     0.045 A 
ATOM      8  C   UNL     1       5.463  -5.756   4.003  1.00  0.00     0.147 A 
ATOM      9  C   UNL     1       6.579  -5.069   3.520  1.00  0.00     0.042 A 
ATOM     10  F   UNL     1       5.192  -6.970   3.494  1.00  0.00    -0.205 F 
ATOM     11  C   UNL     1       6.743  -3.725   3.847  1.00  0.00     0.019 A 
BRANCH   6  12
ATOM     12  N   UNL     1       3.211  -5.714   4.874  1.00  0.00    -0.277 N 
ATOM     13  H   UNL     1       3.114  -6.585   4.425  1.00  0.00     0.180 HD
BRANCH  12  14
ATOM     14  S   UNL     1       1.826  -5.090   5.565  1.00  0.00     0.262 S 
ATOM     15  O   UNL     1       2.147  -4.763   6.942  1.00  0.00    -0.201 OA
ATOM     16  O   UNL     1       0.780  -6.035   5.246  1.00  0.00    -0.201 OA
BRANCH  14  17
ATOM     17  C   UNL     1       1.348  -3.550   4.777  1.00  0.00     0.094 A 
ATOM     18  C   UNL     1       0.835  -0.847   4.150  1.00  0.00     0.161 A 
ATOM     19  C   UNL     1       1.715  -1.631   3.399  1.00  0.00     0.055 A 
ATOM     20  C   UNL     1       0.098  -1.460   5.154  1.00  0.00     0.162 A 
ATOM     21  C   UNL     1       1.919  -3.014   3.624  1.00  0.00    -0.027 A 
ATOM     22  C   UNL     1       0.400  -2.786   5.496  1.00  0.00     0.073 A 
ATOM     23  C   UNL     1       2.767  -3.774   2.649  1.00  0.00     0.046 C 
BRANCH  18  24
ATOM     24  O   UNL     1       0.897   0.521   4.074  1.00  0.00    -0.493 OA
ATOM     25  C   UNL     1       0.241   1.082   2.942  1.00  0.00     0.278 C 
ENDBRANCH  18  24
BRANCH  20  26
ATOM     26  O   UNL     1      -0.846  -0.850   5.937  1.00  0.00    -0.493 OA
ATOM     27  C   UNL     1      -1.701   0.060   5.246  1.00  0.00     0.278 C 
ENDBRANCH  20  26
ENDBRANCH  14  17
ENDBRANCH  12  14
ENDBRANCH   6  12
ENDBRANCH   3   5
ENDBRANCH   2   3
ENDBRANCH   1   2
BRANCH   1  28
ATOM     28  C   UNL     1       6.536   1.532   4.679  1.00  0.00     0.275 C 
BRANCH  28  29
ATOM     29  O   UNL     1       7.310   1.323   3.461  1.00  0.00    -0.458 OA
BRANCH  29  30
ATOM     30  C   UNL     1       7.205   0.300   2.571  1.00  0.00     0.338 C 
ATOM     31  O   UNL     1       8.131  -0.424   2.311  1.00  0.00    -0.246 OA
BRANCH  30  32
ATOM     32  C   UNL     1       5.927   0.213   1.801  1.00  0.00     0.060 A 
ATOM     33  C   UNL     1       5.693  -0.889   0.945  1.00  0.00     0.016 A 
ATOM     34  C   UNL     1       4.934   1.155   1.978  1.00  0.00     0.016 A 
ATOM     35  C   UNL     1       4.441  -1.087   0.324  1.00  0.00     0.010 A 
ATOM     36  C   UNL     1       3.687   0.910   1.440  1.00  0.00     0.010 A 
ATOM     37  C   UNL     1       3.413  -0.187   0.577  1.00  0.00    -0.014 A 
BRANCH  37  38
ATOM     38  C   UNL     1       2.078  -0.127  -0.070  1.00  0.00     0.031 A 
ATOM     39  C   UNL     1       0.878  -0.964   0.237  1.00  0.00     0.074 A 
ATOM     40  C   UNL     1       1.898   1.088  -0.642  1.00  0.00     0.049 A 
ATOM     41  N   UNL     1      -0.285  -0.428   0.397  1.00  0.00    -0.248 NA
ATOM     42  C   UNL     1       0.804  -2.419   0.414  1.00  0.00     0.031 C 
ATOM     43  C   UNL     1       0.704   1.889  -0.866  1.00  0.00     0.029 A 
ATOM     44  N   UNL     1       2.900   1.812  -1.290  1.00  0.00    -0.354 N 
ATOM     45  C   UNL     1      -1.183  -1.385   0.786  1.00  0.00     0.074 A 
ATOM     46  C   UNL     1      -0.440  -2.610   0.902  1.00  0.00     0.031 C 
ATOM     47  C   UNL     1       0.967   2.787  -1.833  1.00  0.00     0.029 A 
ATOM     48  C   UNL     1       2.274   2.439  -2.372  1.00  0.00     0.049 A 
ATOM     49  H   UNL     1       3.850   1.870  -1.037  1.00  0.00     0.167 HD
ATOM     50  C   UNL     1      -2.501  -1.061   0.795  1.00  0.00     0.031 A 
ATOM     51  C   UNL     1       2.485   1.882  -3.606  1.00  0.00     0.031 A 
ATOM     52  C   UNL     1      -2.746  -0.099  -0.262  1.00  0.00     0.049 A 
ATOM     53  C   UNL     1       1.213   1.292  -4.182  1.00  0.00     0.074 A 
ATOM     54  C   UNL     1      -2.989   1.257  -0.350  1.00  0.00     0.029 A 
ATOM     55  N   UNL     1      -2.460  -0.541  -1.544  1.00  0.00    -0.354 N 
ATOM     56  N   UNL     1       0.199   0.878  -3.467  1.00  0.00    -0.248 NA
ATOM     57  C   UNL     1       0.958   1.185  -5.613  1.00  0.00     0.031 C 
ATOM     58  C   UNL     1      -2.722   1.644  -1.700  1.00  0.00     0.029 A 
ATOM     59  C   UNL     1      -2.363   0.512  -2.417  1.00  0.00     0.049 A 
ATOM     60  H   UNL     1      -2.341  -1.486  -1.794  1.00  0.00     0.167 HD
ATOM     61  C   UNL     1      -0.849   0.568  -4.289  1.00  0.00     0.074 A 
ATOM     62  C   UNL     1      -0.311   0.737  -5.627  1.00  0.00     0.031 C 
ATOM     63  C   UNL     1      -2.079   0.218  -3.814  1.00  0.00     0.031 A 
BRANCH  50  64
ATOM     64  C   UNL     1      -3.523  -1.484   1.807  1.00  0.00    -0.014 A 
ATOM     65  C   UNL     1      -4.770  -0.820   1.813  1.00  0.00     0.009 A 
ATOM     66  C   UNL     1      -3.259  -2.335   2.892  1.00  0.00     0.009 A 
ATOM     67  C   UNL     1      -5.677  -0.943   2.873  1.00  0.00     0.001 A 
ATOM     68  C   UNL     1      -4.175  -2.473   3.950  1.00  0.00     0.001 A 
ATOM     69  C   UNL     1      -5.373  -1.763   3.950  1.00  0.00     0.000 A 
ENDBRANCH  50  64
BRANCH  51  70
ATOM     70  C   UNL     1       3.876   1.312  -3.722  1.00  0.00    -0.014 A 
ATOM     71  C   UNL     1       4.960   2.206  -3.536  1.00  0.00     0.009 A 
ATOM     72  C   UNL     1       4.127  -0.060  -3.555  1.00  0.00     0.009 A 
ATOM     73  C   UNL     1       6.203   1.760  -3.070  1.00  0.00     0.001 A 
ATOM     74  C   UNL     1       5.387  -0.505  -3.116  1.00  0.00     0.001 A 
ATOM     75  C   UNL     1       6.409   0.405  -2.838  1.00  0.00     0.000 A 
ENDBRANCH  51  70
BRANCH  63  76
ATOM     76  C   UNL     1      -3.159  -0.496  -4.594  1.00  0.00    -0.014 A 
ATOM     77  C   UNL     1      -2.921  -1.219  -5.768  1.00  0.00     0.009 A 
ATOM     78  C   UNL     1      -4.442  -0.637  -4.011  1.00  0.00     0.009 A 
ATOM     79  C   UNL     1      -3.915  -2.024  -6.339  1.00  0.00     0.001 A 
ATOM     80  C   UNL     1      -5.415  -1.483  -4.545  1.00  0.00     0.001 A 
ATOM     81  C   UNL     1      -5.152  -2.172  -5.718  1.00  0.00     0.000 A 
ENDBRANCH  63  76
ENDBRANCH  37  38
ENDBRANCH  30  32
ENDBRANCH  29  30
ENDBRANCH  28  29
ENDBRANCH   1  28
TORSDOF 16
