REMARK SMILES Cc1cccc(O[C@H](C)C(=O)NNC(=O)[C@H]2[C@@H]3CC[C@@H](C3)[C@@H]2C(=O)OCCOC(=O)c2ccc(-c3c4nc(c(-c5ccccc5)c5ccc([nH]5)c(-c5ccccc5)c5nc(c(-c6ccccc6)c6ccc3[nH]6)C=C5)C=C4)cc2)c1
REMARK SMILES IDX 25 1 23 2 24 3 22 4 16 5 17 6 18 7 21 8 20 9 19 10 14 11
REMARK SMILES IDX 13 12 15 14 12 15 10 16 11 17 8 19 9 20 7 21 6 22 1 23 2 24
REMARK SMILES IDX 3 25 79 26 4 27 5 28 26 29 27 30 28 31 29 32 30 33 31 34
REMARK SMILES IDX 32 35 78 36 33 37 77 38 34 39 35 40 36 41 71 42 37 43 76 44
REMARK SMILES IDX 70 45 72 46 38 47 75 48 69 49 68 50 39 52 61 53 46 54 60 55
REMARK SMILES IDX 47 56 50 57 59 58 73 59 48 60 49 61 58 63 74 64 51 65 40 66
REMARK SMILES IDX 41 67 45 68 42 69 44 70 43 71 62 72 63 73 67 74 64 75 66 76
REMARK SMILES IDX 65 77 52 78 53 79 57 80 54 81 56 82 55 83
REMARK H PARENT 13 13 12 18 72 51 50 62
REMARK Flexibility Score: inf
ROOT
ATOM      1  O   UNL     1       3.108   3.817  -1.564  1.00  0.00    -0.462 OA
ENDROOT
BRANCH   1   2
ATOM      2  C   UNL     1       2.585   3.869  -2.830  1.00  0.00     0.310 C 
ATOM      3  O   UNL     1       2.574   4.878  -3.523  1.00  0.00    -0.252 OA
BRANCH   2   4
ATOM      4  C   UNL     1       1.782   2.646  -3.201  1.00  0.00     0.115 C 
ATOM      5  C   UNL     1       2.137   1.301  -2.580  1.00  0.00     0.098 C 
ATOM      6  C   UNL     1       1.637   0.286  -3.647  1.00  0.00     0.003 C 
ATOM      7  C   UNL     1       2.782   0.117  -4.657  1.00  0.00     0.005 C 
ATOM      8  C   UNL     1       0.652   1.089  -4.512  1.00  0.00     0.009 C 
ATOM      9  C   UNL     1       1.624   2.263  -4.696  1.00  0.00     0.004 C 
ATOM     10  C   UNL     1       2.833   1.515  -5.309  1.00  0.00     0.005 C 
BRANCH   5  11
ATOM     11  C   UNL     1       1.715   0.975  -1.164  1.00  0.00     0.242 C 
ATOM     12  N   UNL     1       0.873   1.802  -0.480  1.00  0.00    -0.267 N 
ATOM     13  H   UNL     1       1.157   2.160   0.392  1.00  0.00     0.191 HD
ATOM     14  O   UNL     1       2.202  -0.002  -0.590  1.00  0.00    -0.273 OA
BRANCH  12  15
ATOM     15  N   UNL     1      -0.395   2.161  -0.990  1.00  0.00    -0.264 N 
ATOM     16  C   UNL     1      -0.899   3.402  -0.685  1.00  0.00     0.279 C 
ATOM     17  O   UNL     1      -0.993   4.245  -1.582  1.00  0.00    -0.269 OA
ATOM     18  H   UNL     1      -0.906   1.535  -1.552  1.00  0.00     0.191 HD
BRANCH  16  19
ATOM     19  C   UNL     1      -1.609   3.597   0.680  1.00  0.00     0.260 C 
ATOM     20  C   UNL     1      -3.028   3.021   0.607  1.00  0.00     0.064 C 
BRANCH  19  21
ATOM     21  O   UNL     1      -1.004   3.447   1.948  1.00  0.00    -0.481 OA
BRANCH  21  22
ATOM     22  C   UNL     1      -0.439   2.295   2.390  1.00  0.00     0.120 A 
ATOM     23  C   UNL     1       2.403   1.625   4.849  1.00  0.00     0.044 C 
ATOM     24  C   UNL     1       1.315   1.411   3.839  1.00  0.00    -0.047 A 
ATOM     25  C   UNL     1       1.026   0.122   3.386  1.00  0.00     0.003 A 
ATOM     26  C   UNL     1       0.571   2.487   3.340  1.00  0.00     0.049 A 
ATOM     27  C   UNL     1      -0.001  -0.084   2.467  1.00  0.00     0.004 A 
ATOM     28  C   UNL     1      -0.746   0.998   1.985  1.00  0.00     0.046 A 
ENDBRANCH  21  22
ENDBRANCH  19  21
ENDBRANCH  16  19
ENDBRANCH  12  15
ENDBRANCH   5  11
ENDBRANCH   2   4
ENDBRANCH   1   2
BRANCH   1  29
ATOM     29  C   UNL     1       3.551   5.100  -1.088  1.00  0.00     0.274 C 
BRANCH  29  30
ATOM     30  C   UNL     1       4.353   5.111   0.229  1.00  0.00     0.275 C 
BRANCH  30  31
ATOM     31  O   UNL     1       4.611   3.847   0.879  1.00  0.00    -0.458 OA
BRANCH  31  32
ATOM     32  C   UNL     1       5.668   3.034   0.582  1.00  0.00     0.338 C 
ATOM     33  O   UNL     1       6.095   2.174   1.317  1.00  0.00    -0.246 OA
BRANCH  32  34
ATOM     34  C   UNL     1       6.134   3.157  -0.804  1.00  0.00     0.060 A 
ATOM     35  C   UNL     1       5.653   2.229  -1.727  1.00  0.00     0.016 A 
ATOM     36  C   UNL     1       6.867   4.271  -1.197  1.00  0.00     0.016 A 
ATOM     37  C   UNL     1       5.769   2.508  -3.084  1.00  0.00     0.010 A 
ATOM     38  C   UNL     1       6.922   4.578  -2.542  1.00  0.00     0.010 A 
ATOM     39  C   UNL     1       6.345   3.717  -3.488  1.00  0.00    -0.014 A 
BRANCH  39  40
ATOM     40  C   UNL     1       6.689   3.994  -4.877  1.00  0.00     0.031 A 
ATOM     41  C   UNL     1       5.761   4.535  -5.891  1.00  0.00     0.074 A 
ATOM     42  C   UNL     1       7.965   3.688  -5.184  1.00  0.00     0.049 A 
ATOM     43  N   UNL     1       5.806   4.235  -7.149  1.00  0.00    -0.248 NA
ATOM     44  C   UNL     1       4.671   5.446  -5.564  1.00  0.00     0.031 C 
ATOM     45  C   UNL     1       8.711   3.972  -6.394  1.00  0.00     0.029 A 
ATOM     46  N   UNL     1       8.773   2.792  -4.476  1.00  0.00    -0.354 N 
ATOM     47  C   UNL     1       4.978   5.126  -7.804  1.00  0.00     0.074 A 
ATOM     48  C   UNL     1       4.176   5.738  -6.774  1.00  0.00     0.031 C 
ATOM     49  C   UNL     1       9.686   3.048  -6.495  1.00  0.00     0.029 A 
ATOM     50  C   UNL     1       9.452   2.059  -5.445  1.00  0.00     0.049 A 
ATOM     51  H   UNL     1       8.846   2.700  -3.499  1.00  0.00     0.167 HD
ATOM     52  C   UNL     1       5.187   5.431  -9.116  1.00  0.00     0.031 A 
ATOM     53  C   UNL     1       9.211   0.726  -5.627  1.00  0.00     0.031 A 
ATOM     54  C   UNL     1       6.332   4.714  -9.656  1.00  0.00     0.049 A 
ATOM     55  C   UNL     1       8.789   0.406  -7.043  1.00  0.00     0.074 A 
ATOM     56  C   UNL     1       7.660   5.065  -9.834  1.00  0.00     0.029 A 
ATOM     57  N   UNL     1       6.267   3.340  -9.784  1.00  0.00    -0.354 N 
ATOM     58  N   UNL     1       8.319   1.285  -7.883  1.00  0.00    -0.248 NA
ATOM     59  C   UNL     1       8.768  -0.950  -7.585  1.00  0.00     0.031 C 
ATOM     60  C   UNL     1       8.405   3.875 -10.044  1.00  0.00     0.029 A 
ATOM     61  C   UNL     1       7.522   2.812 -10.016  1.00  0.00     0.049 A 
ATOM     62  H   UNL     1       5.440   2.810  -9.720  1.00  0.00     0.167 HD
ATOM     63  C   UNL     1       8.040   0.673  -9.073  1.00  0.00     0.074 A 
ATOM     64  C   UNL     1       8.267  -0.737  -8.814  1.00  0.00     0.031 C 
ATOM     65  C   UNL     1       7.657   1.377 -10.177  1.00  0.00     0.031 A 
BRANCH  52  66
ATOM     66  C   UNL     1       4.564   6.624  -9.800  1.00  0.00    -0.014 A 
ATOM     67  C   UNL     1       5.323   7.368 -10.725  1.00  0.00     0.009 A 
ATOM     68  C   UNL     1       3.256   7.078  -9.562  1.00  0.00     0.009 A 
ATOM     69  C   UNL     1       4.846   8.550 -11.305  1.00  0.00     0.001 A 
ATOM     70  C   UNL     1       2.779   8.275 -10.123  1.00  0.00     0.001 A 
ATOM     71  C   UNL     1       3.580   9.018 -10.984  1.00  0.00     0.000 A 
ENDBRANCH  52  66
BRANCH  53  72
ATOM     72  C   UNL     1       8.711  -0.034  -4.434  1.00  0.00    -0.014 A 
ATOM     73  C   UNL     1       9.437   0.017  -3.224  1.00  0.00     0.009 A 
ATOM     74  C   UNL     1       7.423  -0.588  -4.401  1.00  0.00     0.009 A 
ATOM     75  C   UNL     1       8.860  -0.387  -2.014  1.00  0.00     0.001 A 
ATOM     76  C   UNL     1       6.859  -1.022  -3.192  1.00  0.00     0.001 A 
ATOM     77  C   UNL     1       7.566  -0.896  -1.998  1.00  0.00     0.000 A 
ENDBRANCH  53  72
BRANCH  65  78
ATOM     78  C   UNL     1       7.378   0.788 -11.531  1.00  0.00    -0.014 A 
ATOM     79  C   UNL     1       8.005  -0.362 -12.023  1.00  0.00     0.009 A 
ATOM     80  C   UNL     1       6.520   1.474 -12.419  1.00  0.00     0.009 A 
ATOM     81  C   UNL     1       7.715  -0.856 -13.301  1.00  0.00     0.001 A 
ATOM     82  C   UNL     1       6.249   1.003 -13.704  1.00  0.00     0.001 A 
ATOM     83  C   UNL     1       6.833  -0.177 -14.137  1.00  0.00     0.000 A 
ENDBRANCH  65  78
ENDBRANCH  39  40
ENDBRANCH  32  34
ENDBRANCH  31  32
ENDBRANCH  30  31
ENDBRANCH  29  30
ENDBRANCH   1  29
TORSDOF 16
