REMARK SMILES O=C(OCCOC(=O)C1CC2(CCCC2)C1)c1ccc(-c2c3nc(c(-c4ccccc4)c4ccc([nH]4)c(-c4ccccc4)c4nc(c(-c5ccccc5)c5ccc2[nH]5)C=C4)C=C3)cc1
REMARK SMILES IDX 4 1 3 2 2 3 1 4 17 5 18 6 64 7 19 8 63 9 20 10 21 11 22 12
REMARK SMILES IDX 57 13 23 14 62 15 56 16 58 17 24 18 61 19 55 20 54 21 25 23
REMARK SMILES IDX 47 24 32 25 46 26 33 27 36 28 45 29 59 30 34 31 35 32 44 34
REMARK SMILES IDX 60 35 37 36 26 37 27 38 31 39 28 40 30 41 29 42 48 43 49 44
REMARK SMILES IDX 53 45 50 46 52 47 51 48 38 49 39 50 43 51 40 52 42 53 41 54
REMARK SMILES IDX 5 55 6 56 7 57 8 58 9 59 10 60 16 61 11 62 12 63 15 64 13 65
REMARK SMILES IDX 14 66
REMARK H PARENT 58 22 36 33
REMARK Flexibility Score: inf
ROOT
ATOM      1  C   UNL     1       4.411  -0.224   1.557  1.00  0.00     0.275 C 
ENDROOT
BRANCH   1   2
ATOM      2  O   UNL     1       3.353   0.715   1.289  1.00  0.00    -0.458 OA
BRANCH   2   3
ATOM      3  C   UNL     1       3.054   1.445   0.190  1.00  0.00     0.338 C 
ATOM      4  O   UNL     1       2.107   2.228   0.259  1.00  0.00    -0.246 OA
BRANCH   3   5
ATOM      5  C   UNL     1       3.739   1.325  -1.143  1.00  0.00     0.060 A 
ATOM      6  C   UNL     1       5.009   0.795  -1.388  1.00  0.00     0.016 A 
ATOM      7  C   UNL     1       3.013   1.802  -2.255  1.00  0.00     0.016 A 
ATOM      8  C   UNL     1       5.531   0.713  -2.687  1.00  0.00     0.010 A 
ATOM      9  C   UNL     1       3.522   1.714  -3.556  1.00  0.00     0.010 A 
ATOM     10  C   UNL     1       4.799   1.184  -3.776  1.00  0.00    -0.014 A 
BRANCH  10  11
ATOM     11  C   UNL     1       5.441   1.318  -5.104  1.00  0.00     0.031 A 
ATOM     12  C   UNL     1       5.957   2.669  -5.495  1.00  0.00     0.074 A 
ATOM     13  C   UNL     1       5.583   0.273  -5.940  1.00  0.00     0.049 A 
ATOM     14  N   UNL     1       6.595   3.022  -6.579  1.00  0.00    -0.248 NA
ATOM     15  C   UNL     1       5.771   3.755  -4.517  1.00  0.00     0.031 C 
ATOM     16  C   UNL     1       5.250  -1.109  -5.627  1.00  0.00     0.029 A 
ATOM     17  N   UNL     1       6.023   0.212  -7.237  1.00  0.00    -0.354 N 
ATOM     18  C   UNL     1       6.931   4.353  -6.390  1.00  0.00     0.074 A 
ATOM     19  C   UNL     1       6.359   4.769  -5.129  1.00  0.00     0.031 C 
ATOM     20  C   UNL     1       5.367  -1.865  -6.729  1.00  0.00     0.029 A 
ATOM     21  C   UNL     1       5.851  -1.024  -7.815  1.00  0.00     0.049 A 
ATOM     22  H   UNL     1       6.423   0.979  -7.709  1.00  0.00     0.167 HD
ATOM     23  C   UNL     1       7.684   5.147  -7.183  1.00  0.00     0.031 A 
ATOM     24  C   UNL     1       6.076  -1.439  -9.075  1.00  0.00     0.031 A 
ATOM     25  C   UNL     1       8.193   4.737  -8.462  1.00  0.00     0.049 A 
ATOM     26  C   UNL     1       6.765  -0.492 -10.013  1.00  0.00     0.074 A 
ATOM     27  C   UNL     1       8.959   5.456  -9.359  1.00  0.00     0.029 A 
ATOM     28  N   UNL     1       7.954   3.496  -9.037  1.00  0.00    -0.354 N 
ATOM     29  N   UNL     1       7.152   0.742  -9.793  1.00  0.00    -0.248 NA
ATOM     30  C   UNL     1       7.115  -1.009 -11.341  1.00  0.00     0.031 C 
ATOM     31  C   UNL     1       9.126   4.673 -10.507  1.00  0.00     0.029 A 
ATOM     32  C   UNL     1       8.519   3.443 -10.298  1.00  0.00     0.049 A 
ATOM     33  H   UNL     1       7.457   2.761  -8.609  1.00  0.00     0.167 HD
ATOM     34  C   UNL     1       7.840   1.132 -10.930  1.00  0.00     0.074 A 
ATOM     35  C   UNL     1       7.811   0.003 -11.841  1.00  0.00     0.031 C 
ATOM     36  C   UNL     1       8.461   2.310 -11.189  1.00  0.00     0.031 A 
BRANCH  23  37
ATOM     37  C   UNL     1       7.944   6.538  -6.681  1.00  0.00    -0.014 A 
ATOM     38  C   UNL     1       8.771   6.765  -5.568  1.00  0.00     0.009 A 
ATOM     39  C   UNL     1       7.306   7.628  -7.288  1.00  0.00     0.009 A 
ATOM     40  C   UNL     1       8.909   8.051  -5.040  1.00  0.00     0.001 A 
ATOM     41  C   UNL     1       7.469   8.916  -6.776  1.00  0.00     0.001 A 
ATOM     42  C   UNL     1       8.257   9.124  -5.644  1.00  0.00     0.000 A 
ENDBRANCH  23  37
BRANCH  24  43
ATOM     43  C   UNL     1       5.697  -2.816  -9.487  1.00  0.00    -0.014 A 
ATOM     44  C   UNL     1       6.668  -3.804  -9.705  1.00  0.00     0.009 A 
ATOM     45  C   UNL     1       4.342  -3.154  -9.649  1.00  0.00     0.009 A 
ATOM     46  C   UNL     1       6.294  -5.092 -10.101  1.00  0.00     0.001 A 
ATOM     47  C   UNL     1       3.970  -4.448 -10.025  1.00  0.00     0.001 A 
ATOM     48  C   UNL     1       4.947  -5.414 -10.258  1.00  0.00     0.000 A 
ENDBRANCH  24  43
BRANCH  36  49
ATOM     49  C   UNL     1       9.177   2.426 -12.503  1.00  0.00    -0.014 A 
ATOM     50  C   UNL     1       8.470   2.533 -13.709  1.00  0.00     0.009 A 
ATOM     51  C   UNL     1      10.579   2.482 -12.523  1.00  0.00     0.009 A 
ATOM     52  C   UNL     1       9.157   2.667 -14.916  1.00  0.00     0.001 A 
ATOM     53  C   UNL     1      11.261   2.649 -13.727  1.00  0.00     0.001 A 
ATOM     54  C   UNL     1      10.550   2.732 -14.923  1.00  0.00     0.000 A 
ENDBRANCH  36  49
ENDBRANCH  10  11
ENDBRANCH   3   5
ENDBRANCH   2   3
ENDBRANCH   1   2
BRANCH   1  55
ATOM     55  C   UNL     1       4.127  -1.636   1.049  1.00  0.00     0.274 C 
BRANCH  55  56
ATOM     56  O   UNL     1       3.701  -1.632  -0.318  1.00  0.00    -0.462 OA
BRANCH  56  57
ATOM     57  C   UNL     1       2.355  -1.740  -0.558  1.00  0.00     0.309 C 
ATOM     58  O   UNL     1       1.525  -1.919   0.330  1.00  0.00    -0.252 OA
BRANCH  57  59
ATOM     59  C   UNL     1       2.044  -1.596  -2.074  1.00  0.00     0.100 C 
ATOM     60  C   UNL     1       3.098  -2.144  -3.064  1.00  0.00     0.022 C 
ATOM     61  C   UNL     1       1.065  -2.588  -2.759  1.00  0.00     0.022 C 
ATOM     62  C   UNL     1       2.308  -3.478  -3.076  1.00  0.00    -0.028 C 
ATOM     63  C   UNL     1       2.366  -4.223  -4.408  1.00  0.00     0.007 C 
ATOM     64  C   UNL     1       2.617  -4.503  -1.970  1.00  0.00     0.007 C 
ATOM     65  C   UNL     1       2.147  -5.676  -4.009  1.00  0.00     0.001 C 
ATOM     66  C   UNL     1       2.928  -5.796  -2.711  1.00  0.00     0.001 C 
ENDBRANCH  57  59
ENDBRANCH  56  57
ENDBRANCH  55  56
ENDBRANCH   1  55
TORSDOF 11
