REMARK SMILES CC(C)c1cc(=O)[nH]c(SCC(=O)OCCOC(=O)c2ccc(-c3c4nc(c(-c5ccccc5)c5ccc([nH]5)c(-c5ccccc5)c5nc(c(-c6ccccc6)c6ccc3[nH]6)C=C5)C=C4)cc2)n1
REMARK SMILES IDX 15 1 14 2 12 3 13 4 11 5 10 6 9 7 4 8 5 9 68 10 6 11 7 12
REMARK SMILES IDX 8 13 2 15 1 16 3 17 16 18 17 19 18 20 19 21 20 22 21 23
REMARK SMILES IDX 67 24 22 25 66 26 23 27 24 28 25 29 60 30 26 31 65 32 59 33
REMARK SMILES IDX 61 34 27 35 64 36 58 37 57 38 28 40 50 41 35 42 49 43 36 44
REMARK SMILES IDX 39 45 48 46 62 47 37 48 38 49 47 51 63 52 40 53 29 54 30 55
REMARK SMILES IDX 34 56 31 57 33 58 32 59 51 60 52 61 56 62 53 63 55 64 54 65
REMARK SMILES IDX 41 66 42 67 46 68 43 69 45 70 44 71
REMARK H PARENT 8 14 61 39 39 50
REMARK Flexibility Score: inf
ROOT
ATOM      1  C   UNL     1      -1.762  -5.444  -3.348  1.00  0.00     0.274 C 
ENDROOT
BRANCH   1   2
ATOM      2  O   UNL     1      -2.522  -4.803  -2.302  1.00  0.00    -0.461 OA
BRANCH   2   3
ATOM      3  C   UNL     1      -2.516  -5.428  -1.097  1.00  0.00     0.316 C 
ATOM      4  O   UNL     1      -1.906  -6.471  -0.871  1.00  0.00    -0.251 OA
BRANCH   3   5
ATOM      5  C   UNL     1      -3.278  -4.726   0.004  1.00  0.00     0.200 C 
BRANCH   5   6
ATOM      6  S   UNL     1      -4.502  -3.516  -0.523  1.00  0.00    -0.076 SA
BRANCH   6   7
ATOM      7  C   UNL     1      -3.712  -2.008  -0.178  1.00  0.00     0.168 A 
ATOM      8  C   UNL     1      -1.985  -0.564   0.196  1.00  0.00     0.051 A 
ATOM      9  C   UNL     1      -2.801   0.499   0.259  1.00  0.00     0.095 A 
ATOM     10  N   UNL     1      -2.446  -1.861   0.019  1.00  0.00    -0.229 NA
ATOM     11  C   UNL     1      -4.245   0.286   0.112  1.00  0.00     0.251 A 
ATOM     12  O   UNL     1      -5.041   1.212   0.203  1.00  0.00    -0.269 OA
ATOM     13  N   UNL     1      -4.614  -0.995  -0.141  1.00  0.00    -0.301 N 
ATOM     14  H   UNL     1      -5.564  -1.195  -0.302  1.00  0.00     0.172 HD
BRANCH   8  15
ATOM     15  C   UNL     1      -0.470  -0.403   0.247  1.00  0.00     0.032 C 
ATOM     16  C   UNL     1       0.095   0.902  -0.322  1.00  0.00     0.014 C 
ATOM     17  C   UNL     1       0.049  -0.626   1.656  1.00  0.00     0.014 C 
ENDBRANCH   8  15
ENDBRANCH   6   7
ENDBRANCH   5   6
ENDBRANCH   3   5
ENDBRANCH   2   3
ENDBRANCH   1   2
BRANCH   1  18
ATOM     18  C   UNL     1      -0.361  -4.847  -3.491  1.00  0.00     0.275 C 
BRANCH  18  19
ATOM     19  O   UNL     1       0.389  -4.969  -2.263  1.00  0.00    -0.458 OA
BRANCH  19  20
ATOM     20  C   UNL     1       0.358  -3.844  -1.515  1.00  0.00     0.338 C 
ATOM     21  O   UNL     1      -0.183  -2.798  -1.839  1.00  0.00    -0.246 OA
BRANCH  20  22
ATOM     22  C   UNL     1       1.095  -3.986  -0.245  1.00  0.00     0.060 A 
ATOM     23  C   UNL     1       0.512  -4.614   0.859  1.00  0.00     0.016 A 
ATOM     24  C   UNL     1       2.316  -3.322  -0.102  1.00  0.00     0.016 A 
ATOM     25  C   UNL     1       1.137  -4.558   2.111  1.00  0.00     0.010 A 
ATOM     26  C   UNL     1       2.956  -3.294   1.144  1.00  0.00     0.010 A 
ATOM     27  C   UNL     1       2.366  -3.901   2.265  1.00  0.00    -0.014 A 
BRANCH  27  28
ATOM     28  C   UNL     1       3.087  -3.930   3.564  1.00  0.00     0.031 A 
ATOM     29  C   UNL     1       3.119  -2.746   4.487  1.00  0.00     0.074 A 
ATOM     30  C   UNL     1       3.748  -5.047   3.909  1.00  0.00     0.049 A 
ATOM     31  N   UNL     1       3.900  -2.491   5.506  1.00  0.00    -0.248 NA
ATOM     32  C   UNL     1       2.132  -1.702   4.222  1.00  0.00     0.031 C 
ATOM     33  C   UNL     1       3.746  -6.296   3.150  1.00  0.00     0.029 A 
ATOM     34  N   UNL     1       4.550  -5.303   4.989  1.00  0.00    -0.354 N 
ATOM     35  C   UNL     1       3.539  -1.222   5.952  1.00  0.00     0.074 A 
ATOM     36  C   UNL     1       2.470  -0.762   5.093  1.00  0.00     0.031 C 
ATOM     37  C   UNL     1       4.514  -7.191   3.789  1.00  0.00     0.029 A 
ATOM     38  C   UNL     1       5.102  -6.557   4.964  1.00  0.00     0.049 A 
ATOM     39  H   UNL     1       4.714  -4.652   5.709  1.00  0.00     0.167 HD
ATOM     40  C   UNL     1       4.041  -0.515   6.994  1.00  0.00     0.031 A 
ATOM     41  C   UNL     1       6.011  -7.120   5.779  1.00  0.00     0.031 A 
ATOM     42  C   UNL     1       5.028  -1.026   7.908  1.00  0.00     0.049 A 
ATOM     43  C   UNL     1       6.562  -6.328   6.927  1.00  0.00     0.074 A 
ATOM     44  C   UNL     1       5.590  -0.410   9.013  1.00  0.00     0.029 A 
ATOM     45  N   UNL     1       5.566  -2.301   7.844  1.00  0.00    -0.354 N 
ATOM     46  N   UNL     1       6.296  -5.093   7.279  1.00  0.00    -0.248 NA
ATOM     47  C   UNL     1       7.539  -7.008   7.787  1.00  0.00     0.031 C 
ATOM     48  C   UNL     1       6.477  -1.312   9.612  1.00  0.00     0.029 A 
ATOM     49  C   UNL     1       6.443  -2.498   8.896  1.00  0.00     0.049 A 
ATOM     50  H   UNL     1       5.356  -2.969   7.152  1.00  0.00     0.167 HD
ATOM     51  C   UNL     1       7.062  -4.851   8.411  1.00  0.00     0.074 A 
ATOM     52  C   UNL     1       7.791  -6.072   8.692  1.00  0.00     0.031 C 
ATOM     53  C   UNL     1       7.155  -3.721   9.152  1.00  0.00     0.031 A 
BRANCH  40  54
ATOM     54  C   UNL     1       3.546   0.892   7.196  1.00  0.00    -0.014 A 
ATOM     55  C   UNL     1       2.266   1.160   7.704  1.00  0.00     0.009 A 
ATOM     56  C   UNL     1       4.402   1.971   6.915  1.00  0.00     0.009 A 
ATOM     57  C   UNL     1       1.841   2.479   7.894  1.00  0.00     0.001 A 
ATOM     58  C   UNL     1       3.985   3.286   7.131  1.00  0.00     0.001 A 
ATOM     59  C   UNL     1       2.702   3.540   7.611  1.00  0.00     0.000 A 
ENDBRANCH  40  54
BRANCH  41  60
ATOM     60  C   UNL     1       6.459  -8.506   5.507  1.00  0.00    -0.014 A 
ATOM     61  C   UNL     1       6.004  -9.567   6.302  1.00  0.00     0.009 A 
ATOM     62  C   UNL     1       7.294  -8.779   4.412  1.00  0.00     0.009 A 
ATOM     63  C   UNL     1       6.382 -10.878   6.008  1.00  0.00     0.001 A 
ATOM     64  C   UNL     1       7.650 -10.093   4.106  1.00  0.00     0.001 A 
ATOM     65  C   UNL     1       7.197 -11.140   4.906  1.00  0.00     0.000 A 
ENDBRANCH  41  60
BRANCH  53  66
ATOM     66  C   UNL     1       8.053  -3.771  10.352  1.00  0.00    -0.014 A 
ATOM     67  C   UNL     1       9.446  -3.679  10.215  1.00  0.00     0.009 A 
ATOM     68  C   UNL     1       7.495  -3.889  11.634  1.00  0.00     0.009 A 
ATOM     69  C   UNL     1      10.267  -3.735  11.341  1.00  0.00     0.001 A 
ATOM     70  C   UNL     1       8.318  -3.925  12.759  1.00  0.00     0.001 A 
ATOM     71  C   UNL     1       9.703  -3.857  12.612  1.00  0.00     0.000 A 
ENDBRANCH  53  66
ENDBRANCH  27  28
ENDBRANCH  20  22
ENDBRANCH  19  20
ENDBRANCH  18  19
ENDBRANCH   1  18
TORSDOF 14
