REMARK SMILES O=C1C[C@@H]([N@@H+]2CCO[C@@H](CC(=O)OCCOC(=O)c3ccc(-c4c5nc(c(-c6ccccc6)c6ccc([nH]6)c(-c6ccccc6)c6nc(c(-c7ccccc7)c7ccc4[nH]7)C=C6)C=C5)cc3)C2)C(=O)N1
REMARK SMILES IDX 14 1 13 2 11 3 12 4 10 5 9 6 5 7 6 8 67 9 7 11 8 12 4 13
REMARK SMILES IDX 1 14 2 15 3 16 70 17 68 18 69 20 15 21 16 22 17 23 18 24
REMARK SMILES IDX 19 25 20 26 66 27 21 28 65 29 22 30 23 31 24 32 59 33 25 34
REMARK SMILES IDX 64 35 58 36 60 37 26 38 63 39 57 40 56 41 27 43 49 44 34 45
REMARK SMILES IDX 48 46 35 47 38 48 47 49 61 50 36 51 37 52 46 54 62 55 39 56
REMARK SMILES IDX 28 57 29 58 33 59 30 60 32 61 31 62 50 63 51 64 55 65 52 66
REMARK SMILES IDX 54 67 53 68 40 69 41 70 45 71 42 72 44 73 43 74
REMARK H PARENT 5 10 70 19 60 42 38 53
REMARK Flexibility Score: inf
ROOT
ATOM      1  C   UNL     1       1.057  -6.705   1.063  1.00  0.00     0.274 C 
ENDROOT
BRANCH   1   2
ATOM      2  O   UNL     1       0.887  -5.909  -0.127  1.00  0.00    -0.462 OA
BRANCH   2   3
ATOM      3  C   UNL     1      -0.230  -6.138  -0.863  1.00  0.00     0.308 C 
ATOM      4  O   UNL     1      -1.087  -6.969  -0.593  1.00  0.00    -0.252 OA
BRANCH   3   5
ATOM      5  C   UNL     1      -0.276  -5.276  -2.096  1.00  0.00     0.160 C 
BRANCH   5   6
ATOM      6  C   UNL     1      -0.352  -3.772  -1.831  1.00  0.00     0.184 C 
ATOM      7  N   UNL     1       1.060  -1.709  -1.320  1.00  0.00    -0.320 N 
ATOM      8  C   UNL     1       0.474  -1.122  -2.530  1.00  0.00     0.291 C 
ATOM      9  C   UNL     1       0.998  -3.178  -1.360  1.00  0.00     0.295 C 
ATOM     10  H   UNL     1       2.038  -1.426  -1.367  1.00  0.00     0.348 HD
ATOM     11  C   UNL     1      -0.856  -1.745  -2.973  1.00  0.00     0.222 C 
ATOM     12  O   UNL     1      -0.758  -3.169  -3.079  1.00  0.00    -0.366 OA
BRANCH   7  13
ATOM     13  C   UNL     1       0.727  -1.110  -0.015  1.00  0.00     0.284 C 
ATOM     14  O   UNL     1      -2.121   1.006   0.382  1.00  0.00    -0.274 OA
ATOM     15  C   UNL     1      -1.018   0.490   0.307  1.00  0.00     0.233 C 
ATOM     16  C   UNL     1      -0.737  -0.978   0.403  1.00  0.00     0.176 C 
ATOM     17  N   UNL     1       0.151   1.158   0.172  1.00  0.00    -0.291 N 
ATOM     18  C   UNL     1       1.225   0.335   0.045  1.00  0.00     0.285 C 
ATOM     19  H   UNL     1       0.216   2.140   0.167  1.00  0.00     0.173 HD
ATOM     20  O   UNL     1       2.380   0.722  -0.044  1.00  0.00    -0.268 OA
ENDBRANCH   7  13
ENDBRANCH   5   6
ENDBRANCH   3   5
ENDBRANCH   2   3
ENDBRANCH   1   2
BRANCH   1  21
ATOM     21  C   UNL     1       0.535  -5.990   2.313  1.00  0.00     0.275 C 
BRANCH  21  22
ATOM     22  O   UNL     1      -0.905  -5.983   2.362  1.00  0.00    -0.458 OA
BRANCH  22  23
ATOM     23  C   UNL     1      -1.495  -4.896   1.814  1.00  0.00     0.338 C 
ATOM     24  O   UNL     1      -0.938  -3.917   1.346  1.00  0.00    -0.246 OA
BRANCH  23  25
ATOM     25  C   UNL     1      -2.951  -5.103   1.732  1.00  0.00     0.060 A 
ATOM     26  C   UNL     1      -3.558  -5.046   0.474  1.00  0.00     0.016 A 
ATOM     27  C   UNL     1      -3.719  -5.292   2.882  1.00  0.00     0.016 A 
ATOM     28  C   UNL     1      -4.940  -5.175   0.359  1.00  0.00     0.010 A 
ATOM     29  C   UNL     1      -5.107  -5.424   2.765  1.00  0.00     0.010 A 
ATOM     30  C   UNL     1      -5.726  -5.359   1.504  1.00  0.00    -0.014 A 
BRANCH  30  31
ATOM     31  C   UNL     1      -7.199  -5.459   1.380  1.00  0.00     0.031 A 
ATOM     32  C   UNL     1      -8.068  -4.300   1.774  1.00  0.00     0.074 A 
ATOM     33  C   UNL     1      -7.755  -6.587   0.901  1.00  0.00     0.049 A 
ATOM     34  N   UNL     1      -9.374  -4.213   1.786  1.00  0.00    -0.248 NA
ATOM     35  C   UNL     1      -7.378  -3.077   2.215  1.00  0.00     0.031 C 
ATOM     36  C   UNL     1      -7.019  -7.767   0.448  1.00  0.00     0.029 A 
ATOM     37  N   UNL     1      -9.073  -6.923   0.719  1.00  0.00    -0.354 N 
ATOM     38  C   UNL     1      -9.664  -2.935   2.246  1.00  0.00     0.074 A 
ATOM     39  C   UNL     1      -8.399  -2.288   2.522  1.00  0.00     0.031 C 
ATOM     40  C   UNL     1      -7.896  -8.698   0.037  1.00  0.00     0.029 A 
ATOM     41  C   UNL     1      -9.253  -8.195   0.235  1.00  0.00     0.049 A 
ATOM     42  H   UNL     1      -9.819  -6.310   0.915  1.00  0.00     0.167 HD
ATOM     43  C   UNL     1     -10.875  -2.353   2.419  1.00  0.00     0.031 A 
ATOM     44  C   UNL     1     -10.384  -8.887   0.001  1.00  0.00     0.031 A 
ATOM     45  C   UNL     1     -12.133  -2.996   2.148  1.00  0.00     0.049 A 
ATOM     46  C   UNL     1     -11.714  -8.240   0.266  1.00  0.00     0.074 A 
ATOM     47  C   UNL     1     -13.411  -2.478   2.279  1.00  0.00     0.029 A 
ATOM     48  N   UNL     1     -12.274  -4.297   1.694  1.00  0.00    -0.354 N 
ATOM     49  N   UNL     1     -11.973  -7.026   0.688  1.00  0.00    -0.248 NA
ATOM     50  C   UNL     1     -12.909  -9.060   0.020  1.00  0.00     0.031 C 
ATOM     51  C   UNL     1     -14.326  -3.484   1.950  1.00  0.00     0.029 A 
ATOM     52  C   UNL     1     -13.617  -4.609   1.563  1.00  0.00     0.049 A 
ATOM     53  H   UNL     1     -11.529  -4.909   1.493  1.00  0.00     0.167 HD
ATOM     54  C   UNL     1     -13.358  -6.929   0.734  1.00  0.00     0.074 A 
ATOM     55  C   UNL     1     -13.884  -8.201   0.284  1.00  0.00     0.031 C 
ATOM     56  C   UNL     1     -14.125  -5.879   1.115  1.00  0.00     0.031 A 
BRANCH  43  57
ATOM     57  C   UNL     1     -10.897  -0.952   2.961  1.00  0.00    -0.014 A 
ATOM     58  C   UNL     1     -10.529   0.143   2.164  1.00  0.00     0.009 A 
ATOM     59  C   UNL     1     -11.336  -0.722   4.274  1.00  0.00     0.009 A 
ATOM     60  C   UNL     1     -10.575   1.440   2.683  1.00  0.00     0.001 A 
ATOM     61  C   UNL     1     -11.404   0.577   4.781  1.00  0.00     0.001 A 
ATOM     62  C   UNL     1     -11.016   1.655   3.988  1.00  0.00     0.000 A 
ENDBRANCH  43  57
BRANCH  44  63
ATOM     63  C   UNL     1     -10.311 -10.287  -0.492  1.00  0.00    -0.014 A 
ATOM     64  C   UNL     1     -10.711 -10.608  -1.797  1.00  0.00     0.009 A 
ATOM     65  C   UNL     1      -9.857 -11.314   0.352  1.00  0.00     0.009 A 
ATOM     66  C   UNL     1     -10.682 -11.933  -2.240  1.00  0.00     0.001 A 
ATOM     67  C   UNL     1      -9.803 -12.633  -0.102  1.00  0.00     0.001 A 
ATOM     68  C   UNL     1     -10.225 -12.943  -1.394  1.00  0.00     0.000 A 
ENDBRANCH  44  63
BRANCH  56  69
ATOM     69  C   UNL     1     -15.615  -6.051   1.028  1.00  0.00    -0.014 A 
ATOM     70  C   UNL     1     -16.311  -6.846   1.951  1.00  0.00     0.009 A 
ATOM     71  C   UNL     1     -16.335  -5.378   0.028  1.00  0.00     0.009 A 
ATOM     72  C   UNL     1     -17.697  -6.988   1.855  1.00  0.00     0.001 A 
ATOM     73  C   UNL     1     -17.723  -5.501  -0.049  1.00  0.00     0.001 A 
ATOM     74  C   UNL     1     -18.401  -6.313   0.858  1.00  0.00     0.000 A 
ENDBRANCH  56  69
ENDBRANCH  30  31
ENDBRANCH  23  25
ENDBRANCH  22  23
ENDBRANCH  21  22
ENDBRANCH   1  21
TORSDOF 13
