REMARK SMILES Cc1ccc(S(=O)(=O)n2cc(C(=O)C(=O)NCC(=O)NCC(=O)OCCOC(=O)c3ccc(-c4c5nc(c(-c6ccccc6)c6ccc([nH]6)c(-c6ccccc6)c6nc(c(-c7ccccc7)c7ccc4[nH]7)C=C6)C=C5)cc3)c3ccccc32)cc1
REMARK SMILES IDX 22 1 23 2 21 3 20 4 18 5 19 6 17 8 16 9 14 10 15 11 12 13
REMARK SMILES IDX 13 14 11 15 9 16 10 17 83 18 78 19 82 20 79 21 81 22 80 23
REMARK SMILES IDX 6 24 7 25 8 26 5 27 1 28 2 29 3 30 85 31 4 32 84 33 24 34
REMARK SMILES IDX 25 35 26 36 27 37 28 38 29 39 30 40 31 41 77 42 32 43 76 44
REMARK SMILES IDX 33 45 34 46 35 47 70 48 36 49 75 50 69 51 71 52 37 53 74 54
REMARK SMILES IDX 68 55 67 56 38 58 60 59 45 60 59 61 46 62 49 63 58 64 72 65
REMARK SMILES IDX 47 66 48 67 57 69 73 70 50 71 39 72 40 73 44 74 41 75 43 76
REMARK SMILES IDX 42 77 61 78 62 79 66 80 63 81 65 82 64 83 51 84 52 85 56 86
REMARK SMILES IDX 53 87 55 88 54 89
REMARK H PARENT 20 7 16 12 71 57 49 68
REMARK Flexibility Score: inf
ROOT
ATOM      1  C   UNL     1     -10.168   2.260   1.284  1.00  0.00     0.325 C 
ATOM      2  O   UNL     1     -10.550   1.629   0.253  1.00  0.00    -0.250 OA
ENDROOT
BRANCH   1   3
ATOM      3  C   UNL     1      -9.332   4.254   1.532  1.00  0.00     0.238 C 
BRANCH   3   4
ATOM      4  N   UNL     1      -9.933   5.702   2.034  1.00  0.00    -0.344 N 
ATOM      5  C   UNL     1      -9.442   6.868   2.509  1.00  0.00     0.239 C 
ATOM      6  O   UNL     1     -10.275   7.762   2.707  1.00  0.00    -0.273 OA
ATOM      7  H   UNL     1     -10.915   5.725   1.970  1.00  0.00     0.164 HD
BRANCH   5   8
ATOM      8  C   UNL     1      -7.966   7.182   2.661  1.00  0.00     0.216 C 
BRANCH   8   9
ATOM      9  N   UNL     1      -7.122   6.093   3.092  1.00  0.00    -0.340 N 
ATOM     10  C   UNL     1      -6.052   5.497   2.453  1.00  0.00     0.292 C 
ATOM     11  O   UNL     1      -5.255   4.908   3.173  1.00  0.00    -0.265 OA
ATOM     12  H   UNL     1      -7.342   5.718   3.976  1.00  0.00     0.164 HD
BRANCH  10  13
ATOM     13  C   UNL     1      -5.825   5.609   0.907  1.00  0.00     0.252 C 
ATOM     14  O   UNL     1      -6.233   6.649   0.394  1.00  0.00    -0.283 OA
BRANCH  13  15
ATOM     15  C   UNL     1      -5.063   4.641   0.051  1.00  0.00     0.054 A 
ATOM     16  N   UNL     1      -3.919   2.890  -0.749  1.00  0.00    -0.240 N 
ATOM     17  C   UNL     1      -4.983   3.258   0.041  1.00  0.00     0.117 A 
ATOM     18  C   UNL     1      -3.695   3.856  -1.677  1.00  0.00     0.065 A 
ATOM     19  C   UNL     1      -4.382   4.979  -1.191  1.00  0.00     0.012 A 
ATOM     20  C   UNL     1      -2.973   3.835  -2.874  1.00  0.00     0.028 A 
ATOM     21  C   UNL     1      -4.327   6.148  -1.967  1.00  0.00     0.011 A 
ATOM     22  C   UNL     1      -2.977   4.997  -3.633  1.00  0.00     0.002 A 
ATOM     23  C   UNL     1      -3.645   6.134  -3.189  1.00  0.00     0.001 A 
BRANCH  16  24
ATOM     24  S   UNL     1      -3.231   1.348  -0.759  1.00  0.00     0.268 S 
ATOM     25  O   UNL     1      -3.583   0.796  -2.052  1.00  0.00    -0.201 OA
ATOM     26  O   UNL     1      -3.626   0.787   0.514  1.00  0.00    -0.201 OA
BRANCH  24  27
ATOM     27  C   UNL     1      -1.468   1.500  -0.671  1.00  0.00     0.088 A 
ATOM     28  C   UNL     1       2.789   1.299  -0.056  1.00  0.00     0.044 C 
ATOM     29  C   UNL     1       1.316   1.426  -0.314  1.00  0.00    -0.051 A 
ATOM     30  C   UNL     1       0.642   0.335  -0.857  1.00  0.00     0.005 A 
ATOM     31  C   UNL     1       0.584   2.575   0.013  1.00  0.00     0.005 A 
ATOM     32  C   UNL     1      -0.736   0.376  -1.046  1.00  0.00     0.022 A 
ATOM     33  C   UNL     1      -0.810   2.614  -0.155  1.00  0.00     0.022 A 
ENDBRANCH  24  27
ENDBRANCH  16  24
ENDBRANCH  13  15
ENDBRANCH  10  13
ENDBRANCH   8   9
ENDBRANCH   5   8
ENDBRANCH   3   4
ENDBRANCH   1   3
BRANCH   1  34
ATOM     34  O   UNL     1     -10.497   1.404   2.392  1.00  0.00    -0.461 OA
BRANCH  34  35
ATOM     35  C   UNL     1     -11.675   0.598   2.277  1.00  0.00     0.274 C 
BRANCH  35  36
ATOM     36  C   UNL     1     -12.922   1.487   2.390  1.00  0.00     0.275 C 
BRANCH  36  37
ATOM     37  O   UNL     1     -13.221   2.329   1.237  1.00  0.00    -0.458 OA
BRANCH  37  38
ATOM     38  C   UNL     1     -12.847   3.631   1.082  1.00  0.00     0.338 C 
ATOM     39  O   UNL     1     -13.524   4.473   0.515  1.00  0.00    -0.246 OA
BRANCH  38  40
ATOM     40  C   UNL     1     -11.411   3.888   1.293  1.00  0.00     0.060 A 
ATOM     41  C   UNL     1     -10.389   3.749  -0.193  1.00  0.00     0.016 A 
ATOM     42  C   UNL     1     -10.696   3.537   2.916  1.00  0.00     0.016 A 
ATOM     43  C   UNL     1      -8.733   2.989  -0.060  1.00  0.00     0.010 A 
ATOM     44  C   UNL     1      -9.037   2.836   3.038  1.00  0.00     0.010 A 
ATOM     45  C   UNL     1      -8.116   2.443   1.536  1.00  0.00    -0.014 A 
BRANCH  45  46
ATOM     46  C   UNL     1      -7.418   1.125   1.730  1.00  0.00     0.031 A 
ATOM     47  C   UNL     1      -6.403   1.040   2.804  1.00  0.00     0.074 A 
ATOM     48  C   UNL     1      -7.760   0.006   1.059  1.00  0.00     0.049 A 
ATOM     49  N   UNL     1      -6.098   0.105   3.635  1.00  0.00    -0.248 NA
ATOM     50  C   UNL     1      -5.585   2.216   2.969  1.00  0.00     0.031 C 
ATOM     51  C   UNL     1      -7.405  -1.368   1.396  1.00  0.00     0.029 A 
ATOM     52  N   UNL     1      -8.396  -0.106  -0.166  1.00  0.00    -0.354 N 
ATOM     53  C   UNL     1      -4.973   0.555   4.314  1.00  0.00     0.074 A 
ATOM     54  C   UNL     1      -4.804   1.947   3.995  1.00  0.00     0.031 C 
ATOM     55  C   UNL     1      -7.640  -2.160   0.339  1.00  0.00     0.029 A 
ATOM     56  C   UNL     1      -8.014  -1.308  -0.771  1.00  0.00     0.049 A 
ATOM     57  H   UNL     1      -9.017   0.555  -0.550  1.00  0.00     0.167 HD
ATOM     58  C   UNL     1      -3.841  -0.166   4.499  1.00  0.00     0.031 A 
ATOM     59  C   UNL     1      -7.377  -1.303  -1.977  1.00  0.00     0.031 A 
ATOM     60  C   UNL     1      -3.775  -1.316   3.611  1.00  0.00     0.049 A 
ATOM     61  C   UNL     1      -5.923  -1.714  -1.842  1.00  0.00     0.074 A 
ATOM     62  C   UNL     1      -4.473  -2.508   3.619  1.00  0.00     0.029 A 
ATOM     63  N   UNL     1      -3.273  -1.180   2.312  1.00  0.00    -0.354 N 
ATOM     64  N   UNL     1      -5.266  -1.755  -0.708  1.00  0.00    -0.248 NA
ATOM     65  C   UNL     1      -5.124  -2.182  -2.962  1.00  0.00     0.031 C 
ATOM     66  C   UNL     1      -4.419  -3.069   2.311  1.00  0.00     0.029 A 
ATOM     67  C   UNL     1      -3.617  -2.273   1.510  1.00  0.00     0.049 A 
ATOM     68  H   UNL     1      -2.743  -0.411   2.001  1.00  0.00     0.167 HD
ATOM     69  C   UNL     1      -4.012  -2.281  -0.901  1.00  0.00     0.074 A 
ATOM     70  C   UNL     1      -3.990  -2.544  -2.337  1.00  0.00     0.031 C 
ATOM     71  C   UNL     1      -3.107  -2.438   0.126  1.00  0.00     0.031 A 
BRANCH  58  72
ATOM     72  C   UNL     1      -3.005   0.177   5.719  1.00  0.00    -0.014 A 
ATOM     73  C   UNL     1      -2.180  -0.809   6.264  1.00  0.00     0.009 A 
ATOM     74  C   UNL     1      -3.124   1.374   6.482  1.00  0.00     0.009 A 
ATOM     75  C   UNL     1      -1.587  -0.648   7.529  1.00  0.00     0.001 A 
ATOM     76  C   UNL     1      -2.508   1.553   7.726  1.00  0.00     0.001 A 
ATOM     77  C   UNL     1      -1.763   0.521   8.266  1.00  0.00     0.000 A 
ENDBRANCH  58  72
BRANCH  59  78
ATOM     78  C   UNL     1      -8.022  -0.362  -2.942  1.00  0.00    -0.014 A 
ATOM     79  C   UNL     1      -9.380  -0.644  -3.231  1.00  0.00     0.009 A 
ATOM     80  C   UNL     1      -7.569   0.951  -3.115  1.00  0.00     0.009 A 
ATOM     81  C   UNL     1     -10.305   0.389  -3.400  1.00  0.00     0.001 A 
ATOM     82  C   UNL     1      -8.496   1.979  -3.364  1.00  0.00     0.001 A 
ATOM     83  C   UNL     1      -9.866   1.706  -3.418  1.00  0.00     0.000 A 
ENDBRANCH  59  78
BRANCH  71  84
ATOM     84  C   UNL     1      -1.627  -2.801  -0.046  1.00  0.00    -0.014 A 
ATOM     85  C   UNL     1      -0.983  -3.087  -1.261  1.00  0.00     0.009 A 
ATOM     86  C   UNL     1      -0.771  -2.742   1.078  1.00  0.00     0.009 A 
ATOM     87  C   UNL     1       0.409  -3.243  -1.365  1.00  0.00     0.001 A 
ATOM     88  C   UNL     1       0.621  -2.876   0.984  1.00  0.00     0.001 A 
ATOM     89  C   UNL     1       1.214  -3.123  -0.243  1.00  0.00     0.000 A 
ENDBRANCH  71  84
ENDBRANCH  45  46
ENDBRANCH  38  40
ENDBRANCH  37  38
ENDBRANCH  36  37
ENDBRANCH  35  36
ENDBRANCH  34  35
ENDBRANCH   1  34
TORSDOF 18
