REMARK SMILES COc1ccc2cc([C@H](C)C(=O)OCCOC(=O)c3ccc(-c4c5nc(c(-c6ccccc6)c6ccc([nH]6)c(-c6ccccc6)c6nc(c(-c7ccccc7)c7ccc4[nH]7)C=C6)C=C5)cc3)ccc2c1
REMARK SMILES IDX 14 1 13 2 11 3 12 4 9 5 10 6 8 7 3 8 4 9 70 10 5 11 69 12
REMARK SMILES IDX 6 13 68 14 7 15 67 16 2 17 1 18 15 19 16 20 17 21 18 22
REMARK SMILES IDX 19 23 20 24 66 25 21 26 65 27 22 28 23 29 24 30 59 31 25 32
REMARK SMILES IDX 64 33 58 34 60 35 26 36 63 37 57 38 56 39 27 41 49 42 34 43
REMARK SMILES IDX 48 44 35 45 38 46 47 47 61 48 36 49 37 50 46 52 62 53 39 54
REMARK SMILES IDX 28 55 29 56 33 57 30 58 32 59 31 60 50 61 51 62 55 63 52 64
REMARK SMILES IDX 54 65 53 66 40 67 41 68 45 69 42 70 44 71 43 72
REMARK H PARENT 60 40 38 51
REMARK Flexibility Score: inf
ROOT
ATOM      1  C   UNL     1       4.061   9.076  -1.647  1.00  0.00     0.274 C 
ENDROOT
BRANCH   1   2
ATOM      2  O   UNL     1       3.143   8.443  -0.736  1.00  0.00    -0.462 OA
BRANCH   2   3
ATOM      3  C   UNL     1       2.277   9.273  -0.095  1.00  0.00     0.313 C 
ATOM      4  O   UNL     1       2.244  10.491  -0.247  1.00  0.00    -0.252 OA
BRANCH   3   5
ATOM      5  C   UNL     1       1.348   8.541   0.873  1.00  0.00     0.126 C 
ATOM      6  C   UNL     1       1.020   7.114   0.432  1.00  0.00     0.025 C 
BRANCH   5   7
ATOM      7  C   UNL     1       1.826   8.707   2.304  1.00  0.00    -0.033 A 
ATOM      8  C   UNL     1       3.122  10.685   6.801  1.00  0.00     0.119 A 
ATOM      9  C   UNL     1       2.581  11.735   6.063  1.00  0.00     0.047 A 
ATOM     10  C   UNL     1       3.224   9.414   6.233  1.00  0.00     0.055 A 
ATOM     11  C   UNL     1       2.111  11.505   4.769  1.00  0.00     0.012 A 
ATOM     12  C   UNL     1       2.752   9.166   4.936  1.00  0.00    -0.015 A 
ATOM     13  C   UNL     1       2.187  10.225   4.197  1.00  0.00    -0.018 A 
ATOM     14  C   UNL     1       2.836   7.892   4.353  1.00  0.00     0.009 A 
ATOM     15  C   UNL     1       1.727   9.981   2.896  1.00  0.00     0.013 A 
ATOM     16  C   UNL     1       2.383   7.666   3.050  1.00  0.00     0.005 A 
BRANCH   8  17
ATOM     17  O   UNL     1       3.629  10.815   8.065  1.00  0.00    -0.497 OA
ATOM     18  C   UNL     1       2.854  11.655   8.916  1.00  0.00     0.278 C 
ENDBRANCH   8  17
ENDBRANCH   5   7
ENDBRANCH   3   5
ENDBRANCH   2   3
ENDBRANCH   1   2
BRANCH   1  19
ATOM     19  C   UNL     1       3.551   9.048  -3.092  1.00  0.00     0.275 C 
BRANCH  19  20
ATOM     20  O   UNL     1       2.381   9.869  -3.270  1.00  0.00    -0.458 OA
BRANCH  20  21
ATOM     21  C   UNL     1       1.201   9.216  -3.162  1.00  0.00     0.338 C 
ATOM     22  O   UNL     1       1.028   8.024  -2.978  1.00  0.00    -0.246 OA
BRANCH  21  23
ATOM     23  C   UNL     1       0.093  10.183  -3.163  1.00  0.00     0.060 A 
ATOM     24  C   UNL     1      -0.638  10.341  -1.983  1.00  0.00     0.016 A 
ATOM     25  C   UNL     1      -0.292  10.844  -4.329  1.00  0.00     0.016 A 
ATOM     26  C   UNL     1      -1.761  11.160  -1.956  1.00  0.00     0.010 A 
ATOM     27  C   UNL     1      -1.424  11.666  -4.303  1.00  0.00     0.010 A 
ATOM     28  C   UNL     1      -2.171  11.818  -3.120  1.00  0.00    -0.014 A 
BRANCH  28  29
ATOM     29  C   UNL     1      -3.418  12.616  -3.104  1.00  0.00     0.031 A 
ATOM     30  C   UNL     1      -4.660  12.069  -3.744  1.00  0.00     0.074 A 
ATOM     31  C   UNL     1      -3.439  13.817  -2.497  1.00  0.00     0.049 A 
ATOM     32  N   UNL     1      -5.824  12.644  -3.912  1.00  0.00    -0.248 NA
ATOM     33  C   UNL     1      -4.585  10.694  -4.266  1.00  0.00     0.031 C 
ATOM     34  C   UNL     1      -2.311  14.432  -1.796  1.00  0.00     0.029 A 
ATOM     35  N   UNL     1      -4.450  14.736  -2.380  1.00  0.00    -0.354 N 
ATOM     36  C   UNL     1      -6.608  11.717  -4.586  1.00  0.00     0.074 A 
ATOM     37  C   UNL     1      -5.790  10.541  -4.796  1.00  0.00     0.031 C 
ATOM     38  C   UNL     1      -2.691  15.633  -1.329  1.00  0.00     0.029 A 
ATOM     39  C   UNL     1      -4.070  15.887  -1.736  1.00  0.00     0.049 A 
ATOM     40  H   UNL     1      -5.361  14.585  -2.724  1.00  0.00     0.167 HD
ATOM     41  C   UNL     1      -7.892  11.839  -4.997  1.00  0.00     0.031 A 
ATOM     42  C   UNL     1      -4.746  17.033  -1.528  1.00  0.00     0.031 A 
ATOM     43  C   UNL     1      -8.709  13.001  -4.772  1.00  0.00     0.049 A 
ATOM     44  C   UNL     1      -6.157  17.157  -2.034  1.00  0.00     0.074 A 
ATOM     45  C   UNL     1     -10.031  13.206  -5.128  1.00  0.00     0.029 A 
ATOM     46  N   UNL     1      -8.282  14.152  -4.131  1.00  0.00    -0.354 N 
ATOM     47  N   UNL     1      -6.888  16.271  -2.665  1.00  0.00    -0.248 NA
ATOM     48  C   UNL     1      -6.833  18.441  -1.799  1.00  0.00     0.031 C 
ATOM     49  C   UNL     1     -10.390  14.501  -4.740  1.00  0.00     0.029 A 
ATOM     50  C   UNL     1      -9.306  15.083  -4.104  1.00  0.00     0.049 A 
ATOM     51  H   UNL     1      -7.384  14.288  -3.752  1.00  0.00     0.167 HD
ATOM     52  C   UNL     1      -8.114  16.884  -2.889  1.00  0.00     0.074 A 
ATOM     53  C   UNL     1      -8.034  18.209  -2.311  1.00  0.00     0.031 C 
ATOM     54  C   UNL     1      -9.207  16.395  -3.522  1.00  0.00     0.031 A 
BRANCH  41  55
ATOM     55  C   UNL     1      -8.482  10.700  -5.774  1.00  0.00    -0.014 A 
ATOM     56  C   UNL     1      -8.894   9.517  -5.142  1.00  0.00     0.009 A 
ATOM     57  C   UNL     1      -8.674  10.836  -7.158  1.00  0.00     0.009 A 
ATOM     58  C   UNL     1      -9.468   8.484  -5.887  1.00  0.00     0.001 A 
ATOM     59  C   UNL     1      -9.265   9.810  -7.896  1.00  0.00     0.001 A 
ATOM     60  C   UNL     1      -9.656   8.633  -7.261  1.00  0.00     0.000 A 
ENDBRANCH  41  55
BRANCH  42  61
ATOM     61  C   UNL     1      -4.082  18.177  -0.854  1.00  0.00    -0.014 A 
ATOM     62  C   UNL     1      -4.465  18.573   0.436  1.00  0.00     0.009 A 
ATOM     63  C   UNL     1      -3.067  18.891  -1.511  1.00  0.00     0.009 A 
ATOM     64  C   UNL     1      -3.863  19.678   1.043  1.00  0.00     0.001 A 
ATOM     65  C   UNL     1      -2.449  19.977  -0.891  1.00  0.00     0.001 A 
ATOM     66  C   UNL     1      -2.853  20.376   0.381  1.00  0.00     0.000 A 
ENDBRANCH  42  61
BRANCH  54  67
ATOM     67  C   UNL     1     -10.411  17.288  -3.595  1.00  0.00    -0.014 A 
ATOM     68  C   UNL     1     -10.457  18.369  -4.488  1.00  0.00     0.009 A 
ATOM     69  C   UNL     1     -11.526  17.020  -2.786  1.00  0.00     0.009 A 
ATOM     70  C   UNL     1     -11.589  19.183  -4.550  1.00  0.00     0.001 A 
ATOM     71  C   UNL     1     -12.665  17.822  -2.867  1.00  0.00     0.001 A 
ATOM     72  C   UNL     1     -12.693  18.907  -3.742  1.00  0.00     0.000 A 
ENDBRANCH  54  67
ENDBRANCH  28  29
ENDBRANCH  21  23
ENDBRANCH  20  21
ENDBRANCH  19  20
ENDBRANCH   1  19
TORSDOF 13
