REMARK SMILES CCOC(=O)c1c(NC(=O)[C@@H]2[C@@H](C(=O)OCCOC(=O)c3ccc(-c4c5nc(c(-c6ccccc6)c6ccc([nH]6)c(-c6ccccc6)c6nc(c(-c7ccccc7)c7ccc4[nH]7)C=C6)C=C5)cc3)[C@@H]3C=C[C@H]2CC3)sc2c1CCC2
REMARK SMILES IDX 15 1 13 2 14 3 12 4 11 5 72 6 69 7 71 8 73 9 70 10 74 11
REMARK SMILES IDX 9 12 8 13 10 15 7 16 6 17 77 18 75 19 76 20 78 21 80 22
REMARK SMILES IDX 79 23 4 24 5 25 3 26 2 27 1 28 16 29 17 30 18 31 19 32 20 33
REMARK SMILES IDX 21 34 22 35 68 36 23 37 67 38 24 39 25 40 26 41 61 42 27 43
REMARK SMILES IDX 66 44 60 45 62 46 28 47 65 48 59 49 58 50 29 52 51 53 36 54
REMARK SMILES IDX 50 55 37 56 40 57 49 58 63 59 38 60 39 61 48 63 64 64 41 65
REMARK SMILES IDX 30 66 31 67 35 68 32 69 34 70 33 71 52 72 53 73 57 74 54 75
REMARK SMILES IDX 56 76 55 77 42 78 43 79 47 80 44 81 46 82 45 83
REMARK H PARENT 8 14 62 51 40 62
REMARK Flexibility Score: inf
ROOT
ATOM      1  O   UNL     1       3.071  -6.466  -3.164  1.00  0.00    -0.462 OA
ENDROOT
BRANCH   1   2
ATOM      2  C   UNL     1       3.424  -7.322  -2.174  1.00  0.00     0.310 C 
ATOM      3  O   UNL     1       3.069  -8.498  -2.167  1.00  0.00    -0.252 OA
BRANCH   2   4
ATOM      4  C   UNL     1       4.170  -6.661  -1.005  1.00  0.00     0.119 C 
ATOM      5  C   UNL     1       5.311  -5.605  -1.287  1.00  0.00     0.100 C 
ATOM      6  C   UNL     1       6.612  -6.078  -0.506  1.00  0.00     0.025 C 
ATOM      7  C   UNL     1       4.770  -7.856  -0.172  1.00  0.00     0.026 C 
ATOM      8  C   UNL     1       6.273  -6.386   0.951  1.00  0.00    -0.027 C 
ATOM      9  C   UNL     1       7.103  -7.424  -1.070  1.00  0.00     0.009 C 
ATOM     10  C   UNL     1       5.304  -7.297   1.120  1.00  0.00    -0.027 C 
ATOM     11  C   UNL     1       5.992  -8.483  -0.899  1.00  0.00     0.009 C 
BRANCH   5  12
ATOM     12  C   UNL     1       4.999  -4.170  -0.779  1.00  0.00     0.229 C 
ATOM     13  N   UNL     1       4.274  -3.204  -1.397  1.00  0.00    -0.317 N 
ATOM     14  H   UNL     1       4.134  -2.425  -0.810  1.00  0.00     0.170 HD
ATOM     15  O   UNL     1       5.396  -3.805   0.341  1.00  0.00    -0.274 OA
BRANCH  13  16
ATOM     16  C   UNL     1       3.682  -3.025  -2.625  1.00  0.00     0.110 A 
ATOM     17  C   UNL     1       2.710  -2.069  -2.935  1.00  0.00     0.098 A 
ATOM     18  C   UNL     1       2.166  -2.344  -4.216  1.00  0.00    -0.017 A 
ATOM     19  S   UNL     1       4.181  -3.876  -4.011  1.00  0.00    -0.122 S 
ATOM     20  C   UNL     1       2.845  -3.338  -4.861  1.00  0.00     0.011 A 
ATOM     21  C   UNL     1       1.079  -1.803  -5.073  1.00  0.00     0.038 C 
ATOM     22  C   UNL     1       2.295  -3.660  -6.200  1.00  0.00     0.047 C 
ATOM     23  C   UNL     1       0.927  -2.922  -6.144  1.00  0.00     0.010 C 
BRANCH  17  24
ATOM     24  C   UNL     1       2.316  -0.999  -2.036  1.00  0.00     0.341 C 
ATOM     25  O   UNL     1       3.133  -0.360  -1.386  1.00  0.00    -0.246 OA
BRANCH  24  26
ATOM     26  O   UNL     1       0.969  -0.804  -2.010  1.00  0.00    -0.462 OA
BRANCH  26  27
ATOM     27  C   UNL     1       0.499   0.307  -1.231  1.00  0.00     0.230 C 
ATOM     28  C   UNL     1       0.737   0.146   0.262  1.00  0.00     0.049 C 
ENDBRANCH  26  27
ENDBRANCH  24  26
ENDBRANCH  17  24
ENDBRANCH  13  16
ENDBRANCH   5  12
ENDBRANCH   2   4
ENDBRANCH   1   2
BRANCH   1  29
ATOM     29  C   UNL     1       2.359  -7.045  -4.284  1.00  0.00     0.274 C 
BRANCH  29  30
ATOM     30  C   UNL     1       3.198  -7.017  -5.566  1.00  0.00     0.275 C 
BRANCH  30  31
ATOM     31  O   UNL     1       4.312  -7.914  -5.570  1.00  0.00    -0.458 OA
BRANCH  31  32
ATOM     32  C   UNL     1       5.381  -7.436  -4.896  1.00  0.00     0.338 C 
ATOM     33  O   UNL     1       5.637  -7.740  -3.753  1.00  0.00    -0.246 OA
BRANCH  32  34
ATOM     34  C   UNL     1       6.275  -6.545  -5.660  1.00  0.00     0.060 A 
ATOM     35  C   UNL     1       7.370  -6.014  -4.966  1.00  0.00     0.016 A 
ATOM     36  C   UNL     1       6.066  -6.239  -7.007  1.00  0.00     0.016 A 
ATOM     37  C   UNL     1       8.247  -5.169  -5.608  1.00  0.00     0.010 A 
ATOM     38  C   UNL     1       6.962  -5.410  -7.665  1.00  0.00     0.010 A 
ATOM     39  C   UNL     1       8.049  -4.887  -6.963  1.00  0.00    -0.014 A 
BRANCH  39  40
ATOM     40  C   UNL     1       9.187  -4.309  -7.666  1.00  0.00     0.031 A 
ATOM     41  C   UNL     1      10.411  -5.163  -7.533  1.00  0.00     0.074 A 
ATOM     42  C   UNL     1       9.113  -3.219  -8.450  1.00  0.00     0.049 A 
ATOM     43  N   UNL     1      11.523  -4.871  -6.944  1.00  0.00    -0.248 NA
ATOM     44  C   UNL     1      10.299  -6.586  -7.920  1.00  0.00     0.031 C 
ATOM     45  C   UNL     1       7.920  -2.490  -8.880  1.00  0.00     0.029 A 
ATOM     46  N   UNL     1      10.107  -2.592  -9.130  1.00  0.00    -0.354 N 
ATOM     47  C   UNL     1      12.320  -6.010  -7.045  1.00  0.00     0.074 A 
ATOM     48  C   UNL     1      11.460  -7.076  -7.484  1.00  0.00     0.031 C 
ATOM     49  C   UNL     1       8.233  -1.710  -9.942  1.00  0.00     0.029 A 
ATOM     50  C   UNL     1       9.669  -1.774 -10.163  1.00  0.00     0.049 A 
ATOM     51  H   UNL     1      11.060  -2.707  -8.908  1.00  0.00     0.167 HD
ATOM     52  C   UNL     1      13.679  -5.928  -7.028  1.00  0.00     0.031 A 
ATOM     53  C   UNL     1      10.432  -1.262 -11.163  1.00  0.00     0.031 A 
ATOM     54  C   UNL     1      14.122  -4.685  -6.455  1.00  0.00     0.049 A 
ATOM     55  C   UNL     1      11.847  -1.350 -10.728  1.00  0.00     0.074 A 
ATOM     56  C   UNL     1      14.038  -4.091  -5.213  1.00  0.00     0.029 A 
ATOM     57  N   UNL     1      14.417  -3.679  -7.341  1.00  0.00    -0.354 N 
ATOM     58  N   UNL     1      12.331  -0.673  -9.726  1.00  0.00    -0.248 NA
ATOM     59  C   UNL     1      12.593  -2.541 -11.098  1.00  0.00     0.031 C 
ATOM     60  C   UNL     1      13.820  -2.707  -5.484  1.00  0.00     0.029 A 
ATOM     61  C   UNL     1      13.866  -2.519  -6.868  1.00  0.00     0.049 A 
ATOM     62  H   UNL     1      14.935  -3.775  -8.172  1.00  0.00     0.167 HD
ATOM     63  C   UNL     1      13.161  -1.567  -9.065  1.00  0.00     0.074 A 
ATOM     64  C   UNL     1      13.347  -2.675 -10.003  1.00  0.00     0.031 C 
ATOM     65  C   UNL     1      13.383  -1.457  -7.721  1.00  0.00     0.031 A 
BRANCH  52  66
ATOM     66  C   UNL     1      14.544  -6.721  -7.983  1.00  0.00    -0.014 A 
ATOM     67  C   UNL     1      15.935  -6.511  -7.964  1.00  0.00     0.009 A 
ATOM     68  C   UNL     1      14.029  -7.416  -9.096  1.00  0.00     0.009 A 
ATOM     69  C   UNL     1      16.744  -6.891  -9.043  1.00  0.00     0.001 A 
ATOM     70  C   UNL     1      14.838  -7.828 -10.157  1.00  0.00     0.001 A 
ATOM     71  C   UNL     1      16.192  -7.537 -10.145  1.00  0.00     0.000 A 
ENDBRANCH  52  66
BRANCH  53  72
ATOM     72  C   UNL     1      10.067  -1.096 -12.590  1.00  0.00    -0.014 A 
ATOM     73  C   UNL     1      10.840  -0.293 -13.446  1.00  0.00     0.009 A 
ATOM     74  C   UNL     1       9.127  -1.960 -13.182  1.00  0.00     0.009 A 
ATOM     75  C   UNL     1      10.697  -0.376 -14.840  1.00  0.00     0.001 A 
ATOM     76  C   UNL     1       8.984  -2.043 -14.572  1.00  0.00     0.001 A 
ATOM     77  C   UNL     1       9.778  -1.260 -15.402  1.00  0.00     0.000 A 
ENDBRANCH  53  72
BRANCH  65  78
ATOM     78  C   UNL     1      12.900  -0.206  -7.028  1.00  0.00    -0.014 A 
ATOM     79  C   UNL     1      11.546   0.163  -6.928  1.00  0.00     0.009 A 
ATOM     80  C   UNL     1      13.849   0.552  -6.326  1.00  0.00     0.009 A 
ATOM     81  C   UNL     1      11.164   1.276  -6.169  1.00  0.00     0.001 A 
ATOM     82  C   UNL     1      13.465   1.648  -5.554  1.00  0.00     0.001 A 
ATOM     83  C   UNL     1      12.124   2.015  -5.480  1.00  0.00     0.000 A 
ENDBRANCH  65  78
ENDBRANCH  39  40
ENDBRANCH  32  34
ENDBRANCH  31  32
ENDBRANCH  30  31
ENDBRANCH  29  30
ENDBRANCH   1  29
TORSDOF 16
