REMARK SMILES O=C(CCCOc1ccc(Cl)cc1Cl)Nc1cccc(C(=O)OCCOC(=O)c2ccc(-c3c4nc(c(-c5ccccc5)c5ccc([nH]5)c(-c5ccccc5)c5nc(c(-c6ccccc6)c6ccc3[nH]6)C=C5)C=C4)cc2)c1
REMARK SMILES IDX 21 1 22 2 20 3 16 4 17 5 77 6 18 7 19 8 15 9 1 10 2 11 3 13
REMARK SMILES IDX 4 14 5 15 6 16 7 17 8 18 13 19 9 20 12 21 14 22 10 23 11 24
REMARK SMILES IDX 23 25 24 26 25 27 26 28 27 29 28 30 29 31 30 32 76 33 31 34
REMARK SMILES IDX 75 35 32 36 33 37 34 38 69 39 35 40 74 41 68 42 70 43 36 44
REMARK SMILES IDX 73 45 67 46 66 47 37 49 59 50 44 51 58 52 45 53 48 54 57 55
REMARK SMILES IDX 71 56 46 57 47 58 56 60 72 61 49 62 38 63 39 64 43 65 40 66
REMARK SMILES IDX 42 67 41 68 60 69 61 70 65 71 62 72 64 73 63 74 50 75 51 76
REMARK SMILES IDX 55 77 52 78 54 79 53 80
REMARK H PARENT 15 12 70 48 48 59
REMARK Flexibility Score: inf
ROOT
ATOM      1  C   UNL     1      -1.139   0.095  -3.779  1.00  0.00     0.338 C 
ATOM      2  O   UNL     1      -2.120  -0.497  -4.178  1.00  0.00    -0.246 OA
ENDROOT
BRANCH   1   3
ATOM      3  C   UNL     1       0.138  -0.563  -3.412  1.00  0.00     0.062 A 
ATOM      4  C   UNL     1       2.074  -0.674  -2.004  1.00  0.00     0.042 A 
ATOM      5  C   UNL     1       2.650  -1.642  -2.828  1.00  0.00     0.026 A 
ATOM      6  C   UNL     1       0.860  -0.081  -2.333  1.00  0.00     0.041 A 
ATOM      7  C   UNL     1       1.899  -2.172  -3.870  1.00  0.00     0.003 A 
ATOM      8  C   UNL     1       0.619  -1.674  -4.117  1.00  0.00     0.016 A 
BRANCH   4   9
ATOM      9  N   UNL     1       2.694  -0.385  -0.786  1.00  0.00    -0.326 N 
ATOM     10  O   UNL     1       0.763  -0.452   0.480  1.00  0.00    -0.275 OA
ATOM     11  C   UNL     1       1.985  -0.327   0.396  1.00  0.00     0.224 C 
ATOM     12  H   UNL     1       3.664  -0.218  -0.771  1.00  0.00     0.169 HD
BRANCH  11  13
ATOM     13  C   UNL     1       2.790  -0.061   1.648  1.00  0.00     0.104 C 
BRANCH  13  14
ATOM     14  C   UNL     1       4.055  -0.880   1.905  1.00  0.00     0.051 C 
BRANCH  14  15
ATOM     15  C   UNL     1       5.319  -0.647   1.062  1.00  0.00     0.230 C 
BRANCH  15  16
ATOM     16  O   UNL     1       5.867   0.671   1.169  1.00  0.00    -0.492 OA
BRANCH  16  17
ATOM     17  C   UNL     1       5.364   1.595   0.295  1.00  0.00     0.137 A 
ATOM     18  C   UNL     1       4.602   2.612   0.875  1.00  0.00     0.049 A 
ATOM     19  C   UNL     1       5.633   1.640  -1.078  1.00  0.00     0.084 A 
ATOM     20  C   UNL     1       3.990   3.581   0.084  1.00  0.00     0.024 A 
ATOM     21  C   UNL     1       5.056   2.639  -1.871  1.00  0.00     0.045 A 
ATOM     22  Cl  UNL     1       6.691   0.512  -1.841  1.00  0.00    -0.080 Cl
ATOM     23  C   UNL     1       4.217   3.588  -1.288  1.00  0.00     0.042 A 
ATOM     24  Cl  UNL     1       3.471   4.794  -2.261  1.00  0.00    -0.084 Cl
ENDBRANCH  16  17
ENDBRANCH  15  16
ENDBRANCH  14  15
ENDBRANCH  13  14
ENDBRANCH  11  13
ENDBRANCH   4   9
ENDBRANCH   1   3
BRANCH   1  25
ATOM     25  O   UNL     1      -0.956   1.441  -3.717  1.00  0.00    -0.458 OA
BRANCH  25  26
ATOM     26  C   UNL     1      -2.036   2.277  -4.175  1.00  0.00     0.275 C 
BRANCH  26  27
ATOM     27  C   UNL     1      -1.690   2.919  -5.519  1.00  0.00     0.275 C 
BRANCH  27  28
ATOM     28  O   UNL     1      -1.634   1.914  -6.548  1.00  0.00    -0.458 OA
BRANCH  28  29
ATOM     29  C   UNL     1      -0.395   1.599  -6.988  1.00  0.00     0.338 C 
ATOM     30  O   UNL     1       0.666   2.115  -6.682  1.00  0.00    -0.246 OA
BRANCH  29  31
ATOM     31  C   UNL     1      -0.472   0.404  -7.838  1.00  0.00     0.060 A 
ATOM     32  C   UNL     1      -0.592  -0.820  -7.197  1.00  0.00     0.016 A 
ATOM     33  C   UNL     1      -0.270   0.448  -9.211  1.00  0.00     0.016 A 
ATOM     34  C   UNL     1      -0.386  -2.010  -7.880  1.00  0.00     0.010 A 
ATOM     35  C   UNL     1      -0.206  -0.756  -9.929  1.00  0.00     0.010 A 
ATOM     36  C   UNL     1      -0.231  -2.001  -9.267  1.00  0.00    -0.014 A 
BRANCH  36  37
ATOM     37  C   UNL     1      -0.094  -3.289 -10.004  1.00  0.00     0.031 A 
ATOM     38  C   UNL     1       1.095  -3.531 -10.895  1.00  0.00     0.074 A 
ATOM     39  C   UNL     1      -1.027  -4.256  -9.864  1.00  0.00     0.049 A 
ATOM     40  N   UNL     1       1.298  -4.494 -11.759  1.00  0.00    -0.248 NA
ATOM     41  C   UNL     1       2.195  -2.557 -10.815  1.00  0.00     0.031 C 
ATOM     42  C   UNL     1      -2.196  -4.196  -8.981  1.00  0.00     0.029 A 
ATOM     43  N   UNL     1      -1.138  -5.487 -10.464  1.00  0.00    -0.354 N 
ATOM     44  C   UNL     1       2.514  -4.208 -12.367  1.00  0.00     0.074 A 
ATOM     45  C   UNL     1       3.002  -2.980 -11.777  1.00  0.00     0.031 C 
ATOM     46  C   UNL     1      -2.878  -5.346  -9.067  1.00  0.00     0.029 A 
ATOM     47  C   UNL     1      -2.268  -6.178 -10.095  1.00  0.00     0.049 A 
ATOM     48  H   UNL     1      -0.472  -5.841 -11.097  1.00  0.00     0.167 HD
ATOM     49  C   UNL     1       3.159  -4.903 -13.335  1.00  0.00     0.031 A 
ATOM     50  C   UNL     1      -2.800  -7.320 -10.569  1.00  0.00     0.031 A 
ATOM     51  C   UNL     1       2.680  -6.139 -13.898  1.00  0.00     0.049 A 
ATOM     52  C   UNL     1      -2.109  -8.026 -11.698  1.00  0.00     0.074 A 
ATOM     53  C   UNL     1       3.265  -6.925 -14.875  1.00  0.00     0.029 A 
ATOM     54  N   UNL     1       1.502  -6.771 -13.529  1.00  0.00    -0.354 N 
ATOM     55  N   UNL     1      -0.983  -7.722 -12.296  1.00  0.00    -0.248 NA
ATOM     56  C   UNL     1      -2.771  -9.225 -12.229  1.00  0.00     0.031 C 
ATOM     57  C   UNL     1       2.411  -7.999 -15.142  1.00  0.00     0.029 A 
ATOM     58  C   UNL     1       1.329  -7.922 -14.281  1.00  0.00     0.049 A 
ATOM     59  H   UNL     1       0.882  -6.450 -12.835  1.00  0.00     0.167 HD
ATOM     60  C   UNL     1      -0.791  -8.703 -13.260  1.00  0.00     0.074 A 
ATOM     61  C   UNL     1      -1.904  -9.623 -13.148  1.00  0.00     0.031 C 
ATOM     62  C   UNL     1       0.215  -8.827 -14.159  1.00  0.00     0.031 A 
BRANCH  49  63
ATOM     63  C   UNL     1       4.427  -4.312 -13.892  1.00  0.00    -0.014 A 
ATOM     64  C   UNL     1       5.614  -4.261 -13.145  1.00  0.00     0.009 A 
ATOM     65  C   UNL     1       4.438  -3.831 -15.212  1.00  0.00     0.009 A 
ATOM     66  C   UNL     1       6.773  -3.708 -13.696  1.00  0.00     0.001 A 
ATOM     67  C   UNL     1       5.605  -3.309 -15.771  1.00  0.00     0.001 A 
ATOM     68  C   UNL     1       6.769  -3.239 -15.009  1.00  0.00     0.000 A 
ENDBRANCH  49  63
BRANCH  50  69
ATOM     69  C   UNL     1      -4.093  -7.823 -10.031  1.00  0.00    -0.014 A 
ATOM     70  C   UNL     1      -4.156  -9.033  -9.325  1.00  0.00     0.009 A 
ATOM     71  C   UNL     1      -5.279  -7.095 -10.231  1.00  0.00     0.009 A 
ATOM     72  C   UNL     1      -5.380  -9.515  -8.853  1.00  0.00     0.001 A 
ATOM     73  C   UNL     1      -6.494  -7.559  -9.724  1.00  0.00     0.001 A 
ATOM     74  C   UNL     1      -6.546  -8.774  -9.046  1.00  0.00     0.000 A 
ENDBRANCH  50  69
BRANCH  62  75
ATOM     75  C   UNL     1       0.177 -10.027 -15.063  1.00  0.00    -0.014 A 
ATOM     76  C   UNL     1      -0.770 -10.138 -16.093  1.00  0.00     0.009 A 
ATOM     77  C   UNL     1       1.124 -11.049 -14.896  1.00  0.00     0.009 A 
ATOM     78  C   UNL     1      -0.792 -11.268 -16.912  1.00  0.00     0.001 A 
ATOM     79  C   UNL     1       1.122 -12.161 -15.738  1.00  0.00     0.001 A 
ATOM     80  C   UNL     1       0.158 -12.275 -16.738  1.00  0.00     0.000 A 
ENDBRANCH  62  75
ENDBRANCH  36  37
ENDBRANCH  29  31
ENDBRANCH  28  29
ENDBRANCH  27  28
ENDBRANCH  26  27
ENDBRANCH  25  26
ENDBRANCH   1  25
TORSDOF 17
