REMARK SMILES O=C(OCCOC(=O)c1ccc(-c2ccn(C(F)F)c(=O)c2)cc1O)c1ccc(-c2c3nc(c(-c4ccccc4)c4ccc([nH]4)c(-c4ccccc4)c4nc(c(-c5ccccc5)c5ccc2[nH]5)C=C4)C=C3)cc1
REMARK SMILES IDX 4 1 3 2 2 3 1 4 26 5 27 6 73 7 28 8 72 9 29 10 30 11 31 12
REMARK SMILES IDX 66 13 32 14 71 15 65 16 67 17 33 18 70 19 64 20 63 21 34 23
REMARK SMILES IDX 56 24 41 25 55 26 42 27 45 28 54 29 68 30 43 31 44 32 53 34
REMARK SMILES IDX 69 35 46 36 35 37 36 38 40 39 37 40 39 41 38 42 57 43 58 44
REMARK SMILES IDX 62 45 59 46 61 47 60 48 47 49 48 50 52 51 49 52 51 53 50 54
REMARK SMILES IDX 5 55 6 56 7 57 8 58 9 59 10 60 24 61 11 62 23 63 12 64 25 65
REMARK SMILES IDX 13 67 14 68 22 69 15 70 20 71 16 72 21 73 17 74 18 75 19 76
REMARK H PARENT 67 22 45 33 25 66
REMARK Flexibility Score: inf
ROOT
ATOM      1  C   UNL     1       4.373  -0.552  -1.283  1.00  0.00     0.275 C 
ENDROOT
BRANCH   1   2
ATOM      2  O   UNL     1       3.289  -1.014  -0.456  1.00  0.00    -0.458 OA
BRANCH   2   3
ATOM      3  C   UNL     1       3.053  -0.796   0.859  1.00  0.00     0.338 C 
ATOM      4  O   UNL     1       2.203  -1.474   1.434  1.00  0.00    -0.246 OA
BRANCH   3   5
ATOM      5  C   UNL     1       3.656   0.339   1.621  1.00  0.00     0.060 A 
ATOM      6  C   UNL     1       2.821   0.957   2.567  1.00  0.00     0.016 A 
ATOM      7  C   UNL     1       4.966   0.808   1.503  1.00  0.00     0.016 A 
ATOM      8  C   UNL     1       3.244   2.082   3.278  1.00  0.00     0.010 A 
ATOM      9  C   UNL     1       5.397   1.933   2.220  1.00  0.00     0.010 A 
ATOM     10  C   UNL     1       4.532   2.598   3.091  1.00  0.00    -0.014 A 
BRANCH  10  11
ATOM     11  C   UNL     1       5.003   3.732   3.920  1.00  0.00     0.031 A 
ATOM     12  C   UNL     1       5.204   5.106   3.353  1.00  0.00     0.074 A 
ATOM     13  C   UNL     1       5.249   3.504   5.222  1.00  0.00     0.049 A 
ATOM     14  N   UNL     1       5.332   6.241   3.992  1.00  0.00    -0.248 NA
ATOM     15  C   UNL     1       5.255   5.238   1.891  1.00  0.00     0.031 C 
ATOM     16  C   UNL     1       5.130   2.202   5.880  1.00  0.00     0.029 A 
ATOM     17  N   UNL     1       5.641   4.354   6.223  1.00  0.00    -0.354 N 
ATOM     18  C   UNL     1       5.390   7.225   3.016  1.00  0.00     0.074 A 
ATOM     19  C   UNL     1       5.351   6.555   1.736  1.00  0.00     0.031 C 
ATOM     20  C   UNL     1       5.421   2.343   7.181  1.00  0.00     0.029 A 
ATOM     21  C   UNL     1       5.767   3.736   7.442  1.00  0.00     0.049 A 
ATOM     22  H   UNL     1       5.815   5.312   6.081  1.00  0.00     0.167 HD
ATOM     23  C   UNL     1       5.463   8.566   3.182  1.00  0.00     0.031 A 
ATOM     24  C   UNL     1       6.113   4.236   8.643  1.00  0.00     0.031 A 
ATOM     25  C   UNL     1       5.679   9.208   4.452  1.00  0.00     0.049 A 
ATOM     26  C   UNL     1       6.351   5.712   8.775  1.00  0.00     0.074 A 
ATOM     27  C   UNL     1       5.801  10.560   4.721  1.00  0.00     0.029 A 
ATOM     28  N   UNL     1       5.878   8.540   5.650  1.00  0.00    -0.354 N 
ATOM     29  N   UNL     1       6.237   6.649   7.864  1.00  0.00    -0.248 NA
ATOM     30  C   UNL     1       6.743   6.204  10.101  1.00  0.00     0.031 C 
ATOM     31  C   UNL     1       6.180  10.703   6.058  1.00  0.00     0.029 A 
ATOM     32  C   UNL     1       6.199   9.447   6.645  1.00  0.00     0.049 A 
ATOM     33  H   UNL     1       5.803   7.566   5.775  1.00  0.00     0.167 HD
ATOM     34  C   UNL     1       6.501   7.846   8.516  1.00  0.00     0.074 A 
ATOM     35  C   UNL     1       6.784   7.515   9.898  1.00  0.00     0.031 C 
ATOM     36  C   UNL     1       6.494   9.105   8.014  1.00  0.00     0.031 A 
BRANCH  23  37
ATOM     37  C   UNL     1       5.332   9.446   1.970  1.00  0.00    -0.014 A 
ATOM     38  C   UNL     1       6.438  10.170   1.496  1.00  0.00     0.009 A 
ATOM     39  C   UNL     1       4.072   9.675   1.394  1.00  0.00     0.009 A 
ATOM     40  C   UNL     1       6.281  11.121   0.486  1.00  0.00     0.001 A 
ATOM     41  C   UNL     1       3.922  10.615   0.371  1.00  0.00     0.001 A 
ATOM     42  C   UNL     1       5.024  11.345  -0.074  1.00  0.00     0.000 A 
ENDBRANCH  23  37
BRANCH  24  43
ATOM     43  C   UNL     1       6.197   3.316   9.806  1.00  0.00    -0.014 A 
ATOM     44  C   UNL     1       7.184   2.317   9.853  1.00  0.00     0.009 A 
ATOM     45  C   UNL     1       5.243   3.374  10.832  1.00  0.00     0.009 A 
ATOM     46  C   UNL     1       7.194   1.375  10.884  1.00  0.00     0.001 A 
ATOM     47  C   UNL     1       5.275   2.450  11.879  1.00  0.00     0.001 A 
ATOM     48  C   UNL     1       6.241   1.445  11.898  1.00  0.00     0.000 A 
ENDBRANCH  24  43
BRANCH  36  49
ATOM     49  C   UNL     1       6.790  10.238   8.957  1.00  0.00    -0.014 A 
ATOM     50  C   UNL     1       5.779  11.165   9.263  1.00  0.00     0.009 A 
ATOM     51  C   UNL     1       8.081  10.449   9.464  1.00  0.00     0.009 A 
ATOM     52  C   UNL     1       6.058  12.288  10.042  1.00  0.00     0.001 A 
ATOM     53  C   UNL     1       8.349  11.555  10.273  1.00  0.00     0.001 A 
ATOM     54  C   UNL     1       7.341  12.478  10.552  1.00  0.00     0.000 A 
ENDBRANCH  36  49
ENDBRANCH  10  11
ENDBRANCH   3   5
ENDBRANCH   2   3
ENDBRANCH   1   2
BRANCH   1  55
ATOM     55  C   UNL     1       4.122   0.784  -1.980  1.00  0.00     0.275 C 
BRANCH  55  56
ATOM     56  O   UNL     1       3.603   1.788  -1.098  1.00  0.00    -0.458 OA
BRANCH  56  57
ATOM     57  C   UNL     1       2.267   2.023  -1.218  1.00  0.00     0.342 C 
ATOM     58  O   UNL     1       1.491   1.455  -1.959  1.00  0.00    -0.246 OA
BRANCH  57  59
ATOM     59  C   UNL     1       1.828   2.982  -0.184  1.00  0.00     0.101 A 
ATOM     60  C   UNL     1       0.766   2.595   0.643  1.00  0.00     0.020 A 
ATOM     61  C   UNL     1       2.405   4.241  -0.022  1.00  0.00     0.130 A 
ATOM     62  C   UNL     1       0.332   3.436   1.673  1.00  0.00     0.010 A 
ATOM     63  C   UNL     1       1.960   5.090   0.998  1.00  0.00     0.055 A 
ATOM     64  C   UNL     1       0.936   4.685   1.867  1.00  0.00    -0.014 A 
BRANCH  61  65
ATOM     65  O   UNL     1       3.390   4.665  -0.870  1.00  0.00    -0.507 OA
ATOM     66  H   UNL     1       3.693   4.102  -1.555  1.00  0.00     0.293 HD
ENDBRANCH  61  65
BRANCH  64  67
ATOM     67  C   UNL     1       0.471   5.599   2.933  1.00  0.00    -0.011 A 
ATOM     68  C   UNL     1      -0.071   6.911   2.633  1.00  0.00     0.027 A 
ATOM     69  C   UNL     1       0.546   5.209   4.218  1.00  0.00     0.080 A 
ATOM     70  C   UNL     1      -0.507   7.711   3.612  1.00  0.00     0.095 A 
ATOM     71  C   UNL     1       0.053   6.085   5.321  1.00  0.00     0.255 A 
ATOM     72  N   UNL     1      -0.456   7.314   4.934  1.00  0.00    -0.258 N 
ATOM     73  O   UNL     1       0.109   5.665   6.472  1.00  0.00    -0.269 OA
BRANCH  72  74
ATOM     74  C   UNL     1      -0.962   8.172   5.974  1.00  0.00     0.451 C 
ATOM     75  F   UNL     1      -1.985   7.581   6.638  1.00  0.00    -0.185 F 
ATOM     76  F   UNL     1       0.002   8.479   6.875  1.00  0.00    -0.185 F 
ENDBRANCH  72  74
ENDBRANCH  64  67
ENDBRANCH  57  59
ENDBRANCH  56  57
ENDBRANCH  55  56
ENDBRANCH   1  55
TORSDOF 14
