REMARK SMILES O=C(OCCOC(=O)c1ccc([S@@](=O)[C@H]2CCOC3(CCCC3)C2)cc1)c1ccc(-c2c3nc(c(-c4ccccc4)c4ccc([nH]4)c(-c4ccccc4)c4nc(c(-c5ccccc5)c5ccc2[nH]5)C=C4)C=C3)cc1
REMARK SMILES IDX 4 1 3 2 2 3 1 4 27 5 28 6 74 7 29 8 73 9 30 10 31 11 32 12
REMARK SMILES IDX 67 13 33 14 72 15 66 16 68 17 34 18 71 19 65 20 64 21 35 23
REMARK SMILES IDX 57 24 42 25 56 26 43 27 46 28 55 29 69 30 44 31 45 32 54 34
REMARK SMILES IDX 70 35 47 36 36 37 37 38 41 39 38 40 40 41 39 42 58 43 59 44
REMARK SMILES IDX 63 45 60 46 62 47 61 48 48 49 49 50 53 51 50 52 52 53 51 54
REMARK SMILES IDX 5 55 6 56 7 57 8 58 9 59 10 60 26 61 11 62 25 63 12 64 13 65
REMARK SMILES IDX 14 66 15 67 16 68 24 69 17 70 19 71 18 72 20 73 23 74 21 75
REMARK SMILES IDX 22 76
REMARK H PARENT 68 22 46 33
REMARK Flexibility Score: inf
ROOT
ATOM      1  C   UNL     1       3.990   9.007  14.639  1.00  0.00     0.275 C 
ENDROOT
BRANCH   1   2
ATOM      2  O   UNL     1       4.975   8.195  13.977  1.00  0.00    -0.458 OA
BRANCH   2   3
ATOM      3  C   UNL     1       5.113   6.849  13.957  1.00  0.00     0.338 C 
ATOM      4  O   UNL     1       6.191   6.369  13.609  1.00  0.00    -0.246 OA
BRANCH   3   5
ATOM      5  C   UNL     1       3.980   5.894  14.173  1.00  0.00     0.060 A 
ATOM      6  C   UNL     1       2.892   6.080  15.028  1.00  0.00     0.016 A 
ATOM      7  C   UNL     1       4.048   4.685  13.453  1.00  0.00     0.016 A 
ATOM      8  C   UNL     1       1.874   5.126  15.116  1.00  0.00     0.010 A 
ATOM      9  C   UNL     1       3.026   3.735  13.524  1.00  0.00     0.010 A 
ATOM     10  C   UNL     1       1.932   3.952  14.364  1.00  0.00    -0.014 A 
BRANCH  10  11
ATOM     11  C   UNL     1       0.909   2.904  14.560  1.00  0.00     0.031 A 
ATOM     12  C   UNL     1       1.249   1.712  15.400  1.00  0.00     0.074 A 
ATOM     13  C   UNL     1      -0.319   3.036  14.029  1.00  0.00     0.049 A 
ATOM     14  N   UNL     1       0.488   0.710  15.752  1.00  0.00    -0.248 NA
ATOM     15  C   UNL     1       2.618   1.656  15.941  1.00  0.00     0.031 C 
ATOM     16  C   UNL     1      -0.780   4.183  13.252  1.00  0.00     0.029 A 
ATOM     17  N   UNL     1      -1.398   2.192  14.049  1.00  0.00    -0.354 N 
ATOM     18  C   UNL     1       1.270  -0.070  16.591  1.00  0.00     0.074 A 
ATOM     19  C   UNL     1       2.584   0.531  16.638  1.00  0.00     0.031 C 
ATOM     20  C   UNL     1      -2.026   3.945  12.809  1.00  0.00     0.029 A 
ATOM     21  C   UNL     1      -2.453   2.636  13.289  1.00  0.00     0.049 A 
ATOM     22  H   UNL     1      -1.416   1.350  14.559  1.00  0.00     0.167 HD
ATOM     23  C   UNL     1       0.911  -1.171  17.290  1.00  0.00     0.031 A 
ATOM     24  C   UNL     1      -3.630   2.047  13.009  1.00  0.00     0.031 A 
ATOM     25  C   UNL     1      -0.382  -1.790  17.201  1.00  0.00     0.049 A 
ATOM     26  C   UNL     1      -3.953   0.737  13.672  1.00  0.00     0.074 A 
ATOM     27  C   UNL     1      -0.851  -2.912  17.859  1.00  0.00     0.029 A 
ATOM     28  N   UNL     1      -1.407  -1.345  16.380  1.00  0.00    -0.354 N 
ATOM     29  N   UNL     1      -3.232   0.044  14.520  1.00  0.00    -0.248 NA
ATOM     30  C   UNL     1      -5.266   0.149  13.374  1.00  0.00     0.031 C 
ATOM     31  C   UNL     1      -2.146  -3.174  17.397  1.00  0.00     0.029 A 
ATOM     32  C   UNL     1      -2.499  -2.187  16.490  1.00  0.00     0.049 A 
ATOM     33  H   UNL     1      -1.365  -0.547  15.804  1.00  0.00     0.167 HD
ATOM     34  C   UNL     1      -4.020  -1.034  14.896  1.00  0.00     0.074 A 
ATOM     35  C   UNL     1      -5.273  -0.905  14.179  1.00  0.00     0.031 C 
ATOM     36  C   UNL     1      -3.738  -2.032  15.770  1.00  0.00     0.031 A 
BRANCH  23  37
ATOM     37  C   UNL     1       1.956  -1.762  18.189  1.00  0.00    -0.014 A 
ATOM     38  C   UNL     1       2.336  -1.110  19.375  1.00  0.00     0.009 A 
ATOM     39  C   UNL     1       2.595  -2.958  17.834  1.00  0.00     0.009 A 
ATOM     40  C   UNL     1       3.367  -1.623  20.164  1.00  0.00     0.001 A 
ATOM     41  C   UNL     1       3.610  -3.480  18.637  1.00  0.00     0.001 A 
ATOM     42  C   UNL     1       4.003  -2.807  19.794  1.00  0.00     0.000 A 
ENDBRANCH  23  37
BRANCH  24  43
ATOM     43  C   UNL     1      -4.588   2.695  12.076  1.00  0.00    -0.014 A 
ATOM     44  C   UNL     1      -5.786   3.255  12.543  1.00  0.00     0.009 A 
ATOM     45  C   UNL     1      -4.306   2.748  10.701  1.00  0.00     0.009 A 
ATOM     46  C   UNL     1      -6.696   3.828  11.650  1.00  0.00     0.001 A 
ATOM     47  C   UNL     1      -5.208   3.340   9.813  1.00  0.00     0.001 A 
ATOM     48  C   UNL     1      -6.406   3.871  10.287  1.00  0.00     0.000 A 
ENDBRANCH  24  43
BRANCH  36  49
ATOM     49  C   UNL     1      -4.825  -3.033  16.034  1.00  0.00    -0.014 A 
ATOM     50  C   UNL     1      -5.159  -4.014  15.089  1.00  0.00     0.009 A 
ATOM     51  C   UNL     1      -5.490  -3.017  17.270  1.00  0.00     0.009 A 
ATOM     52  C   UNL     1      -6.161  -4.945  15.368  1.00  0.00     0.001 A 
ATOM     53  C   UNL     1      -6.471  -3.966  17.556  1.00  0.00     0.001 A 
ATOM     54  C   UNL     1      -6.811  -4.924  16.602  1.00  0.00     0.000 A 
ENDBRANCH  36  49
ENDBRANCH  10  11
ENDBRANCH   3   5
ENDBRANCH   2   3
ENDBRANCH   1   2
BRANCH   1  55
ATOM     55  C   UNL     1       2.801   9.400  13.759  1.00  0.00     0.275 C 
BRANCH  55  56
ATOM     56  O   UNL     1       2.304   8.318  12.960  1.00  0.00    -0.458 OA
BRANCH  56  57
ATOM     57  C   UNL     1       2.785   8.279  11.689  1.00  0.00     0.338 C 
ATOM     58  O   UNL     1       3.547   9.071  11.163  1.00  0.00    -0.246 OA
BRANCH  57  59
ATOM     59  C   UNL     1       2.367   7.014  11.061  1.00  0.00     0.060 A 
ATOM     60  C   UNL     1       3.363   6.146  10.611  1.00  0.00     0.017 A 
ATOM     61  C   UNL     1       1.024   6.658  10.954  1.00  0.00     0.017 A 
ATOM     62  C   UNL     1       3.017   4.875  10.143  1.00  0.00     0.018 A 
ATOM     63  C   UNL     1       0.684   5.409  10.419  1.00  0.00     0.018 A 
ATOM     64  C   UNL     1       1.675   4.494  10.034  1.00  0.00     0.039 A 
BRANCH  64  65
ATOM     65  S   UNL     1       1.203   2.817   9.533  1.00  0.00     0.056 S 
ATOM     66  O   UNL     1      -0.295   2.830   9.428  1.00  0.00    -0.254 OA
BRANCH  65  67
ATOM     67  C   UNL     1       1.853   2.693   7.827  1.00  0.00     0.089 C 
ATOM     68  C   UNL     1       1.696   3.969   7.013  1.00  0.00     0.046 C 
ATOM     69  C   UNL     1       3.288   2.177   7.809  1.00  0.00     0.053 C 
ATOM     70  C   UNL     1       2.281   3.773   5.626  1.00  0.00     0.162 C 
ATOM     71  C   UNL     1       3.854   2.092   6.385  1.00  0.00     0.069 C 
ATOM     72  O   UNL     1       3.635   3.329   5.693  1.00  0.00    -0.375 OA
ATOM     73  C   UNL     1       5.389   1.876   6.430  1.00  0.00     0.035 C 
ATOM     74  C   UNL     1       3.315   0.892   5.578  1.00  0.00     0.035 C 
ATOM     75  C   UNL     1       5.657   0.553   5.722  1.00  0.00     0.003 C 
ATOM     76  C   UNL     1       4.504   0.427   4.748  1.00  0.00     0.003 C 
ENDBRANCH  65  67
ENDBRANCH  64  65
ENDBRANCH  57  59
ENDBRANCH  56  57
ENDBRANCH  55  56
ENDBRANCH   1  55
TORSDOF 13
