REMARK SMILES C[NH+](C)[C@H]1CCN(C(=O)C(=O)c2ccccc2)C[C@H]1CCC(=O)OCCOC(=O)c1ccc(-c2c3nc(c(-c4ccccc4)c4ccc([nH]4)c(-c4ccccc4)c4nc(c(-c5ccccc5)c5ccc2[nH]5)C=C4)C=C3)cc1
REMARK SMILES IDX 24 1 22 2 23 3 21 4 20 5 19 6 4 7 5 8 6 9 18 10 7 11 2 12
REMARK SMILES IDX 1 13 3 14 8 16 9 17 10 18 11 19 12 20 13 21 17 22 14 23
REMARK SMILES IDX 16 24 15 25 25 26 26 27 27 28 28 29 29 30 30 31 31 32 77 33
REMARK SMILES IDX 32 34 76 35 33 36 34 37 35 38 70 39 36 40 75 41 69 42 71 43
REMARK SMILES IDX 37 44 74 45 68 46 67 47 38 49 60 50 45 51 59 52 46 53 49 54
REMARK SMILES IDX 58 55 72 56 47 57 48 58 57 60 73 61 50 62 39 63 40 64 44 65
REMARK SMILES IDX 41 66 43 67 42 68 61 69 62 70 66 71 63 72 65 73 64 74 51 75
REMARK SMILES IDX 52 76 56 77 53 78 55 79 54 80
REMARK H PARENT 2 15 71 48 49 59
REMARK Flexibility Score: inf
ROOT
ATOM      1  O   UNL     1       1.817  -1.504   3.102  1.00  0.00    -0.462 OA
ENDROOT
BRANCH   1   2
ATOM      2  C   UNL     1       1.169  -0.904   4.131  1.00  0.00     0.305 C 
ATOM      3  O   UNL     1       0.426  -1.481   4.917  1.00  0.00    -0.252 OA
BRANCH   2   4
ATOM      4  C   UNL     1       1.501   0.569   4.270  1.00  0.00     0.123 C 
BRANCH   4   5
ATOM      5  C   UNL     1       2.519   1.158   3.294  1.00  0.00     0.023 C 
BRANCH   5   6
ATOM      6  C   UNL     1       2.150   1.219   1.785  1.00  0.00     0.067 C 
ATOM      7  C   UNL     1       0.808   1.936   1.434  1.00  0.00     0.190 C 
ATOM      8  C   UNL     1       0.948   3.440   1.748  1.00  0.00     0.087 C 
ATOM      9  C   UNL     1       2.129   4.046   0.999  1.00  0.00     0.126 C 
ATOM     10  C   UNL     1       3.328   1.889   1.036  1.00  0.00     0.129 C 
ATOM     11  N   UNL     1       3.372   3.335   1.260  1.00  0.00    -0.335 N 
BRANCH   7  12
ATOM     12  N   UNL     1      -0.336   1.256   2.085  1.00  0.00    -0.337 N 
ATOM     13  C   UNL     1      -0.780   0.068   1.353  1.00  0.00     0.332 C 
ATOM     14  C   UNL     1      -1.486   2.096   2.408  1.00  0.00     0.332 C 
ATOM     15  H   UNL     1       0.062   0.978   2.982  1.00  0.00     0.347 HD
ENDBRANCH   7  12
BRANCH  11  16
ATOM     16  C   UNL     1       4.523   4.097   1.502  1.00  0.00     0.294 C 
ATOM     17  O   UNL     1       4.487   5.316   1.660  1.00  0.00    -0.265 OA
BRANCH  16  18
ATOM     18  C   UNL     1       5.902   3.424   1.531  1.00  0.00     0.250 C 
ATOM     19  O   UNL     1       6.150   2.507   0.754  1.00  0.00    -0.283 OA
BRANCH  18  20
ATOM     20  C   UNL     1       6.981   3.978   2.403  1.00  0.00     0.028 A 
ATOM     21  C   UNL     1       8.313   3.681   2.072  1.00  0.00     0.012 A 
ATOM     22  C   UNL     1       6.724   4.811   3.500  1.00  0.00     0.012 A 
ATOM     23  C   UNL     1       9.368   4.243   2.796  1.00  0.00     0.001 A 
ATOM     24  C   UNL     1       7.783   5.373   4.222  1.00  0.00     0.001 A 
ATOM     25  C   UNL     1       9.102   5.097   3.864  1.00  0.00     0.000 A 
ENDBRANCH  18  20
ENDBRANCH  16  18
ENDBRANCH  11  16
ENDBRANCH   5   6
ENDBRANCH   4   5
ENDBRANCH   2   4
ENDBRANCH   1   2
BRANCH   1  26
ATOM     26  C   UNL     1       1.605  -2.917   2.911  1.00  0.00     0.274 C 
BRANCH  26  27
ATOM     27  C   UNL     1       2.939  -3.661   2.977  1.00  0.00     0.275 C 
BRANCH  27  28
ATOM     28  O   UNL     1       3.490  -3.569   4.303  1.00  0.00    -0.458 OA
BRANCH  28  29
ATOM     29  C   UNL     1       4.384  -2.570   4.479  1.00  0.00     0.338 C 
ATOM     30  O   UNL     1       4.858  -1.828   3.638  1.00  0.00    -0.246 OA
BRANCH  29  31
ATOM     31  C   UNL     1       4.589  -2.378   5.919  1.00  0.00     0.060 A 
ATOM     32  C   UNL     1       3.959  -1.286   6.516  1.00  0.00     0.016 A 
ATOM     33  C   UNL     1       5.438  -3.199   6.655  1.00  0.00     0.016 A 
ATOM     34  C   UNL     1       4.180  -0.990   7.854  1.00  0.00     0.010 A 
ATOM     35  C   UNL     1       5.655  -2.910   8.006  1.00  0.00     0.010 A 
ATOM     36  C   UNL     1       5.039  -1.796   8.607  1.00  0.00    -0.014 A 
BRANCH  36  37
ATOM     37  C   UNL     1       5.351  -1.419  10.004  1.00  0.00     0.031 A 
ATOM     38  C   UNL     1       6.707  -0.867  10.333  1.00  0.00     0.074 A 
ATOM     39  C   UNL     1       4.413  -1.537  10.962  1.00  0.00     0.049 A 
ATOM     40  N   UNL     1       7.227  -0.595  11.502  1.00  0.00    -0.248 NA
ATOM     41  C   UNL     1       7.596  -0.585   9.194  1.00  0.00     0.031 C 
ATOM     42  C   UNL     1       3.037  -1.986  10.751  1.00  0.00     0.029 A 
ATOM     43  N   UNL     1       4.481  -1.283  12.308  1.00  0.00    -0.354 N 
ATOM     44  C   UNL     1       8.517  -0.151  11.243  1.00  0.00     0.074 A 
ATOM     45  C   UNL     1       8.701  -0.188   9.809  1.00  0.00     0.031 C 
ATOM     46  C   UNL     1       2.387  -1.969  11.926  1.00  0.00     0.029 A 
ATOM     47  C   UNL     1       3.316  -1.565  12.976  1.00  0.00     0.049 A 
ATOM     48  H   UNL     1       5.287  -0.932  12.751  1.00  0.00     0.167 HD
ATOM     49  C   UNL     1       9.464   0.244  12.126  1.00  0.00     0.031 A 
ATOM     50  C   UNL     1       3.041  -1.534  14.293  1.00  0.00     0.031 A 
ATOM     51  C   UNL     1       9.270   0.293  13.550  1.00  0.00     0.049 A 
ATOM     52  C   UNL     1       4.125  -1.142  15.257  1.00  0.00     0.074 A 
ATOM     53  C   UNL     1      10.169   0.666  14.533  1.00  0.00     0.029 A 
ATOM     54  N   UNL     1       8.086  -0.034  14.192  1.00  0.00    -0.354 N 
ATOM     55  N   UNL     1       5.358  -0.774  15.008  1.00  0.00    -0.248 NA
ATOM     56  C   UNL     1       3.780  -1.173  16.686  1.00  0.00     0.031 C 
ATOM     57  C   UNL     1       9.538   0.533  15.775  1.00  0.00     0.029 A 
ATOM     58  C   UNL     1       8.233   0.118  15.560  1.00  0.00     0.049 A 
ATOM     59  H   UNL     1       7.262  -0.330  13.742  1.00  0.00     0.167 HD
ATOM     60  C   UNL     1       5.934  -0.517  16.244  1.00  0.00     0.074 A 
ATOM     61  C   UNL     1       4.909  -0.753  17.241  1.00  0.00     0.031 C 
ATOM     62  C   UNL     1       7.199  -0.125  16.531  1.00  0.00     0.031 A 
BRANCH  49  63
ATOM     63  C   UNL     1      10.812   0.602  11.571  1.00  0.00    -0.014 A 
ATOM     64  C   UNL     1      11.027   1.810  10.890  1.00  0.00     0.009 A 
ATOM     65  C   UNL     1      11.887  -0.283  11.745  1.00  0.00     0.009 A 
ATOM     66  C   UNL     1      12.287   2.109  10.367  1.00  0.00     0.001 A 
ATOM     67  C   UNL     1      13.150   0.029  11.240  1.00  0.00     0.001 A 
ATOM     68  C   UNL     1      13.347   1.220  10.544  1.00  0.00     0.000 A 
ENDBRANCH  49  63
BRANCH  50  69
ATOM     69  C   UNL     1       1.694  -1.929  14.779  1.00  0.00    -0.014 A 
ATOM     70  C   UNL     1       0.813  -0.970  15.301  1.00  0.00     0.009 A 
ATOM     71  C   UNL     1       1.284  -3.270  14.722  1.00  0.00     0.009 A 
ATOM     72  C   UNL     1      -0.447  -1.351  15.770  1.00  0.00     0.001 A 
ATOM     73  C   UNL     1       0.014  -3.643  15.168  1.00  0.00     0.001 A 
ATOM     74  C   UNL     1      -0.847  -2.684  15.698  1.00  0.00     0.000 A 
ENDBRANCH  50  69
BRANCH  62  75
ATOM     75  C   UNL     1       7.528   0.099  17.977  1.00  0.00    -0.014 A 
ATOM     76  C   UNL     1       7.738  -0.981  18.848  1.00  0.00     0.009 A 
ATOM     77  C   UNL     1       7.657   1.408  18.466  1.00  0.00     0.009 A 
ATOM     78  C   UNL     1       8.043  -0.753  20.191  1.00  0.00     0.001 A 
ATOM     79  C   UNL     1       7.984   1.632  19.803  1.00  0.00     0.001 A 
ATOM     80  C   UNL     1       8.168   0.553  20.666  1.00  0.00     0.000 A 
ENDBRANCH  62  75
ENDBRANCH  36  37
ENDBRANCH  29  31
ENDBRANCH  28  29
ENDBRANCH  27  28
ENDBRANCH  26  27
ENDBRANCH   1  26
TORSDOF 17
