REMARK SMILES CC(C)c1ccc2c(c1)c(SC(C)(C)C)c(CC(C)(C)C(=O)OCCOC(=O)c1ccc(-c3c4nc(c(-c5ccccc5)c5ccc([nH]5)c(-c5ccccc5)c5nc(c(-c6ccccc6)c6ccc3[nH]6)C=C5)C=C4)cc1)n2Cc1ccc(Cl)cc1
REMARK SMILES IDX 24 1 23 2 21 3 22 4 18 5 19 6 20 7 17 8 16 9 4 10 5 11 9 12
REMARK SMILES IDX 6 13 8 14 7 15 10 16 77 17 2 18 1 19 3 20 11 21 12 22 13 23
REMARK SMILES IDX 14 24 15 25 78 26 79 27 80 28 85 29 81 30 84 31 82 32 83 33
REMARK SMILES IDX 25 34 26 35 27 36 28 37 29 38 30 39 76 40 31 41 75 42 32 43
REMARK SMILES IDX 33 44 34 45 69 46 35 47 74 48 68 49 70 50 36 51 73 52 67 53
REMARK SMILES IDX 66 54 37 56 59 57 44 58 58 59 45 60 48 61 57 62 71 63 46 64
REMARK SMILES IDX 47 65 56 67 72 68 49 69 38 70 39 71 43 72 40 73 42 74 41 75
REMARK SMILES IDX 60 76 61 77 65 78 62 79 64 80 63 81 50 82 51 83 55 84 52 85
REMARK SMILES IDX 54 86 53 87
REMARK H PARENT 70 55 48 66
REMARK Flexibility Score: inf
ROOT
ATOM      1  C   UNL     1      -7.062   0.582   6.853  1.00  0.00     0.274 C 
ENDROOT
BRANCH   1   2
ATOM      2  O   UNL     1      -7.232   1.569   5.831  1.00  0.00    -0.462 OA
BRANCH   2   3
ATOM      3  C   UNL     1      -6.103   1.849   5.148  1.00  0.00     0.312 C 
ATOM      4  O   UNL     1      -5.005   1.381   5.430  1.00  0.00    -0.252 OA
BRANCH   3   5
ATOM      5  C   UNL     1      -6.292   2.881   4.054  1.00  0.00     0.068 C 
ATOM      6  C   UNL     1      -5.320   3.958   4.566  1.00  0.00     0.024 C 
ATOM      7  C   UNL     1      -7.729   3.490   3.957  1.00  0.00     0.024 C 
BRANCH   5   8
ATOM      8  C   UNL     1      -5.899   2.301   2.670  1.00  0.00     0.073 C 
BRANCH   8   9
ATOM      9  C   UNL     1      -4.649   1.530   2.543  1.00  0.00     0.034 A 
ATOM     10  C   UNL     1      -0.693  -1.194   1.706  1.00  0.00    -0.045 A 
ATOM     11  C   UNL     1      -1.747  -2.068   1.499  1.00  0.00     0.006 A 
ATOM     12  C   UNL     1      -1.080   0.235   1.949  1.00  0.00     0.015 A 
ATOM     13  C   UNL     1      -3.037  -1.659   1.772  1.00  0.00     0.027 A 
ATOM     14  C   UNL     1      -2.468   0.749   2.106  1.00  0.00     0.014 A 
ATOM     15  C   UNL     1      -3.364  -0.316   2.110  1.00  0.00     0.050 A 
ATOM     16  C   UNL     1      -3.401   2.026   2.252  1.00  0.00     0.037 A 
ATOM     17  N   UNL     1      -4.529   0.170   2.684  1.00  0.00    -0.339 N 
BRANCH  10  18
ATOM     18  C   UNL     1       0.668  -1.995   2.012  1.00  0.00     0.013 C 
ATOM     19  C   UNL     1       1.841  -2.582   1.137  1.00  0.00     0.012 C 
ATOM     20  C   UNL     1       1.204  -1.655   3.388  1.00  0.00     0.012 C 
ENDBRANCH  10  18
BRANCH  16  21
ATOM     21  S   UNL     1      -3.247   3.954   2.030  1.00  0.00    -0.118 SA
BRANCH  21  22
ATOM     22  C   UNL     1      -4.843   4.884   0.937  1.00  0.00     0.012 C 
ATOM     23  C   UNL     1      -5.600   4.128  -0.207  1.00  0.00     0.023 C 
ATOM     24  C   UNL     1      -5.958   5.585   1.786  1.00  0.00     0.023 C 
ATOM     25  C   UNL     1      -4.208   6.143   0.276  1.00  0.00     0.023 C 
ENDBRANCH  21  22
ENDBRANCH  16  21
BRANCH  17  26
ATOM     26  C   UNL     1      -5.213  -0.708   3.604  1.00  0.00     0.158 C 
BRANCH  26  27
ATOM     27  C   UNL     1      -6.665  -0.870   3.454  1.00  0.00    -0.028 A 
ATOM     28  C   UNL     1      -8.053   0.311   3.193  1.00  0.00     0.007 A 
ATOM     29  C   UNL     1      -7.074  -2.670   3.513  1.00  0.00     0.007 A 
ATOM     30  C   UNL     1      -9.704  -0.310   2.703  1.00  0.00     0.021 A 
ATOM     31  C   UNL     1      -8.716  -3.226   3.072  1.00  0.00     0.021 A 
ATOM     32  C   UNL     1      -9.989  -2.075   2.604  1.00  0.00     0.041 A 
ATOM     33  Cl  UNL     1     -11.637  -2.623   2.701  1.00  0.00    -0.084 Cl
ENDBRANCH  26  27
ENDBRANCH  17  26
ENDBRANCH   8   9
ENDBRANCH   5   8
ENDBRANCH   3   5
ENDBRANCH   2   3
ENDBRANCH   1   2
BRANCH   1  34
ATOM     34  C   UNL     1      -7.933  -0.649   6.546  1.00  0.00     0.275 C 
BRANCH  34  35
ATOM     35  O   UNL     1      -7.573  -1.269   5.266  1.00  0.00    -0.458 OA
BRANCH  35  36
ATOM     36  C   UNL     1      -8.560  -1.392   4.047  1.00  0.00     0.338 C 
ATOM     37  O   UNL     1      -9.647  -1.343   4.660  1.00  0.00    -0.246 OA
BRANCH  36  38
ATOM     38  C   UNL     1      -7.953  -1.397   1.946  1.00  0.00     0.060 A 
ATOM     39  C   UNL     1      -6.894  -2.148   1.193  1.00  0.00     0.016 A 
ATOM     40  C   UNL     1      -7.955  -0.209   0.900  1.00  0.00     0.016 A 
ATOM     41  C   UNL     1      -5.804  -1.579   0.239  1.00  0.00     0.010 A 
ATOM     42  C   UNL     1      -6.918   0.313  -0.091  1.00  0.00     0.010 A 
ATOM     43  C   UNL     1      -5.663  -0.232  -0.235  1.00  0.00    -0.014 A 
BRANCH  43  44
ATOM     44  C   UNL     1      -4.420   0.369  -1.160  1.00  0.00     0.031 A 
ATOM     45  C   UNL     1      -4.231  -0.642  -2.174  1.00  0.00     0.074 A 
ATOM     46  C   UNL     1      -3.422   1.368  -1.368  1.00  0.00     0.049 A 
ATOM     47  N   UNL     1      -3.328  -1.554  -2.078  1.00  0.00    -0.248 NA
ATOM     48  C   UNL     1      -5.239  -0.828  -3.216  1.00  0.00     0.031 C 
ATOM     49  C   UNL     1      -3.083   2.485  -0.527  1.00  0.00     0.029 A 
ATOM     50  N   UNL     1      -2.324   1.614  -2.314  1.00  0.00    -0.354 N 
ATOM     51  C   UNL     1      -3.437  -2.200  -3.272  1.00  0.00     0.074 A 
ATOM     52  C   UNL     1      -4.773  -1.953  -3.761  1.00  0.00     0.031 C 
ATOM     53  C   UNL     1      -2.365   3.496  -1.066  1.00  0.00     0.029 A 
ATOM     54  C   UNL     1      -1.760   2.973  -2.261  1.00  0.00     0.049 A 
ATOM     55  H   UNL     1      -1.993   0.924  -2.934  1.00  0.00     0.167 HD
ATOM     56  C   UNL     1      -2.297  -2.492  -3.931  1.00  0.00     0.031 A 
ATOM     57  C   UNL     1      -0.602   3.611  -2.672  1.00  0.00     0.031 A 
ATOM     58  C   UNL     1      -1.128  -2.461  -3.095  1.00  0.00     0.049 A 
ATOM     59  C   UNL     1       0.462   2.649  -2.913  1.00  0.00     0.074 A 
ATOM     60  C   UNL     1      -0.624  -3.374  -2.223  1.00  0.00     0.029 A 
ATOM     61  N   UNL     1      -0.554  -1.247  -2.770  1.00  0.00    -0.354 N 
ATOM     62  N   UNL     1       1.235   2.187  -1.982  1.00  0.00    -0.248 NA
ATOM     63  C   UNL     1       0.458   1.949  -4.178  1.00  0.00     0.031 C 
ATOM     64  C   UNL     1       0.187  -2.626  -1.336  1.00  0.00     0.029 A 
ATOM     65  C   UNL     1       0.444  -1.328  -1.779  1.00  0.00     0.049 A 
ATOM     66  H   UNL     1      -0.820  -0.399  -3.193  1.00  0.00     0.167 HD
ATOM     67  C   UNL     1       1.353   0.868  -2.353  1.00  0.00     0.074 A 
ATOM     68  C   UNL     1       0.995   0.806  -3.762  1.00  0.00     0.031 C 
ATOM     69  C   UNL     1       1.250  -0.100  -1.407  1.00  0.00     0.031 A 
BRANCH  56  70
ATOM     70  C   UNL     1      -2.243  -2.549  -5.403  1.00  0.00    -0.014 A 
ATOM     71  C   UNL     1      -3.024  -1.699  -6.209  1.00  0.00     0.009 A 
ATOM     72  C   UNL     1      -1.262  -3.332  -6.011  1.00  0.00     0.009 A 
ATOM     73  C   UNL     1      -2.854  -1.654  -7.585  1.00  0.00     0.001 A 
ATOM     74  C   UNL     1      -1.063  -3.259  -7.387  1.00  0.00     0.001 A 
ATOM     75  C   UNL     1      -1.859  -2.424  -8.171  1.00  0.00     0.000 A 
ENDBRANCH  56  70
BRANCH  57  76
ATOM     76  C   UNL     1      -0.267   5.067  -2.902  1.00  0.00    -0.014 A 
ATOM     77  C   UNL     1      -1.303   5.998  -2.991  1.00  0.00     0.009 A 
ATOM     78  C   UNL     1       0.997   5.466  -3.414  1.00  0.00     0.009 A 
ATOM     79  C   UNL     1      -1.169   7.153  -3.771  1.00  0.00     0.001 A 
ATOM     80  C   UNL     1       1.133   6.626  -4.195  1.00  0.00     0.001 A 
ATOM     81  C   UNL     1       0.026   7.434  -4.426  1.00  0.00     0.000 A 
ENDBRANCH  57  76
BRANCH  69  82
ATOM     82  C   UNL     1       2.022   0.314  -0.095  1.00  0.00    -0.014 A 
ATOM     83  C   UNL     1       3.287  -0.230   0.211  1.00  0.00     0.009 A 
ATOM     84  C   UNL     1       1.625   1.322   0.812  1.00  0.00     0.009 A 
ATOM     85  C   UNL     1       3.913  -0.060   1.475  1.00  0.00     0.001 A 
ATOM     86  C   UNL     1       2.255   1.526   2.073  1.00  0.00     0.001 A 
ATOM     87  C   UNL     1       3.360   0.772   2.436  1.00  0.00     0.000 A 
ENDBRANCH  69  82
ENDBRANCH  43  44
ENDBRANCH  36  38
ENDBRANCH  35  36
ENDBRANCH  34  35
ENDBRANCH   1  34
TORSDOF 18
