REMARK SMILES COc1ccc(OC)c(/C=N/[NH+]=C2/NC(=O)[C@@H](CC(=O)OCCOC(=O)c3ccc(-c4c5nc(c(-c6ccccc6)c6ccc([nH]6)c(-c6ccccc6)c6nc(c(-c7ccccc7)c7ccc4[nH]7)C=C6)C=C5)cc3)S2)c1
REMARK SMILES IDX 22 1 21 2 19 3 20 4 18 5 17 6 12 7 13 8 14 10 75 11 15 12
REMARK SMILES IDX 16 14 11 15 10 16 9 17 3 18 4 19 76 20 5 21 6 22 2 23 1 24
REMARK SMILES IDX 7 25 8 26 23 27 24 28 25 29 26 30 27 31 28 32 74 33 29 34
REMARK SMILES IDX 73 35 30 36 31 37 32 38 67 39 33 40 72 41 66 42 68 43 34 44
REMARK SMILES IDX 71 45 65 46 64 47 35 49 57 50 42 51 56 52 43 53 46 54 55 55
REMARK SMILES IDX 69 56 44 57 45 58 54 60 70 61 47 62 36 63 37 64 41 65 38 66
REMARK SMILES IDX 40 67 39 68 58 69 59 70 63 71 60 72 62 73 61 74 48 75 49 76
REMARK SMILES IDX 53 77 50 78 52 79 51 80
REMARK H PARENT 12 9 14 13 68 48 46 59
REMARK Flexibility Score: inf
ROOT
ATOM      1  C   UNL     1       6.714  -0.189  -2.284  1.00  0.00     0.274 C 
ENDROOT
BRANCH   1   2
ATOM      2  O   UNL     1       7.253  -1.500  -2.551  1.00  0.00    -0.462 OA
BRANCH   2   3
ATOM      3  C   UNL     1       8.327  -1.864  -1.809  1.00  0.00     0.307 C 
ATOM      4  O   UNL     1       8.858  -1.146  -0.968  1.00  0.00    -0.252 OA
BRANCH   3   5
ATOM      5  C   UNL     1       8.783  -3.294  -2.017  1.00  0.00     0.150 C 
BRANCH   5   6
ATOM      6  C   UNL     1       8.339  -4.060  -3.251  1.00  0.00     0.184 C 
ATOM      7  N   UNL     1       5.255  -3.120  -5.354  1.00  0.00    -0.142 N 
ATOM      8  C   UNL     1       6.342  -3.480  -4.762  1.00  0.00     0.337 C 
ATOM      9  H   UNL     1       5.261  -2.535  -6.146  1.00  0.00     0.343 HD
ATOM     10  N   UNL     1       7.534  -3.059  -5.249  1.00  0.00    -0.202 N 
ATOM     11  S   UNL     1       6.558  -4.435  -3.326  1.00  0.00    -0.020 SA
ATOM     12  C   UNL     1       8.655  -3.307  -4.519  1.00  0.00     0.322 C 
ATOM     13  H   UNL     1       7.588  -2.586  -6.110  1.00  0.00     0.316 HD
ATOM     14  O   UNL     1       9.774  -2.927  -4.837  1.00  0.00    -0.246 OA
BRANCH   7  15
ATOM     15  N   UNL     1       4.069  -3.608  -4.804  1.00  0.00    -0.093 NA
ATOM     16  C   UNL     1       3.362  -2.650  -4.295  1.00  0.00     0.170 C 
BRANCH  16  17
ATOM     17  C   UNL     1       1.985  -2.809  -3.792  1.00  0.00     0.042 A 
ATOM     18  C   UNL     1       0.512  -2.193  -1.937  1.00  0.00     0.119 A 
ATOM     19  C   UNL     1      -0.534  -2.847  -2.567  1.00  0.00     0.050 A 
ATOM     20  C   UNL     1       1.762  -2.176  -2.550  1.00  0.00     0.060 A 
ATOM     21  C   UNL     1      -0.332  -3.449  -3.810  1.00  0.00     0.051 A 
ATOM     22  C   UNL     1       0.921  -3.437  -4.451  1.00  0.00     0.128 A 
BRANCH  18  23
ATOM     23  O   UNL     1       0.225  -1.645  -0.718  1.00  0.00    -0.497 OA
ATOM     24  C   UNL     1       0.951  -0.464  -0.394  1.00  0.00     0.278 C 
ENDBRANCH  18  23
BRANCH  22  25
ATOM     25  O   UNL     1       0.837  -4.037  -5.673  1.00  0.00    -0.496 OA
ATOM     26  C   UNL     1       1.900  -3.971  -6.604  1.00  0.00     0.278 C 
ENDBRANCH  22  25
ENDBRANCH  16  17
ENDBRANCH   7  15
ENDBRANCH   5   6
ENDBRANCH   3   5
ENDBRANCH   2   3
ENDBRANCH   1   2
BRANCH   1  27
ATOM     27  C   UNL     1       5.493  -0.256  -1.367  1.00  0.00     0.275 C 
BRANCH  27  28
ATOM     28  O   UNL     1       5.768  -1.029  -0.187  1.00  0.00    -0.458 OA
BRANCH  28  29
ATOM     29  C   UNL     1       5.164  -2.236  -0.137  1.00  0.00     0.338 C 
ATOM     30  O   UNL     1       4.389  -2.711  -0.955  1.00  0.00    -0.246 OA
BRANCH  29  31
ATOM     31  C   UNL     1       5.540  -2.950   1.084  1.00  0.00     0.060 A 
ATOM     32  C   UNL     1       6.875  -3.276   1.309  1.00  0.00     0.016 A 
ATOM     33  C   UNL     1       4.541  -3.386   1.957  1.00  0.00     0.016 A 
ATOM     34  C   UNL     1       7.213  -4.087   2.386  1.00  0.00     0.010 A 
ATOM     35  C   UNL     1       4.893  -4.123   3.089  1.00  0.00     0.010 A 
ATOM     36  C   UNL     1       6.231  -4.491   3.303  1.00  0.00    -0.014 A 
BRANCH  36  37
ATOM     37  C   UNL     1       6.634  -5.237   4.518  1.00  0.00     0.031 A 
ATOM     38  C   UNL     1       6.198  -6.654   4.744  1.00  0.00     0.074 A 
ATOM     39  C   UNL     1       7.413  -4.613   5.423  1.00  0.00     0.049 A 
ATOM     40  N   UNL     1       6.451  -7.439   5.762  1.00  0.00    -0.248 NA
ATOM     41  C   UNL     1       5.362  -7.268   3.702  1.00  0.00     0.031 C 
ATOM     42  C   UNL     1       7.892  -3.232   5.314  1.00  0.00     0.029 A 
ATOM     43  N   UNL     1       7.951  -5.061   6.600  1.00  0.00    -0.354 N 
ATOM     44  C   UNL     1       5.786  -8.629   5.497  1.00  0.00     0.074 A 
ATOM     45  C   UNL     1       5.105  -8.457   4.230  1.00  0.00     0.031 C 
ATOM     46  C   UNL     1       8.686  -2.960   6.359  1.00  0.00     0.029 A 
ATOM     47  C   UNL     1       8.726  -4.123   7.236  1.00  0.00     0.049 A 
ATOM     48  H   UNL     1       7.797  -5.966   6.956  1.00  0.00     0.167 HD
ATOM     49  C   UNL     1       5.747  -9.759   6.243  1.00  0.00     0.031 A 
ATOM     50  C   UNL     1       9.390  -4.185   8.403  1.00  0.00     0.031 A 
ATOM     51  C   UNL     1       6.424  -9.925   7.503  1.00  0.00     0.049 A 
ATOM     52  C   UNL     1       9.340  -5.449   9.204  1.00  0.00     0.074 A 
ATOM     53  C   UNL     1       6.451 -11.034   8.332  1.00  0.00     0.029 A 
ATOM     54  N   UNL     1       7.197  -8.950   8.116  1.00  0.00    -0.354 N 
ATOM     55  N   UNL     1       8.708  -6.566   8.937  1.00  0.00    -0.248 NA
ATOM     56  C   UNL     1      10.095  -5.462  10.462  1.00  0.00     0.031 C 
ATOM     57  C   UNL     1       7.215 -10.717   9.463  1.00  0.00     0.029 A 
ATOM     58  C   UNL     1       7.698  -9.427   9.317  1.00  0.00     0.049 A 
ATOM     59  H   UNL     1       7.365  -8.051   7.751  1.00  0.00     0.167 HD
ATOM     60  C   UNL     1       8.992  -7.420   9.993  1.00  0.00     0.074 A 
ATOM     61  C   UNL     1       9.874  -6.697  10.889  1.00  0.00     0.031 C 
ATOM     62  C   UNL     1       8.557  -8.686  10.203  1.00  0.00     0.031 A 
BRANCH  49  63
ATOM     63  C   UNL     1       4.909 -10.894   5.722  1.00  0.00    -0.014 A 
ATOM     64  C   UNL     1       5.325 -11.664   4.625  1.00  0.00     0.009 A 
ATOM     65  C   UNL     1       3.690 -11.202   6.344  1.00  0.00     0.009 A 
ATOM     66  C   UNL     1       4.519 -12.696   4.139  1.00  0.00     0.001 A 
ATOM     67  C   UNL     1       2.896 -12.249   5.871  1.00  0.00     0.001 A 
ATOM     68  C   UNL     1       3.306 -12.988   4.763  1.00  0.00     0.000 A 
ENDBRANCH  49  63
BRANCH  50  69
ATOM     69  C   UNL     1      10.152  -3.000   8.869  1.00  0.00    -0.014 A 
ATOM     70  C   UNL     1      11.552  -2.981   8.800  1.00  0.00     0.009 A 
ATOM     71  C   UNL     1       9.475  -1.861   9.332  1.00  0.00     0.009 A 
ATOM     72  C   UNL     1      12.261  -1.844   9.193  1.00  0.00     0.001 A 
ATOM     73  C   UNL     1      10.185  -0.718   9.701  1.00  0.00     0.001 A 
ATOM     74  C   UNL     1      11.577  -0.712   9.635  1.00  0.00     0.000 A 
ENDBRANCH  50  69
BRANCH  62  75
ATOM     75  C   UNL     1       9.045  -9.361  11.451  1.00  0.00    -0.014 A 
ATOM     76  C   UNL     1       8.529  -9.014  12.710  1.00  0.00     0.009 A 
ATOM     77  C   UNL     1      10.032 -10.354  11.366  1.00  0.00     0.009 A 
ATOM     78  C   UNL     1       9.023  -9.623  13.864  1.00  0.00     0.001 A 
ATOM     79  C   UNL     1      10.507 -10.977  12.520  1.00  0.00     0.001 A 
ATOM     80  C   UNL     1      10.010 -10.604  13.769  1.00  0.00     0.000 A 
ENDBRANCH  62  75
ENDBRANCH  36  37
ENDBRANCH  29  31
ENDBRANCH  28  29
ENDBRANCH  27  28
ENDBRANCH   1  27
TORSDOF 16
