REMARK SMILES O=C(OCCOC(=O)c1ccc(-c2c3nc(c(-c4ccccc4)c4ccc([nH]4)c(-c4ccccc4)c4nc(c(-c5ccccc5)c5ccc2[nH]5)C=C4)C=C3)cc1)C1=Cc2cc(Cl)cc(-c3ccc(Cl)cc3)c2O[C@@H]1C(F)(F)F
REMARK SMILES IDX 5 1 4 2 3 3 2 4 1 5 57 6 58 7 74 8 59 9 73 10 60 11 72 12
REMARK SMILES IDX 61 13 64 14 62 15 63 16 75 17 76 18 77 19 78 20 65 21 66 22
REMARK SMILES IDX 71 23 67 24 70 25 68 26 69 27 6 28 7 29 8 30 9 31 10 32
REMARK SMILES IDX 56 33 11 34 55 35 12 36 13 37 14 38 49 39 15 40 54 41 48 42
REMARK SMILES IDX 50 43 16 44 53 45 47 46 46 47 17 49 39 50 24 51 38 52 25 53
REMARK SMILES IDX 28 54 37 55 51 56 26 57 27 58 36 60 52 61 29 62 18 63 19 64
REMARK SMILES IDX 23 65 20 66 22 67 21 68 40 69 41 70 45 71 42 72 44 73 43 74
REMARK SMILES IDX 30 75 31 76 35 77 32 78 34 79 33 80
REMARK H PARENT 50 48 28 59
REMARK Flexibility Score: inf
ROOT
ATOM      1  C   UNL     1       4.658  -0.706  -0.451  1.00  0.00     0.275 C 
ENDROOT
BRANCH   1   2
ATOM      2  C   UNL     1       3.927   1.306  -0.171  1.00  0.00     0.275 C 
BRANCH   2   3
ATOM      3  O   UNL     1       3.162   2.170  -1.236  1.00  0.00    -0.459 OA
BRANCH   3   4
ATOM      4  C   UNL     1       3.389   1.787  -2.496  1.00  0.00     0.338 C 
ATOM      5  O   UNL     1       2.922   2.166  -3.539  1.00  0.00    -0.246 OA
BRANCH   4   6
ATOM      6  C   UNL     1       4.125   0.608  -2.132  1.00  0.00     0.087 C 
ATOM      7  C   UNL     1       5.499   0.968  -1.741  1.00  0.00     0.027 C 
ATOM      8  C   UNL     1       2.799  -0.161  -0.957  1.00  0.00     0.316 C 
ATOM      9  C   UNL     1       6.102   0.857  -0.045  1.00  0.00     0.019 A 
ATOM     10  O   UNL     1       3.410  -0.230   0.873  1.00  0.00    -0.475 OA
ATOM     11  C   UNL     1       7.361   1.339   0.188  1.00  0.00     0.032 A 
ATOM     12  C   UNL     1       5.077   0.386   1.291  1.00  0.00     0.135 A 
ATOM     13  C   UNL     1       7.718   1.403   1.533  1.00  0.00     0.042 A 
ATOM     14  C   UNL     1       5.502   0.549   2.590  1.00  0.00     0.026 A 
ATOM     15  Cl  UNL     1       9.292   2.026   1.903  1.00  0.00    -0.084 Cl
ATOM     16  C   UNL     1       6.856   1.040   2.639  1.00  0.00     0.033 A 
BRANCH   8  17
ATOM     17  C   UNL     1       2.259  -1.248  -1.958  1.00  0.00     0.430 C 
ATOM     18  F   UNL     1       1.098  -1.778  -1.566  1.00  0.00    -0.167 F 
ATOM     19  F   UNL     1       1.958  -0.618  -3.136  1.00  0.00    -0.167 F 
ATOM     20  F   UNL     1       3.129  -2.208  -2.336  1.00  0.00    -0.167 F 
ENDBRANCH   8  17
BRANCH  14  21
ATOM     21  C   UNL     1       4.801   0.449   3.864  1.00  0.00    -0.015 A 
ATOM     22  C   UNL     1       4.625   1.627   4.627  1.00  0.00     0.010 A 
ATOM     23  C   UNL     1       4.538  -0.779   4.475  1.00  0.00     0.010 A 
ATOM     24  C   UNL     1       4.231   1.578   5.964  1.00  0.00     0.021 A 
ATOM     25  C   UNL     1       4.140  -0.830   5.819  1.00  0.00     0.021 A 
ATOM     26  C   UNL     1       3.997   0.344   6.558  1.00  0.00     0.041 A 
ATOM     27  Cl  UNL     1       3.563   0.272   8.221  1.00  0.00    -0.084 Cl
ENDBRANCH  14  21
ENDBRANCH   4   6
ENDBRANCH   3   4
ENDBRANCH   2   3
ENDBRANCH   1   2
BRANCH   1  28
ATOM     28  O   UNL     1       3.789  -2.143  -0.170  1.00  0.00    -0.458 OA
BRANCH  28  29
ATOM     29  C   UNL     1       3.011  -2.794   0.747  1.00  0.00     0.338 C 
ATOM     30  O   UNL     1       2.670  -2.461   1.863  1.00  0.00    -0.246 OA
BRANCH  29  31
ATOM     31  C   UNL     1       2.413  -3.935  -0.009  1.00  0.00     0.060 A 
ATOM     32  C   UNL     1       1.058  -3.893  -0.375  1.00  0.00     0.016 A 
ATOM     33  C   UNL     1       3.280  -4.817  -0.651  1.00  0.00     0.016 A 
ATOM     34  C   UNL     1       0.647  -4.514  -1.568  1.00  0.00     0.010 A 
ATOM     35  C   UNL     1       2.852  -5.480  -1.797  1.00  0.00     0.010 A 
ATOM     36  C   UNL     1       1.565  -5.263  -2.317  1.00  0.00    -0.014 A 
BRANCH  36  37
ATOM     37  C   UNL     1       1.179  -6.038  -3.522  1.00  0.00     0.031 A 
ATOM     38  C   UNL     1       0.649  -7.412  -3.268  1.00  0.00     0.074 A 
ATOM     39  C   UNL     1       1.475  -5.639  -4.776  1.00  0.00     0.049 A 
ATOM     40  N   UNL     1       0.514  -8.419  -4.086  1.00  0.00    -0.248 NA
ATOM     41  C   UNL     1       0.288  -7.699  -1.871  1.00  0.00     0.031 C 
ATOM     42  C   UNL     1       1.999  -4.329  -5.162  1.00  0.00     0.029 A 
ATOM     43  N   UNL     1       1.413  -6.333  -5.964  1.00  0.00    -0.354 N 
ATOM     44  C   UNL     1       0.099  -9.474  -3.288  1.00  0.00     0.074 A 
ATOM     45  C   UNL     1       0.043  -8.993  -1.927  1.00  0.00     0.031 C 
ATOM     46  C   UNL     1       2.235  -4.324  -6.490  1.00  0.00     0.029 A 
ATOM     47  C   UNL     1       1.916  -5.639  -7.043  1.00  0.00     0.049 A 
ATOM     48  H   UNL     1       1.043  -7.242  -6.036  1.00  0.00     0.167 HD
ATOM     49  C   UNL     1      -0.203 -10.741  -3.647  1.00  0.00     0.031 A 
ATOM     50  C   UNL     1       2.116  -6.038  -8.318  1.00  0.00     0.031 A 
ATOM     51  C   UNL     1      -0.106 -11.232  -4.988  1.00  0.00     0.049 A 
ATOM     52  C   UNL     1       1.781  -7.462  -8.706  1.00  0.00     0.074 A 
ATOM     53  C   UNL     1      -0.401 -12.492  -5.471  1.00  0.00     0.029 A 
ATOM     54  N   UNL     1       0.336 -10.474  -6.063  1.00  0.00    -0.354 N 
ATOM     55  N   UNL     1       1.327  -8.440  -7.957  1.00  0.00    -0.248 NA
ATOM     56  C   UNL     1       1.984  -7.838 -10.115  1.00  0.00     0.031 C 
ATOM     57  C   UNL     1      -0.099 -12.508  -6.836  1.00  0.00     0.029 A 
ATOM     58  C   UNL     1       0.329 -11.243  -7.210  1.00  0.00     0.049 A 
ATOM     59  H   UNL     1       0.612  -9.531  -6.015  1.00  0.00     0.167 HD
ATOM     60  C   UNL     1       1.154  -9.528  -8.807  1.00  0.00     0.074 A 
ATOM     61  C   UNL     1       1.552  -9.092 -10.129  1.00  0.00     0.031 C 
ATOM     62  C   UNL     1       0.704 -10.774  -8.520  1.00  0.00     0.031 A 
BRANCH  49  63
ATOM     63  C   UNL     1      -0.599 -11.657  -2.527  1.00  0.00    -0.014 A 
ATOM     64  C   UNL     1      -1.792 -11.450  -1.812  1.00  0.00     0.009 A 
ATOM     65  C   UNL     1       0.294 -12.647  -2.095  1.00  0.00     0.009 A 
ATOM     66  C   UNL     1      -2.039 -12.156  -0.635  1.00  0.00     0.001 A 
ATOM     67  C   UNL     1       0.023 -13.381  -0.939  1.00  0.00     0.001 A 
ATOM     68  C   UNL     1      -1.130 -13.118  -0.198  1.00  0.00     0.000 A 
ENDBRANCH  49  63
BRANCH  50  69
ATOM     69  C   UNL     1       2.662  -5.100  -9.341  1.00  0.00    -0.014 A 
ATOM     70  C   UNL     1       1.841  -4.624 -10.378  1.00  0.00     0.009 A 
ATOM     71  C   UNL     1       4.012  -4.714  -9.327  1.00  0.00     0.009 A 
ATOM     72  C   UNL     1       2.362  -3.808 -11.387  1.00  0.00     0.001 A 
ATOM     73  C   UNL     1       4.525  -3.877 -10.324  1.00  0.00     0.001 A 
ATOM     74  C   UNL     1       3.703  -3.432 -11.358  1.00  0.00     0.000 A 
ENDBRANCH  50  69
BRANCH  62  75
ATOM     75  C   UNL     1       0.544 -11.748  -9.653  1.00  0.00    -0.014 A 
ATOM     76  C   UNL     1       1.649 -12.389 -10.233  1.00  0.00     0.009 A 
ATOM     77  C   UNL     1      -0.750 -12.123 -10.053  1.00  0.00     0.009 A 
ATOM     78  C   UNL     1       1.459 -13.383 -11.195  1.00  0.00     0.001 A 
ATOM     79  C   UNL     1      -0.936 -13.135 -10.994  1.00  0.00     0.001 A 
ATOM     80  C   UNL     1       0.168 -13.763 -11.566  1.00  0.00     0.000 A 
ENDBRANCH  62  75
ENDBRANCH  36  37
ENDBRANCH  29  31
ENDBRANCH  28  29
ENDBRANCH   1  28
TORSDOF 13
