REMARK SMILES O=C(C[C@H](C(=O)OCCOC(=O)c1ccc(-c2c3nc(c(-c4ccccc4)c4ccc([nH]4)c(-c4ccccc4)c4nc(c(-c5ccccc5)c5ccc2[nH]5)C=C4)C=C3)cc1)c1ccccc1)Nc1ccc(Cl)cc1Cl
REMARK SMILES IDX 8 1 7 2 5 3 6 4 4 5 3 6 2 7 1 8 67 9 68 11 69 12 74 13 70 14
REMARK SMILES IDX 73 15 75 16 71 17 72 18 61 19 62 20 66 21 63 22 65 23 64 24
REMARK SMILES IDX 9 25 10 26 11 27 12 28 13 29 14 30 60 31 15 32 59 33 16 34
REMARK SMILES IDX 17 35 18 36 53 37 19 38 58 39 52 40 54 41 20 42 57 43 51 44
REMARK SMILES IDX 50 45 21 47 43 48 28 49 42 50 29 51 32 52 41 53 55 54 30 55
REMARK SMILES IDX 31 56 40 58 56 59 33 60 22 61 23 62 27 63 24 64 26 65 25 66
REMARK SMILES IDX 44 67 45 68 49 69 46 70 48 71 47 72 34 73 35 74 39 75 36 76
REMARK SMILES IDX 38 77 37 78
REMARK H PARENT 67 10 54 46 32 57
REMARK Flexibility Score: inf
ROOT
ATOM      1  C   UNL     1       1.100   0.418  -2.337  1.00  0.00     0.274 C 
ENDROOT
BRANCH   1   2
ATOM      2  O   UNL     1       2.153   1.354  -2.025  1.00  0.00    -0.462 OA
BRANCH   2   3
ATOM      3  C   UNL     1       2.763   1.175  -0.820  1.00  0.00     0.314 C 
ATOM      4  O   UNL     1       2.426   0.316  -0.016  1.00  0.00    -0.252 OA
BRANCH   3   5
ATOM      5  C   UNL     1       3.792   2.266  -0.515  1.00  0.00     0.138 C 
BRANCH   5   6
ATOM      6  C   UNL     1       4.821   1.903   0.576  1.00  0.00     0.120 C 
BRANCH   6   7
ATOM      7  C   UNL     1       4.301   1.110   1.763  1.00  0.00     0.225 C 
ATOM      8  O   UNL     1       4.688  -0.040   1.944  1.00  0.00    -0.275 OA
ATOM      9  N   UNL     1       3.377   1.798   2.526  1.00  0.00    -0.325 N 
ATOM     10  H   UNL     1       3.142   2.708   2.232  1.00  0.00     0.169 HD
BRANCH   9  11
ATOM     11  C   UNL     1       2.736   1.316   3.693  1.00  0.00     0.060 A 
ATOM     12  C   UNL     1       1.399   1.724   3.849  1.00  0.00     0.029 A 
ATOM     13  C   UNL     1       3.311   0.507   4.692  1.00  0.00     0.066 A 
ATOM     14  C   UNL     1       0.631   1.281   4.929  1.00  0.00     0.023 A 
ATOM     15  C   UNL     1       2.533   0.059   5.770  1.00  0.00     0.043 A 
ATOM     16  Cl  UNL     1       5.008   0.192   4.814  1.00  0.00    -0.082 Cl
ATOM     17  C   UNL     1       1.199   0.438   5.877  1.00  0.00     0.042 A 
ATOM     18  Cl  UNL     1       0.256  -0.103   7.209  1.00  0.00    -0.084 Cl
ENDBRANCH   9  11
ENDBRANCH   6   7
ENDBRANCH   5   6
BRANCH   5  19
ATOM     19  C   UNL     1       4.523   2.804  -1.743  1.00  0.00    -0.033 A 
ATOM     20  C   UNL     1       5.420   2.007  -2.473  1.00  0.00     0.004 A 
ATOM     21  C   UNL     1       4.330   4.133  -2.150  1.00  0.00     0.004 A 
ATOM     22  C   UNL     1       6.118   2.527  -3.564  1.00  0.00     0.000 A 
ATOM     23  C   UNL     1       5.028   4.652  -3.243  1.00  0.00     0.000 A 
ATOM     24  C   UNL     1       5.925   3.851  -3.947  1.00  0.00     0.000 A 
ENDBRANCH   5  19
ENDBRANCH   3   5
ENDBRANCH   2   3
ENDBRANCH   1   2
BRANCH   1  25
ATOM     25  C   UNL     1       1.621  -0.711  -3.219  1.00  0.00     0.275 C 
BRANCH  25  26
ATOM     26  O   UNL     1       2.673  -1.414  -2.537  1.00  0.00    -0.458 OA
BRANCH  26  27
ATOM     27  C   UNL     1       3.832  -1.533  -3.220  1.00  0.00     0.338 C 
ATOM     28  O   UNL     1       4.072  -1.160  -4.355  1.00  0.00    -0.246 OA
BRANCH  27  29
ATOM     29  C   UNL     1       4.824  -2.238  -2.394  1.00  0.00     0.060 A 
ATOM     30  C   UNL     1       5.253  -1.703  -1.178  1.00  0.00     0.016 A 
ATOM     31  C   UNL     1       5.414  -3.393  -2.905  1.00  0.00     0.016 A 
ATOM     32  C   UNL     1       6.326  -2.283  -0.502  1.00  0.00     0.010 A 
ATOM     33  C   UNL     1       6.438  -4.014  -2.190  1.00  0.00     0.010 A 
ATOM     34  C   UNL     1       6.928  -3.446  -1.000  1.00  0.00    -0.014 A 
BRANCH  34  35
ATOM     35  C   UNL     1       8.086  -4.082  -0.319  1.00  0.00     0.031 A 
ATOM     36  C   UNL     1       9.404  -4.193  -1.038  1.00  0.00     0.074 A 
ATOM     37  C   UNL     1       7.948  -4.617   0.909  1.00  0.00     0.049 A 
ATOM     38  N   UNL     1      10.452  -4.919  -0.740  1.00  0.00    -0.248 NA
ATOM     39  C   UNL     1       9.559  -3.388  -2.261  1.00  0.00     0.031 C 
ATOM     40  C   UNL     1       6.749  -4.538   1.744  1.00  0.00     0.029 A 
ATOM     41  N   UNL     1       8.828  -5.359   1.657  1.00  0.00    -0.354 N 
ATOM     42  C   UNL     1      11.365  -4.702  -1.764  1.00  0.00     0.074 A 
ATOM     43  C   UNL     1      10.754  -3.771  -2.689  1.00  0.00     0.031 C 
ATOM     44  C   UNL     1       6.966  -5.212   2.885  1.00  0.00     0.029 A 
ATOM     45  C   UNL     1       8.289  -5.824   2.831  1.00  0.00     0.049 A 
ATOM     46  H   UNL     1       9.755  -5.541   1.378  1.00  0.00     0.167 HD
ATOM     47  C   UNL     1      12.598  -5.238  -1.922  1.00  0.00     0.031 A 
ATOM     48  C   UNL     1       8.781  -6.688   3.738  1.00  0.00     0.031 A 
ATOM     49  C   UNL     1      13.223  -6.131  -0.984  1.00  0.00     0.049 A 
ATOM     50  C   UNL     1      10.131  -7.307   3.514  1.00  0.00     0.074 A 
ATOM     51  C   UNL     1      14.484  -6.698  -1.044  1.00  0.00     0.029 A 
ATOM     52  N   UNL     1      12.636  -6.577   0.188  1.00  0.00    -0.354 N 
ATOM     53  N   UNL     1      10.976  -7.114   2.532  1.00  0.00    -0.248 NA
ATOM     54  C   UNL     1      10.588  -8.277   4.521  1.00  0.00     0.031 C 
ATOM     55  C   UNL     1      14.647  -7.519   0.078  1.00  0.00     0.029 A 
ATOM     56  C   UNL     1      13.501  -7.430   0.851  1.00  0.00     0.049 A 
ATOM     57  H   UNL     1      11.737  -6.325   0.502  1.00  0.00     0.167 HD
ATOM     58  C   UNL     1      12.071  -7.919   2.812  1.00  0.00     0.074 A 
ATOM     59  C   UNL     1      11.790  -8.596   4.060  1.00  0.00     0.031 C 
ATOM     60  C   UNL     1      13.210  -8.084   2.097  1.00  0.00     0.031 A 
BRANCH  47  61
ATOM     61  C   UNL     1      13.348  -4.905  -3.179  1.00  0.00    -0.014 A 
ATOM     62  C   UNL     1      13.991  -3.670  -3.343  1.00  0.00     0.009 A 
ATOM     63  C   UNL     1      13.464  -5.875  -4.188  1.00  0.00     0.009 A 
ATOM     64  C   UNL     1      14.722  -3.406  -4.504  1.00  0.00     0.001 A 
ATOM     65  C   UNL     1      14.210  -5.615  -5.338  1.00  0.00     0.001 A 
ATOM     66  C   UNL     1      14.835  -4.380  -5.497  1.00  0.00     0.000 A 
ENDBRANCH  47  61
BRANCH  48  67
ATOM     67  C   UNL     1       7.964  -7.073   4.918  1.00  0.00    -0.014 A 
ATOM     68  C   UNL     1       8.320  -6.639   6.203  1.00  0.00     0.009 A 
ATOM     69  C   UNL     1       6.837  -7.895   4.764  1.00  0.00     0.009 A 
ATOM     70  C   UNL     1       7.576  -7.042   7.314  1.00  0.00     0.001 A 
ATOM     71  C   UNL     1       6.080  -8.274   5.873  1.00  0.00     0.001 A 
ATOM     72  C   UNL     1       6.456  -7.855   7.148  1.00  0.00     0.000 A 
ENDBRANCH  48  67
BRANCH  60  73
ATOM     73  C   UNL     1      14.251  -8.999   2.669  1.00  0.00    -0.014 A 
ATOM     74  C   UNL     1      14.115 -10.393   2.586  1.00  0.00     0.009 A 
ATOM     75  C   UNL     1      15.403  -8.457   3.259  1.00  0.00     0.009 A 
ATOM     76  C   UNL     1      15.105 -11.227   3.106  1.00  0.00     0.001 A 
ATOM     77  C   UNL     1      16.400  -9.294   3.759  1.00  0.00     0.001 A 
ATOM     78  C   UNL     1      16.248 -10.678   3.688  1.00  0.00     0.000 A 
ENDBRANCH  60  73
ENDBRANCH  34  35
ENDBRANCH  27  29
ENDBRANCH  26  27
ENDBRANCH  25  26
ENDBRANCH   1  25
TORSDOF 15
