REMARK SMILES O=C(OCCOC(=O)[C@@H]1CCCCN1C(=O)[C@@H]1CCS(=O)(=O)C1)c1ccc(-c2c3nc(c(-c4ccccc4)c4ccc([nH]4)c(-c4ccccc4)c4nc(c(-c5ccccc5)c5ccc2[nH]5)C=C4)C=C3)cc1
REMARK SMILES IDX 4 1 3 2 2 3 1 4 24 5 25 6 71 7 26 8 70 9 27 10 28 11 29 12
REMARK SMILES IDX 64 13 30 14 69 15 63 16 65 17 31 18 68 19 62 20 61 21 32 23
REMARK SMILES IDX 54 24 39 25 53 26 40 27 43 28 52 29 66 30 41 31 42 32 51 34
REMARK SMILES IDX 67 35 44 36 33 37 34 38 38 39 35 40 37 41 36 42 55 43 56 44
REMARK SMILES IDX 60 45 57 46 59 47 58 48 45 49 46 50 50 51 47 52 49 53 48 54
REMARK SMILES IDX 5 55 6 56 7 57 8 58 9 59 10 60 14 61 11 62 13 63 12 64 15 65
REMARK SMILES IDX 16 66 17 67 18 68 23 69 19 70 20 71 21 72 22 73
REMARK H PARENT 65 22 43 33
REMARK Flexibility Score: inf
ROOT
ATOM      1  C   UNL     1       4.028  -0.443  -1.951  1.00  0.00     0.275 C 
ENDROOT
BRANCH   1   2
ATOM      2  O   UNL     1       2.683  -0.670  -1.473  1.00  0.00    -0.458 OA
BRANCH   2   3
ATOM      3  C   UNL     1       2.178  -0.490  -0.226  1.00  0.00     0.338 C 
ATOM      4  O   UNL     1       1.066  -0.923   0.063  1.00  0.00    -0.246 OA
BRANCH   3   5
ATOM      5  C   UNL     1       2.880   0.290   0.831  1.00  0.00     0.060 A 
ATOM      6  C   UNL     1       4.528   1.045   0.600  1.00  0.00     0.016 A 
ATOM      7  C   UNL     1       2.063   0.480   2.458  1.00  0.00     0.016 A 
ATOM      8  C   UNL     1       5.379   1.881   1.925  1.00  0.00     0.010 A 
ATOM      9  C   UNL     1       3.010   1.327   3.835  1.00  0.00     0.010 A 
ATOM     10  C   UNL     1       4.705   1.987   3.556  1.00  0.00    -0.014 A 
BRANCH  10  11
ATOM     11  C   UNL     1       5.801   2.469   4.566  1.00  0.00     0.031 A 
ATOM     12  C   UNL     1       6.718   1.635   5.542  1.00  0.00     0.074 A 
ATOM     13  C   UNL     1       6.255   3.725   4.436  1.00  0.00     0.049 A 
ATOM     14  N   UNL     1       7.066   1.882   6.790  1.00  0.00    -0.248 NA
ATOM     15  C   UNL     1       7.280   0.339   5.087  1.00  0.00     0.031 C 
ATOM     16  C   UNL     1       5.941   4.646   3.355  1.00  0.00     0.029 A 
ATOM     17  N   UNL     1       7.062   4.450   5.269  1.00  0.00    -0.354 N 
ATOM     18  C   UNL     1       7.526   0.660   7.323  1.00  0.00     0.074 A 
ATOM     19  C   UNL     1       7.413  -0.292   6.255  1.00  0.00     0.031 C 
ATOM     20  C   UNL     1       6.405   5.863   3.661  1.00  0.00     0.029 A 
ATOM     21  C   UNL     1       7.056   5.784   4.957  1.00  0.00     0.049 A 
ATOM     22  H   UNL     1       7.585   4.059   6.006  1.00  0.00     0.167 HD
ATOM     23  C   UNL     1       8.051   0.368   8.549  1.00  0.00     0.031 A 
ATOM     24  C   UNL     1       7.487   6.833   5.670  1.00  0.00     0.031 A 
ATOM     25  C   UNL     1       8.641   1.411   9.350  1.00  0.00     0.049 A 
ATOM     26  C   UNL     1       8.193   6.559   6.961  1.00  0.00     0.074 A 
ATOM     27  C   UNL     1       9.398   1.337  10.506  1.00  0.00     0.029 A 
ATOM     28  N   UNL     1       8.644   2.737   8.948  1.00  0.00    -0.354 N 
ATOM     29  N   UNL     1       8.361   5.422   7.597  1.00  0.00    -0.248 NA
ATOM     30  C   UNL     1       8.836   7.712   7.594  1.00  0.00     0.031 C 
ATOM     31  C   UNL     1       9.829   2.636  10.816  1.00  0.00     0.029 A 
ATOM     32  C   UNL     1       9.400   3.494   9.811  1.00  0.00     0.049 A 
ATOM     33  H   UNL     1       8.172   3.087   8.158  1.00  0.00     0.167 HD
ATOM     34  C   UNL     1       9.188   5.710   8.673  1.00  0.00     0.074 A 
ATOM     35  C   UNL     1       9.485   7.129   8.590  1.00  0.00     0.031 C 
ATOM     36  C   UNL     1       9.677   4.895   9.641  1.00  0.00     0.031 A 
BRANCH  23  37
ATOM     37  C   UNL     1       8.051  -1.068   9.078  1.00  0.00    -0.014 A 
ATOM     38  C   UNL     1       8.630  -2.160   8.412  1.00  0.00     0.009 A 
ATOM     39  C   UNL     1       7.386  -1.347  10.292  1.00  0.00     0.009 A 
ATOM     40  C   UNL     1       8.405  -3.479   8.839  1.00  0.00     0.001 A 
ATOM     41  C   UNL     1       7.214  -2.660  10.755  1.00  0.00     0.001 A 
ATOM     42  C   UNL     1       7.685  -3.731  10.003  1.00  0.00     0.000 A 
ENDBRANCH  23  37
BRANCH  24  43
ATOM     43  C   UNL     1       7.327   8.194   5.103  1.00  0.00    -0.014 A 
ATOM     44  C   UNL     1       8.437   8.852   4.555  1.00  0.00     0.009 A 
ATOM     45  C   UNL     1       6.062   8.799   5.011  1.00  0.00     0.009 A 
ATOM     46  C   UNL     1       8.292  10.102   3.954  1.00  0.00     0.001 A 
ATOM     47  C   UNL     1       5.916  10.039   4.383  1.00  0.00     0.001 A 
ATOM     48  C   UNL     1       7.033  10.693   3.864  1.00  0.00     0.000 A 
ENDBRANCH  24  43
BRANCH  36  49
ATOM     49  C   UNL     1      10.634   5.504  10.613  1.00  0.00    -0.014 A 
ATOM     50  C   UNL     1      10.196   6.401  11.595  1.00  0.00     0.009 A 
ATOM     51  C   UNL     1      11.981   5.109  10.581  1.00  0.00     0.009 A 
ATOM     52  C   UNL     1      11.104   6.925  12.511  1.00  0.00     0.001 A 
ATOM     53  C   UNL     1      12.876   5.600  11.526  1.00  0.00     0.001 A 
ATOM     54  C   UNL     1      12.438   6.516  12.482  1.00  0.00     0.000 A 
ENDBRANCH  36  49
ENDBRANCH  10  11
ENDBRANCH   3   5
ENDBRANCH   2   3
ENDBRANCH   1   2
BRANCH   1  55
ATOM     55  C   UNL     1       4.226   0.950  -2.605  1.00  0.00     0.274 C 
BRANCH  55  56
ATOM     56  O   UNL     1       4.098   2.071  -1.699  1.00  0.00    -0.461 OA
BRANCH  56  57
ATOM     57  C   UNL     1       2.866   2.284  -1.165  1.00  0.00     0.328 C 
ATOM     58  O   UNL     1       1.821   2.053  -1.763  1.00  0.00    -0.250 OA
BRANCH  57  59
ATOM     59  C   UNL     1       2.944   2.780   0.359  1.00  0.00     0.195 C 
ATOM     60  C   UNL     1       3.245   4.300   0.327  1.00  0.00     0.037 C 
ATOM     61  N   UNL     1       3.232   2.023   1.953  1.00  0.00    -0.329 N 
ATOM     62  C   UNL     1       2.441   5.130   1.319  1.00  0.00     0.005 C 
ATOM     63  C   UNL     1       2.135   3.115   2.780  1.00  0.00     0.120 C 
ATOM     64  C   UNL     1       2.539   4.577   2.712  1.00  0.00     0.022 C 
BRANCH  61  65
ATOM     65  C   UNL     1       4.054   0.298   2.506  1.00  0.00     0.227 C 
ATOM     66  O   UNL     1       4.970  -0.451   1.986  1.00  0.00    -0.275 OA
BRANCH  65  67
ATOM     67  C   UNL     1       3.605  -0.835   3.953  1.00  0.00     0.094 C 
ATOM     68  C   UNL     1       2.387  -1.336   4.771  1.00  0.00     0.030 C 
ATOM     69  C   UNL     1       4.623  -0.696   5.058  1.00  0.00     0.150 C 
ATOM     70  C   UNL     1       2.266  -0.632   6.141  1.00  0.00     0.138 C 
ATOM     71  S   UNL     1       3.881  -0.026   6.540  1.00  0.00     0.151 S 
ATOM     72  O   UNL     1       3.823   1.421   6.519  1.00  0.00    -0.229 OA
ATOM     73  O   UNL     1       4.392  -0.733   7.691  1.00  0.00    -0.229 OA
ENDBRANCH  65  67
ENDBRANCH  61  65
ENDBRANCH  57  59
ENDBRANCH  56  57
ENDBRANCH  55  56
ENDBRANCH   1  55
TORSDOF 13
