REMARK SMILES O=C(OCCOC(=O)c1ccc(-c2c3nc(c(-c4ccccc4)c4ccc([nH]4)c(-c4ccccc4)c4nc(c(-c5ccccc5)c5ccc2[nH]5)C=C4)C=C3)cc1)C1=Cc2c(ccc(Cl)c2Sc2ccccc2)O[C@H]1C(F)(F)F
REMARK SMILES IDX 4 1 3 2 2 3 1 4 57 5 58 6 74 7 59 8 73 9 60 10 65 11 61 12
REMARK SMILES IDX 63 13 62 14 64 15 75 16 76 17 77 18 78 19 66 20 67 21 68 22
REMARK SMILES IDX 72 23 69 24 71 25 70 26 5 27 6 28 7 29 8 30 9 31 10 32 56 33
REMARK SMILES IDX 11 34 55 35 12 36 13 37 14 38 49 39 15 40 54 41 48 42 50 43
REMARK SMILES IDX 16 44 53 45 47 46 46 47 17 49 39 50 24 51 38 52 25 53 28 54
REMARK SMILES IDX 37 55 51 56 26 57 27 58 36 60 52 61 29 62 18 63 19 64 23 65
REMARK SMILES IDX 20 66 22 67 21 68 40 69 41 70 45 71 42 72 44 73 43 74 30 75
REMARK SMILES IDX 31 76 35 77 32 78 34 79 33 80
REMARK H PARENT 50 48 28 59
REMARK Flexibility Score: inf
ROOT
ATOM      1  C   UNL     1       2.704  -0.247  -0.479  1.00  0.00     0.275 C 
ENDROOT
BRANCH   1   2
ATOM      2  O   UNL     1       2.367   0.073   0.874  1.00  0.00    -0.459 OA
BRANCH   2   3
ATOM      3  C   UNL     1       3.274   0.341   1.814  1.00  0.00     0.338 C 
ATOM      4  O   UNL     1       2.979   0.286   3.002  1.00  0.00    -0.246 OA
BRANCH   3   5
ATOM      5  C   UNL     1       4.599   0.814   1.383  1.00  0.00     0.087 C 
ATOM      6  C   UNL     1       5.169   0.834   0.163  1.00  0.00     0.028 C 
ATOM      7  C   UNL     1       5.604   0.836   2.468  1.00  0.00     0.316 C 
ATOM      8  C   UNL     1       5.658  -0.489  -0.245  1.00  0.00     0.033 A 
ATOM      9  O   UNL     1       6.784   0.063   1.971  1.00  0.00    -0.475 OA
ATOM     10  C   UNL     1       6.591  -0.780   0.835  1.00  0.00     0.129 A 
ATOM     11  C   UNL     1       5.433  -1.348  -1.455  1.00  0.00     0.042 A 
ATOM     12  C   UNL     1       7.415  -1.867   0.714  1.00  0.00     0.049 A 
ATOM     13  C   UNL     1       6.345  -2.439  -1.478  1.00  0.00     0.055 A 
ATOM     14  C   UNL     1       7.295  -2.666  -0.433  1.00  0.00     0.025 A 
ATOM     15  Cl  UNL     1       6.454  -3.586  -2.780  1.00  0.00    -0.083 Cl
BRANCH   7  16
ATOM     16  C   UNL     1       5.775   2.338   2.830  1.00  0.00     0.430 C 
ATOM     17  F   UNL     1       4.580   2.997   2.797  1.00  0.00    -0.167 F 
ATOM     18  F   UNL     1       6.272   2.528   4.071  1.00  0.00    -0.167 F 
ATOM     19  F   UNL     1       6.580   2.985   1.955  1.00  0.00    -0.167 F 
ENDBRANCH   7  16
BRANCH  11  20
ATOM     20  S   UNL     1       4.256  -1.385  -3.161  1.00  0.00    -0.088 SA
BRANCH  20  21
ATOM     21  C   UNL     1       2.574  -0.541  -3.580  1.00  0.00     0.012 A 
ATOM     22  C   UNL     1       1.304  -0.930  -3.073  1.00  0.00     0.015 A 
ATOM     23  C   UNL     1       2.565   0.682  -4.325  1.00  0.00     0.015 A 
ATOM     24  C   UNL     1       0.206  -0.008  -3.015  1.00  0.00     0.001 A 
ATOM     25  C   UNL     1       1.469   1.602  -4.251  1.00  0.00     0.001 A 
ATOM     26  C   UNL     1       0.312   1.278  -3.547  1.00  0.00     0.000 A 
ENDBRANCH  20  21
ENDBRANCH  11  20
ENDBRANCH   3   5
ENDBRANCH   2   3
ENDBRANCH   1   2
BRANCH   1  27
ATOM     27  C   UNL     1       3.287   0.909  -1.369  1.00  0.00     0.275 C 
BRANCH  27  28
ATOM     28  O   UNL     1       3.265   2.156  -0.788  1.00  0.00    -0.458 OA
BRANCH  28  29
ATOM     29  C   UNL     1       1.983   2.418  -0.652  1.00  0.00     0.338 C 
ATOM     30  O   UNL     1       0.981   1.734  -0.831  1.00  0.00    -0.246 OA
BRANCH  29  31
ATOM     31  C   UNL     1       1.961   3.721  -0.168  1.00  0.00     0.060 A 
ATOM     32  C   UNL     1       0.819   3.888   0.581  1.00  0.00     0.016 A 
ATOM     33  C   UNL     1       2.896   4.685  -0.594  1.00  0.00     0.016 A 
ATOM     34  C   UNL     1       0.459   5.154   0.753  1.00  0.00     0.010 A 
ATOM     35  C   UNL     1       2.624   5.959  -0.242  1.00  0.00     0.010 A 
ATOM     36  C   UNL     1       1.397   6.142   0.389  1.00  0.00    -0.014 A 
BRANCH  36  37
ATOM     37  C   UNL     1       0.987   7.444   0.778  1.00  0.00     0.031 A 
ATOM     38  C   UNL     1       0.349   8.245  -0.274  1.00  0.00     0.074 A 
ATOM     39  C   UNL     1       0.986   7.568   2.109  1.00  0.00     0.049 A 
ATOM     40  N   UNL     1      -0.297   9.351  -0.123  1.00  0.00    -0.248 NA
ATOM     41  C   UNL     1       0.423   7.750  -1.667  1.00  0.00     0.031 C 
ATOM     42  C   UNL     1       1.540   6.580   3.066  1.00  0.00     0.029 A 
ATOM     43  N   UNL     1       0.363   8.472   2.884  1.00  0.00    -0.354 N 
ATOM     44  C   UNL     1      -0.676   9.715  -1.398  1.00  0.00     0.074 A 
ATOM     45  C   UNL     1      -0.191   8.722  -2.323  1.00  0.00     0.031 C 
ATOM     46  C   UNL     1       1.127   6.893   4.297  1.00  0.00     0.029 A 
ATOM     47  C   UNL     1       0.417   8.153   4.212  1.00  0.00     0.049 A 
ATOM     48  H   UNL     1      -0.083   9.276   2.534  1.00  0.00     0.167 HD
ATOM     49  C   UNL     1      -1.367  10.825  -1.708  1.00  0.00     0.031 A 
ATOM     50  C   UNL     1      -0.039   8.880   5.235  1.00  0.00     0.031 A 
ATOM     51  C   UNL     1      -1.776  11.741  -0.681  1.00  0.00     0.049 A 
ATOM     52  C   UNL     1      -0.714  10.153   4.834  1.00  0.00     0.074 A 
ATOM     53  C   UNL     1      -2.405  12.958  -0.803  1.00  0.00     0.029 A 
ATOM     54  N   UNL     1      -1.580  11.513   0.684  1.00  0.00    -0.354 N 
ATOM     55  N   UNL     1      -1.016  10.577   3.623  1.00  0.00    -0.248 NA
ATOM     56  C   UNL     1      -1.087  11.055   5.913  1.00  0.00     0.031 C 
ATOM     57  C   UNL     1      -2.535  13.492   0.484  1.00  0.00     0.029 A 
ATOM     58  C   UNL     1      -2.057  12.577   1.418  1.00  0.00     0.049 A 
ATOM     59  H   UNL     1      -1.162  10.708   1.066  1.00  0.00     0.167 HD
ATOM     60  C   UNL     1      -1.614  11.808   3.788  1.00  0.00     0.074 A 
ATOM     61  C   UNL     1      -1.677  12.025   5.228  1.00  0.00     0.031 C 
ATOM     62  C   UNL     1      -2.058  12.694   2.859  1.00  0.00     0.031 A 
BRANCH  49  63
ATOM     63  C   UNL     1      -1.588  11.108  -3.157  1.00  0.00    -0.014 A 
ATOM     64  C   UNL     1      -2.454  10.330  -3.942  1.00  0.00     0.009 A 
ATOM     65  C   UNL     1      -0.877  12.154  -3.763  1.00  0.00     0.009 A 
ATOM     66  C   UNL     1      -2.599  10.593  -5.306  1.00  0.00     0.001 A 
ATOM     67  C   UNL     1      -1.043  12.432  -5.119  1.00  0.00     0.001 A 
ATOM     68  C   UNL     1      -1.902  11.650  -5.890  1.00  0.00     0.000 A 
ENDBRANCH  49  63
BRANCH  50  69
ATOM     69  C   UNL     1       0.255   8.475   6.626  1.00  0.00    -0.014 A 
ATOM     70  C   UNL     1      -0.771   8.232   7.544  1.00  0.00     0.009 A 
ATOM     71  C   UNL     1       1.591   8.311   7.041  1.00  0.00     0.009 A 
ATOM     72  C   UNL     1      -0.464   7.876   8.860  1.00  0.00     0.001 A 
ATOM     73  C   UNL     1       1.893   7.915   8.342  1.00  0.00     0.001 A 
ATOM     74  C   UNL     1       0.865   7.717   9.256  1.00  0.00     0.000 A 
ENDBRANCH  50  69
BRANCH  62  75
ATOM     75  C   UNL     1      -2.671  13.934   3.425  1.00  0.00    -0.014 A 
ATOM     76  C   UNL     1      -1.886  14.904   4.064  1.00  0.00     0.009 A 
ATOM     77  C   UNL     1      -4.056  14.118   3.310  1.00  0.00     0.009 A 
ATOM     78  C   UNL     1      -2.494  16.016   4.638  1.00  0.00     0.001 A 
ATOM     79  C   UNL     1      -4.652  15.255   3.841  1.00  0.00     0.001 A 
ATOM     80  C   UNL     1      -3.873  16.192   4.521  1.00  0.00     0.000 A 
ENDBRANCH  62  75
ENDBRANCH  36  37
ENDBRANCH  29  31
ENDBRANCH  28  29
ENDBRANCH  27  28
ENDBRANCH   1  27
TORSDOF 14
