REMARK SMILES COc1cc(NS(=O)(=O)c2cc(C)c(C(=O)OCCOC(=O)c3ccc(-c4c5nc(c(-c6ccccc6)c6ccc([nH]6)c(-c6ccccc6)c6nc(c(-c7ccccc7)c7ccc4[nH]7)C=C6)C=C5)cc3)s2)cc(OC)c1
REMARK SMILES IDX 18 1 17 2 15 3 16 4 14 5 10 6 11 7 71 8 12 9 13 10 7 11 8 12
REMARK SMILES IDX 9 13 6 14 5 16 3 17 4 18 76 19 73 20 72 21 2 22 1 23 74 24
REMARK SMILES IDX 75 25 19 26 20 27 21 28 22 29 23 30 24 31 70 32 25 33 69 34
REMARK SMILES IDX 26 35 27 36 28 37 63 38 29 39 68 40 62 41 64 42 30 43 67 44
REMARK SMILES IDX 61 45 60 46 31 48 53 49 38 50 52 51 39 52 42 53 51 54 65 55
REMARK SMILES IDX 40 56 41 57 50 59 66 60 43 61 32 62 33 63 37 64 34 65 36 66
REMARK SMILES IDX 35 67 54 68 55 69 59 70 56 71 58 72 57 73 44 74 45 75 49 76
REMARK SMILES IDX 46 77 48 78 47 79
REMARK H PARENT 6 15 64 47 42 58
REMARK Flexibility Score: inf
ROOT
ATOM      1  C   UNL     1      -3.612  -1.895   0.852  1.00  0.00     0.275 C 
ENDROOT
BRANCH   1   2
ATOM      2  O   UNL     1      -3.169  -1.364  -0.415  1.00  0.00    -0.458 OA
BRANCH   2   3
ATOM      3  C   UNL     1      -3.895  -0.343  -0.957  1.00  0.00     0.348 C 
ATOM      4  O   UNL     1      -4.883   0.143  -0.416  1.00  0.00    -0.245 OA
BRANCH   3   5
ATOM      5  C   UNL     1      -3.283   0.140  -2.194  1.00  0.00     0.116 A 
ATOM      6  C   UNL     1      -2.383   1.805  -3.795  1.00  0.00     0.141 A 
ATOM      7  C   UNL     1      -1.927   0.530  -4.057  1.00  0.00     0.038 A 
ATOM      8  S   UNL     1      -3.671   1.757  -2.685  1.00  0.00    -0.115 S 
ATOM      9  C   UNL     1      -2.394  -0.441  -3.098  1.00  0.00    -0.024 A 
ATOM     10  C   UNL     1      -1.874  -1.842  -3.113  1.00  0.00     0.046 C 
BRANCH   6  11
ATOM     11  S   UNL     1      -1.795   3.397  -4.332  1.00  0.00     0.271 S 
ATOM     12  O   UNL     1      -2.945   4.273  -4.391  1.00  0.00    -0.200 OA
ATOM     13  O   UNL     1      -1.008   3.126  -5.516  1.00  0.00    -0.200 OA
BRANCH  11  14
ATOM     14  N   UNL     1      -0.739   4.051  -3.152  1.00  0.00    -0.279 N 
ATOM     15  H   UNL     1      -0.899   4.946  -2.774  1.00  0.00     0.180 HD
BRANCH  14  16
ATOM     16  C   UNL     1       0.387   3.262  -2.726  1.00  0.00     0.056 A 
ATOM     17  C   UNL     1       1.266   1.298  -1.616  1.00  0.00     0.124 A 
ATOM     18  C   UNL     1       0.189   2.087  -2.008  1.00  0.00     0.073 A 
ATOM     19  C   UNL     1       2.566   1.721  -1.854  1.00  0.00     0.093 A 
ATOM     20  C   UNL     1       2.785   2.947  -2.483  1.00  0.00     0.124 A 
ATOM     21  C   UNL     1       1.694   3.700  -2.951  1.00  0.00     0.073 A 
BRANCH  17  22
ATOM     22  O   UNL     1       0.965   0.074  -1.086  1.00  0.00    -0.497 OA
ATOM     23  C   UNL     1       1.617  -0.177   0.155  1.00  0.00     0.278 C 
ENDBRANCH  17  22
BRANCH  20  24
ATOM     24  O   UNL     1       4.022   3.493  -2.710  1.00  0.00    -0.497 OA
ATOM     25  C   UNL     1       5.099   2.929  -1.963  1.00  0.00     0.278 C 
ENDBRANCH  20  24
ENDBRANCH  14  16
ENDBRANCH  11  14
ENDBRANCH   6  11
ENDBRANCH   3   5
ENDBRANCH   2   3
ENDBRANCH   1   2
BRANCH   1  26
ATOM     26  C   UNL     1      -2.697  -1.473   2.008  1.00  0.00     0.275 C 
BRANCH  26  27
ATOM     27  O   UNL     1      -2.878  -0.086   2.357  1.00  0.00    -0.458 OA
BRANCH  27  28
ATOM     28  C   UNL     1      -2.044   0.759   1.713  1.00  0.00     0.338 C 
ATOM     29  O   UNL     1      -1.162   0.457   0.929  1.00  0.00    -0.246 OA
BRANCH  28  30
ATOM     30  C   UNL     1      -2.421   2.158   1.944  1.00  0.00     0.060 A 
ATOM     31  C   UNL     1      -2.760   2.902   0.815  1.00  0.00     0.016 A 
ATOM     32  C   UNL     1      -2.350   2.764   3.197  1.00  0.00     0.016 A 
ATOM     33  C   UNL     1      -3.045   4.255   0.920  1.00  0.00     0.010 A 
ATOM     34  C   UNL     1      -2.642   4.130   3.309  1.00  0.00     0.010 A 
ATOM     35  C   UNL     1      -2.991   4.880   2.171  1.00  0.00    -0.014 A 
BRANCH  35  36
ATOM     36  C   UNL     1      -3.308   6.323   2.258  1.00  0.00     0.031 A 
ATOM     37  C   UNL     1      -2.215   7.332   2.444  1.00  0.00     0.074 A 
ATOM     38  C   UNL     1      -4.585   6.722   2.109  1.00  0.00     0.049 A 
ATOM     39  N   UNL     1      -2.305   8.633   2.557  1.00  0.00    -0.248 NA
ATOM     40  C   UNL     1      -0.840   6.814   2.509  1.00  0.00     0.031 C 
ATOM     41  C   UNL     1      -5.723   5.834   1.863  1.00  0.00     0.029 A 
ATOM     42  N   UNL     1      -5.137   7.977   2.125  1.00  0.00    -0.354 N 
ATOM     43  C   UNL     1      -1.004   9.088   2.724  1.00  0.00     0.074 A 
ATOM     44  C   UNL     1      -0.144   7.924   2.713  1.00  0.00     0.031 C 
ATOM     45  C   UNL     1      -6.835   6.574   1.731  1.00  0.00     0.029 A 
ATOM     46  C   UNL     1      -6.496   7.979   1.932  1.00  0.00     0.049 A 
ATOM     47  H   UNL     1      -4.609   8.797   2.261  1.00  0.00     0.167 HD
ATOM     48  C   UNL     1      -0.570  10.363   2.874  1.00  0.00     0.031 A 
ATOM     49  C   UNL     1      -7.375   8.998   1.937  1.00  0.00     0.031 A 
ATOM     50  C   UNL     1      -1.431  11.517   2.884  1.00  0.00     0.049 A 
ATOM     51  C   UNL     1      -6.873  10.394   2.169  1.00  0.00     0.074 A 
ATOM     52  C   UNL     1      -1.086  12.850   3.028  1.00  0.00     0.029 A 
ATOM     53  N   UNL     1      -2.810  11.474   2.742  1.00  0.00    -0.354 N 
ATOM     54  N   UNL     1      -5.641  10.810   2.339  1.00  0.00    -0.248 NA
ATOM     55  C   UNL     1      -7.883  11.460   2.213  1.00  0.00     0.031 C 
ATOM     56  C   UNL     1      -2.261  13.609   3.022  1.00  0.00     0.029 A 
ATOM     57  C   UNL     1      -3.333  12.754   2.821  1.00  0.00     0.049 A 
ATOM     58  H   UNL     1      -3.338  10.655   2.606  1.00  0.00     0.167 HD
ATOM     59  C   UNL     1      -5.725  12.187   2.493  1.00  0.00     0.074 A 
ATOM     60  C   UNL     1      -7.127  12.537   2.377  1.00  0.00     0.031 C 
ATOM     61  C   UNL     1      -4.731  13.081   2.712  1.00  0.00     0.031 A 
BRANCH  48  62
ATOM     62  C   UNL     1       0.903  10.570   3.085  1.00  0.00    -0.014 A 
ATOM     63  C   UNL     1       1.822  10.420   2.035  1.00  0.00     0.009 A 
ATOM     64  C   UNL     1       1.374  10.954   4.350  1.00  0.00     0.009 A 
ATOM     65  C   UNL     1       3.187  10.621   2.256  1.00  0.00     0.001 A 
ATOM     66  C   UNL     1       2.735  11.179   4.563  1.00  0.00     0.001 A 
ATOM     67  C   UNL     1       3.641  11.004   3.518  1.00  0.00     0.000 A 
ENDBRANCH  48  62
BRANCH  49  68
ATOM     68  C   UNL     1      -8.823   8.728   1.745  1.00  0.00    -0.014 A 
ATOM     69  C   UNL     1      -9.479   9.132   0.573  1.00  0.00     0.009 A 
ATOM     70  C   UNL     1      -9.556   8.057   2.738  1.00  0.00     0.009 A 
ATOM     71  C   UNL     1     -10.844   8.886   0.408  1.00  0.00     0.001 A 
ATOM     72  C   UNL     1     -10.913   7.788   2.557  1.00  0.00     0.001 A 
ATOM     73  C   UNL     1     -11.558   8.210   1.397  1.00  0.00     0.000 A 
ENDBRANCH  49  68
BRANCH  61  74
ATOM     74  C   UNL     1      -5.127  14.526   2.816  1.00  0.00    -0.014 A 
ATOM     75  C   UNL     1      -5.775  15.021   3.958  1.00  0.00     0.009 A 
ATOM     76  C   UNL     1      -4.818  15.409   1.770  1.00  0.00     0.009 A 
ATOM     77  C   UNL     1      -6.136  16.367   4.035  1.00  0.00     0.001 A 
ATOM     78  C   UNL     1      -5.157  16.759   1.861  1.00  0.00     0.001 A 
ATOM     79  C   UNL     1      -5.823  17.235   2.990  1.00  0.00     0.000 A 
ENDBRANCH  61  74
ENDBRANCH  35  36
ENDBRANCH  28  30
ENDBRANCH  27  28
ENDBRANCH  26  27
ENDBRANCH   1  26
TORSDOF 16
