REMARK SMILES Cc1ccccc1-c1c(Cl)ccc2c1C=C(C(=O)OCCOC(=O)c1ccc(-c3c4nc(c(-c5ccccc5)c5ccc([nH]5)c(-c5ccccc5)c5nc(c(-c6ccccc6)c6ccc3[nH]6)C=C5)C=C4)cc1)[C@@H](C(F)(F)F)O2
REMARK SMILES IDX 21 1 20 2 19 3 17 4 18 5 16 6 8 7 9 8 14 9 10 10 11 11 13 12
REMARK SMILES IDX 15 13 12 14 78 15 73 16 7 17 1 18 2 19 3 20 4 21 6 22 5 23
REMARK SMILES IDX 74 24 75 25 76 26 77 27 22 28 23 29 24 30 25 31 26 32 72 33
REMARK SMILES IDX 27 34 71 35 28 36 29 37 30 38 65 39 31 40 70 41 64 42 66 43
REMARK SMILES IDX 32 44 69 45 63 46 62 47 33 49 55 50 40 51 54 52 41 53 44 54
REMARK SMILES IDX 53 55 67 56 42 57 43 58 52 60 68 61 45 62 34 63 35 64 39 65
REMARK SMILES IDX 36 66 38 67 37 68 56 69 57 70 61 71 58 72 60 73 59 74 46 75
REMARK SMILES IDX 47 76 51 77 48 78 50 79 49 80
REMARK H PARENT 66 48 44 59
REMARK Flexibility Score: inf
ROOT
ATOM      1  C   UNL     1       7.757   0.429  -3.738  1.00  0.00     0.275 C 
ENDROOT
BRANCH   1   2
ATOM      2  C   UNL     1       6.318   0.034  -3.370  1.00  0.00     0.275 C 
BRANCH   2   3
ATOM      3  O   UNL     1       5.315   0.988  -3.771  1.00  0.00    -0.459 OA
BRANCH   3   4
ATOM      4  C   UNL     1       4.048   0.539  -3.544  1.00  0.00     0.338 C 
ATOM      5  O   UNL     1       3.765  -0.633  -3.333  1.00  0.00    -0.246 OA
BRANCH   4   6
ATOM      6  C   UNL     1       3.105   1.657  -3.295  1.00  0.00     0.087 C 
ATOM      7  C   UNL     1       0.811   2.127  -0.412  1.00  0.00     0.012 A 
ATOM      8  C   UNL     1       0.720   3.136   0.586  1.00  0.00     0.049 A 
ATOM      9  C   UNL     1       1.624   2.419  -1.548  1.00  0.00     0.027 A 
ATOM     10  Cl  UNL     1      -0.073   2.869   2.111  1.00  0.00    -0.084 Cl
ATOM     11  C   UNL     1       1.300   4.398   0.417  1.00  0.00     0.025 A 
ATOM     12  C   UNL     1       2.209   3.696  -1.695  1.00  0.00     0.128 A 
ATOM     13  C   UNL     1       2.091   1.372  -2.466  1.00  0.00     0.028 C 
ATOM     14  C   UNL     1       2.015   4.687  -0.737  1.00  0.00     0.049 A 
ATOM     15  O   UNL     1       3.070   4.043  -2.707  1.00  0.00    -0.475 OA
ATOM     16  C   UNL     1       3.326   3.065  -3.744  1.00  0.00     0.316 C 
BRANCH   7  17
ATOM     17  C   UNL     1      -0.005   0.877  -0.281  1.00  0.00    -0.013 A 
ATOM     18  C   UNL     1       1.948  -0.817  -0.137  1.00  0.00     0.045 C 
ATOM     19  C   UNL     1       0.492  -0.442  -0.149  1.00  0.00    -0.043 A 
ATOM     20  C   UNL     1      -0.409  -1.525  -0.045  1.00  0.00     0.004 A 
ATOM     21  C   UNL     1      -1.785  -1.326  -0.007  1.00  0.00     0.000 A 
ATOM     22  C   UNL     1      -1.413   1.036  -0.261  1.00  0.00     0.009 A 
ATOM     23  C   UNL     1      -2.289  -0.040  -0.103  1.00  0.00     0.001 A 
ENDBRANCH   7  17
BRANCH  16  24
ATOM     24  C   UNL     1       2.446   3.361  -4.970  1.00  0.00     0.430 C 
ATOM     25  F   UNL     1       2.688   4.596  -5.468  1.00  0.00    -0.167 F 
ATOM     26  F   UNL     1       2.687   2.477  -5.969  1.00  0.00    -0.167 F 
ATOM     27  F   UNL     1       1.124   3.294  -4.687  1.00  0.00    -0.167 F 
ENDBRANCH  16  24
ENDBRANCH   4   6
ENDBRANCH   3   4
ENDBRANCH   2   3
ENDBRANCH   1   2
BRANCH   1  28
ATOM     28  O   UNL     1       7.993   1.816  -4.088  1.00  0.00    -0.458 OA
BRANCH  28  29
ATOM     29  C   UNL     1       7.723   2.894  -3.312  1.00  0.00     0.338 C 
ATOM     30  O   UNL     1       7.716   4.039  -3.742  1.00  0.00    -0.246 OA
BRANCH  29  31
ATOM     31  C   UNL     1       7.347   2.600  -1.926  1.00  0.00     0.060 A 
ATOM     32  C   UNL     1       6.083   2.999  -1.487  1.00  0.00     0.016 A 
ATOM     33  C   UNL     1       8.193   1.835  -1.125  1.00  0.00     0.016 A 
ATOM     34  C   UNL     1       5.604   2.533  -0.273  1.00  0.00     0.010 A 
ATOM     35  C   UNL     1       7.705   1.331   0.062  1.00  0.00     0.010 A 
ATOM     36  C   UNL     1       6.420   1.689   0.488  1.00  0.00    -0.014 A 
BRANCH  36  37
ATOM     37  C   UNL     1       6.124   1.450   1.893  1.00  0.00     0.031 A 
ATOM     38  C   UNL     1       5.046   0.545   2.303  1.00  0.00     0.074 A 
ATOM     39  C   UNL     1       6.749   2.301   2.730  1.00  0.00     0.049 A 
ATOM     40  N   UNL     1       4.033   0.893   3.021  1.00  0.00    -0.248 NA
ATOM     41  C   UNL     1       5.016  -0.850   1.867  1.00  0.00     0.031 C 
ATOM     42  C   UNL     1       6.658   2.442   4.169  1.00  0.00     0.029 A 
ATOM     43  N   UNL     1       7.444   3.434   2.311  1.00  0.00    -0.354 N 
ATOM     44  C   UNL     1       3.389  -0.276   3.370  1.00  0.00     0.074 A 
ATOM     45  C   UNL     1       3.952  -1.312   2.534  1.00  0.00     0.031 C 
ATOM     46  C   UNL     1       7.028   3.701   4.485  1.00  0.00     0.029 A 
ATOM     47  C   UNL     1       7.231   4.439   3.235  1.00  0.00     0.049 A 
ATOM     48  H   UNL     1       7.991   3.506   1.496  1.00  0.00     0.167 HD
ATOM     49  C   UNL     1       2.645  -0.363   4.506  1.00  0.00     0.031 A 
ATOM     50  C   UNL     1       6.556   5.564   2.857  1.00  0.00     0.031 A 
ATOM     51  C   UNL     1       2.865   0.807   5.337  1.00  0.00     0.049 A 
ATOM     52  C   UNL     1       5.303   5.727   3.670  1.00  0.00     0.074 A 
ATOM     53  C   UNL     1       3.868   1.025   6.269  1.00  0.00     0.029 A 
ATOM     54  N   UNL     1       2.338   2.047   5.003  1.00  0.00    -0.354 N 
ATOM     55  N   UNL     1       4.514   4.744   4.007  1.00  0.00    -0.248 NA
ATOM     56  C   UNL     1       4.878   7.021   4.186  1.00  0.00     0.031 C 
ATOM     57  C   UNL     1       4.007   2.417   6.437  1.00  0.00     0.029 A 
ATOM     58  C   UNL     1       3.057   3.038   5.647  1.00  0.00     0.049 A 
ATOM     59  H   UNL     1       1.573   2.197   4.403  1.00  0.00     0.167 HD
ATOM     60  C   UNL     1       3.564   5.235   4.867  1.00  0.00     0.074 A 
ATOM     61  C   UNL     1       3.807   6.668   4.913  1.00  0.00     0.031 C 
ATOM     62  C   UNL     1       2.691   4.438   5.547  1.00  0.00     0.031 A 
BRANCH  49  63
ATOM     63  C   UNL     1       2.195  -1.699   5.031  1.00  0.00    -0.014 A 
ATOM     64  C   UNL     1       2.432  -2.043   6.374  1.00  0.00     0.009 A 
ATOM     65  C   UNL     1       1.587  -2.674   4.221  1.00  0.00     0.009 A 
ATOM     66  C   UNL     1       2.181  -3.329   6.861  1.00  0.00     0.001 A 
ATOM     67  C   UNL     1       1.347  -3.971   4.702  1.00  0.00     0.001 A 
ATOM     68  C   UNL     1       1.663  -4.303   6.017  1.00  0.00     0.000 A 
ENDBRANCH  49  63
BRANCH  50  69
ATOM     69  C   UNL     1       6.656   6.012   1.427  1.00  0.00    -0.014 A 
ATOM     70  C   UNL     1       7.920   6.112   0.805  1.00  0.00     0.009 A 
ATOM     71  C   UNL     1       5.524   6.214   0.624  1.00  0.00     0.009 A 
ATOM     72  C   UNL     1       8.044   6.325  -0.574  1.00  0.00     0.001 A 
ATOM     73  C   UNL     1       5.649   6.454  -0.754  1.00  0.00     0.001 A 
ATOM     74  C   UNL     1       6.906   6.488  -1.355  1.00  0.00     0.000 A 
ENDBRANCH  50  69
BRANCH  62  75
ATOM     75  C   UNL     1       1.524   4.907   6.373  1.00  0.00    -0.014 A 
ATOM     76  C   UNL     1       0.882   6.137   6.195  1.00  0.00     0.009 A 
ATOM     77  C   UNL     1       0.948   4.019   7.311  1.00  0.00     0.009 A 
ATOM     78  C   UNL     1      -0.237   6.487   6.960  1.00  0.00     0.001 A 
ATOM     79  C   UNL     1      -0.196   4.341   8.038  1.00  0.00     0.001 A 
ATOM     80  C   UNL     1      -0.781   5.587   7.872  1.00  0.00     0.000 A 
ENDBRANCH  62  75
ENDBRANCH  36  37
ENDBRANCH  29  31
ENDBRANCH  28  29
ENDBRANCH   1  28
TORSDOF 13
