REMARK SMILES Cc1cccc(-c2cc(C(=O)OCCOC(=O)c3ccc(-c4c5nc(c(-c6ccccc6)c6ccc([nH]6)c(-c6ccccc6)c6nc(c(-c7ccccc7)c7ccc4[nH]7)C=C6)C=C5)cc3)ccn2)c1
REMARK SMILES IDX 14 1 13 2 12 3 10 4 11 5 9 6 7 7 8 8 68 9 67 10 66 11 6 12
REMARK SMILES IDX 1 13 2 14 3 15 69 16 4 17 5 18 15 19 16 20 17 21 18 22 19 23
REMARK SMILES IDX 65 24 20 25 64 26 21 27 22 28 23 29 58 30 24 31 63 32 57 33
REMARK SMILES IDX 59 34 25 35 62 36 56 37 55 38 26 40 48 41 33 42 47 43 34 44
REMARK SMILES IDX 37 45 46 46 60 47 35 48 36 49 45 51 61 52 38 53 27 54 28 55
REMARK SMILES IDX 32 56 29 57 31 58 30 59 49 60 50 61 54 62 51 63 53 64 52 65
REMARK SMILES IDX 39 66 40 67 44 68 41 69 43 70 42 71
REMARK H PARENT 59 39 37 50
REMARK Flexibility Score: inf
ROOT
ATOM      1  C   UNL     1      -3.027   5.482  -5.611  1.00  0.00     0.275 C 
ENDROOT
BRANCH   1   2
ATOM      2  C   UNL     1      -1.790   4.840  -4.934  1.00  0.00     0.275 C 
BRANCH   2   3
ATOM      3  O   UNL     1      -1.869   4.327  -3.597  1.00  0.00    -0.458 OA
BRANCH   3   4
ATOM      4  C   UNL     1      -2.959   3.645  -3.221  1.00  0.00     0.338 C 
ATOM      5  O   UNL     1      -3.967   3.432  -3.894  1.00  0.00    -0.246 OA
BRANCH   4   6
ATOM      6  C   UNL     1      -2.802   3.220  -1.827  1.00  0.00     0.063 A 
ATOM      7  C   UNL     1      -1.701   1.883  -0.198  1.00  0.00     0.071 A 
ATOM      8  C   UNL     1      -1.716   2.428  -1.474  1.00  0.00     0.044 A 
ATOM      9  N   UNL     1      -2.627   2.195   0.743  1.00  0.00    -0.256 NA
ATOM     10  C   UNL     1      -3.635   3.018   0.383  1.00  0.00     0.112 A 
ATOM     11  C   UNL     1      -3.795   3.510  -0.896  1.00  0.00     0.036 A 
BRANCH   7  12
ATOM     12  C   UNL     1      -0.860   0.715   0.071  1.00  0.00     0.000 A 
ATOM     13  C   UNL     1       2.810  -0.334   0.085  1.00  0.00     0.044 C 
ATOM     14  C   UNL     1       1.312  -0.390   0.127  1.00  0.00    -0.050 A 
ATOM     15  C   UNL     1       0.669  -1.635   0.161  1.00  0.00     0.003 A 
ATOM     16  C   UNL     1       0.541   0.782   0.085  1.00  0.00     0.013 A 
ATOM     17  C   UNL     1      -0.721  -1.713   0.187  1.00  0.00     0.001 A 
ATOM     18  C   UNL     1      -1.477  -0.545   0.153  1.00  0.00     0.010 A 
ENDBRANCH   7  12
ENDBRANCH   4   6
ENDBRANCH   3   4
ENDBRANCH   2   3
ENDBRANCH   1   2
BRANCH   1  19
ATOM     19  O   UNL     1      -3.994   6.386  -4.986  1.00  0.00    -0.458 OA
BRANCH  19  20
ATOM     20  C   UNL     1      -4.210   6.647  -3.679  1.00  0.00     0.338 C 
ATOM     21  O   UNL     1      -5.316   6.720  -3.166  1.00  0.00    -0.246 OA
BRANCH  20  22
ATOM     22  C   UNL     1      -3.005   6.963  -2.919  1.00  0.00     0.060 A 
ATOM     23  C   UNL     1      -2.934   6.638  -1.555  1.00  0.00     0.016 A 
ATOM     24  C   UNL     1      -1.921   7.487  -3.612  1.00  0.00     0.016 A 
ATOM     25  C   UNL     1      -1.721   6.731  -0.897  1.00  0.00     0.010 A 
ATOM     26  C   UNL     1      -0.696   7.439  -3.016  1.00  0.00     0.010 A 
ATOM     27  C   UNL     1      -0.621   7.130  -1.651  1.00  0.00    -0.014 A 
BRANCH  27  28
ATOM     28  C   UNL     1       0.577   7.676  -1.061  1.00  0.00     0.031 A 
ATOM     29  C   UNL     1       1.696   6.805  -0.703  1.00  0.00     0.074 A 
ATOM     30  C   UNL     1       0.546   9.027  -1.097  1.00  0.00     0.049 A 
ATOM     31  N   UNL     1       2.582   7.111   0.173  1.00  0.00    -0.248 NA
ATOM     32  C   UNL     1       1.893   5.468  -1.270  1.00  0.00     0.031 C 
ATOM     33  C   UNL     1       1.579  10.035  -0.987  1.00  0.00     0.029 A 
ATOM     34  N   UNL     1      -0.603   9.800  -1.205  1.00  0.00    -0.354 N 
ATOM     35  C   UNL     1       3.635   6.242  -0.014  1.00  0.00     0.074 A 
ATOM     36  C   UNL     1       3.098   5.144  -0.781  1.00  0.00     0.031 C 
ATOM     37  C   UNL     1       0.989  11.223  -0.721  1.00  0.00     0.029 A 
ATOM     38  C   UNL     1      -0.441  10.984  -0.521  1.00  0.00     0.049 A 
ATOM     39  H   UNL     1      -1.415   9.540  -1.697  1.00  0.00     0.167 HD
ATOM     40  C   UNL     1       4.890   6.673   0.295  1.00  0.00     0.031 A 
ATOM     41  C   UNL     1      -1.117  11.124   0.662  1.00  0.00     0.031 A 
ATOM     42  C   UNL     1       4.831   8.053   0.778  1.00  0.00     0.049 A 
ATOM     43  C   UNL     1      -0.143  11.027   1.819  1.00  0.00     0.074 A 
ATOM     44  C   UNL     1       4.984   9.258   0.111  1.00  0.00     0.029 A 
ATOM     45  N   UNL     1       4.153   8.335   1.958  1.00  0.00    -0.354 N 
ATOM     46  N   UNL     1       0.952  10.312   1.801  1.00  0.00    -0.248 NA
ATOM     47  C   UNL     1      -0.291  11.801   3.046  1.00  0.00     0.031 C 
ATOM     48  C   UNL     1       4.288  10.253   0.852  1.00  0.00     0.029 A 
ATOM     49  C   UNL     1       3.722   9.650   1.963  1.00  0.00     0.049 A 
ATOM     50  H   UNL     1       4.001   7.691   2.686  1.00  0.00     0.167 HD
ATOM     51  C   UNL     1       1.704  10.615   2.902  1.00  0.00     0.074 A 
ATOM     52  C   UNL     1       0.863  11.517   3.674  1.00  0.00     0.031 C 
ATOM     53  C   UNL     1       2.975  10.161   3.102  1.00  0.00     0.031 A 
BRANCH  40  54
ATOM     54  C   UNL     1       6.167   6.015  -0.162  1.00  0.00    -0.014 A 
ATOM     55  C   UNL     1       7.320   6.808  -0.333  1.00  0.00     0.009 A 
ATOM     56  C   UNL     1       6.310   4.647  -0.445  1.00  0.00     0.009 A 
ATOM     57  C   UNL     1       8.526   6.284  -0.812  1.00  0.00     0.001 A 
ATOM     58  C   UNL     1       7.512   4.117  -0.944  1.00  0.00     0.001 A 
ATOM     59  C   UNL     1       8.619   4.937  -1.131  1.00  0.00     0.000 A 
ENDBRANCH  40  54
BRANCH  41  60
ATOM     60  C   UNL     1      -2.515  10.557   0.651  1.00  0.00    -0.014 A 
ATOM     61  C   UNL     1      -3.411  11.007  -0.349  1.00  0.00     0.009 A 
ATOM     62  C   UNL     1      -2.889   9.422   1.386  1.00  0.00     0.009 A 
ATOM     63  C   UNL     1      -4.564  10.286  -0.685  1.00  0.00     0.001 A 
ATOM     64  C   UNL     1      -4.066   8.717   1.068  1.00  0.00     0.001 A 
ATOM     65  C   UNL     1      -4.881   9.127   0.012  1.00  0.00     0.000 A 
ENDBRANCH  41  60
BRANCH  53  66
ATOM     66  C   UNL     1       3.692  10.215   4.420  1.00  0.00    -0.014 A 
ATOM     67  C   UNL     1       3.026  10.212   5.651  1.00  0.00     0.009 A 
ATOM     68  C   UNL     1       5.096  10.068   4.443  1.00  0.00     0.009 A 
ATOM     69  C   UNL     1       3.735  10.119   6.851  1.00  0.00     0.001 A 
ATOM     70  C   UNL     1       5.800   9.909   5.635  1.00  0.00     0.001 A 
ATOM     71  C   UNL     1       5.118   9.953   6.841  1.00  0.00     0.000 A 
ENDBRANCH  53  66
ENDBRANCH  27  28
ENDBRANCH  20  22
ENDBRANCH  19  20
ENDBRANCH   1  19
TORSDOF 12
