REMARK SMILES Cc1cc(N2CCCC2)nc2sc3c(=O)n(CC(=O)OCCOC(=O)c4ccc(-c5c6nc(c(-c7ccccc7)c7ccc([nH]7)c(-c7ccccc7)c7nc(c(-c8ccccc8)c8ccc5[nH]8)C=C7)C=C6)cc4)cnc3c12
REMARK SMILES IDX 21 1 20 2 18 3 19 4 17 5 16 6 1 7 2 8 3 9 77 10 4 11 11 12
REMARK SMILES IDX 76 13 10 14 12 15 13 16 75 17 14 18 74 19 15 20 5 21 6 22
REMARK SMILES IDX 9 23 7 24 8 25 22 26 23 27 24 28 25 29 26 30 27 31 73 32
REMARK SMILES IDX 28 33 72 34 29 35 30 36 31 37 66 38 32 39 71 40 65 41 67 42
REMARK SMILES IDX 33 43 70 44 64 45 63 46 34 48 56 49 41 50 55 51 42 52 45 53
REMARK SMILES IDX 54 54 68 55 43 56 44 57 53 59 69 60 46 61 35 62 36 63 40 64
REMARK SMILES IDX 37 65 39 66 38 67 57 68 58 69 62 70 59 71 61 72 60 73 47 74
REMARK SMILES IDX 48 75 52 76 49 77 51 78 50 79
REMARK H PARENT 67 47 45 58
REMARK Flexibility Score: inf
ROOT
ATOM      1  C   UNL     1       5.569  -6.427   0.773  1.00  0.00     0.274 C 
ENDROOT
BRANCH   1   2
ATOM      2  O   UNL     1       4.229  -6.200   0.286  1.00  0.00    -0.461 OA
BRANCH   2   3
ATOM      3  C   UNL     1       3.351  -7.213   0.514  1.00  0.00     0.326 C 
ATOM      4  O   UNL     1       3.640  -8.275   1.058  1.00  0.00    -0.250 OA
BRANCH   3   5
ATOM      5  C   UNL     1       1.916  -6.900   0.107  1.00  0.00     0.249 C 
BRANCH   5   6
ATOM      6  N   UNL     1       1.648  -5.586  -0.453  1.00  0.00    -0.287 N 
ATOM      7  C   UNL     1       0.992  -0.128  -0.005  1.00  0.00     0.045 C 
ATOM      8  C   UNL     1       0.587  -0.529  -1.395  1.00  0.00    -0.035 A 
ATOM      9  C   UNL     1       0.184   0.454  -2.307  1.00  0.00     0.051 A 
ATOM     10  C   UNL     1       0.639  -1.851  -1.888  1.00  0.00     0.041 A 
ATOM     11  C   UNL     1      -0.223   0.128  -3.600  1.00  0.00     0.130 A 
ATOM     12  C   UNL     1       0.272  -2.055  -3.217  1.00  0.00     0.128 A 
ATOM     13  C   UNL     1       0.983  -3.102  -1.304  1.00  0.00     0.098 A 
ATOM     14  N   UNL     1      -0.203  -1.129  -4.073  1.00  0.00    -0.220 NA
ATOM     15  S   UNL     1       0.503  -3.675  -3.732  1.00  0.00    -0.108 S 
ATOM     16  C   UNL     1       1.030  -4.136  -2.192  1.00  0.00     0.121 A 
ATOM     17  N   UNL     1       1.245  -3.277   0.060  1.00  0.00    -0.236 NA
ATOM     18  C   UNL     1       1.434  -5.468  -1.827  1.00  0.00     0.271 A 
ATOM     19  C   UNL     1       1.527  -4.496   0.387  1.00  0.00     0.203 A 
ATOM     20  O   UNL     1       1.560  -6.404  -2.597  1.00  0.00    -0.268 OA
BRANCH  11  21
ATOM     21  N   UNL     1      -0.704   1.129  -4.401  1.00  0.00    -0.357 N 
ATOM     22  C   UNL     1       0.088   2.276  -4.783  1.00  0.00     0.118 C 
ATOM     23  C   UNL     1      -1.866   0.950  -5.248  1.00  0.00     0.118 C 
ATOM     24  C   UNL     1      -0.979   3.214  -5.326  1.00  0.00     0.023 C 
ATOM     25  C   UNL     1      -1.958   2.271  -6.023  1.00  0.00     0.023 C 
ENDBRANCH  11  21
ENDBRANCH   5   6
ENDBRANCH   3   5
ENDBRANCH   2   3
ENDBRANCH   1   2
BRANCH   1  26
ATOM     26  C   UNL     1       5.807  -5.756   2.127  1.00  0.00     0.275 C 
BRANCH  26  27
ATOM     27  O   UNL     1       4.706  -5.989   3.024  1.00  0.00    -0.458 OA
BRANCH  27  28
ATOM     28  C   UNL     1       3.874  -4.929   3.118  1.00  0.00     0.338 C 
ATOM     29  O   UNL     1       4.001  -3.851   2.557  1.00  0.00    -0.246 OA
BRANCH  28  30
ATOM     30  C   UNL     1       2.690  -5.201   3.947  1.00  0.00     0.060 A 
ATOM     31  C   UNL     1       1.910  -6.353   3.788  1.00  0.00     0.016 A 
ATOM     32  C   UNL     1       2.237  -4.138   4.727  1.00  0.00     0.016 A 
ATOM     33  C   UNL     1       0.641  -6.409   4.369  1.00  0.00     0.010 A 
ATOM     34  C   UNL     1       0.988  -4.209   5.325  1.00  0.00     0.010 A 
ATOM     35  C   UNL     1       0.180  -5.343   5.150  1.00  0.00    -0.014 A 
BRANCH  35  36
ATOM     36  C   UNL     1      -1.083  -5.512   5.899  1.00  0.00     0.031 A 
ATOM     37  C   UNL     1      -0.912  -5.226   7.359  1.00  0.00     0.074 A 
ATOM     38  C   UNL     1      -2.283  -5.147   5.398  1.00  0.00     0.049 A 
ATOM     39  N   UNL     1      -0.868  -4.002   7.793  1.00  0.00    -0.248 NA
ATOM     40  C   UNL     1      -0.456  -6.206   8.339  1.00  0.00     0.031 C 
ATOM     41  C   UNL     1      -2.495  -4.068   4.423  1.00  0.00     0.029 A 
ATOM     42  N   UNL     1      -3.548  -5.461   5.840  1.00  0.00    -0.354 N 
ATOM     43  C   UNL     1      -0.268  -4.018   9.038  1.00  0.00     0.074 A 
ATOM     44  C   UNL     1      -0.067  -5.413   9.354  1.00  0.00     0.031 C 
ATOM     45  C   UNL     1      -3.787  -3.683   4.485  1.00  0.00     0.029 A 
ATOM     46  C   UNL     1      -4.511  -4.577   5.379  1.00  0.00     0.049 A 
ATOM     47  H   UNL     1      -3.748  -6.231   6.420  1.00  0.00     0.167 HD
ATOM     48  C   UNL     1       0.012  -2.863   9.704  1.00  0.00     0.031 A 
ATOM     49  C   UNL     1      -5.711  -4.350   5.974  1.00  0.00     0.031 A 
ATOM     50  C   UNL     1      -0.436  -1.629   9.095  1.00  0.00     0.049 A 
ATOM     51  C   UNL     1      -5.370  -3.230   6.924  1.00  0.00     0.074 A 
ATOM     52  C   UNL     1      -0.025  -0.321   8.941  1.00  0.00     0.029 A 
ATOM     53  N   UNL     1      -1.639  -1.704   8.454  1.00  0.00    -0.354 N 
ATOM     54  N   UNL     1      -5.189  -1.972   6.612  1.00  0.00    -0.248 NA
ATOM     55  C   UNL     1      -4.926  -3.581   8.285  1.00  0.00     0.031 C 
ATOM     56  C   UNL     1      -1.082   0.382   8.265  1.00  0.00     0.029 A 
ATOM     57  C   UNL     1      -2.131  -0.501   8.057  1.00  0.00     0.049 A 
ATOM     58  H   UNL     1      -2.108  -2.554   8.294  1.00  0.00     0.167 HD
ATOM     59  C   UNL     1      -4.327  -1.486   7.590  1.00  0.00     0.074 A 
ATOM     60  C   UNL     1      -4.353  -2.447   8.674  1.00  0.00     0.031 C 
ATOM     61  C   UNL     1      -3.399  -0.510   7.364  1.00  0.00     0.031 A 
BRANCH  48  62
ATOM     62  C   UNL     1       0.466  -2.848  11.113  1.00  0.00    -0.014 A 
ATOM     63  C   UNL     1      -0.519  -2.643  12.095  1.00  0.00     0.009 A 
ATOM     64  C   UNL     1       1.810  -2.882  11.497  1.00  0.00     0.009 A 
ATOM     65  C   UNL     1      -0.174  -2.467  13.433  1.00  0.00     0.001 A 
ATOM     66  C   UNL     1       2.154  -2.706  12.844  1.00  0.00     0.001 A 
ATOM     67  C   UNL     1       1.165  -2.495  13.807  1.00  0.00     0.000 A 
ENDBRANCH  48  62
BRANCH  49  68
ATOM     68  C   UNL     1      -6.486  -5.579   6.340  1.00  0.00    -0.014 A 
ATOM     69  C   UNL     1      -6.664  -6.560   5.338  1.00  0.00     0.009 A 
ATOM     70  C   UNL     1      -7.045  -5.847   7.595  1.00  0.00     0.009 A 
ATOM     71  C   UNL     1      -7.237  -7.804   5.617  1.00  0.00     0.001 A 
ATOM     72  C   UNL     1      -7.594  -7.104   7.887  1.00  0.00     0.001 A 
ATOM     73  C   UNL     1      -7.668  -8.089   6.906  1.00  0.00     0.000 A 
ENDBRANCH  49  68
BRANCH  61  74
ATOM     74  C   UNL     1      -3.646   0.425   6.241  1.00  0.00    -0.014 A 
ATOM     75  C   UNL     1      -4.780   1.248   6.275  1.00  0.00     0.009 A 
ATOM     76  C   UNL     1      -2.724   0.570   5.195  1.00  0.00     0.009 A 
ATOM     77  C   UNL     1      -4.984   2.210   5.291  1.00  0.00     0.001 A 
ATOM     78  C   UNL     1      -2.929   1.537   4.210  1.00  0.00     0.001 A 
ATOM     79  C   UNL     1      -4.054   2.360   4.263  1.00  0.00     0.000 A 
ENDBRANCH  61  74
ENDBRANCH  35  36
ENDBRANCH  28  30
ENDBRANCH  27  28
ENDBRANCH  26  27
ENDBRANCH   1  26
TORSDOF 13
