REMARK SMILES CCOC(=O)[C@H]1CCCN(C(=O)N[C@](C)(CC)C(=O)OCCOC(=O)c2ccc(-c3c4nc(c(-c5ccccc5)c5ccc([nH]5)c(-c5ccccc5)c5nc(c(-c6ccccc6)c6ccc3[nH]6)C=C5)C=C4)cc2)C1
REMARK SMILES IDX 20 1 18 2 19 3 14 4 15 5 13 6 11 7 12 8 10 10 6 11 7 12
REMARK SMILES IDX 74 13 8 14 9 15 4 16 5 17 3 18 2 19 1 20 16 21 17 22 21 23
REMARK SMILES IDX 22 24 23 25 24 26 25 27 26 28 27 29 73 30 28 31 72 32 29 33
REMARK SMILES IDX 30 34 31 35 66 36 32 37 71 38 65 39 67 40 33 41 70 42 64 43
REMARK SMILES IDX 63 44 34 46 56 47 41 48 55 49 42 50 45 51 54 52 68 53 43 54
REMARK SMILES IDX 44 55 53 57 69 58 46 59 35 60 36 61 40 62 37 63 39 64 38 65
REMARK SMILES IDX 57 66 58 67 62 68 59 69 61 70 60 71 47 72 48 73 52 74 49 75
REMARK SMILES IDX 51 76 50 77
REMARK H PARENT 13 9 67 45 45 56
REMARK Flexibility Score: inf
ROOT
ATOM      1  O   UNL     1       5.384  -3.442   0.004  1.00  0.00    -0.460 OA
ENDROOT
BRANCH   1   2
ATOM      2  C   UNL     1       6.233  -2.477  -0.447  1.00  0.00     0.331 C 
ATOM      3  O   UNL     1       6.652  -2.446  -1.600  1.00  0.00    -0.249 OA
BRANCH   2   4
ATOM      4  C   UNL     1       6.609  -1.432   0.661  1.00  0.00     0.136 C 
ATOM      5  C   UNL     1       5.792  -0.128   0.647  1.00  0.00     0.047 C 
BRANCH   4   6
ATOM      6  N   UNL     1       8.085  -1.175   0.487  1.00  0.00    -0.322 N 
ATOM      7  C   UNL     1       8.972  -0.575  -0.330  1.00  0.00     0.318 C 
ATOM      8  O   UNL     1      10.149  -0.768   0.002  1.00  0.00    -0.249 OA
ATOM      9  H   UNL     1       8.572  -1.594   1.233  1.00  0.00     0.166 HD
BRANCH   7  10
ATOM     10  N   UNL     1       8.669   0.191  -1.415  1.00  0.00    -0.324 N 
ATOM     11  C   UNL     1       9.571   2.366  -2.290  1.00  0.00     0.119 C 
ATOM     12  C   UNL     1       8.112   2.779  -2.586  1.00  0.00     0.019 C 
ATOM     13  C   UNL     1       9.758   0.838  -2.182  1.00  0.00     0.136 C 
ATOM     14  C   UNL     1       7.118   2.002  -1.746  1.00  0.00     0.023 C 
ATOM     15  C   UNL     1       7.372   0.517  -1.960  1.00  0.00     0.121 C 
BRANCH  11  16
ATOM     16  C   UNL     1      10.534   2.936  -3.327  1.00  0.00     0.310 C 
ATOM     17  O   UNL     1      11.745   2.772  -3.303  1.00  0.00    -0.252 OA
BRANCH  16  18
ATOM     18  O   UNL     1       9.871   3.679  -4.255  1.00  0.00    -0.466 OA
BRANCH  18  19
ATOM     19  C   UNL     1      10.638   4.433  -5.201  1.00  0.00     0.229 C 
ATOM     20  C   UNL     1      10.852   5.828  -4.646  1.00  0.00     0.049 C 
ENDBRANCH  18  19
ENDBRANCH  16  18
ENDBRANCH  11  16
ENDBRANCH   7  10
ENDBRANCH   4   6
BRANCH   4  21
ATOM     21  C   UNL     1       6.427  -2.066   2.083  1.00  0.00     0.037 C 
ATOM     22  C   UNL     1       4.980  -2.323   2.536  1.00  0.00     0.007 C 
ENDBRANCH   4  21
ENDBRANCH   2   4
ENDBRANCH   1   2
BRANCH   1  23
ATOM     23  C   UNL     1       5.085  -4.538  -0.887  1.00  0.00     0.274 C 
BRANCH  23  24
ATOM     24  C   UNL     1       3.627  -4.474  -1.333  1.00  0.00     0.275 C 
BRANCH  24  25
ATOM     25  O   UNL     1       3.452  -3.296  -2.136  1.00  0.00    -0.458 OA
BRANCH  25  26
ATOM     26  C   UNL     1       2.512  -2.414  -1.733  1.00  0.00     0.338 C 
ATOM     27  O   UNL     1       1.686  -2.560  -0.845  1.00  0.00    -0.246 OA
BRANCH  26  28
ATOM     28  C   UNL     1       2.659  -1.168  -2.512  1.00  0.00     0.060 A 
ATOM     29  C   UNL     1       3.931  -0.687  -2.808  1.00  0.00     0.016 A 
ATOM     30  C   UNL     1       1.539  -0.418  -2.871  1.00  0.00     0.016 A 
ATOM     31  C   UNL     1       4.086   0.571  -3.381  1.00  0.00     0.010 A 
ATOM     32  C   UNL     1       1.703   0.806  -3.539  1.00  0.00     0.010 A 
ATOM     33  C   UNL     1       2.983   1.337  -3.774  1.00  0.00    -0.014 A 
BRANCH  33  34
ATOM     34  C   UNL     1       3.180   2.696  -4.368  1.00  0.00     0.031 A 
ATOM     35  C   UNL     1       2.457   3.888  -3.791  1.00  0.00     0.074 A 
ATOM     36  C   UNL     1       4.039   2.904  -5.389  1.00  0.00     0.049 A 
ATOM     37  N   UNL     1       2.289   5.081  -4.305  1.00  0.00    -0.248 NA
ATOM     38  C   UNL     1       1.833   3.713  -2.470  1.00  0.00     0.031 C 
ATOM     39  C   UNL     1       4.895   1.893  -6.014  1.00  0.00     0.029 A 
ATOM     40  N   UNL     1       4.351   4.057  -6.071  1.00  0.00    -0.354 N 
ATOM     41  C   UNL     1       1.465   5.764  -3.417  1.00  0.00     0.074 A 
ATOM     42  C   UNL     1       1.189   4.862  -2.320  1.00  0.00     0.031 C 
ATOM     43  C   UNL     1       5.689   2.482  -6.921  1.00  0.00     0.029 A 
ATOM     44  C   UNL     1       5.302   3.881  -7.048  1.00  0.00     0.049 A 
ATOM     45  H   UNL     1       3.933   4.928  -5.877  1.00  0.00     0.167 HD
ATOM     46  C   UNL     1       0.969   7.021  -3.517  1.00  0.00     0.031 A 
ATOM     47  C   UNL     1       5.769   4.720  -7.992  1.00  0.00     0.031 A 
ATOM     48  C   UNL     1       1.297   7.945  -4.570  1.00  0.00     0.049 A 
ATOM     49  C   UNL     1       5.165   6.087  -8.125  1.00  0.00     0.074 A 
ATOM     50  C   UNL     1       0.833   9.235  -4.765  1.00  0.00     0.029 A 
ATOM     51  N   UNL     1       2.197   7.687  -5.591  1.00  0.00    -0.354 N 
ATOM     52  N   UNL     1       4.271   6.670  -7.366  1.00  0.00    -0.248 NA
ATOM     53  C   UNL     1       5.600   6.889  -9.277  1.00  0.00     0.031 C 
ATOM     54  C   UNL     1       1.430   9.746  -5.923  1.00  0.00     0.029 A 
ATOM     55  C   UNL     1       2.296   8.788  -6.424  1.00  0.00     0.049 A 
ATOM     56  H   UNL     1       2.694   6.844  -5.706  1.00  0.00     0.167 HD
ATOM     57  C   UNL     1       4.025   7.902  -7.957  1.00  0.00     0.074 A 
ATOM     58  C   UNL     1       4.889   7.996  -9.115  1.00  0.00     0.031 C 
ATOM     59  C   UNL     1       3.147   8.863  -7.580  1.00  0.00     0.031 A 
BRANCH  46  60
ATOM     60  C   UNL     1      -0.039   7.449  -2.489  1.00  0.00    -0.014 A 
ATOM     61  C   UNL     1       0.334   7.796  -1.183  1.00  0.00     0.009 A 
ATOM     62  C   UNL     1      -1.393   7.533  -2.856  1.00  0.00     0.009 A 
ATOM     63  C   UNL     1      -0.634   8.188  -0.255  1.00  0.00     0.001 A 
ATOM     64  C   UNL     1      -2.354   7.949  -1.934  1.00  0.00     0.001 A 
ATOM     65  C   UNL     1      -1.975   8.268  -0.631  1.00  0.00     0.000 A 
ENDBRANCH  46  60
BRANCH  47  66
ATOM     66  C   UNL     1       6.799   4.252  -8.956  1.00  0.00    -0.014 A 
ATOM     67  C   UNL     1       8.101   4.770  -8.916  1.00  0.00     0.009 A 
ATOM     68  C   UNL     1       6.484   3.277  -9.918  1.00  0.00     0.009 A 
ATOM     69  C   UNL     1       9.067   4.320  -9.820  1.00  0.00     0.001 A 
ATOM     70  C   UNL     1       7.459   2.808 -10.799  1.00  0.00     0.001 A 
ATOM     71  C   UNL     1       8.749   3.334 -10.752  1.00  0.00     0.000 A 
ENDBRANCH  47  66
BRANCH  59  72
ATOM     72  C   UNL     1       3.088  10.098  -8.429  1.00  0.00    -0.014 A 
ATOM     73  C   UNL     1       2.431  10.088  -9.669  1.00  0.00     0.009 A 
ATOM     74  C   UNL     1       3.678  11.287  -7.976  1.00  0.00     0.009 A 
ATOM     75  C   UNL     1       2.391  11.242 -10.454  1.00  0.00     0.001 A 
ATOM     76  C   UNL     1       3.619  12.444  -8.755  1.00  0.00     0.001 A 
ATOM     77  C   UNL     1       2.982  12.419  -9.995  1.00  0.00     0.000 A 
ENDBRANCH  59  72
ENDBRANCH  33  34
ENDBRANCH  26  28
ENDBRANCH  25  26
ENDBRANCH  24  25
ENDBRANCH  23  24
ENDBRANCH   1  23
TORSDOF 17
