REMARK SMILES Cc1ccc([C@H](C)NC(=O)[C@H]2[C@@H]3CC[C@@H](C3)[C@@H]2C(=O)OCCOC(=O)c2ccc(-c3c4nc(c(-c5ccccc5)c5ccc([nH]5)c(-c5ccccc5)c5nc(c(-c6ccccc6)c6ccc3[nH]6)C=C5)C=C4)cc2)cc1
REMARK SMILES IDX 21 1 20 2 18 3 19 4 17 5 11 6 12 7 13 8 16 9 15 10 14 11
REMARK SMILES IDX 9 12 8 13 10 15 6 16 7 17 5 18 1 19 2 20 3 21 75 22 4 23
REMARK SMILES IDX 74 24 22 25 23 26 24 27 25 28 26 29 27 30 73 31 28 32 72 33
REMARK SMILES IDX 29 34 30 35 31 36 66 37 32 38 71 39 65 40 67 41 33 42 70 43
REMARK SMILES IDX 64 44 63 45 34 47 56 48 41 49 55 50 42 51 45 52 54 53 68 54
REMARK SMILES IDX 43 55 44 56 53 58 69 59 46 60 35 61 36 62 40 63 37 64 39 65
REMARK SMILES IDX 38 66 57 67 58 68 62 69 59 70 61 71 60 72 47 73 48 74 52 75
REMARK SMILES IDX 49 76 51 77 50 78
REMARK H PARENT 8 14 67 46 45 57
REMARK Flexibility Score: inf
ROOT
ATOM      1  C   UNL     1      -9.162   1.841   0.068  1.00  0.00     0.274 C 
ENDROOT
BRANCH   1   2
ATOM      2  O   UNL     1      -7.255   2.280  -0.426  1.00  0.00    -0.462 OA
BRANCH   2   3
ATOM      3  C   UNL     1      -5.918   2.549  -0.667  1.00  0.00     0.310 C 
ATOM      4  O   UNL     1      -5.609   2.974  -1.790  1.00  0.00    -0.252 OA
BRANCH   3   5
ATOM      5  C   UNL     1      -4.723   2.292   0.280  1.00  0.00     0.115 C 
ATOM      6  C   UNL     1      -4.560   1.721   1.701  1.00  0.00     0.096 C 
ATOM      7  C   UNL     1      -3.625   2.745   2.410  1.00  0.00     0.002 C 
ATOM      8  C   UNL     1      -4.471   3.992   2.739  1.00  0.00     0.005 C 
ATOM      9  C   UNL     1      -2.754   3.301   1.293  1.00  0.00     0.009 C 
ATOM     10  C   UNL     1      -3.946   3.647   0.410  1.00  0.00     0.004 C 
ATOM     11  C   UNL     1      -4.698   4.611   1.350  1.00  0.00     0.005 C 
BRANCH   6  12
ATOM     12  C   UNL     1      -4.095   0.273   1.921  1.00  0.00     0.224 C 
ATOM     13  N   UNL     1      -3.090  -0.367   1.290  1.00  0.00    -0.349 N 
ATOM     14  H   UNL     1      -2.879  -1.241   1.692  1.00  0.00     0.164 HD
ATOM     15  O   UNL     1      -4.652  -0.383   2.815  1.00  0.00    -0.275 OA
BRANCH  13  16
ATOM     16  C   UNL     1      -2.250  -0.054   0.150  1.00  0.00     0.109 C 
ATOM     17  C   UNL     1      -0.773  -0.308   0.451  1.00  0.00     0.036 C 
BRANCH  16  18
ATOM     18  C   UNL     1      -2.682  -0.805  -1.087  1.00  0.00    -0.026 A 
ATOM     19  C   UNL     1      -3.241  -2.677  -4.885  1.00  0.00     0.044 C 
ATOM     20  C   UNL     1      -3.101  -2.078  -3.531  1.00  0.00    -0.051 A 
ATOM     21  C   UNL     1      -3.333  -0.712  -3.408  1.00  0.00     0.004 A 
ATOM     22  C   UNL     1      -2.782  -2.836  -2.407  1.00  0.00     0.004 A 
ATOM     23  C   UNL     1      -3.107  -0.073  -2.204  1.00  0.00     0.006 A 
ATOM     24  C   UNL     1      -2.581  -2.201  -1.183  1.00  0.00     0.006 A 
ENDBRANCH  16  18
ENDBRANCH  13  16
ENDBRANCH   6  12
ENDBRANCH   3   5
ENDBRANCH   2   3
ENDBRANCH   1   2
BRANCH   1  25
ATOM     25  C   UNL     1     -10.290   2.834   0.800  1.00  0.00     0.275 C 
BRANCH  25  26
ATOM     26  O   UNL     1     -10.078   4.218   1.166  1.00  0.00    -0.458 OA
BRANCH  26  27
ATOM     27  C   UNL     1      -8.824   4.696   1.219  1.00  0.00     0.338 C 
ATOM     28  O   UNL     1      -8.441   5.801   1.531  1.00  0.00    -0.246 OA
BRANCH  27  29
ATOM     29  C   UNL     1      -8.062   3.681   0.574  1.00  0.00     0.060 A 
ATOM     30  C   UNL     1      -7.555   2.192   1.466  1.00  0.00     0.016 A 
ATOM     31  C   UNL     1      -8.490   3.603  -1.160  1.00  0.00     0.016 A 
ATOM     32  C   UNL     1      -7.330   0.629   0.545  1.00  0.00     0.010 A 
ATOM     33  C   UNL     1      -8.337   2.073  -2.025  1.00  0.00     0.010 A 
ATOM     34  C   UNL     1      -7.716   0.568  -1.220  1.00  0.00    -0.014 A 
BRANCH  34  35
ATOM     35  C   UNL     1      -7.566  -0.591  -2.149  1.00  0.00     0.031 A 
ATOM     36  C   UNL     1      -7.132  -1.999  -1.876  1.00  0.00     0.074 A 
ATOM     37  C   UNL     1      -7.747  -0.339  -3.469  1.00  0.00     0.049 A 
ATOM     38  N   UNL     1      -6.906  -2.876  -2.814  1.00  0.00    -0.248 NA
ATOM     39  C   UNL     1      -6.818  -2.539  -0.559  1.00  0.00     0.031 C 
ATOM     40  C   UNL     1      -8.359  -1.216  -4.460  1.00  0.00     0.029 A 
ATOM     41  N   UNL     1      -7.382   0.786  -4.199  1.00  0.00    -0.354 N 
ATOM     42  C   UNL     1      -6.694  -4.106  -2.239  1.00  0.00     0.074 A 
ATOM     43  C   UNL     1      -6.534  -3.817  -0.837  1.00  0.00     0.031 C 
ATOM     44  C   UNL     1      -8.255  -0.650  -5.671  1.00  0.00     0.029 A 
ATOM     45  C   UNL     1      -7.417   0.528  -5.556  1.00  0.00     0.049 A 
ATOM     46  H   UNL     1      -7.132   1.652  -3.802  1.00  0.00     0.167 HD
ATOM     47  C   UNL     1      -6.817  -5.246  -2.981  1.00  0.00     0.031 A 
ATOM     48  C   UNL     1      -6.524   1.001  -6.462  1.00  0.00     0.031 A 
ATOM     49  C   UNL     1      -6.984  -4.965  -4.410  1.00  0.00     0.049 A 
ATOM     50  C   UNL     1      -5.901  -0.153  -7.206  1.00  0.00     0.074 A 
ATOM     51  C   UNL     1      -8.095  -4.766  -5.210  1.00  0.00     0.029 A 
ATOM     52  N   UNL     1      -5.890  -4.597  -5.174  1.00  0.00    -0.354 N 
ATOM     53  N   UNL     1      -6.111  -1.403  -6.889  1.00  0.00    -0.248 NA
ATOM     54  C   UNL     1      -4.980  -0.021  -8.323  1.00  0.00     0.031 C 
ATOM     55  C   UNL     1      -7.657  -4.186  -6.436  1.00  0.00     0.029 A 
ATOM     56  C   UNL     1      -6.274  -4.087  -6.412  1.00  0.00     0.049 A 
ATOM     57  H   UNL     1      -4.955  -4.684  -4.879  1.00  0.00     0.167 HD
ATOM     58  C   UNL     1      -5.349  -2.231  -7.660  1.00  0.00     0.074 A 
ATOM     59  C   UNL     1      -4.700  -1.312  -8.584  1.00  0.00     0.031 C 
ATOM     60  C   UNL     1      -5.275  -3.573  -7.378  1.00  0.00     0.031 A 
BRANCH  47  61
ATOM     61  C   UNL     1      -7.083  -6.619  -2.381  1.00  0.00    -0.014 A 
ATOM     62  C   UNL     1      -7.737  -7.593  -3.163  1.00  0.00     0.009 A 
ATOM     63  C   UNL     1      -6.814  -6.995  -1.053  1.00  0.00     0.009 A 
ATOM     64  C   UNL     1      -8.170  -8.819  -2.629  1.00  0.00     0.001 A 
ATOM     65  C   UNL     1      -7.266  -8.207  -0.503  1.00  0.00     0.001 A 
ATOM     66  C   UNL     1      -7.957  -9.115  -1.290  1.00  0.00     0.000 A 
ENDBRANCH  47  61
BRANCH  48  67
ATOM     67  C   UNL     1      -5.917   2.313  -6.090  1.00  0.00    -0.014 A 
ATOM     68  C   UNL     1      -6.788   3.425  -6.026  1.00  0.00     0.009 A 
ATOM     69  C   UNL     1      -4.694   2.400  -5.415  1.00  0.00     0.009 A 
ATOM     70  C   UNL     1      -6.520   4.512  -5.186  1.00  0.00     0.001 A 
ATOM     71  C   UNL     1      -4.430   3.489  -4.570  1.00  0.00     0.001 A 
ATOM     72  C   UNL     1      -5.357   4.522  -4.428  1.00  0.00     0.000 A 
ENDBRANCH  48  67
BRANCH  60  73
ATOM     73  C   UNL     1      -4.204  -4.514  -7.904  1.00  0.00    -0.014 A 
ATOM     74  C   UNL     1      -3.121  -4.134  -8.708  1.00  0.00     0.009 A 
ATOM     75  C   UNL     1      -4.202  -5.862  -7.477  1.00  0.00     0.009 A 
ATOM     76  C   UNL     1      -2.100  -5.029  -9.059  1.00  0.00     0.001 A 
ATOM     77  C   UNL     1      -3.161  -6.746  -7.776  1.00  0.00     0.001 A 
ATOM     78  C   UNL     1      -2.108  -6.329  -8.574  1.00  0.00     0.000 A 
ENDBRANCH  60  73
ENDBRANCH  34  35
ENDBRANCH  27  29
ENDBRANCH  26  27
ENDBRANCH  25  26
ENDBRANCH   1  25
TORSDOF 14
