REMARK SMILES COCCNC(=O)N[C@H]1CCCCC[C@@H]1C(=O)OCCOC(=O)c1ccc(-c2c3nc(c(-c4ccccc4)c4ccc([nH]4)c(-c4ccccc4)c4nc(c(-c5ccccc5)c5ccc2[nH]5)C=C4)C=C3)cc1
REMARK SMILES IDX 18 1 16 2 17 3 15 4 9 5 8 6 5 7 6 8 7 10 4 12 3 13 2 14 1 15
REMARK SMILES IDX 10 16 11 17 14 19 13 20 12 21 19 23 20 24 21 25 22 26 23 27
REMARK SMILES IDX 24 28 25 29 71 30 26 31 70 32 27 33 28 34 29 35 64 36 30 37
REMARK SMILES IDX 69 38 63 39 65 40 31 41 68 42 62 43 61 44 32 46 54 47 39 48
REMARK SMILES IDX 53 49 40 50 43 51 52 52 66 53 41 54 42 55 51 57 67 58 44 59
REMARK SMILES IDX 33 60 34 61 38 62 35 63 37 64 36 65 55 66 56 67 60 68 57 69
REMARK SMILES IDX 59 70 58 71 45 72 46 73 50 74 47 75 49 76 48 77
REMARK H PARENT 5 9 8 11 65 45 43 56
REMARK Flexibility Score: 100.00
ROOT
ATOM      1  O   UNL     1       5.210   1.387  -3.866  1.00  0.00    -0.462 OA
ENDROOT
BRANCH   1   2
ATOM      2  C   UNL     1       4.073   1.569  -4.579  1.00  0.00     0.311 C 
ATOM      3  O   UNL     1       3.885   2.498  -5.357  1.00  0.00    -0.252 OA
BRANCH   2   4
ATOM      4  C   UNL     1       3.061   0.437  -4.397  1.00  0.00     0.121 C 
BRANCH   4   5
ATOM      5  C   UNL     1       1.674   1.063  -4.069  1.00  0.00     0.098 C 
BRANCH   5   6
ATOM      6  N   UNL     1       1.121   1.629  -5.335  1.00  0.00    -0.335 N 
ATOM      7  N   UNL     1      -1.163   1.419  -6.003  1.00  0.00    -0.336 N 
ATOM      8  C   UNL     1       0.076   1.862  -6.106  1.00  0.00     0.315 C 
ATOM      9  H   UNL     1      -1.750   1.869  -6.653  1.00  0.00     0.165 HD
ATOM     10  O   UNL     1       0.291   2.595  -7.080  1.00  0.00    -0.249 OA
ATOM     11  H   UNL     1       1.893   2.002  -5.818  1.00  0.00     0.165 HD
BRANCH   7  12
ATOM     12  C   UNL     1      -1.904   0.466  -5.214  1.00  0.00     0.146 C 
BRANCH  12  13
ATOM     13  C   UNL     1      -3.047   1.112  -4.429  1.00  0.00     0.181 C 
BRANCH  13  14
ATOM     14  O   UNL     1      -4.216   0.288  -4.403  1.00  0.00    -0.383 OA
ATOM     15  C   UNL     1      -4.932   0.303  -5.634  1.00  0.00     0.194 C 
ENDBRANCH  13  14
ENDBRANCH  12  13
ENDBRANCH   7  12
ENDBRANCH   5   6
BRANCH   5  16
ATOM     16  C   UNL     1       0.778   0.215  -3.171  1.00  0.00     0.026 C 
BRANCH  16  17
ATOM     17  C   UNL     1       0.552  -1.232  -3.619  1.00  0.00     0.002 CG0
ATOM     18  G   UNL     1       1.596  -2.219  -3.121  1.00  0.00     0.000 G0
ENDBRANCH  16  17
ENDBRANCH   5  16
ENDBRANCH   4   5
BRANCH   4  19
ATOM     19  C   UNL     1       3.583  -0.677  -3.474  1.00  0.00     0.017 C 
BRANCH  19  20
ATOM     20  C   UNL     1       2.955  -2.036  -3.766  1.00  0.00     0.001 C 
BRANCH  20  21
ATOM     21  C   UNL     1       1.596  -2.219  -3.121  1.00  0.00     0.000 CG0
ATOM     22  G   UNL     1       0.552  -1.232  -3.619  1.00  0.00     0.000 G0
ENDBRANCH  20  21
ENDBRANCH  19  20
ENDBRANCH   4  19
ENDBRANCH   2   4
ENDBRANCH   1   2
BRANCH   1  23
ATOM     23  C   UNL     1       6.374   2.098  -4.321  1.00  0.00     0.274 C 
BRANCH  23  24
ATOM     24  C   UNL     1       7.161   1.218  -5.297  1.00  0.00     0.275 C 
BRANCH  24  25
ATOM     25  O   UNL     1       6.510   1.162  -6.584  1.00  0.00    -0.458 OA
BRANCH  25  26
ATOM     26  C   UNL     1       5.808   0.038  -6.849  1.00  0.00     0.338 C 
ATOM     27  O   UNL     1       5.662  -0.940  -6.132  1.00  0.00    -0.246 OA
BRANCH  26  28
ATOM     28  C   UNL     1       5.154   0.167  -8.157  1.00  0.00     0.060 A 
ATOM     29  C   UNL     1       3.820   0.576  -8.219  1.00  0.00     0.016 A 
ATOM     30  C   UNL     1       5.834  -0.214  -9.314  1.00  0.00     0.016 A 
ATOM     31  C   UNL     1       3.146   0.577  -9.437  1.00  0.00     0.010 A 
ATOM     32  C   UNL     1       5.167  -0.175 -10.542  1.00  0.00     0.010 A 
ATOM     33  C   UNL     1       3.814   0.204 -10.609  1.00  0.00    -0.014 A 
BRANCH  33  34
ATOM     34  C   UNL     1       3.100   0.193 -11.909  1.00  0.00     0.031 A 
ATOM     35  C   UNL     1       2.824  -1.108 -12.605  1.00  0.00     0.074 A 
ATOM     36  C   UNL     1       2.718   1.354 -12.471  1.00  0.00     0.049 A 
ATOM     37  N   UNL     1       2.344  -1.318 -13.805  1.00  0.00    -0.248 NA
ATOM     38  C   UNL     1       3.134  -2.336 -11.856  1.00  0.00     0.031 C 
ATOM     39  C   UNL     1       2.886   2.681 -11.876  1.00  0.00     0.029 A 
ATOM     40  N   UNL     1       2.114   1.602 -13.678  1.00  0.00    -0.354 N 
ATOM     41  C   UNL     1       2.326  -2.697 -13.968  1.00  0.00     0.074 A 
ATOM     42  C   UNL     1       2.850  -3.275 -12.748  1.00  0.00     0.031 C 
ATOM     43  C   UNL     1       2.395   3.603 -12.719  1.00  0.00     0.029 A 
ATOM     44  C   UNL     1       1.929   2.938 -13.932  1.00  0.00     0.049 A 
ATOM     45  H   UNL     1       1.840   0.891 -14.301  1.00  0.00     0.167 HD
ATOM     46  C   UNL     1       1.911  -3.415 -15.039  1.00  0.00     0.031 A 
ATOM     47  C   UNL     1       1.469   3.562 -15.031  1.00  0.00     0.031 A 
ATOM     48  C   UNL     1       1.377  -2.840 -16.245  1.00  0.00     0.049 A 
ATOM     49  C   UNL     1       1.063   2.747 -16.224  1.00  0.00     0.074 A 
ATOM     50  C   UNL     1       0.917  -3.486 -17.380  1.00  0.00     0.029 A 
ATOM     51  N   UNL     1       1.228  -1.480 -16.470  1.00  0.00    -0.354 N 
ATOM     52  N   UNL     1       1.068   1.444 -16.373  1.00  0.00    -0.248 NA
ATOM     53  C   UNL     1       0.594   3.489 -17.403  1.00  0.00     0.031 C 
ATOM     54  C   UNL     1       0.524  -2.514 -18.307  1.00  0.00     0.029 A 
ATOM     55  C   UNL     1       0.700  -1.266 -17.732  1.00  0.00     0.049 A 
ATOM     56  H   UNL     1       1.463  -0.772 -15.827  1.00  0.00     0.167 HD
ATOM     57  C   UNL     1       0.588   1.209 -17.654  1.00  0.00     0.074 A 
ATOM     58  C   UNL     1       0.288   2.503 -18.235  1.00  0.00     0.031 C 
ATOM     59  C   UNL     1       0.413   0.028 -18.293  1.00  0.00     0.031 A 
BRANCH  46  60
ATOM     60  C   UNL     1       2.057  -4.908 -14.966  1.00  0.00    -0.014 A 
ATOM     61  C   UNL     1       1.195  -5.689 -14.182  1.00  0.00     0.009 A 
ATOM     62  C   UNL     1       3.054  -5.544 -15.722  1.00  0.00     0.009 A 
ATOM     63  C   UNL     1       1.349  -7.077 -14.133  1.00  0.00     0.001 A 
ATOM     64  C   UNL     1       3.191  -6.933 -15.688  1.00  0.00     0.001 A 
ATOM     65  C   UNL     1       2.344  -7.697 -14.888  1.00  0.00     0.000 A 
ENDBRANCH  46  60
BRANCH  47  66
ATOM     66  C   UNL     1       1.403   5.045 -15.065  1.00  0.00    -0.014 A 
ATOM     67  C   UNL     1       0.167   5.705 -15.009  1.00  0.00     0.009 A 
ATOM     68  C   UNL     1       2.580   5.807 -15.142  1.00  0.00     0.009 A 
ATOM     69  C   UNL     1       0.111   7.101 -15.046  1.00  0.00     0.001 A 
ATOM     70  C   UNL     1       2.522   7.201 -15.154  1.00  0.00     0.001 A 
ATOM     71  C   UNL     1       1.287   7.847 -15.113  1.00  0.00     0.000 A 
ENDBRANCH  47  66
BRANCH  59  72
ATOM     72  C   UNL     1      -0.155   0.082 -19.681  1.00  0.00    -0.014 A 
ATOM     73  C   UNL     1       0.636   0.475 -20.771  1.00  0.00     0.009 A 
ATOM     74  C   UNL     1      -1.488  -0.293 -19.902  1.00  0.00     0.009 A 
ATOM     75  C   UNL     1       0.091   0.518 -22.056  1.00  0.00     0.001 A 
ATOM     76  C   UNL     1      -2.023  -0.271 -21.191  1.00  0.00     0.001 A 
ATOM     77  C   UNL     1      -1.236   0.142 -22.265  1.00  0.00     0.000 A 
ENDBRANCH  59  72
ENDBRANCH  33  34
ENDBRANCH  26  28
ENDBRANCH  25  26
ENDBRANCH  24  25
ENDBRANCH  23  24
ENDBRANCH   1  23
TORSDOF 15
