REMARK SMILES O=C(OCCOC(=O)[C@@H](Cc1ccccc1)N1C(=O)/C(=C/c2ccncc2)SC1=S)c1ccc(-c2c3nc(c(-c4ccccc4)c4ccc([nH]4)c(-c4ccccc4)c4nc(c(-c5ccccc5)c5ccc2[nH]5)C=C4)C=C3)cc1
REMARK SMILES IDX 4 1 3 2 2 3 1 4 31 5 32 6 78 7 33 8 77 9 34 10 35 11 36 12
REMARK SMILES IDX 71 13 37 14 76 15 70 16 72 17 38 18 75 19 69 20 68 21 39 23
REMARK SMILES IDX 61 24 46 25 60 26 47 27 50 28 59 29 73 30 48 31 49 32 58 34
REMARK SMILES IDX 74 35 51 36 40 37 41 38 45 39 42 40 44 41 43 42 62 43 63 44
REMARK SMILES IDX 67 45 64 46 66 47 65 48 52 49 53 50 57 51 54 52 56 53 55 54
REMARK SMILES IDX 5 55 6 56 7 57 8 58 9 59 10 60 11 61 12 62 16 63 13 64 15 65
REMARK SMILES IDX 14 66 17 67 18 68 29 69 19 70 20 71 28 72 30 73 21 74 22 75
REMARK SMILES IDX 23 76 27 77 24 78 26 79 25 80
REMARK H PARENT 72 22 50 33
REMARK Flexibility Score: inf
ROOT
ATOM      1  C   UNL     1       3.944   0.400  -1.069  1.00  0.00     0.275 C 
ENDROOT
BRANCH   1   2
ATOM      2  O   UNL     1       2.598  -0.142  -0.943  1.00  0.00    -0.458 OA
BRANCH   2   3
ATOM      3  C   UNL     1       2.092  -1.282  -0.406  1.00  0.00     0.338 C 
ATOM      4  O   UNL     1       0.943  -1.618  -0.681  1.00  0.00    -0.246 OA
BRANCH   3   5
ATOM      5  C   UNL     1       2.786  -2.064   0.662  1.00  0.00     0.060 A 
ATOM      6  C   UNL     1       4.097  -2.510   0.580  1.00  0.00     0.016 A 
ATOM      7  C   UNL     1       2.057  -2.405   1.823  1.00  0.00     0.016 A 
ATOM      8  C   UNL     1       4.708  -3.085   1.717  1.00  0.00     0.010 A 
ATOM      9  C   UNL     1       2.675  -2.985   2.962  1.00  0.00     0.010 A 
ATOM     10  C   UNL     1       4.045  -3.246   2.969  1.00  0.00    -0.014 A 
BRANCH  10  11
ATOM     11  C   UNL     1       4.856  -3.659   4.199  1.00  0.00     0.031 A 
ATOM     12  C   UNL     1       5.689  -4.901   4.083  1.00  0.00     0.074 A 
ATOM     13  C   UNL     1       5.090  -2.900   5.306  1.00  0.00     0.049 A 
ATOM     14  N   UNL     1       6.746  -5.256   4.765  1.00  0.00    -0.248 NA
ATOM     15  C   UNL     1       5.294  -5.835   3.021  1.00  0.00     0.031 C 
ATOM     16  C   UNL     1       4.430  -1.653   5.652  1.00  0.00     0.029 A 
ATOM     17  N   UNL     1       6.049  -3.008   6.309  1.00  0.00    -0.354 N 
ATOM     18  C   UNL     1       7.191  -6.420   4.167  1.00  0.00     0.074 A 
ATOM     19  C   UNL     1       6.289  -6.704   3.065  1.00  0.00     0.031 C 
ATOM     20  C   UNL     1       5.099  -1.017   6.626  1.00  0.00     0.029 A 
ATOM     21  C   UNL     1       6.159  -1.885   7.119  1.00  0.00     0.049 A 
ATOM     22  H   UNL     1       6.603  -3.812   6.433  1.00  0.00     0.167 HD
ATOM     23  C   UNL     1       8.228  -7.217   4.509  1.00  0.00     0.031 A 
ATOM     24  C   UNL     1       6.975  -1.576   8.156  1.00  0.00     0.031 A 
ATOM     25  C   UNL     1       9.012  -7.109   5.704  1.00  0.00     0.049 A 
ATOM     26  C   UNL     1       7.965  -2.602   8.649  1.00  0.00     0.074 A 
ATOM     27  C   UNL     1       9.929  -8.018   6.206  1.00  0.00     0.029 A 
ATOM     28  N   UNL     1       8.941  -6.072   6.616  1.00  0.00    -0.354 N 
ATOM     29  N   UNL     1       8.367  -3.704   8.071  1.00  0.00    -0.248 NA
ATOM     30  C   UNL     1       8.588  -2.357   9.964  1.00  0.00     0.031 C 
ATOM     31  C   UNL     1      10.360  -7.564   7.457  1.00  0.00     0.029 A 
ATOM     32  C   UNL     1       9.770  -6.336   7.697  1.00  0.00     0.049 A 
ATOM     33  H   UNL     1       8.384  -5.266   6.514  1.00  0.00     0.167 HD
ATOM     34  C   UNL     1       9.285  -4.277   8.946  1.00  0.00     0.074 A 
ATOM     35  C   UNL     1       9.428  -3.377  10.067  1.00  0.00     0.031 C 
ATOM     36  C   UNL     1       9.931  -5.461   8.827  1.00  0.00     0.031 A 
BRANCH  23  37
ATOM     37  C   UNL     1       8.457  -8.374   3.594  1.00  0.00    -0.014 A 
ATOM     38  C   UNL     1       9.099  -8.192   2.360  1.00  0.00     0.009 A 
ATOM     39  C   UNL     1       7.941  -9.632   3.933  1.00  0.00     0.009 A 
ATOM     40  C   UNL     1       9.188  -9.253   1.461  1.00  0.00     0.001 A 
ATOM     41  C   UNL     1       8.047 -10.692   3.038  1.00  0.00     0.001 A 
ATOM     42  C   UNL     1       8.661 -10.500   1.800  1.00  0.00     0.000 A 
ENDBRANCH  23  37
BRANCH  24  43
ATOM     43  C   UNL     1       6.857  -0.287   8.923  1.00  0.00    -0.014 A 
ATOM     44  C   UNL     1       7.975   0.548   9.121  1.00  0.00     0.009 A 
ATOM     45  C   UNL     1       5.670   0.033   9.603  1.00  0.00     0.009 A 
ATOM     46  C   UNL     1       7.921   1.622  10.020  1.00  0.00     0.001 A 
ATOM     47  C   UNL     1       5.603   1.136  10.459  1.00  0.00     0.001 A 
ATOM     48  C   UNL     1       6.737   1.910  10.692  1.00  0.00     0.000 A 
ENDBRANCH  24  43
BRANCH  36  49
ATOM     49  C   UNL     1      10.876  -5.861   9.928  1.00  0.00    -0.014 A 
ATOM     50  C   UNL     1      10.413  -6.189  11.213  1.00  0.00     0.009 A 
ATOM     51  C   UNL     1      12.253  -5.944   9.668  1.00  0.00     0.009 A 
ATOM     52  C   UNL     1      11.310  -6.554  12.221  1.00  0.00     0.001 A 
ATOM     53  C   UNL     1      13.145  -6.341  10.667  1.00  0.00     0.001 A 
ATOM     54  C   UNL     1      12.674  -6.635  11.945  1.00  0.00     0.000 A 
ENDBRANCH  36  49
ENDBRANCH  10  11
ENDBRANCH   3   5
ENDBRANCH   2   3
ENDBRANCH   1   2
BRANCH   1  55
ATOM     55  C   UNL     1       4.026   1.844  -0.543  1.00  0.00     0.274 C 
BRANCH  55  56
ATOM     56  O   UNL     1       4.082   1.808   0.881  1.00  0.00    -0.461 OA
BRANCH  56  57
ATOM     57  C   UNL     1       2.901   1.817   1.553  1.00  0.00     0.329 C 
ATOM     58  O   UNL     1       1.855   2.307   1.157  1.00  0.00    -0.250 OA
BRANCH  57  59
ATOM     59  C   UNL     1       3.043   0.984   2.824  1.00  0.00     0.206 C 
BRANCH  59  60
ATOM     60  C   UNL     1       4.333   0.123   2.831  1.00  0.00     0.073 C 
BRANCH  60  61
ATOM     61  C   UNL     1       5.780   0.429   3.129  1.00  0.00    -0.045 A 
ATOM     62  C   UNL     1       6.671  -0.670   3.110  1.00  0.00     0.004 A 
ATOM     63  C   UNL     1       6.340   1.681   3.313  1.00  0.00     0.004 A 
ATOM     64  C   UNL     1       8.048  -0.549   3.249  1.00  0.00     0.000 A 
ATOM     65  C   UNL     1       7.731   1.816   3.465  1.00  0.00     0.000 A 
ATOM     66  C   UNL     1       8.583   0.710   3.423  1.00  0.00     0.000 A 
ENDBRANCH  60  61
ENDBRANCH  59  60
BRANCH  59  67
ATOM     67  N   UNL     1       2.635   1.599   4.084  1.00  0.00    -0.278 N 
ATOM     68  C   UNL     1       3.095   2.866   4.351  1.00  0.00     0.267 C 
ATOM     69  C   UNL     1       1.862   1.023   5.073  1.00  0.00     0.149 C 
ATOM     70  O   UNL     1       3.648   3.608   3.558  1.00  0.00    -0.268 OA
ATOM     71  C   UNL     1       2.848   3.212   5.767  1.00  0.00     0.081 C 
ATOM     72  S   UNL     1       2.047   1.937   6.571  1.00  0.00    -0.054 SA
ATOM     73  S   UNL     1       0.863  -0.311   4.990  1.00  0.00    -0.052 S 
ATOM     74  C   UNL     1       3.379   4.337   6.250  1.00  0.00     0.029 C 
BRANCH  74  75
ATOM     75  C   UNL     1       3.620   4.608   7.659  1.00  0.00    -0.021 A 
ATOM     76  C   UNL     1       4.947   4.513   8.081  1.00  0.00     0.028 A 
ATOM     77  C   UNL     1       2.629   4.949   8.571  1.00  0.00     0.028 A 
ATOM     78  C   UNL     1       5.234   4.781   9.402  1.00  0.00     0.111 A 
ATOM     79  C   UNL     1       3.020   5.188   9.879  1.00  0.00     0.111 A 
ATOM     80  N   UNL     1       4.299   5.113  10.315  1.00  0.00    -0.265 NA
ENDBRANCH  74  75
ENDBRANCH  59  67
ENDBRANCH  57  59
ENDBRANCH  56  57
ENDBRANCH  55  56
ENDBRANCH   1  55
TORSDOF 15
