REMARK SMILES CCc1ccc(S(=O)(=O)N2CCC3(CC2)NC(=O)C[C@H]3C(=O)OCCOC(=O)c2ccc(-c3c4nc(c(-c5ccccc5)c5ccc([nH]5)c(-c5ccccc5)c5nc(c(-c6ccccc6)c6ccc3[nH]6)C=C5)C=C4)cc2)s1
REMARK SMILES IDX 24 1 23 2 21 3 22 4 20 5 10 6 11 7 15 8 12 9 14 10 13 11
REMARK SMILES IDX 16 12 17 13 19 15 18 16 7 17 8 18 9 19 6 20 3 21 4 22 77 23
REMARK SMILES IDX 5 24 2 25 1 26 25 27 26 28 27 29 28 30 29 31 30 32 76 33
REMARK SMILES IDX 31 34 75 35 32 36 33 37 34 38 69 39 35 40 74 41 68 42 70 43
REMARK SMILES IDX 36 44 73 45 67 46 66 47 37 49 59 50 44 51 58 52 45 53 48 54
REMARK SMILES IDX 57 55 71 56 46 57 47 58 56 60 72 61 49 62 38 63 39 64 43 65
REMARK SMILES IDX 40 66 42 67 41 68 60 69 61 70 65 71 62 72 64 73 63 74 50 75
REMARK SMILES IDX 51 76 55 77 52 78 54 79 53 80
REMARK H PARENT 16 14 70 48 48 59
REMARK Flexibility Score: inf
ROOT
ATOM      1  C   UNL     1       4.962  -5.319   5.168  1.00  0.00     0.274 C 
ENDROOT
BRANCH   1   2
ATOM      2  O   UNL     1       4.896  -4.997   3.761  1.00  0.00    -0.462 OA
BRANCH   2   3
ATOM      3  C   UNL     1       5.950  -5.417   3.033  1.00  0.00     0.311 C 
ATOM      4  O   UNL     1       6.954  -5.936   3.517  1.00  0.00    -0.252 OA
BRANCH   3   5
ATOM      5  C   UNL     1       5.853  -5.218   1.533  1.00  0.00     0.134 C 
ATOM      6  N   UNL     1       2.520  -6.431  -0.656  1.00  0.00    -0.197 NA
ATOM      7  C   UNL     1       3.848  -6.482  -1.248  1.00  0.00     0.105 C 
ATOM      8  C   UNL     1       2.527  -6.440   0.803  1.00  0.00     0.105 C 
ATOM      9  C   UNL     1       4.767  -5.374  -0.736  1.00  0.00     0.046 C 
ATOM     10  C   UNL     1       3.176  -5.170   1.315  1.00  0.00     0.046 C 
ATOM     11  C   UNL     1       4.571  -4.846   0.737  1.00  0.00     0.056 C 
ATOM     12  N   UNL     1       4.706  -3.389   0.712  1.00  0.00    -0.350 N 
ATOM     13  C   UNL     1       5.982  -2.928   0.920  1.00  0.00     0.221 C 
ATOM     14  H   UNL     1       3.942  -2.787   0.558  1.00  0.00     0.164 HD
ATOM     15  C   UNL     1       6.866  -4.108   1.183  1.00  0.00     0.117 C 
ATOM     16  O   UNL     1       6.326  -1.764   0.850  1.00  0.00    -0.275 OA
BRANCH   6  17
ATOM     17  S   UNL     1       1.171  -5.886  -1.515  1.00  0.00     0.252 S 
ATOM     18  O   UNL     1      -0.013  -6.284  -0.781  1.00  0.00    -0.206 OA
ATOM     19  O   UNL     1       1.357  -6.233  -2.906  1.00  0.00    -0.206 OA
BRANCH  17  20
ATOM     20  C   UNL     1       1.207  -4.099  -1.506  1.00  0.00     0.135 A 
ATOM     21  C   UNL     1       0.510  -1.732  -1.283  1.00  0.00     0.006 A 
ATOM     22  C   UNL     1       1.845  -1.855  -1.605  1.00  0.00     0.017 A 
ATOM     23  S   UNL     1      -0.239  -3.267  -1.127  1.00  0.00    -0.127 S 
ATOM     24  C   UNL     1       2.218  -3.208  -1.804  1.00  0.00     0.034 A 
BRANCH  21  25
ATOM     25  C   UNL     1      -0.276  -0.465  -1.127  1.00  0.00     0.043 C 
ATOM     26  C   UNL     1       0.299   0.436  -0.043  1.00  0.00     0.010 C 
ENDBRANCH  21  25
ENDBRANCH  17  20
ENDBRANCH   6  17
ENDBRANCH   3   5
ENDBRANCH   2   3
ENDBRANCH   1   2
BRANCH   1  27
ATOM     27  C   UNL     1       4.258  -6.645   5.468  1.00  0.00     0.275 C 
BRANCH  27  28
ATOM     28  O   UNL     1       4.790  -7.710   4.651  1.00  0.00    -0.458 OA
BRANCH  28  29
ATOM     29  C   UNL     1       3.934  -8.203   3.727  1.00  0.00     0.338 C 
ATOM     30  O   UNL     1       2.774  -7.869   3.552  1.00  0.00    -0.246 OA
BRANCH  29  31
ATOM     31  C   UNL     1       4.585  -9.192   2.850  1.00  0.00     0.060 A 
ATOM     32  C   UNL     1       5.663  -8.824   2.047  1.00  0.00     0.016 A 
ATOM     33  C   UNL     1       4.008 -10.452   2.697  1.00  0.00     0.016 A 
ATOM     34  C   UNL     1       6.126  -9.677   1.048  1.00  0.00     0.010 A 
ATOM     35  C   UNL     1       4.556 -11.359   1.783  1.00  0.00     0.010 A 
ATOM     36  C   UNL     1       5.625 -10.983   0.954  1.00  0.00    -0.014 A 
BRANCH  36  37
ATOM     37  C   UNL     1       6.335 -11.998   0.130  1.00  0.00     0.031 A 
ATOM     38  C   UNL     1       5.648 -12.746  -0.976  1.00  0.00     0.074 A 
ATOM     39  C   UNL     1       7.612 -12.293   0.451  1.00  0.00     0.049 A 
ATOM     40  N   UNL     1       6.071 -13.790  -1.644  1.00  0.00    -0.248 NA
ATOM     41  C   UNL     1       4.318 -12.269  -1.383  1.00  0.00     0.031 C 
ATOM     42  C   UNL     1       8.401 -11.625   1.492  1.00  0.00     0.029 A 
ATOM     43  N   UNL     1       8.469 -13.239  -0.051  1.00  0.00    -0.354 N 
ATOM     44  C   UNL     1       5.051 -14.117  -2.529  1.00  0.00     0.074 A 
ATOM     45  C   UNL     1       3.986 -13.158  -2.312  1.00  0.00     0.031 C 
ATOM     46  C   UNL     1       9.626 -12.163   1.535  1.00  0.00     0.029 A 
ATOM     47  C   UNL     1       9.677 -13.279   0.604  1.00  0.00     0.049 A 
ATOM     48  H   UNL     1       8.242 -13.831  -0.804  1.00  0.00     0.167 HD
ATOM     49  C   UNL     1       5.007 -15.132  -3.427  1.00  0.00     0.031 A 
ATOM     50  C   UNL     1      10.696 -14.152   0.525  1.00  0.00     0.031 A 
ATOM     51  C   UNL     1       6.070 -16.087  -3.627  1.00  0.00     0.049 A 
ATOM     52  C   UNL     1      10.582 -15.316  -0.408  1.00  0.00     0.074 A 
ATOM     53  C   UNL     1       6.129 -17.136  -4.530  1.00  0.00     0.029 A 
ATOM     54  N   UNL     1       7.255 -16.116  -2.908  1.00  0.00    -0.354 N 
ATOM     55  N   UNL     1       9.609 -15.616  -1.232  1.00  0.00    -0.248 NA
ATOM     56  C   UNL     1      11.697 -16.271  -0.408  1.00  0.00     0.031 C 
ATOM     57  C   UNL     1       7.322 -17.835  -4.316  1.00  0.00     0.029 A 
ATOM     58  C   UNL     1       8.034 -17.186  -3.320  1.00  0.00     0.049 A 
ATOM     59  H   UNL     1       7.507 -15.471  -2.208  1.00  0.00     0.167 HD
ATOM     60  C   UNL     1       9.995 -16.792  -1.856  1.00  0.00     0.074 A 
ATOM     61  C   UNL     1      11.304 -17.134  -1.333  1.00  0.00     0.031 C 
ATOM     62  C   UNL     1       9.323 -17.526  -2.775  1.00  0.00     0.031 A 
BRANCH  49  63
ATOM     63  C   UNL     1       3.750 -15.302  -4.237  1.00  0.00    -0.014 A 
ATOM     64  C   UNL     1       3.424 -14.423  -5.282  1.00  0.00     0.009 A 
ATOM     65  C   UNL     1       2.912 -16.403  -3.993  1.00  0.00     0.009 A 
ATOM     66  C   UNL     1       2.271 -14.629  -6.046  1.00  0.00     0.001 A 
ATOM     67  C   UNL     1       1.775 -16.620  -4.774  1.00  0.00     0.001 A 
ATOM     68  C   UNL     1       1.452 -15.729  -5.795  1.00  0.00     0.000 A 
ENDBRANCH  49  63
BRANCH  50  69
ATOM     69  C   UNL     1      11.876 -13.986   1.412  1.00  0.00    -0.014 A 
ATOM     70  C   UNL     1      13.117 -13.608   0.884  1.00  0.00     0.009 A 
ATOM     71  C   UNL     1      11.755 -14.175   2.800  1.00  0.00     0.009 A 
ATOM     72  C   UNL     1      14.217 -13.432   1.727  1.00  0.00     0.001 A 
ATOM     73  C   UNL     1      12.847 -13.965   3.642  1.00  0.00     0.001 A 
ATOM     74  C   UNL     1      14.079 -13.602   3.104  1.00  0.00     0.000 A 
ENDBRANCH  50  69
BRANCH  62  75
ATOM     75  C   UNL     1      10.008 -18.763  -3.278  1.00  0.00    -0.014 A 
ATOM     76  C   UNL     1      10.125 -19.905  -2.470  1.00  0.00     0.009 A 
ATOM     77  C   UNL     1      10.539 -18.789  -4.577  1.00  0.00     0.009 A 
ATOM     78  C   UNL     1      10.790 -21.037  -2.942  1.00  0.00     0.001 A 
ATOM     79  C   UNL     1      11.179 -19.932  -5.056  1.00  0.00     0.001 A 
ATOM     80  C   UNL     1      11.313 -21.051  -4.235  1.00  0.00     0.000 A 
ENDBRANCH  62  75
ENDBRANCH  36  37
ENDBRANCH  29  31
ENDBRANCH  28  29
ENDBRANCH  27  28
ENDBRANCH   1  27
TORSDOF 14
