REMARK SMILES Cc1csc([C@H](C)Nc2cc(C)c(N)c(C(=O)OCCOC(=O)c3ccc(-c4c5nc(c(-c6ccccc6)c6ccc([nH]6)c(-c6ccccc6)c6nc(c(-c7ccccc7)c7ccc4[nH]7)C=C6)C=C5)cc3)c2)n1
REMARK SMILES IDX 19 1 18 2 16 3 17 4 15 5 9 6 10 7 72 8 11 9 12 10 13 11 8 12
REMARK SMILES IDX 6 14 7 15 5 16 1 17 2 18 3 19 73 20 4 21 14 22 20 25 21 26
REMARK SMILES IDX 22 27 23 28 24 29 25 30 71 31 26 32 70 33 27 34 28 35 29 36
REMARK SMILES IDX 64 37 30 38 69 39 63 40 65 41 31 42 68 43 62 44 61 45 32 47
REMARK SMILES IDX 54 48 39 49 53 50 40 51 43 52 52 53 66 54 41 55 42 56 51 58
REMARK SMILES IDX 67 59 44 60 33 61 34 62 38 63 35 64 37 65 36 66 55 67 56 68
REMARK SMILES IDX 60 69 57 70 59 71 58 72 45 73 46 74 50 75 47 76 49 77 48 78
REMARK H PARENT 8 13 14 23 14 24 65 46 43 57
REMARK Flexibility Score: inf
ROOT
ATOM      1  C   UNL     1       1.226   3.298   7.380  1.00  0.00     0.275 C 
ENDROOT
BRANCH   1   2
ATOM      2  O   UNL     1       1.464   3.403   5.960  1.00  0.00    -0.458 OA
BRANCH   2   3
ATOM      3  C   UNL     1       2.042   4.555   5.521  1.00  0.00     0.340 C 
ATOM      4  O   UNL     1       2.339   5.518   6.207  1.00  0.00    -0.246 OA
BRANCH   3   5
ATOM      5  C   UNL     1       2.362   4.441   4.069  1.00  0.00     0.085 A 
ATOM      6  C   UNL     1       1.791   3.528   1.875  1.00  0.00     0.036 A 
ATOM      7  C   UNL     1       3.017   4.002   1.409  1.00  0.00     0.031 A 
ATOM      8  C   UNL     1       1.503   3.713   3.231  1.00  0.00     0.043 A 
ATOM      9  C   UNL     1       3.882   4.763   2.219  1.00  0.00    -0.025 A 
ATOM     10  C   UNL     1       5.199   5.212   1.643  1.00  0.00     0.047 C 
ATOM     11  C   UNL     1       3.510   5.070   3.541  1.00  0.00     0.049 A 
BRANCH   6  12
ATOM     12  N   UNL     1       0.897   2.813   1.105  1.00  0.00    -0.376 N 
ATOM     13  H   UNL     1      -0.004   2.674   1.476  1.00  0.00     0.161 HD
BRANCH  12  14
ATOM     14  C   UNL     1       1.170   2.241  -0.221  1.00  0.00     0.135 C 
ATOM     15  C   UNL     1       0.274   0.994  -0.320  1.00  0.00     0.039 C 
BRANCH  14  16
ATOM     16  C   UNL     1       0.998   3.188  -1.414  1.00  0.00     0.115 A 
ATOM     17  C   UNL     1       1.145   6.543  -2.747  1.00  0.00     0.067 C 
ATOM     18  C   UNL     1       0.996   5.072  -2.612  1.00  0.00     0.049 A 
ATOM     19  C   UNL     1       0.765   4.171  -3.630  1.00  0.00     0.090 A 
ATOM     20  N   UNL     1       1.111   4.503  -1.354  1.00  0.00    -0.244 NA
ATOM     21  S   UNL     1       0.749   2.578  -3.014  1.00  0.00    -0.125 S 
ENDBRANCH  14  16
ENDBRANCH  12  14
ENDBRANCH   6  12
BRANCH  11  22
ATOM     22  N   UNL     1       4.348   5.857   4.335  1.00  0.00    -0.398 N 
ATOM     23  H   UNL     1       5.142   6.284   3.940  1.00  0.00     0.156 HD
ATOM     24  H   UNL     1       4.144   5.984   5.290  1.00  0.00     0.156 HD
ENDBRANCH  11  22
ENDBRANCH   3   5
ENDBRANCH   2   3
ENDBRANCH   1   2
BRANCH   1  25
ATOM     25  C   UNL     1       2.260   2.372   8.022  1.00  0.00     0.275 C 
BRANCH  25  26
ATOM     26  O   UNL     1       3.557   2.976   7.902  1.00  0.00    -0.458 OA
BRANCH  26  27
ATOM     27  C   UNL     1       4.604   2.128   7.785  1.00  0.00     0.338 C 
ATOM     28  O   UNL     1       4.580   0.911   7.889  1.00  0.00    -0.246 OA
BRANCH  27  29
ATOM     29  C   UNL     1       5.833   2.906   7.508  1.00  0.00     0.060 A 
ATOM     30  C   UNL     1       5.778   4.037   6.696  1.00  0.00     0.016 A 
ATOM     31  C   UNL     1       7.066   2.472   7.995  1.00  0.00     0.016 A 
ATOM     32  C   UNL     1       6.947   4.700   6.320  1.00  0.00     0.010 A 
ATOM     33  C   UNL     1       8.231   3.188   7.684  1.00  0.00     0.010 A 
ATOM     34  C   UNL     1       8.193   4.297   6.816  1.00  0.00    -0.014 A 
BRANCH  34  35
ATOM     35  C   UNL     1       9.451   4.970   6.369  1.00  0.00     0.031 A 
ATOM     36  C   UNL     1      10.551   4.158   5.729  1.00  0.00     0.074 A 
ATOM     37  C   UNL     1       9.624   6.303   6.489  1.00  0.00     0.049 A 
ATOM     38  N   UNL     1      11.793   4.492   5.480  1.00  0.00    -0.248 NA
ATOM     39  C   UNL     1      10.210   2.783   5.330  1.00  0.00     0.031 C 
ATOM     40  C   UNL     1       8.639   7.252   7.008  1.00  0.00     0.029 A 
ATOM     41  N   UNL     1      10.700   7.096   6.158  1.00  0.00    -0.354 N 
ATOM     42  C   UNL     1      12.399   3.349   4.972  1.00  0.00     0.074 A 
ATOM     43  C   UNL     1      11.387   2.315   4.938  1.00  0.00     0.031 C 
ATOM     44  C   UNL     1       9.129   8.498   6.904  1.00  0.00     0.029 A 
ATOM     45  C   UNL     1      10.500   8.433   6.410  1.00  0.00     0.049 A 
ATOM     46  H   UNL     1      11.534   6.740   5.776  1.00  0.00     0.167 HD
ATOM     47  C   UNL     1      13.683   3.170   4.577  1.00  0.00     0.031 A 
ATOM     48  C   UNL     1      11.334   9.486   6.303  1.00  0.00     0.031 A 
ATOM     49  C   UNL     1      14.679   4.208   4.545  1.00  0.00     0.049 A 
ATOM     50  C   UNL     1      12.762   9.263   5.892  1.00  0.00     0.074 A 
ATOM     51  C   UNL     1      16.011   4.117   4.179  1.00  0.00     0.029 A 
ATOM     52  N   UNL     1      14.442   5.536   4.859  1.00  0.00    -0.354 N 
ATOM     53  N   UNL     1      13.355   8.151   5.532  1.00  0.00    -0.248 NA
ATOM     54  C   UNL     1      13.646  10.440   5.905  1.00  0.00     0.031 C 
ATOM     55  C   UNL     1      16.587   5.387   4.295  1.00  0.00     0.029 A 
ATOM     56  C   UNL     1      15.602   6.274   4.693  1.00  0.00     0.049 A 
ATOM     57  H   UNL     1      13.577   5.901   5.155  1.00  0.00     0.167 HD
ATOM     58  C   UNL     1      14.677   8.493   5.276  1.00  0.00     0.074 A 
ATOM     59  C   UNL     1      14.793   9.920   5.492  1.00  0.00     0.031 C 
ATOM     60  C   UNL     1      15.705   7.692   4.909  1.00  0.00     0.031 A 
BRANCH  47  61
ATOM     61  C   UNL     1      14.100   1.780   4.188  1.00  0.00    -0.014 A 
ATOM     62  C   UNL     1      13.711   1.206   2.969  1.00  0.00     0.009 A 
ATOM     63  C   UNL     1      14.929   1.045   5.052  1.00  0.00     0.009 A 
ATOM     64  C   UNL     1      14.119  -0.088   2.637  1.00  0.00     0.001 A 
ATOM     65  C   UNL     1      15.357  -0.237   4.705  1.00  0.00     0.001 A 
ATOM     66  C   UNL     1      14.944  -0.806   3.502  1.00  0.00     0.000 A 
ENDBRANCH  47  61
BRANCH  48  67
ATOM     67  C   UNL     1      10.861  10.852   6.656  1.00  0.00    -0.014 A 
ATOM     68  C   UNL     1      10.720  11.837   5.665  1.00  0.00     0.009 A 
ATOM     69  C   UNL     1      10.563  11.183   7.987  1.00  0.00     0.009 A 
ATOM     70  C   UNL     1      10.303  13.126   6.004  1.00  0.00     0.001 A 
ATOM     71  C   UNL     1      10.115  12.463   8.318  1.00  0.00     0.001 A 
ATOM     72  C   UNL     1       9.992  13.436   7.328  1.00  0.00     0.000 A 
ENDBRANCH  48  67
BRANCH  60  73
ATOM     73  C   UNL     1      17.038   8.348   4.689  1.00  0.00    -0.014 A 
ATOM     74  C   UNL     1      17.829   8.761   5.772  1.00  0.00     0.009 A 
ATOM     75  C   UNL     1      17.517   8.533   3.384  1.00  0.00     0.009 A 
ATOM     76  C   UNL     1      19.063   9.376   5.550  1.00  0.00     0.001 A 
ATOM     77  C   UNL     1      18.760   9.128   3.165  1.00  0.00     0.001 A 
ATOM     78  C   UNL     1      19.528   9.557   4.247  1.00  0.00     0.000 A 
ENDBRANCH  60  73
ENDBRANCH  34  35
ENDBRANCH  27  29
ENDBRANCH  26  27
ENDBRANCH  25  26
ENDBRANCH   1  25
TORSDOF 15
