REMARK SMILES C[C@H](C[C@H]1CSc2ccccc21)C(=O)OCCOC(=O)c1ccc(-c2c3nc(c(-c4ccccc4)c4ccc([nH]4)c(-c4ccccc4)c4nc(c(-c5ccccc5)c5ccc2[nH]5)C=C4)C=C3)cc1
REMARK SMILES IDX 16 1 15 2 13 3 14 4 2 5 1 6 3 7 4 8 5 9 12 10 6 11 7 12
REMARK SMILES IDX 11 13 8 14 10 15 9 16 17 17 18 18 19 19 20 20 21 21 22 22
REMARK SMILES IDX 68 23 23 24 67 25 24 26 25 27 26 28 61 29 27 30 66 31 60 32
REMARK SMILES IDX 62 33 28 34 65 35 59 36 58 37 29 39 51 40 36 41 50 42 37 43
REMARK SMILES IDX 40 44 49 45 63 46 38 47 39 48 48 50 64 51 41 52 30 53 31 54
REMARK SMILES IDX 35 55 32 56 34 57 33 58 52 59 53 60 57 61 54 62 56 63 55 64
REMARK SMILES IDX 42 65 43 66 47 67 44 68 46 69 45 70
REMARK H PARENT 62 38 40 49
REMARK Flexibility Score: inf
ROOT
ATOM      1  C   UNL     1      -3.625  -0.068  -0.737  1.00  0.00     0.274 C 
ENDROOT
BRANCH   1   2
ATOM      2  O   UNL     1      -2.228  -0.314  -0.947  1.00  0.00    -0.462 OA
BRANCH   2   3
ATOM      3  C   UNL     1      -1.532   0.714  -1.502  1.00  0.00     0.308 C 
ATOM      4  O   UNL     1      -1.994   1.813  -1.784  1.00  0.00    -0.252 OA
BRANCH   3   5
ATOM      5  C   UNL     1      -0.137   0.290  -1.891  1.00  0.00     0.097 C 
ATOM      6  C   UNL     1      -0.345  -0.533  -3.157  1.00  0.00     0.020 C 
BRANCH   5   7
ATOM      7  C   UNL     1       0.652  -0.344  -0.714  1.00  0.00     0.024 C 
BRANCH   7   8
ATOM      8  C   UNL     1       2.064  -0.956  -0.954  1.00  0.00     0.031 C 
ATOM      9  C   UNL     1       2.054  -2.500  -1.022  1.00  0.00     0.083 C 
ATOM     10  C   UNL     1       2.725  -0.451  -2.209  1.00  0.00    -0.030 A 
ATOM     11  S   UNL     1       2.265  -3.003  -2.755  1.00  0.00    -0.125 SA
ATOM     12  C   UNL     1       2.772  -1.384  -3.249  1.00  0.00     0.011 A 
ATOM     13  C   UNL     1       3.052   0.883  -2.438  1.00  0.00     0.005 A 
ATOM     14  C   UNL     1       3.012  -0.977  -4.553  1.00  0.00     0.015 A 
ATOM     15  C   UNL     1       3.282   1.300  -3.749  1.00  0.00     0.000 A 
ATOM     16  C   UNL     1       3.232   0.380  -4.804  1.00  0.00     0.001 A 
ENDBRANCH   7   8
ENDBRANCH   5   7
ENDBRANCH   3   5
ENDBRANCH   2   3
ENDBRANCH   1   2
BRANCH   1  17
ATOM     17  C   UNL     1      -3.901   0.497   0.657  1.00  0.00     0.275 C 
BRANCH  17  18
ATOM     18  O   UNL     1      -3.414   1.842   0.805  1.00  0.00    -0.458 OA
BRANCH  18  19
ATOM     19  C   UNL     1      -2.125   1.968   1.212  1.00  0.00     0.338 C 
ATOM     20  O   UNL     1      -1.365   1.077   1.540  1.00  0.00    -0.246 OA
BRANCH  19  21
ATOM     21  C   UNL     1      -1.712   3.377   1.057  1.00  0.00     0.060 A 
ATOM     22  C   UNL     1      -2.500   4.404   1.574  1.00  0.00     0.016 A 
ATOM     23  C   UNL     1      -0.511   3.667   0.395  1.00  0.00     0.016 A 
ATOM     24  C   UNL     1      -2.089   5.727   1.415  1.00  0.00     0.010 A 
ATOM     25  C   UNL     1      -0.097   4.992   0.244  1.00  0.00     0.010 A 
ATOM     26  C   UNL     1      -0.883   6.032   0.755  1.00  0.00    -0.014 A 
BRANCH  26  27
ATOM     27  C   UNL     1      -0.426   7.441   0.692  1.00  0.00     0.031 A 
ATOM     28  C   UNL     1      -0.469   8.222  -0.587  1.00  0.00     0.074 A 
ATOM     29  C   UNL     1       0.000   8.024   1.829  1.00  0.00     0.049 A 
ATOM     30  N   UNL     1      -0.253   9.501  -0.769  1.00  0.00    -0.248 NA
ATOM     31  C   UNL     1      -0.789   7.483  -1.817  1.00  0.00     0.031 C 
ATOM     32  C   UNL     1       0.117   7.346   3.121  1.00  0.00     0.029 A 
ATOM     33  N   UNL     1       0.382   9.315   2.091  1.00  0.00    -0.354 N 
ATOM     34  C   UNL     1      -0.431   9.725  -2.128  1.00  0.00     0.074 A 
ATOM     35  C   UNL     1      -0.716   8.442  -2.733  1.00  0.00     0.031 C 
ATOM     36  C   UNL     1       0.485   8.239   4.051  1.00  0.00     0.029 A 
ATOM     37  C   UNL     1       0.666   9.542   3.417  1.00  0.00     0.049 A 
ATOM     38  H   UNL     1       0.447  10.011   1.398  1.00  0.00     0.167 HD
ATOM     39  C   UNL     1      -0.383  10.901  -2.798  1.00  0.00     0.031 A 
ATOM     40  C   UNL     1       1.018  10.674   4.058  1.00  0.00     0.031 A 
ATOM     41  C   UNL     1      -0.085  12.171  -2.183  1.00  0.00     0.049 A 
ATOM     42  C   UNL     1       1.096  11.959   3.284  1.00  0.00     0.074 A 
ATOM     43  C   UNL     1      -0.061  13.423  -2.773  1.00  0.00     0.029 A 
ATOM     44  N   UNL     1       0.250  12.351  -0.849  1.00  0.00    -0.354 N 
ATOM     45  N   UNL     1       0.834  12.174   2.017  1.00  0.00    -0.248 NA
ATOM     46  C   UNL     1       1.499  13.162   4.026  1.00  0.00     0.031 C 
ATOM     47  C   UNL     1       0.369  14.347  -1.819  1.00  0.00     0.029 A 
ATOM     48  C   UNL     1       0.524  13.689  -0.610  1.00  0.00     0.049 A 
ATOM     49  H   UNL     1       0.287  11.637  -0.173  1.00  0.00     0.167 HD
ATOM     50  C   UNL     1       1.023  13.535   1.813  1.00  0.00     0.074 A 
ATOM     51  C   UNL     1       1.395  14.101   3.094  1.00  0.00     0.031 C 
ATOM     52  C   UNL     1       0.902  14.246   0.666  1.00  0.00     0.031 A 
BRANCH  39  53
ATOM     53  C   UNL     1      -0.671  10.896  -4.276  1.00  0.00    -0.014 A 
ATOM     54  C   UNL     1       0.328  11.276  -5.188  1.00  0.00     0.009 A 
ATOM     55  C   UNL     1      -1.965  10.644  -4.760  1.00  0.00     0.009 A 
ATOM     56  C   UNL     1       0.033  11.429  -6.545  1.00  0.00     0.001 A 
ATOM     57  C   UNL     1      -2.250  10.764  -6.122  1.00  0.00     0.001 A 
ATOM     58  C   UNL     1      -1.255  11.170  -7.011  1.00  0.00     0.000 A 
ENDBRANCH  39  53
BRANCH  40  59
ATOM     59  C   UNL     1       1.271  10.629   5.524  1.00  0.00    -0.014 A 
ATOM     60  C   UNL     1       2.354   9.896   6.039  1.00  0.00     0.009 A 
ATOM     61  C   UNL     1       0.396  11.258   6.422  1.00  0.00     0.009 A 
ATOM     62  C   UNL     1       2.535   9.765   7.417  1.00  0.00     0.001 A 
ATOM     63  C   UNL     1       0.601  11.156   7.801  1.00  0.00     0.001 A 
ATOM     64  C   UNL     1       1.661  10.399   8.297  1.00  0.00     0.000 A 
ENDBRANCH  40  59
BRANCH  52  65
ATOM     65  C   UNL     1       1.174  15.727   0.718  1.00  0.00    -0.014 A 
ATOM     66  C   UNL     1       0.137  16.638   0.457  1.00  0.00     0.009 A 
ATOM     67  C   UNL     1       2.474  16.219   0.908  1.00  0.00     0.009 A 
ATOM     68  C   UNL     1       0.399  18.006   0.359  1.00  0.00     0.001 A 
ATOM     69  C   UNL     1       2.727  17.591   0.848  1.00  0.00     0.001 A 
ATOM     70  C   UNL     1       1.693  18.482   0.560  1.00  0.00     0.000 A 
ENDBRANCH  52  65
ENDBRANCH  26  27
ENDBRANCH  19  21
ENDBRANCH  18  19
ENDBRANCH  17  18
ENDBRANCH   1  17
TORSDOF 13
