REMARK SMILES O=C(OCCOC(=O)c1ccc(-c2c3nc(c(-c4ccccc4)c4ccc([nH]4)c(-c4ccccc4)c4nc(c(-c5ccccc5)c5ccc2[nH]5)C=C4)C=C3)cc1)C1=Cc2cc(S(F)(F)(F)(F)F)ccc2O[C@@H]1C(F)(F)F
REMARK SMILES IDX 5 1 4 2 3 3 2 4 1 5 57 6 58 7 72 8 59 9 71 10 60 11 70 12
REMARK SMILES IDX 61 13 69 14 68 15 73 16 74 17 75 18 76 19 62 20 63 21 64 22
REMARK SMILES IDX 65 23 66 24 67 25 6 26 7 27 8 28 9 29 10 30 56 31 11 32
REMARK SMILES IDX 55 33 12 34 13 35 14 36 49 37 15 38 54 39 48 40 50 41 16 42
REMARK SMILES IDX 53 43 47 44 46 45 17 47 39 48 24 49 38 50 25 51 28 52 37 53
REMARK SMILES IDX 51 54 26 55 27 56 36 58 52 59 29 60 18 61 19 62 23 63 20 64
REMARK SMILES IDX 22 65 21 66 40 67 41 68 45 69 42 70 44 71 43 72 30 73 31 74
REMARK SMILES IDX 35 75 32 76 34 77 33 78
REMARK H PARENT 50 46 28 57
REMARK Flexibility Score: inf
ROOT
ATOM      1  C   UNL     1       4.841   0.462  -1.195  1.00  0.00     0.275 C 
ENDROOT
BRANCH   1   2
ATOM      2  C   UNL     1       4.334  -0.899  -0.747  1.00  0.00     0.275 C 
BRANCH   2   3
ATOM      3  O   UNL     1       2.914  -0.899  -0.747  1.00  0.00    -0.459 OA
BRANCH   3   4
ATOM      4  C   UNL     1       2.204   0.018   0.072  1.00  0.00     0.338 C 
ATOM      5  O   UNL     1       0.933   0.018   0.072  1.00  0.00    -0.246 OA
BRANCH   4   6
ATOM      6  C   UNL     1       2.964   1.000   0.950  1.00  0.00     0.087 C 
ATOM      7  C   UNL     1       4.325   1.000   0.950  1.00  0.00     0.027 C 
ATOM      8  C   UNL     1       2.204   1.981   1.827  1.00  0.00     0.316 C 
ATOM      9  C   UNL     1       5.085   0.018   0.072  1.00  0.00     0.019 A 
ATOM     10  O   UNL     1       3.648   0.415  -1.778  1.00  0.00    -0.475 OA
ATOM     11  C   UNL     1       6.077  -0.701   0.719  1.00  0.00     0.036 A 
ATOM     12  C   UNL     1       4.773  -0.225  -1.195  1.00  0.00     0.128 A 
ATOM     13  C   UNL     1       6.888  -1.468  -0.150  1.00  0.00     0.107 A 
ATOM     14  C   UNL     1       5.530  -1.091  -1.948  1.00  0.00     0.048 A 
ATOM     15  C   UNL     1       6.563  -1.791  -1.388  1.00  0.00     0.028 A 
BRANCH   8  16
ATOM     16  C   UNL     1       2.572   3.402   1.433  1.00  0.00     0.430 C 
ATOM     17  F   UNL     1       2.250   3.606   0.158  1.00  0.00    -0.167 F 
ATOM     18  F   UNL     1       1.907   4.261   2.200  1.00  0.00    -0.167 F 
ATOM     19  F   UNL     1       3.879   3.583   1.595  1.00  0.00    -0.167 F 
ENDBRANCH   8  16
BRANCH  13  20
ATOM     20  S   UNL     1       8.484  -2.046   0.480  1.00  0.00     0.310 S 
ATOM     21  F   UNL     1       7.962  -1.998   1.977  1.00  0.00    -0.094 F 
ATOM     22  F   UNL     1       8.939  -0.549   0.662  1.00  0.00    -0.094 F 
ATOM     23  F   UNL     1       9.843  -2.556   1.035  1.00  0.00    -0.094 F 
ATOM     24  F   UNL     1       7.958  -3.534   0.422  1.00  0.00    -0.094 F 
ATOM     25  F   UNL     1       7.058  -1.540   0.021  1.00  0.00    -0.094 F 
ENDBRANCH  13  20
ENDBRANCH   4   6
ENDBRANCH   3   4
ENDBRANCH   2   3
ENDBRANCH   1   2
BRANCH   1  26
ATOM     26  O   UNL     1       4.368   1.461  -0.303  1.00  0.00    -0.458 OA
BRANCH  26  27
ATOM     27  C   UNL     1       2.972   1.654  -0.130  1.00  0.00     0.338 C 
ATOM     28  O   UNL     1       2.146   0.934  -0.773  1.00  0.00    -0.246 OA
BRANCH  27  29
ATOM     29  C   UNL     1       2.465   2.723   0.825  1.00  0.00     0.060 A 
ATOM     30  C   UNL     1       1.323   2.442   1.557  1.00  0.00     0.016 A 
ATOM     31  C   UNL     1       3.002   3.937   0.826  1.00  0.00     0.016 A 
ATOM     32  C   UNL     1       0.650   3.592   2.033  1.00  0.00     0.010 A 
ATOM     33  C   UNL     1       2.355   4.988   1.429  1.00  0.00     0.010 A 
ATOM     34  C   UNL     1       1.190   4.794   2.119  1.00  0.00    -0.014 A 
BRANCH  34  35
ATOM     35  C   UNL     1       0.552   5.902   2.941  1.00  0.00     0.031 A 
ATOM     36  C   UNL     1       0.146   7.106   2.363  1.00  0.00     0.074 A 
ATOM     37  C   UNL     1       0.298   5.549   4.255  1.00  0.00     0.049 A 
ATOM     38  N   UNL     1      -0.561   8.083   2.933  1.00  0.00    -0.248 NA
ATOM     39  C   UNL     1       0.444   7.497   0.978  1.00  0.00     0.031 C 
ATOM     40  C   UNL     1       0.698   4.333   4.843  1.00  0.00     0.029 A 
ATOM     41  N   UNL     1      -0.366   6.282   5.214  1.00  0.00    -0.354 N 
ATOM     42  C   UNL     1      -0.772   9.069   2.058  1.00  0.00     0.074 A 
ATOM     43  C   UNL     1      -0.123   8.709   0.790  1.00  0.00     0.031 C 
ATOM     44  C   UNL     1       0.291   4.338   6.140  1.00  0.00     0.029 A 
ATOM     45  C   UNL     1      -0.370   5.556   6.384  1.00  0.00     0.049 A 
ATOM     46  H   UNL     1      -0.767   7.172   5.085  1.00  0.00     0.167 HD
ATOM     47  C   UNL     1      -1.481  10.253   2.267  1.00  0.00     0.031 A 
ATOM     48  C   UNL     1      -0.913   5.920   7.606  1.00  0.00     0.031 A 
ATOM     49  C   UNL     1      -2.062  10.597   3.478  1.00  0.00     0.049 A 
ATOM     50  C   UNL     1      -1.573   7.130   7.832  1.00  0.00     0.074 A 
ATOM     51  C   UNL     1      -2.787  11.783   3.703  1.00  0.00     0.029 A 
ATOM     52  N   UNL     1      -2.045   9.882   4.654  1.00  0.00    -0.354 N 
ATOM     53  N   UNL     1      -1.818   8.098   6.947  1.00  0.00    -0.248 NA
ATOM     54  C   UNL     1      -2.124   7.540   9.131  1.00  0.00     0.031 C 
ATOM     55  C   UNL     1      -3.194  11.787   5.001  1.00  0.00     0.029 A 
ATOM     56  C   UNL     1      -2.729  10.605   5.607  1.00  0.00     0.049 A 
ATOM     57  H   UNL     1      -1.619   9.005   4.792  1.00  0.00     0.167 HD
ATOM     58  C   UNL     1      -2.489   9.094   7.528  1.00  0.00     0.074 A 
ATOM     59  C   UNL     1      -2.689   8.752   8.944  1.00  0.00     0.031 C 
ATOM     60  C   UNL     1      -2.946  10.271   6.935  1.00  0.00     0.031 A 
BRANCH  47  61
ATOM     61  C   UNL     1      -1.625  11.219   1.102  1.00  0.00    -0.014 A 
ATOM     62  C   UNL     1      -2.327  10.757   0.001  1.00  0.00     0.009 A 
ATOM     63  C   UNL     1      -1.165  12.463   1.153  1.00  0.00     0.009 A 
ATOM     64  C   UNL     1      -2.244  11.604  -1.129  1.00  0.00     0.001 A 
ATOM     65  C   UNL     1      -1.239  13.282   0.052  1.00  0.00     0.001 A 
ATOM     66  C   UNL     1      -1.867  12.869  -1.090  1.00  0.00     0.000 A 
ENDBRANCH  47  61
BRANCH  48  67
ATOM     67  C   UNL     1      -0.784   4.946   8.767  1.00  0.00    -0.014 A 
ATOM     68  C   UNL     1      -1.897   4.483   9.449  1.00  0.00     0.009 A 
ATOM     69  C   UNL     1       0.444   4.614   9.145  1.00  0.00     0.009 A 
ATOM     70  C   UNL     1      -1.598   3.901  10.704  1.00  0.00     0.001 A 
ATOM     71  C   UNL     1       0.653   3.926  10.316  1.00  0.00     0.001 A 
ATOM     72  C   UNL     1      -0.399   3.489  11.072  1.00  0.00     0.000 A 
ENDBRANCH  48  67
BRANCH  60  73
ATOM     73  C   UNL     1      -3.729  11.248   7.797  1.00  0.00    -0.014 A 
ATOM     74  C   UNL     1      -3.126  11.660   8.974  1.00  0.00     0.009 A 
ATOM     75  C   UNL     1      -4.977  11.596   7.504  1.00  0.00     0.009 A 
ATOM     76  C   UNL     1      -4.027  12.204   9.920  1.00  0.00     0.001 A 
ATOM     77  C   UNL     1      -5.757  12.246   8.429  1.00  0.00     0.001 A 
ATOM     78  C   UNL     1      -5.244  12.632   9.636  1.00  0.00     0.000 A 
ENDBRANCH  60  73
ENDBRANCH  34  35
ENDBRANCH  27  29
ENDBRANCH  26  27
ENDBRANCH   1  26
TORSDOF 13
