REMARK SMILES COc1cccc(C(=O)/C=C(/Nc2cc(C)c(C)cc2[N+](=O)[O-])C(=O)OCCOC(=O)c2ccc(-c3c4nc(c(-c5ccccc5)c5ccc([nH]5)c(-c5ccccc5)c5nc(c(-c6ccccc6)c6ccc3[nH]6)C=C5)C=C4)cc2)c1
REMARK SMILES IDX 27 1 26 2 24 3 25 4 11 5 10 6 8 7 9 8 7 9 3 10 4 11 80 12
REMARK SMILES IDX 5 13 6 14 2 15 1 16 12 17 13 19 14 20 20 21 15 22 19 23
REMARK SMILES IDX 16 24 17 25 18 26 21 27 22 28 23 29 28 30 29 31 30 32 31 33
REMARK SMILES IDX 32 34 33 35 79 36 34 37 78 38 35 39 36 40 37 41 72 42 38 43
REMARK SMILES IDX 77 44 71 45 73 46 39 47 76 48 70 49 69 50 40 52 62 53 47 54
REMARK SMILES IDX 61 55 48 56 51 57 60 58 74 59 49 60 50 61 59 63 75 64 52 65
REMARK SMILES IDX 41 66 42 67 46 68 43 69 45 70 44 71 63 72 64 73 68 74 65 75
REMARK SMILES IDX 67 76 66 77 53 78 54 79 58 80 55 81 57 82 56 83
REMARK H PARENT 12 18 73 51 51 62
REMARK Flexibility Score: inf
ROOT
ATOM      1  C   UNL     1       1.978   1.216   0.086  1.00  0.00     0.275 C 
ENDROOT
BRANCH   1   2
ATOM      2  O   UNL     1       3.164   0.684  -0.498  1.00  0.00    -0.457 OA
BRANCH   2   3
ATOM      3  C   UNL     1       3.305  -0.666  -0.449  1.00  0.00     0.355 C 
ATOM      4  O   UNL     1       2.615  -1.478   0.128  1.00  0.00    -0.244 OA
BRANCH   3   5
ATOM      5  C   UNL     1       4.539  -0.981  -1.201  1.00  0.00     0.129 C 
ATOM      6  C   UNL     1       4.410  -1.477  -2.442  1.00  0.00     0.086 C 
BRANCH   6   7
ATOM      7  C   UNL     1       3.343  -1.956  -3.399  1.00  0.00     0.188 C 
ATOM      8  O   UNL     1       3.815  -2.400  -4.458  1.00  0.00    -0.289 OA
BRANCH   7   9
ATOM      9  C   UNL     1       1.833  -1.982  -3.299  1.00  0.00     0.026 A 
ATOM     10  C   UNL     1      -0.396  -1.357  -2.473  1.00  0.00     0.119 A 
ATOM     11  C   UNL     1      -1.018  -1.979  -3.540  1.00  0.00     0.046 A 
ATOM     12  C   UNL     1       1.006  -1.337  -2.381  1.00  0.00     0.058 A 
ATOM     13  C   UNL     1      -0.237  -2.635  -4.478  1.00  0.00     0.005 A 
ATOM     14  C   UNL     1       1.159  -2.655  -4.338  1.00  0.00     0.012 A 
BRANCH  10  15
ATOM     15  O   UNL     1      -1.196  -0.642  -1.621  1.00  0.00    -0.497 OA
ATOM     16  C   UNL     1      -1.131  -1.086  -0.266  1.00  0.00     0.278 C 
ENDBRANCH  10  15
ENDBRANCH   7   9
ENDBRANCH   6   7
BRANCH   5  17
ATOM     17  N   UNL     1       5.732  -0.671  -0.524  1.00  0.00    -0.344 N 
ATOM     18  H   UNL     1       6.559  -0.538  -1.042  1.00  0.00     0.167 HD
BRANCH  17  19
ATOM     19  C   UNL     1       5.772  -0.546   0.893  1.00  0.00     0.118 A 
ATOM     20  C   UNL     1       6.081   0.702   1.462  1.00  0.00     0.037 A 
ATOM     21  C   UNL     1       5.199  -1.513   1.746  1.00  0.00     0.292 A 
ATOM     22  C   UNL     1       5.689   1.027   2.783  1.00  0.00    -0.046 A 
ATOM     23  C   UNL     1       4.707  -1.169   3.011  1.00  0.00     0.091 A 
ATOM     24  C   UNL     1       6.106   2.357   3.356  1.00  0.00     0.045 C 
ATOM     25  C   UNL     1       4.883   0.127   3.508  1.00  0.00    -0.041 A 
ATOM     26  C   UNL     1       4.225   0.486   4.812  1.00  0.00     0.045 C 
BRANCH  21  27
ATOM     27  N   UNL     1       5.099  -2.916   1.325  1.00  0.00     0.064 N 
ATOM     28  O   UNL     1       4.206  -3.610   1.834  1.00  0.00    -0.258 OA
ATOM     29  O   UNL     1       5.954  -3.345   0.535  1.00  0.00    -0.258 OA
ENDBRANCH  21  27
ENDBRANCH  17  19
ENDBRANCH   5  17
ENDBRANCH   3   5
ENDBRANCH   2   3
ENDBRANCH   1   2
BRANCH   1  30
ATOM     30  C   UNL     1       1.286   2.176  -0.891  1.00  0.00     0.275 C 
BRANCH  30  31
ATOM     31  O   UNL     1       1.249   1.692  -2.254  1.00  0.00    -0.458 OA
BRANCH  31  32
ATOM     32  C   UNL     1       2.318   2.025  -3.024  1.00  0.00     0.338 C 
ATOM     33  O   UNL     1       3.277   2.691  -2.664  1.00  0.00    -0.246 OA
BRANCH  32  34
ATOM     34  C   UNL     1       2.259   1.391  -4.370  1.00  0.00     0.060 A 
ATOM     35  C   UNL     1       3.474   1.003  -4.953  1.00  0.00     0.016 A 
ATOM     36  C   UNL     1       1.070   1.204  -5.083  1.00  0.00     0.016 A 
ATOM     37  C   UNL     1       3.509   0.437  -6.231  1.00  0.00     0.010 A 
ATOM     38  C   UNL     1       1.108   0.656  -6.380  1.00  0.00     0.010 A 
ATOM     39  C   UNL     1       2.330   0.283  -6.970  1.00  0.00    -0.014 A 
BRANCH  39  40
ATOM     40  C   UNL     1       2.417  -0.094  -8.409  1.00  0.00     0.031 A 
ATOM     41  C   UNL     1       2.549   1.004  -9.428  1.00  0.00     0.074 A 
ATOM     42  C   UNL     1       2.454  -1.376  -8.819  1.00  0.00     0.049 A 
ATOM     43  N   UNL     1       2.707   0.919 -10.724  1.00  0.00    -0.248 NA
ATOM     44  C   UNL     1       2.542   2.381  -8.909  1.00  0.00     0.031 C 
ATOM     45  C   UNL     1       2.483  -2.536  -7.939  1.00  0.00     0.029 A 
ATOM     46  N   UNL     1       2.483  -1.922 -10.082  1.00  0.00    -0.354 N 
ATOM     47  C   UNL     1       2.855   2.225 -11.169  1.00  0.00     0.074 A 
ATOM     48  C   UNL     1       2.724   3.086 -10.014  1.00  0.00     0.031 C 
ATOM     49  C   UNL     1       2.463  -3.659  -8.676  1.00  0.00     0.029 A 
ATOM     50  C   UNL     1       2.434  -3.298 -10.090  1.00  0.00     0.049 A 
ATOM     51  H   UNL     1       2.534  -1.380 -10.902  1.00  0.00     0.167 HD
ATOM     52  C   UNL     1       3.090   2.669 -12.426  1.00  0.00     0.031 A 
ATOM     53  C   UNL     1       2.376  -4.167 -11.120  1.00  0.00     0.031 A 
ATOM     54  C   UNL     1       3.160   1.820 -13.584  1.00  0.00     0.049 A 
ATOM     55  C   UNL     1       2.461  -3.634 -12.527  1.00  0.00     0.074 A 
ATOM     56  C   UNL     1       3.362   2.178 -14.905  1.00  0.00     0.029 A 
ATOM     57  N   UNL     1       3.004   0.442 -13.560  1.00  0.00    -0.354 N 
ATOM     58  N   UNL     1       2.637  -2.399 -12.930  1.00  0.00    -0.248 NA
ATOM     59  C   UNL     1       2.371  -4.615 -13.619  1.00  0.00     0.031 C 
ATOM     60  C   UNL     1       3.253   1.024 -15.689  1.00  0.00     0.029 A 
ATOM     61  C   UNL     1       3.054  -0.060 -14.850  1.00  0.00     0.049 A 
ATOM     62  H   UNL     1       2.876  -0.099 -12.748  1.00  0.00     0.167 HD
ATOM     63  C   UNL     1       2.724  -2.459 -14.315  1.00  0.00     0.074 A 
ATOM     64  C   UNL     1       2.587  -3.854 -14.683  1.00  0.00     0.031 C 
ATOM     65  C   UNL     1       2.912  -1.451 -15.201  1.00  0.00     0.031 A 
BRANCH  52  66
ATOM     66  C   UNL     1       3.223   4.154 -12.607  1.00  0.00    -0.014 A 
ATOM     67  C   UNL     1       4.356   4.848 -12.151  1.00  0.00     0.009 A 
ATOM     68  C   UNL     1       2.193   4.871 -13.235  1.00  0.00     0.009 A 
ATOM     69  C   UNL     1       4.433   6.237 -12.283  1.00  0.00     0.001 A 
ATOM     70  C   UNL     1       2.286   6.255 -13.390  1.00  0.00     0.001 A 
ATOM     71  C   UNL     1       3.399   6.938 -12.903  1.00  0.00     0.000 A 
ENDBRANCH  52  66
BRANCH  53  72
ATOM     72  C   UNL     1       2.221  -5.628 -10.874  1.00  0.00    -0.014 A 
ATOM     73  C   UNL     1       3.241  -6.534 -11.204  1.00  0.00     0.009 A 
ATOM     74  C   UNL     1       1.019  -6.133 -10.350  1.00  0.00     0.009 A 
ATOM     75  C   UNL     1       3.049  -7.911 -11.045  1.00  0.00     0.001 A 
ATOM     76  C   UNL     1       0.839  -7.506 -10.167  1.00  0.00     0.001 A 
ATOM     77  C   UNL     1       1.850  -8.396 -10.525  1.00  0.00     0.000 A 
ENDBRANCH  53  72
BRANCH  65  78
ATOM     78  C   UNL     1       3.011  -1.817 -16.655  1.00  0.00    -0.014 A 
ATOM     79  C   UNL     1       1.885  -2.234 -17.381  1.00  0.00     0.009 A 
ATOM     80  C   UNL     1       4.240  -1.685 -17.322  1.00  0.00     0.009 A 
ATOM     81  C   UNL     1       1.994  -2.537 -18.740  1.00  0.00     0.001 A 
ATOM     82  C   UNL     1       4.339  -1.957 -18.686  1.00  0.00     0.001 A 
ATOM     83  C   UNL     1       3.218  -2.390 -19.392  1.00  0.00     0.000 A 
ENDBRANCH  65  78
ENDBRANCH  39  40
ENDBRANCH  32  34
ENDBRANCH  31  32
ENDBRANCH  30  31
ENDBRANCH   1  30
TORSDOF 17
