REMARK SMILES CCSc1cccc(-c2ccc([C@@H](C)C(=O)OCCOC(=O)c3ccc(-c4c5nc(c(-c6ccccc6)c6ccc([nH]6)c(-c6ccccc6)c6nc(c(-c7ccccc7)c7ccc4[nH]7)C=C6)C=C5)cc3)cc2)c1
REMARK SMILES IDX 18 1 17 2 15 3 16 4 13 5 14 6 12 7 9 8 10 9 72 10 11 11
REMARK SMILES IDX 71 12 8 13 4 14 5 15 73 16 6 17 7 18 3 19 2 20 1 21 19 22
REMARK SMILES IDX 20 23 21 24 22 25 23 26 24 27 70 28 25 29 69 30 26 31 27 32
REMARK SMILES IDX 28 33 63 34 29 35 68 36 62 37 64 38 30 39 67 40 61 41 60 42
REMARK SMILES IDX 31 44 53 45 38 46 52 47 39 48 42 49 51 50 65 51 40 52 41 53
REMARK SMILES IDX 50 55 66 56 43 57 32 58 33 59 37 60 34 61 36 62 35 63 54 64
REMARK SMILES IDX 55 65 59 66 56 67 58 68 57 69 44 70 45 71 49 72 46 73 48 74
REMARK SMILES IDX 47 75
REMARK H PARENT 64 43 42 54
REMARK Flexibility Score: inf
ROOT
ATOM      1  C   UNL     1       7.768   6.766   0.066  1.00  0.00     0.274 C 
ENDROOT
BRANCH   1   2
ATOM      2  O   UNL     1       7.920   5.783   1.108  1.00  0.00    -0.462 OA
BRANCH   2   3
ATOM      3  C   UNL     1       8.201   6.248   2.353  1.00  0.00     0.313 C 
ATOM      4  O   UNL     1       8.374   7.433   2.625  1.00  0.00    -0.252 OA
BRANCH   3   5
ATOM      5  C   UNL     1       8.353   5.150   3.399  1.00  0.00     0.126 C 
ATOM      6  C   UNL     1       9.827   4.776   3.546  1.00  0.00     0.025 C 
BRANCH   5   7
ATOM      7  C   UNL     1       7.455   3.935   3.223  1.00  0.00    -0.034 A 
ATOM      8  C   UNL     1       5.768   1.658   2.967  1.00  0.00    -0.018 A 
ATOM      9  C   UNL     1       6.833   1.877   2.081  1.00  0.00     0.009 A 
ATOM     10  C   UNL     1       5.555   2.605   3.977  1.00  0.00     0.009 A 
ATOM     11  C   UNL     1       7.664   2.996   2.205  1.00  0.00     0.005 A 
ATOM     12  C   UNL     1       6.389   3.719   4.109  1.00  0.00     0.005 A 
BRANCH   8  13
ATOM     13  C   UNL     1       4.920   0.459   2.859  1.00  0.00    -0.017 A 
ATOM     14  C   UNL     1       2.715  -0.588   2.736  1.00  0.00     0.008 A 
ATOM     15  C   UNL     1       3.313  -1.849   2.701  1.00  0.00     0.015 A 
ATOM     16  C   UNL     1       3.518   0.556   2.824  1.00  0.00     0.023 A 
ATOM     17  C   UNL     1       4.701  -1.967   2.735  1.00  0.00     0.002 A 
ATOM     18  C   UNL     1       5.495  -0.822   2.811  1.00  0.00     0.009 A 
BRANCH  14  19
ATOM     19  S   UNL     1       0.939  -0.419   2.714  1.00  0.00    -0.126 SA
BRANCH  19  20
ATOM     20  C   UNL     1       0.586  -0.968   1.010  1.00  0.00     0.071 C 
ATOM     21  C   UNL     1       0.991   0.081  -0.011  1.00  0.00     0.016 C 
ENDBRANCH  19  20
ENDBRANCH  14  19
ENDBRANCH   8  13
ENDBRANCH   5   7
ENDBRANCH   3   5
ENDBRANCH   2   3
ENDBRANCH   1   2
BRANCH   1  22
ATOM     22  C   UNL     1       6.294   7.052  -0.224  1.00  0.00     0.275 C 
BRANCH  22  23
ATOM     23  O   UNL     1       5.674   7.734   0.881  1.00  0.00    -0.458 OA
BRANCH  23  24
ATOM     24  C   UNL     1       4.923   6.952   1.689  1.00  0.00     0.338 C 
ATOM     25  O   UNL     1       4.660   5.771   1.549  1.00  0.00    -0.246 OA
BRANCH  24  26
ATOM     26  C   UNL     1       4.538   7.712   2.886  1.00  0.00     0.060 A 
ATOM     27  C   UNL     1       5.107   7.337   4.103  1.00  0.00     0.016 A 
ATOM     28  C   UNL     1       3.561   8.707   2.836  1.00  0.00     0.016 A 
ATOM     29  C   UNL     1       4.685   7.932   5.286  1.00  0.00     0.010 A 
ATOM     30  C   UNL     1       3.143   9.316   4.025  1.00  0.00     0.010 A 
ATOM     31  C   UNL     1       3.688   8.915   5.259  1.00  0.00    -0.014 A 
BRANCH  31  32
ATOM     32  C   UNL     1       3.191   9.469   6.540  1.00  0.00     0.031 A 
ATOM     33  C   UNL     1       1.870   9.015   7.093  1.00  0.00     0.074 A 
ATOM     34  C   UNL     1       3.955  10.328   7.239  1.00  0.00     0.049 A 
ATOM     35  N   UNL     1       1.282   9.360   8.211  1.00  0.00    -0.248 NA
ATOM     36  C   UNL     1       1.115   8.043   6.288  1.00  0.00     0.031 C 
ATOM     37  C   UNL     1       5.273  10.813   6.829  1.00  0.00     0.029 A 
ATOM     38  N   UNL     1       3.737  10.929   8.452  1.00  0.00    -0.354 N 
ATOM     39  C   UNL     1       0.084   8.658   8.238  1.00  0.00     0.074 A 
ATOM     40  C   UNL     1       0.020   7.883   7.017  1.00  0.00     0.031 C 
ATOM     41  C   UNL     1       5.756  11.622   7.786  1.00  0.00     0.029 A 
ATOM     42  C   UNL     1       4.770  11.736   8.857  1.00  0.00     0.049 A 
ATOM     43  H   UNL     1       2.917  10.795   8.981  1.00  0.00     0.167 HD
ATOM     44  C   UNL     1      -0.876   8.656   9.194  1.00  0.00     0.031 A 
ATOM     45  C   UNL     1       4.906  12.488   9.965  1.00  0.00     0.031 A 
ATOM     46  C   UNL     1      -0.820   9.424  10.409  1.00  0.00     0.049 A 
ATOM     47  C   UNL     1       3.808  12.500  10.990  1.00  0.00     0.074 A 
ATOM     48  C   UNL     1      -1.746   9.486  11.435  1.00  0.00     0.029 A 
ATOM     49  N   UNL     1       0.224  10.264  10.761  1.00  0.00    -0.354 N 
ATOM     50  N   UNL     1       2.680  11.833  11.000  1.00  0.00    -0.248 NA
ATOM     51  C   UNL     1       4.006  13.369  12.159  1.00  0.00     0.031 C 
ATOM     52  C   UNL     1      -1.278  10.391  12.394  1.00  0.00     0.029 A 
ATOM     53  C   UNL     1      -0.042  10.861  11.982  1.00  0.00     0.049 A 
ATOM     54  H   UNL     1       1.035  10.414  10.223  1.00  0.00     0.167 HD
ATOM     55  C   UNL     1       2.040  12.190  12.179  1.00  0.00     0.074 A 
ATOM     56  C   UNL     1       2.914  13.117  12.868  1.00  0.00     0.031 C 
ATOM     57  C   UNL     1       0.834  11.787  12.649  1.00  0.00     0.031 A 
BRANCH  44  58
ATOM     58  C   UNL     1      -2.092   7.813   8.941  1.00  0.00    -0.014 A 
ATOM     59  C   UNL     1      -2.049   6.417   9.078  1.00  0.00     0.009 A 
ATOM     60  C   UNL     1      -3.302   8.427   8.582  1.00  0.00     0.009 A 
ATOM     61  C   UNL     1      -3.190   5.650   8.833  1.00  0.00     0.001 A 
ATOM     62  C   UNL     1      -4.445   7.659   8.357  1.00  0.00     0.001 A 
ATOM     63  C   UNL     1      -4.387   6.271   8.476  1.00  0.00     0.000 A 
ENDBRANCH  44  58
BRANCH  45  64
ATOM     64  C   UNL     1       6.130  13.303  10.161  1.00  0.00    -0.014 A 
ATOM     65  C   UNL     1       7.087  12.935  11.119  1.00  0.00     0.009 A 
ATOM     66  C   UNL     1       6.343  14.458   9.393  1.00  0.00     0.009 A 
ATOM     67  C   UNL     1       8.225  13.720  11.316  1.00  0.00     0.001 A 
ATOM     68  C   UNL     1       7.493  15.228   9.578  1.00  0.00     0.001 A 
ATOM     69  C   UNL     1       8.429  14.862  10.543  1.00  0.00     0.000 A 
ENDBRANCH  45  64
BRANCH  57  70
ATOM     70  C   UNL     1       0.405  12.338  13.977  1.00  0.00    -0.014 A 
ATOM     71  C   UNL     1      -0.053  13.660  14.098  1.00  0.00     0.009 A 
ATOM     72  C   UNL     1       0.440  11.520  15.116  1.00  0.00     0.009 A 
ATOM     73  C   UNL     1      -0.435  14.161  15.344  1.00  0.00     0.001 A 
ATOM     74  C   UNL     1       0.037  12.018  16.356  1.00  0.00     0.001 A 
ATOM     75  C   UNL     1      -0.392  13.340  16.470  1.00  0.00     0.000 A 
ENDBRANCH  57  70
ENDBRANCH  31  32
ENDBRANCH  24  26
ENDBRANCH  23  24
ENDBRANCH  22  23
ENDBRANCH   1  22
TORSDOF 15
