REMARK SMILES Cc1nsc(NC(=O)c2ccc(N)cc2)c1C(=O)OCCOC(=O)c1ccc(-c2c3nc(c(-c4ccccc4)c4ccc([nH]4)c(-c4ccccc4)c4nc(c(-c5ccccc5)c5ccc2[nH]5)C=C4)C=C3)cc1
REMARK SMILES IDX 20 1 19 2 17 3 18 4 16 5 1 6 2 7 3 8 4 9 5 10 6 11 7 12 8 14
REMARK SMILES IDX 9 15 10 16 15 17 11 18 14 19 12 20 13 21 21 24 22 25 23 26
REMARK SMILES IDX 24 27 25 28 26 29 72 30 27 31 71 32 28 33 29 34 30 35 65 36
REMARK SMILES IDX 31 37 70 38 64 39 66 40 32 41 69 42 63 43 62 44 33 46 55 47
REMARK SMILES IDX 40 48 54 49 41 50 44 51 53 52 67 53 42 54 43 55 52 57 68 58
REMARK SMILES IDX 45 59 34 60 35 61 39 62 36 63 38 64 37 65 56 66 57 67 61 68
REMARK SMILES IDX 58 69 60 70 59 71 46 72 47 73 51 74 48 75 50 76 49 77
REMARK H PARENT 6 13 13 22 13 23 66 45 44 56
REMARK Flexibility Score: inf
ROOT
ATOM      1  C   UNL     1       0.211   3.807  -0.151  1.00  0.00     0.275 C 
ENDROOT
BRANCH   1   2
ATOM      2  O   UNL     1       0.235   2.395  -0.418  1.00  0.00    -0.458 OA
BRANCH   2   3
ATOM      3  C   UNL     1      -0.461   1.980  -1.520  1.00  0.00     0.343 C 
ATOM      4  O   UNL     1      -1.240   2.678  -2.138  1.00  0.00    -0.246 OA
BRANCH   3   5
ATOM      5  C   UNL     1      -0.071   0.642  -1.957  1.00  0.00     0.117 A 
ATOM      6  C   UNL     1       1.043  -0.339   0.221  1.00  0.00     0.069 C 
ATOM      7  C   UNL     1       0.632  -0.378  -1.212  1.00  0.00     0.068 A 
ATOM      8  N   UNL     1       0.962  -1.474  -1.896  1.00  0.00    -0.195 NA
ATOM      9  S   UNL     1       0.509  -1.278  -3.467  1.00  0.00    -0.017 S 
ATOM     10  C   UNL     1      -0.291   0.204  -3.260  1.00  0.00     0.131 A 
BRANCH  10  11
ATOM     11  N   UNL     1      -0.922   0.896  -4.281  1.00  0.00    -0.312 N 
ATOM     12  C   UNL     1      -1.220   0.562  -5.582  1.00  0.00     0.256 C 
ATOM     13  H   UNL     1      -1.212   1.802  -4.027  1.00  0.00     0.171 HD
ATOM     14  O   UNL     1      -1.512   1.450  -6.384  1.00  0.00    -0.269 OA
BRANCH  12  15
ATOM     15  C   UNL     1      -1.266  -0.834  -6.053  1.00  0.00     0.040 A 
ATOM     16  C   UNL     1      -2.037  -1.791  -5.387  1.00  0.00     0.016 A 
ATOM     17  C   UNL     1      -0.574  -1.178  -7.215  1.00  0.00     0.016 A 
ATOM     18  C   UNL     1      -2.015  -3.118  -5.823  1.00  0.00     0.026 A 
ATOM     19  C   UNL     1      -0.574  -2.505  -7.651  1.00  0.00     0.026 A 
ATOM     20  C   UNL     1      -1.246  -3.495  -6.927  1.00  0.00     0.031 A 
BRANCH  20  21
ATOM     21  N   UNL     1      -1.260  -4.806  -7.376  1.00  0.00    -0.399 N 
ATOM     22  H   UNL     1      -1.735  -5.497  -6.861  1.00  0.00     0.156 HD
ATOM     23  H   UNL     1      -0.795  -5.046  -8.210  1.00  0.00     0.156 HD
ENDBRANCH  20  21
ENDBRANCH  12  15
ENDBRANCH  10  11
ENDBRANCH   3   5
ENDBRANCH   2   3
ENDBRANCH   1   2
BRANCH   1  24
ATOM     24  C   UNL     1       1.392   4.495  -0.825  1.00  0.00     0.275 C 
BRANCH  24  25
ATOM     25  O   UNL     1       1.165   4.719  -2.221  1.00  0.00    -0.458 OA
BRANCH  25  26
ATOM     26  C   UNL     1       1.703   3.797  -3.051  1.00  0.00     0.338 C 
ATOM     27  O   UNL     1       2.026   2.657  -2.762  1.00  0.00    -0.246 OA
BRANCH  26  28
ATOM     28  C   UNL     1       2.027   4.422  -4.343  1.00  0.00     0.060 A 
ATOM     29  C   UNL     1       2.416   3.591  -5.397  1.00  0.00     0.016 A 
ATOM     30  C   UNL     1       2.136   5.817  -4.447  1.00  0.00     0.016 A 
ATOM     31  C   UNL     1       3.001   4.157  -6.518  1.00  0.00     0.010 A 
ATOM     32  C   UNL     1       2.716   6.380  -5.571  1.00  0.00     0.010 A 
ATOM     33  C   UNL     1       3.192   5.546  -6.580  1.00  0.00    -0.014 A 
BRANCH  33  34
ATOM     34  C   UNL     1       3.842   6.089  -7.766  1.00  0.00     0.031 A 
ATOM     35  C   UNL     1       3.124   5.871  -9.047  1.00  0.00     0.074 A 
ATOM     36  C   UNL     1       4.958   6.841  -7.748  1.00  0.00     0.049 A 
ATOM     37  N   UNL     1       3.544   5.238 -10.093  1.00  0.00    -0.248 NA
ATOM     38  C   UNL     1       1.748   6.377  -9.152  1.00  0.00     0.031 C 
ATOM     39  C   UNL     1       5.644   7.428  -6.596  1.00  0.00     0.029 A 
ATOM     40  N   UNL     1       5.659   7.327  -8.813  1.00  0.00    -0.354 N 
ATOM     41  C   UNL     1       2.540   5.368 -11.048  1.00  0.00     0.074 A 
ATOM     42  C   UNL     1       1.425   6.005 -10.391  1.00  0.00     0.031 C 
ATOM     43  C   UNL     1       6.519   8.363  -7.033  1.00  0.00     0.029 A 
ATOM     44  C   UNL     1       6.551   8.334  -8.486  1.00  0.00     0.049 A 
ATOM     45  H   UNL     1       5.542   6.991  -9.731  1.00  0.00     0.167 HD
ATOM     46  C   UNL     1       2.746   5.093 -12.363  1.00  0.00     0.031 A 
ATOM     47  C   UNL     1       7.227   9.126  -9.351  1.00  0.00     0.031 A 
ATOM     48  C   UNL     1       3.929   4.311 -12.586  1.00  0.00     0.049 A 
ATOM     49  C   UNL     1       7.249   8.461 -10.672  1.00  0.00     0.074 A 
ATOM     50  C   UNL     1       4.356   3.053 -12.211  1.00  0.00     0.029 A 
ATOM     51  N   UNL     1       5.043   4.962 -13.056  1.00  0.00    -0.354 N 
ATOM     52  N   UNL     1       7.941   7.391 -10.933  1.00  0.00    -0.248 NA
ATOM     53  C   UNL     1       6.218   8.787 -11.644  1.00  0.00     0.031 C 
ATOM     54  C   UNL     1       5.767   3.173 -12.044  1.00  0.00     0.029 A 
ATOM     55  C   UNL     1       6.115   4.492 -12.343  1.00  0.00     0.049 A 
ATOM     56  H   UNL     1       5.066   5.639 -13.770  1.00  0.00     0.167 HD
ATOM     57  C   UNL     1       7.171   6.684 -11.844  1.00  0.00     0.074 A 
ATOM     58  C   UNL     1       6.203   7.652 -12.348  1.00  0.00     0.031 C 
ATOM     59  C   UNL     1       7.212   5.320 -11.892  1.00  0.00     0.031 A 
BRANCH  46  60
ATOM     60  C   UNL     1       2.053   5.822 -13.481  1.00  0.00    -0.014 A 
ATOM     61  C   UNL     1       2.213   5.362 -14.801  1.00  0.00     0.009 A 
ATOM     62  C   UNL     1       1.481   7.097 -13.314  1.00  0.00     0.009 A 
ATOM     63  C   UNL     1       1.867   6.163 -15.896  1.00  0.00     0.001 A 
ATOM     64  C   UNL     1       1.096   7.881 -14.405  1.00  0.00     0.001 A 
ATOM     65  C   UNL     1       1.313   7.424 -15.697  1.00  0.00     0.000 A 
ENDBRANCH  46  60
BRANCH  47  66
ATOM     66  C   UNL     1       7.676  10.518  -9.162  1.00  0.00    -0.014 A 
ATOM     67  C   UNL     1       8.673  11.069  -9.981  1.00  0.00     0.009 A 
ATOM     68  C   UNL     1       6.942  11.391  -8.339  1.00  0.00     0.009 A 
ATOM     69  C   UNL     1       8.903  12.450  -9.998  1.00  0.00     0.001 A 
ATOM     70  C   UNL     1       7.176  12.768  -8.351  1.00  0.00     0.001 A 
ATOM     71  C   UNL     1       8.146  13.300  -9.193  1.00  0.00     0.000 A 
ENDBRANCH  47  66
BRANCH  59  72
ATOM     72  C   UNL     1       8.320   4.624 -11.140  1.00  0.00    -0.014 A 
ATOM     73  C   UNL     1       8.494   4.758  -9.751  1.00  0.00     0.009 A 
ATOM     74  C   UNL     1       9.129   3.706 -11.826  1.00  0.00     0.009 A 
ATOM     75  C   UNL     1       9.479   4.029  -9.078  1.00  0.00     0.001 A 
ATOM     76  C   UNL     1      10.096   2.959 -11.149  1.00  0.00     0.001 A 
ATOM     77  C   UNL     1      10.277   3.128  -9.778  1.00  0.00     0.000 A 
ENDBRANCH  59  72
ENDBRANCH  33  34
ENDBRANCH  26  28
ENDBRANCH  25  26
ENDBRANCH  24  25
ENDBRANCH   1  24
TORSDOF 14
