REMARK SMILES O=C(OCCOC(=O)c1cccc(S(=O)(=O)Nc2ccccc2N2CCOCC2)c1)c1ccc(-c2c3nc(c(-c4ccccc4)c4ccc([nH]4)c(-c4ccccc4)c4nc(c(-c5ccccc5)c5ccc2[nH]5)C=C4)C=C3)cc1
REMARK SMILES IDX 5 1 4 2 3 3 2 4 1 5 31 6 32 7 78 8 33 9 77 10 34 11 35 12
REMARK SMILES IDX 36 13 71 14 37 15 76 16 70 17 72 18 38 19 75 20 69 21 68 22
REMARK SMILES IDX 39 24 61 25 46 26 60 27 47 28 50 29 59 30 73 31 48 32 49 33
REMARK SMILES IDX 58 35 74 36 51 37 40 38 41 39 45 40 42 41 44 42 43 43 62 44
REMARK SMILES IDX 63 45 67 46 64 47 66 48 65 49 52 50 53 51 57 52 54 53 56 54
REMARK SMILES IDX 55 55 6 56 7 57 8 58 9 59 10 60 30 61 11 62 13 63 12 64
REMARK SMILES IDX 14 65 15 66 16 67 17 68 18 70 19 71 23 72 20 73 22 74 21 75
REMARK SMILES IDX 24 76 25 77 29 78 26 79 28 80 27 81
REMARK H PARENT 72 23 50 34 17 69
REMARK Flexibility Score: inf
ROOT
ATOM      1  C   UNL     1       3.847   0.976   1.346  1.00  0.00     0.275 C 
ENDROOT
BRANCH   1   2
ATOM      2  C   UNL     1       4.298   1.377  -0.057  1.00  0.00     0.275 C 
BRANCH   2   3
ATOM      3  O   UNL     1       3.426   0.955  -1.124  1.00  0.00    -0.458 OA
BRANCH   3   4
ATOM      4  C   UNL     1       3.436  -0.205  -1.822  1.00  0.00     0.338 C 
ATOM      5  O   UNL     1       2.737  -0.327  -2.825  1.00  0.00    -0.246 OA
BRANCH   4   6
ATOM      6  C   UNL     1       4.154  -1.414  -1.334  1.00  0.00     0.060 A 
ATOM      7  C   UNL     1       5.486  -1.438  -0.914  1.00  0.00     0.016 A 
ATOM      8  C   UNL     1       3.439  -2.620  -1.369  1.00  0.00     0.016 A 
ATOM      9  C   UNL     1       6.071  -2.629  -0.463  1.00  0.00     0.010 A 
ATOM     10  C   UNL     1       4.013  -3.807  -0.906  1.00  0.00     0.010 A 
ATOM     11  C   UNL     1       5.343  -3.823  -0.461  1.00  0.00    -0.014 A 
BRANCH  11  12
ATOM     12  C   UNL     1       6.002  -5.126  -0.202  1.00  0.00     0.031 A 
ATOM     13  C   UNL     1       6.293  -6.026  -1.366  1.00  0.00     0.074 A 
ATOM     14  C   UNL     1       6.364  -5.532   1.029  1.00  0.00     0.049 A 
ATOM     15  N   UNL     1       6.852  -7.208  -1.366  1.00  0.00    -0.248 NA
ATOM     16  C   UNL     1       5.961  -5.510  -2.705  1.00  0.00     0.031 C 
ATOM     17  C   UNL     1       6.259  -4.753   2.258  1.00  0.00     0.029 A 
ATOM     18  N   UNL     1       6.845  -6.754   1.446  1.00  0.00    -0.354 N 
ATOM     19  C   UNL     1       7.048  -7.519  -2.700  1.00  0.00     0.074 A 
ATOM     20  C   UNL     1       6.411  -6.482  -3.482  1.00  0.00     0.031 C 
ATOM     21  C   UNL     1       6.543  -5.560   3.296  1.00  0.00     0.029 A 
ATOM     22  C   UNL     1       6.789  -6.905   2.809  1.00  0.00     0.049 A 
ATOM     23  H   UNL     1       7.192  -7.442   0.834  1.00  0.00     0.167 HD
ATOM     24  C   UNL     1       7.787  -8.521  -3.226  1.00  0.00     0.031 A 
ATOM     25  C   UNL     1       6.849  -8.009   3.578  1.00  0.00     0.031 A 
ATOM     26  C   UNL     1       8.376  -9.582  -2.461  1.00  0.00     0.049 A 
ATOM     27  C   UNL     1       7.282  -9.298   2.958  1.00  0.00     0.074 A 
ATOM     28  C   UNL     1       9.207 -10.604  -2.882  1.00  0.00     0.029 A 
ATOM     29  N   UNL     1       8.152  -9.779  -1.108  1.00  0.00    -0.354 N 
ATOM     30  N   UNL     1       7.579  -9.540   1.708  1.00  0.00    -0.248 NA
ATOM     31  C   UNL     1       7.490 -10.434   3.866  1.00  0.00     0.031 C 
ATOM     32  C   UNL     1       9.449 -11.448  -1.788  1.00  0.00     0.029 A 
ATOM     33  C   UNL     1       8.795 -10.929  -0.683  1.00  0.00     0.049 A 
ATOM     34  H   UNL     1       7.614  -9.187  -0.533  1.00  0.00     0.167 HD
ATOM     35  C   UNL     1       8.128 -10.811   1.696  1.00  0.00     0.074 A 
ATOM     36  C   UNL     1       8.041 -11.323   3.049  1.00  0.00     0.031 C 
ATOM     37  C   UNL     1       8.726 -11.446   0.660  1.00  0.00     0.031 A 
BRANCH  24  38
ATOM     38  C   UNL     1       8.037  -8.433  -4.699  1.00  0.00    -0.014 A 
ATOM     39  C   UNL     1       8.912  -7.449  -5.197  1.00  0.00     0.009 A 
ATOM     40  C   UNL     1       7.361  -9.267  -5.595  1.00  0.00     0.009 A 
ATOM     41  C   UNL     1       9.065  -7.271  -6.571  1.00  0.00     0.001 A 
ATOM     42  C   UNL     1       7.532  -9.098  -6.970  1.00  0.00     0.001 A 
ATOM     43  C   UNL     1       8.372  -8.094  -7.456  1.00  0.00     0.000 A 
ENDBRANCH  24  38
BRANCH  25  44
ATOM     44  C   UNL     1       6.446  -7.961   5.006  1.00  0.00    -0.014 A 
ATOM     45  C   UNL     1       7.382  -7.798   6.034  1.00  0.00     0.009 A 
ATOM     46  C   UNL     1       5.091  -8.125   5.340  1.00  0.00     0.009 A 
ATOM     47  C   UNL     1       6.967  -7.810   7.370  1.00  0.00     0.001 A 
ATOM     48  C   UNL     1       4.677  -8.119   6.673  1.00  0.00     0.001 A 
ATOM     49  C   UNL     1       5.617  -7.967   7.688  1.00  0.00     0.000 A 
ENDBRANCH  25  44
BRANCH  37  50
ATOM     50  C   UNL     1       9.466 -12.707   0.979  1.00  0.00    -0.014 A 
ATOM     51  C   UNL     1       8.806 -13.921   1.209  1.00  0.00     0.009 A 
ATOM     52  C   UNL     1      10.869 -12.665   1.049  1.00  0.00     0.009 A 
ATOM     53  C   UNL     1       9.539 -15.066   1.526  1.00  0.00     0.001 A 
ATOM     54  C   UNL     1      11.599 -13.815   1.342  1.00  0.00     0.001 A 
ATOM     55  C   UNL     1      10.933 -15.014   1.587  1.00  0.00     0.000 A 
ENDBRANCH  37  50
ENDBRANCH  11  12
ENDBRANCH   4   6
ENDBRANCH   3   4
ENDBRANCH   2   3
ENDBRANCH   1   2
BRANCH   1  56
ATOM     56  O   UNL     1       3.504  -0.412   1.443  1.00  0.00    -0.458 OA
BRANCH  56  57
ATOM     57  C   UNL     1       2.175  -0.661   1.339  1.00  0.00     0.338 C 
ATOM     58  O   UNL     1       1.293   0.169   1.197  1.00  0.00    -0.246 OA
BRANCH  57  59
ATOM     59  C   UNL     1       1.887  -2.113   1.390  1.00  0.00     0.061 A 
ATOM     60  C   UNL     1       0.742  -2.563   0.719  1.00  0.00     0.016 A 
ATOM     61  C   UNL     1       2.645  -2.992   2.175  1.00  0.00     0.038 A 
ATOM     62  C   UNL     1       0.344  -3.889   0.835  1.00  0.00     0.002 A 
ATOM     63  C   UNL     1       2.145  -4.266   2.427  1.00  0.00     0.088 A 
ATOM     64  C   UNL     1       1.026  -4.729   1.712  1.00  0.00     0.022 A 
BRANCH  63  65
ATOM     65  S   UNL     1       2.699  -5.333   3.739  1.00  0.00     0.261 S 
ATOM     66  O   UNL     1       1.517  -5.794   4.439  1.00  0.00    -0.201 OA
ATOM     67  O   UNL     1       3.524  -6.324   3.080  1.00  0.00    -0.201 OA
BRANCH  65  68
ATOM     68  N   UNL     1       3.704  -4.607   4.884  1.00  0.00    -0.278 N 
ATOM     69  H   UNL     1       4.221  -5.201   5.475  1.00  0.00     0.180 HD
BRANCH  68  70
ATOM     70  C   UNL     1       3.865  -3.194   5.063  1.00  0.00     0.072 A 
ATOM     71  C   UNL     1       5.183  -2.712   5.063  1.00  0.00     0.029 A 
ATOM     72  C   UNL     1       2.783  -2.293   5.176  1.00  0.00     0.061 A 
ATOM     73  C   UNL     1       5.449  -1.348   5.005  1.00  0.00     0.002 A 
ATOM     74  C   UNL     1       3.076  -0.919   5.099  1.00  0.00     0.028 A 
ATOM     75  C   UNL     1       4.391  -0.452   4.991  1.00  0.00     0.002 A 
BRANCH  72  76
ATOM     76  N   UNL     1       1.482  -2.756   5.340  1.00  0.00    -0.365 N 
ATOM     77  C   UNL     1       1.195  -3.334   6.670  1.00  0.00     0.145 C 
ATOM     78  C   UNL     1       0.333  -2.051   4.757  1.00  0.00     0.145 C 
ATOM     79  C   UNL     1      -0.114  -4.144   6.652  1.00  0.00     0.181 C 
ATOM     80  C   UNL     1      -0.858  -3.017   4.721  1.00  0.00     0.181 C 
ATOM     81  O   UNL     1      -1.206  -3.421   6.056  1.00  0.00    -0.378 OA
ENDBRANCH  72  76
ENDBRANCH  68  70
ENDBRANCH  65  68
ENDBRANCH  63  65
ENDBRANCH  57  59
ENDBRANCH  56  57
ENDBRANCH   1  56
TORSDOF 15
