REMARK SMILES CCc1ccc(S(=O)(=O)c2nnn(-c3ccc(C(=O)OCCOC(=O)c4ccc(-c5c6nc(c(-c7ccccc7)c7ccc([nH]7)c(-c7ccccc7)c7nc(c(-c8ccccc8)c8ccc5[nH]8)C=C7)C=C6)cc4)cc3)c2C)cc1
REMARK SMILES IDX 21 1 20 2 18 3 19 4 17 5 14 6 15 7 75 8 16 9 74 10 13 11
REMARK SMILES IDX 10 12 11 13 76 14 12 15 77 16 7 17 8 18 9 19 6 20 3 21 4 22
REMARK SMILES IDX 79 23 5 24 78 25 2 26 1 27 22 28 23 29 24 30 25 31 26 32
REMARK SMILES IDX 27 33 73 34 28 35 72 36 29 37 30 38 31 39 66 40 32 41 71 42
REMARK SMILES IDX 65 43 67 44 33 45 70 46 64 47 63 48 34 50 56 51 41 52 55 53
REMARK SMILES IDX 42 54 45 55 54 56 68 57 43 58 44 59 53 61 69 62 46 63 35 64
REMARK SMILES IDX 36 65 40 66 37 67 39 68 38 69 57 70 58 71 62 72 59 73 61 74
REMARK SMILES IDX 60 75 47 76 48 77 52 78 49 79 51 80 50 81
REMARK H PARENT 67 49 45 60
REMARK Flexibility Score: inf
ROOT
ATOM      1  C   UNL     1       0.675  12.871   6.261  1.00  0.00     0.275 C 
ENDROOT
BRANCH   1   2
ATOM      2  O   UNL     1       0.785  12.119   5.042  1.00  0.00    -0.458 OA
BRANCH   2   3
ATOM      3  C   UNL     1      -0.292  11.371   4.691  1.00  0.00     0.338 C 
ATOM      4  O   UNL     1      -1.271  11.136   5.384  1.00  0.00    -0.246 OA
BRANCH   3   5
ATOM      5  C   UNL     1      -0.170  10.933   3.277  1.00  0.00     0.060 A 
ATOM      6  C   UNL     1       0.066   9.853   0.729  1.00  0.00     0.067 A 
ATOM      7  C   UNL     1      -1.200   9.933   1.314  1.00  0.00     0.029 A 
ATOM      8  C   UNL     1       1.178  10.443   1.341  1.00  0.00     0.029 A 
ATOM      9  C   UNL     1      -1.309  10.454   2.607  1.00  0.00     0.018 A 
ATOM     10  C   UNL     1       1.059  10.987   2.613  1.00  0.00     0.018 A 
BRANCH   6  11
ATOM     11  N   UNL     1       0.266   9.039  -0.404  1.00  0.00    -0.216 N 
ATOM     12  C   UNL     1       0.995   7.555  -1.817  1.00  0.00     0.205 A 
ATOM     13  N   UNL     1      -0.163   8.095  -2.308  1.00  0.00    -0.117 NA
ATOM     14  C   UNL     1       1.255   8.081  -0.564  1.00  0.00     0.081 A 
ATOM     15  N   UNL     1      -0.642   8.935  -1.399  1.00  0.00    -0.061 NA
ATOM     16  C   UNL     1       2.194   7.653   0.506  1.00  0.00     0.070 C 
BRANCH  12  17
ATOM     17  S   UNL     1       1.812   6.243  -2.590  1.00  0.00     0.227 S 
ATOM     18  O   UNL     1       3.218   6.523  -2.361  1.00  0.00    -0.217 OA
ATOM     19  O   UNL     1       1.246   6.135  -3.917  1.00  0.00    -0.217 OA
BRANCH  17  20
ATOM     20  C   UNL     1       1.402   4.770  -1.692  1.00  0.00     0.073 A 
ATOM     21  C   UNL     1       0.865   2.408  -0.269  1.00  0.00    -0.048 A 
ATOM     22  C   UNL     1       1.943   2.473  -1.164  1.00  0.00     0.005 A 
ATOM     23  C   UNL     1       0.082   3.557  -0.077  1.00  0.00     0.005 A 
ATOM     24  C   UNL     1       2.214   3.647  -1.872  1.00  0.00     0.021 A 
ATOM     25  C   UNL     1       0.334   4.729  -0.792  1.00  0.00     0.021 A 
BRANCH  21  26
ATOM     26  C   UNL     1       0.531   1.169   0.532  1.00  0.00     0.032 C 
ATOM     27  C   UNL     1       0.978  -0.157  -0.070  1.00  0.00     0.009 C 
ENDBRANCH  21  26
ENDBRANCH  17  20
ENDBRANCH  12  17
ENDBRANCH   6  11
ENDBRANCH   3   5
ENDBRANCH   2   3
ENDBRANCH   1   2
BRANCH   1  28
ATOM     28  C   UNL     1       0.061  14.240   6.001  1.00  0.00     0.275 C 
BRANCH  28  29
ATOM     29  O   UNL     1      -1.320  14.117   5.669  1.00  0.00    -0.458 OA
BRANCH  29  30
ATOM     30  C   UNL     1      -1.590  14.029   4.348  1.00  0.00     0.338 C 
ATOM     31  O   UNL     1      -0.792  13.909   3.433  1.00  0.00    -0.246 OA
BRANCH  30  32
ATOM     32  C   UNL     1      -3.012  14.300   4.132  1.00  0.00     0.060 A 
ATOM     33  C   UNL     1      -3.505  14.141   2.832  1.00  0.00     0.016 A 
ATOM     34  C   UNL     1      -3.707  15.019   5.112  1.00  0.00     0.016 A 
ATOM     35  C   UNL     1      -4.594  14.893   2.450  1.00  0.00     0.010 A 
ATOM     36  C   UNL     1      -4.775  15.786   4.725  1.00  0.00     0.010 A 
ATOM     37  C   UNL     1      -5.142  15.778   3.380  1.00  0.00    -0.014 A 
BRANCH  37  38
ATOM     38  C   UNL     1      -6.122  16.739   2.928  1.00  0.00     0.031 A 
ATOM     39  C   UNL     1      -7.490  16.200   2.777  1.00  0.00     0.074 A 
ATOM     40  C   UNL     1      -5.811  18.046   2.847  1.00  0.00     0.049 A 
ATOM     41  N   UNL     1      -8.250  16.225   1.734  1.00  0.00    -0.248 NA
ATOM     42  C   UNL     1      -8.042  15.440   3.912  1.00  0.00     0.031 C 
ATOM     43  C   UNL     1      -4.577  18.708   3.291  1.00  0.00     0.029 A 
ATOM     44  N   UNL     1      -6.606  19.085   2.488  1.00  0.00    -0.354 N 
ATOM     45  C   UNL     1      -9.437  15.612   2.119  1.00  0.00     0.074 A 
ATOM     46  C   UNL     1      -9.201  15.022   3.411  1.00  0.00     0.031 C 
ATOM     47  C   UNL     1      -4.807  20.035   3.406  1.00  0.00     0.029 A 
ATOM     48  C   UNL     1      -6.149  20.319   2.926  1.00  0.00     0.049 A 
ATOM     49  H   UNL     1      -7.432  18.973   1.964  1.00  0.00     0.167 HD
ATOM     50  C   UNL     1     -10.604  15.807   1.450  1.00  0.00     0.031 A 
ATOM     51  C   UNL     1      -6.865  21.467   2.976  1.00  0.00     0.031 A 
ATOM     52  C   UNL     1     -10.391  16.350   0.138  1.00  0.00     0.049 A 
ATOM     53  C   UNL     1      -8.063  21.293   2.120  1.00  0.00     0.074 A 
ATOM     54  C   UNL     1      -9.764  15.898  -1.005  1.00  0.00     0.029 A 
ATOM     55  N   UNL     1     -10.537  17.708  -0.017  1.00  0.00    -0.354 N 
ATOM     56  N   UNL     1      -8.012  21.186   0.823  1.00  0.00    -0.248 NA
ATOM     57  C   UNL     1      -9.282  20.788   2.736  1.00  0.00     0.031 C 
ATOM     58  C   UNL     1      -9.154  17.053  -1.573  1.00  0.00     0.029 A 
ATOM     59  C   UNL     1      -9.480  18.150  -0.772  1.00  0.00     0.049 A 
ATOM     60  H   UNL     1     -11.265  18.261   0.346  1.00  0.00     0.167 HD
ATOM     61  C   UNL     1      -8.970  20.234   0.504  1.00  0.00     0.074 A 
ATOM     62  C   UNL     1      -9.794  20.109   1.704  1.00  0.00     0.031 C 
ATOM     63  C   UNL     1      -8.831  19.432  -0.593  1.00  0.00     0.031 A 
BRANCH  50  64
ATOM     64  C   UNL     1     -11.942  15.840   2.135  1.00  0.00    -0.014 A 
ATOM     65  C   UNL     1     -13.104  15.944   1.353  1.00  0.00     0.009 A 
ATOM     66  C   UNL     1     -12.090  16.037   3.523  1.00  0.00     0.009 A 
ATOM     67  C   UNL     1     -14.337  16.279   1.928  1.00  0.00     0.001 A 
ATOM     68  C   UNL     1     -13.325  16.326   4.105  1.00  0.00     0.001 A 
ATOM     69  C   UNL     1     -14.445  16.473   3.302  1.00  0.00     0.000 A 
ENDBRANCH  50  64
BRANCH  51  70
ATOM     70  C   UNL     1      -6.729  22.571   3.949  1.00  0.00    -0.014 A 
ATOM     71  C   UNL     1      -7.212  23.855   3.662  1.00  0.00     0.009 A 
ATOM     72  C   UNL     1      -6.324  22.301   5.270  1.00  0.00     0.009 A 
ATOM     73  C   UNL     1      -7.303  24.827   4.668  1.00  0.00     0.001 A 
ATOM     74  C   UNL     1      -6.412  23.271   6.273  1.00  0.00     0.001 A 
ATOM     75  C   UNL     1      -6.912  24.532   5.974  1.00  0.00     0.000 A 
ENDBRANCH  51  70
BRANCH  63  76
ATOM     76  C   UNL     1      -7.711  19.751  -1.556  1.00  0.00    -0.014 A 
ATOM     77  C   UNL     1      -6.355  19.707  -1.183  1.00  0.00     0.009 A 
ATOM     78  C   UNL     1      -8.020  19.931  -2.912  1.00  0.00     0.009 A 
ATOM     79  C   UNL     1      -5.342  19.867  -2.134  1.00  0.00     0.001 A 
ATOM     80  C   UNL     1      -7.008  20.070  -3.865  1.00  0.00     0.001 A 
ATOM     81  C   UNL     1      -5.670  20.043  -3.475  1.00  0.00     0.000 A 
ENDBRANCH  63  76
ENDBRANCH  37  38
ENDBRANCH  30  32
ENDBRANCH  29  30
ENDBRANCH  28  29
ENDBRANCH   1  28
TORSDOF 15
