REMARK SMILES CCCn1cc(Br)cc1C(=O)NC[C@H]1CC[C@@H](C(=O)OCCOC(=O)c2ccc(-c3c4nc(c(-c5ccccc5)c5ccc([nH]5)c(-c5ccccc5)c5nc(c(-c6ccccc6)c6ccc3[nH]6)C=C5)C=C4)cc2)O1
REMARK SMILES IDX 20 1 18 2 19 3 17 4 14 5 15 6 74 7 16 8 13 9 12 10 10 11
REMARK SMILES IDX 11 12 9 14 4 15 5 16 6 17 8 18 7 19 3 20 2 21 1 22 21 23
REMARK SMILES IDX 22 24 23 25 24 26 25 27 26 28 27 29 73 30 28 31 72 32 29 33
REMARK SMILES IDX 30 34 31 35 66 36 32 37 71 38 65 39 67 40 33 41 70 42 64 43
REMARK SMILES IDX 63 44 34 46 56 47 41 48 55 49 42 50 45 51 54 52 68 53 43 54
REMARK SMILES IDX 44 55 53 57 69 58 46 59 35 60 36 61 40 62 37 63 39 64 38 65
REMARK SMILES IDX 57 66 58 67 62 68 59 69 61 70 60 71 47 72 48 73 52 74 49 75
REMARK SMILES IDX 51 76 50 77
REMARK H PARENT 12 13 67 45 45 56
REMARK Flexibility Score: inf
ROOT
ATOM      1  O   UNL     1      -0.637   4.756  -3.581  1.00  0.00    -0.460 OA
ENDROOT
BRANCH   1   2
ATOM      2  C   UNL     1      -1.026   3.453  -3.487  1.00  0.00     0.335 C 
ATOM      3  O   UNL     1      -2.186   3.062  -3.544  1.00  0.00    -0.249 OA
BRANCH   2   4
ATOM      4  C   UNL     1       0.188   2.536  -3.355  1.00  0.00     0.228 C 
ATOM      5  C   UNL     1       0.138   0.785  -1.816  1.00  0.00     0.138 C 
ATOM      6  C   UNL     1       0.532   0.189  -3.161  1.00  0.00     0.037 C 
ATOM      7  O   UNL     1       0.366   2.191  -1.968  1.00  0.00    -0.361 OA
ATOM      8  C   UNL     1       0.028   1.229  -4.136  1.00  0.00     0.047 C 
BRANCH   5   9
ATOM      9  C   UNL     1      -1.343   0.492  -1.540  1.00  0.00     0.148 C 
BRANCH   9  10
ATOM     10  N   UNL     1      -1.869   0.892  -0.271  1.00  0.00    -0.348 N 
ATOM     11  C   UNL     1      -3.134   1.289   0.069  1.00  0.00     0.268 C 
ATOM     12  O   UNL     1      -3.366   1.259   1.282  1.00  0.00    -0.268 OA
ATOM     13  H   UNL     1      -1.222   0.879   0.472  1.00  0.00     0.163 HD
BRANCH  11  14
ATOM     14  C   UNL     1      -4.101   1.865  -0.863  1.00  0.00     0.108 A 
ATOM     15  N   UNL     1      -4.543   1.591  -2.156  1.00  0.00    -0.342 N 
ATOM     16  C   UNL     1      -5.392   2.626  -2.561  1.00  0.00     0.102 A 
ATOM     17  C   UNL     1      -5.656   3.419  -1.489  1.00  0.00     0.036 A 
ATOM     18  C   UNL     1      -4.891   2.942  -0.427  1.00  0.00     0.049 A 
ATOM     19  Br  UNL     1      -6.805   4.890  -1.419  1.00  0.00    -0.049 Br
BRANCH  15  20
ATOM     20  C   UNL     1      -4.367   0.517  -3.121  1.00  0.00     0.122 C 
BRANCH  20  21
ATOM     21  C   UNL     1      -3.893  -0.906  -2.833  1.00  0.00     0.018 C 
ATOM     22  C   UNL     1      -4.354  -1.553  -1.545  1.00  0.00     0.006 C 
ENDBRANCH  20  21
ENDBRANCH  15  20
ENDBRANCH  11  14
ENDBRANCH   9  10
ENDBRANCH   5   9
ENDBRANCH   2   4
ENDBRANCH   1   2
BRANCH   1  23
ATOM     23  C   UNL     1      -1.683   5.690  -3.889  1.00  0.00     0.274 C 
BRANCH  23  24
ATOM     24  C   UNL     1      -1.857   5.834  -5.395  1.00  0.00     0.275 C 
BRANCH  24  25
ATOM     25  O   UNL     1      -2.571   4.736  -5.967  1.00  0.00    -0.458 OA
BRANCH  25  26
ATOM     26  C   UNL     1      -1.802   3.735  -6.452  1.00  0.00     0.338 C 
ATOM     27  O   UNL     1      -0.635   3.499  -6.191  1.00  0.00    -0.246 OA
BRANCH  26  28
ATOM     28  C   UNL     1      -2.512   3.070  -7.552  1.00  0.00     0.060 A 
ATOM     29  C   UNL     1      -1.926   1.922  -8.094  1.00  0.00     0.016 A 
ATOM     30  C   UNL     1      -3.566   3.732  -8.198  1.00  0.00     0.016 A 
ATOM     31  C   UNL     1      -2.300   1.524  -9.363  1.00  0.00     0.010 A 
ATOM     32  C   UNL     1      -3.932   3.338  -9.466  1.00  0.00     0.010 A 
ATOM     33  C   UNL     1      -3.248   2.281 -10.062  1.00  0.00    -0.014 A 
BRANCH  33  34
ATOM     34  C   UNL     1      -3.548   1.894 -11.427  1.00  0.00     0.031 A 
ATOM     35  C   UNL     1      -4.279   0.614 -11.560  1.00  0.00     0.074 A 
ATOM     36  C   UNL     1      -3.301   2.685 -12.486  1.00  0.00     0.049 A 
ATOM     37  N   UNL     1      -3.899  -0.460 -12.169  1.00  0.00    -0.248 NA
ATOM     38  C   UNL     1      -5.555   0.486 -10.839  1.00  0.00     0.031 C 
ATOM     39  C   UNL     1      -2.877   4.087 -12.495  1.00  0.00     0.029 A 
ATOM     40  N   UNL     1      -3.505   2.411 -13.803  1.00  0.00    -0.354 N 
ATOM     41  C   UNL     1      -4.953  -1.357 -12.046  1.00  0.00     0.074 A 
ATOM     42  C   UNL     1      -5.887  -0.773 -11.117  1.00  0.00     0.031 C 
ATOM     43  C   UNL     1      -3.086   4.601 -13.729  1.00  0.00     0.029 A 
ATOM     44  C   UNL     1      -3.523   3.534 -14.614  1.00  0.00     0.049 A 
ATOM     45  H   UNL     1      -3.629   1.498 -14.149  1.00  0.00     0.167 HD
ATOM     46  C   UNL     1      -5.088  -2.428 -12.874  1.00  0.00     0.031 A 
ATOM     47  C   UNL     1      -3.944   3.587 -15.900  1.00  0.00     0.031 A 
ATOM     48  C   UNL     1      -3.866  -2.743 -13.562  1.00  0.00     0.049 A 
ATOM     49  C   UNL     1      -3.948   2.207 -16.439  1.00  0.00     0.074 A 
ATOM     50  C   UNL     1      -2.595  -3.110 -13.168  1.00  0.00     0.029 A 
ATOM     51  N   UNL     1      -3.754  -2.352 -14.874  1.00  0.00    -0.354 N 
ATOM     52  N   UNL     1      -2.868   1.521 -16.674  1.00  0.00    -0.248 NA
ATOM     53  C   UNL     1      -5.171   1.426 -16.335  1.00  0.00     0.031 C 
ATOM     54  C   UNL     1      -1.722  -2.472 -14.097  1.00  0.00     0.029 A 
ATOM     55  C   UNL     1      -2.514  -1.789 -15.022  1.00  0.00     0.049 A 
ATOM     56  H   UNL     1      -4.437  -2.457 -15.576  1.00  0.00     0.167 HD
ATOM     57  C   UNL     1      -3.191   0.218 -16.324  1.00  0.00     0.074 A 
ATOM     58  C   UNL     1      -4.649   0.200 -16.236  1.00  0.00     0.031 C 
ATOM     59  C   UNL     1      -2.238  -0.646 -15.863  1.00  0.00     0.031 A 
BRANCH  46  60
ATOM     60  C   UNL     1      -6.425  -2.942 -13.337  1.00  0.00    -0.014 A 
ATOM     61  C   UNL     1      -6.470  -4.098 -14.135  1.00  0.00     0.009 A 
ATOM     62  C   UNL     1      -7.607  -2.180 -13.257  1.00  0.00     0.009 A 
ATOM     63  C   UNL     1      -7.616  -4.433 -14.866  1.00  0.00     0.001 A 
ATOM     64  C   UNL     1      -8.766  -2.535 -13.949  1.00  0.00     0.001 A 
ATOM     65  C   UNL     1      -8.761  -3.647 -14.778  1.00  0.00     0.000 A 
ENDBRANCH  46  60
BRANCH  47  66
ATOM     66  C   UNL     1      -4.594   4.711 -16.603  1.00  0.00    -0.014 A 
ATOM     67  C   UNL     1      -4.654   4.744 -18.004  1.00  0.00     0.009 A 
ATOM     68  C   UNL     1      -5.386   5.630 -15.889  1.00  0.00     0.009 A 
ATOM     69  C   UNL     1      -5.503   5.643 -18.664  1.00  0.00     0.001 A 
ATOM     70  C   UNL     1      -6.229   6.530 -16.548  1.00  0.00     0.001 A 
ATOM     71  C   UNL     1      -6.298   6.525 -17.936  1.00  0.00     0.000 A 
ENDBRANCH  47  66
BRANCH  59  72
ATOM     72  C   UNL     1      -0.792  -0.230 -15.976  1.00  0.00    -0.014 A 
ATOM     73  C   UNL     1      -0.281   0.921 -15.349  1.00  0.00     0.009 A 
ATOM     74  C   UNL     1       0.111  -1.106 -16.596  1.00  0.00     0.009 A 
ATOM     75  C   UNL     1       1.088   1.202 -15.373  1.00  0.00     0.001 A 
ATOM     76  C   UNL     1       1.482  -0.836 -16.600  1.00  0.00     0.001 A 
ATOM     77  C   UNL     1       1.969   0.320 -15.994  1.00  0.00     0.000 A 
ENDBRANCH  59  72
ENDBRANCH  33  34
ENDBRANCH  26  28
ENDBRANCH  25  26
ENDBRANCH  24  25
ENDBRANCH  23  24
ENDBRANCH   1  23
TORSDOF 16
