REMARK SMILES O=C(OCCOC(=O)c1nccnc1C(=O)Nc1n[nH]c2ncccc12)c1ccc(-c2c3nc(c(-c4ccccc4)c4ccc([nH]4)c(-c4ccccc4)c4nc(c(-c5ccccc5)c5ccc2[nH]5)C=C4)C=C3)cc1
REMARK SMILES IDX 4 1 3 2 2 3 1 4 27 5 28 6 74 7 29 8 73 9 30 10 31 11 32 12
REMARK SMILES IDX 67 13 33 14 72 15 66 16 68 17 34 18 71 19 65 20 64 21 35 23
REMARK SMILES IDX 57 24 42 25 56 26 43 27 46 28 55 29 69 30 44 31 45 32 54 34
REMARK SMILES IDX 70 35 47 36 36 37 37 38 41 39 38 40 40 41 39 42 58 43 59 44
REMARK SMILES IDX 63 45 60 46 62 47 61 48 48 49 49 50 53 51 50 52 52 53 51 54
REMARK SMILES IDX 5 55 6 56 7 57 8 58 9 59 10 60 14 61 11 62 13 63 12 64 15 65
REMARK SMILES IDX 16 66 17 67 18 69 19 70 26 71 20 72 21 73 25 74 22 76 24 77
REMARK SMILES IDX 23 78
REMARK H PARENT 68 22 46 33 17 68 20 75
REMARK Flexibility Score: inf
ROOT
ATOM      1  C   UNL     1       4.787  -0.043  -1.081  1.00  0.00     0.275 C 
ENDROOT
BRANCH   1   2
ATOM      2  O   UNL     1       3.500  -0.806  -0.741  1.00  0.00    -0.458 OA
BRANCH   2   3
ATOM      3  C   UNL     1       3.214  -2.165  -0.578  1.00  0.00     0.338 C 
ATOM      4  O   UNL     1       2.892  -2.900  -1.497  1.00  0.00    -0.246 OA
BRANCH   3   5
ATOM      5  C   UNL     1       3.104  -2.623   0.880  1.00  0.00     0.060 A 
ATOM      6  C   UNL     1       3.061  -1.636   1.800  1.00  0.00     0.016 A 
ATOM      7  C   UNL     1       3.050  -3.867   1.482  1.00  0.00     0.016 A 
ATOM      8  C   UNL     1       3.762  -1.736   2.992  1.00  0.00     0.010 A 
ATOM      9  C   UNL     1       3.408  -3.999   2.877  1.00  0.00     0.010 A 
ATOM     10  C   UNL     1       4.033  -2.936   3.571  1.00  0.00    -0.014 A 
BRANCH  10  11
ATOM     11  C   UNL     1       5.093  -3.026   4.672  1.00  0.00     0.031 A 
ATOM     12  C   UNL     1       6.014  -4.222   4.621  1.00  0.00     0.074 A 
ATOM     13  C   UNL     1       5.478  -2.054   5.557  1.00  0.00     0.049 A 
ATOM     14  N   UNL     1       6.797  -4.725   5.538  1.00  0.00    -0.248 NA
ATOM     15  C   UNL     1       6.072  -4.938   3.337  1.00  0.00     0.031 C 
ATOM     16  C   UNL     1       5.031  -0.666   5.597  1.00  0.00     0.029 A 
ATOM     17  N   UNL     1       6.401  -2.061   6.597  1.00  0.00    -0.354 N 
ATOM     18  C   UNL     1       7.343  -5.867   4.966  1.00  0.00     0.074 A 
ATOM     19  C   UNL     1       6.779  -6.006   3.648  1.00  0.00     0.031 C 
ATOM     20  C   UNL     1       5.641   0.032   6.560  1.00  0.00     0.029 A 
ATOM     21  C   UNL     1       6.481  -0.869   7.304  1.00  0.00     0.049 A 
ATOM     22  H   UNL     1       6.953  -2.847   6.814  1.00  0.00     0.167 HD
ATOM     23  C   UNL     1       8.260  -6.719   5.473  1.00  0.00     0.031 A 
ATOM     24  C   UNL     1       7.111  -0.510   8.442  1.00  0.00     0.031 A 
ATOM     25  C   UNL     1       8.902  -6.534   6.738  1.00  0.00     0.049 A 
ATOM     26  C   UNL     1       7.968  -1.538   9.105  1.00  0.00     0.074 A 
ATOM     27  C   UNL     1       9.737  -7.396   7.420  1.00  0.00     0.029 A 
ATOM     28  N   UNL     1       8.811  -5.373   7.491  1.00  0.00    -0.354 N 
ATOM     29  N   UNL     1       8.288  -2.730   8.667  1.00  0.00    -0.248 NA
ATOM     30  C   UNL     1       8.553  -1.187  10.405  1.00  0.00     0.031 C 
ATOM     31  C   UNL     1      10.119  -6.772   8.612  1.00  0.00     0.029 A 
ATOM     32  C   UNL     1       9.568  -5.500   8.640  1.00  0.00     0.049 A 
ATOM     33  H   UNL     1       8.286  -4.577   7.244  1.00  0.00     0.167 HD
ATOM     34  C   UNL     1       9.137  -3.262   9.621  1.00  0.00     0.074 A 
ATOM     35  C   UNL     1       9.301  -2.253  10.649  1.00  0.00     0.031 C 
ATOM     36  C   UNL     1       9.724  -4.481   9.642  1.00  0.00     0.031 A 
BRANCH  23  37
ATOM     37  C   UNL     1       8.510  -7.963   4.672  1.00  0.00    -0.014 A 
ATOM     38  C   UNL     1       9.220  -7.943   3.460  1.00  0.00     0.009 A 
ATOM     39  C   UNL     1       7.905  -9.159   5.089  1.00  0.00     0.009 A 
ATOM     40  C   UNL     1       9.264  -9.083   2.653  1.00  0.00     0.001 A 
ATOM     41  C   UNL     1       7.981 -10.304   4.298  1.00  0.00     0.001 A 
ATOM     42  C   UNL     1       8.645 -10.261   3.073  1.00  0.00     0.000 A 
ENDBRANCH  23  37
BRANCH  24  43
ATOM     43  C   UNL     1       6.896   0.832   9.081  1.00  0.00    -0.014 A 
ATOM     44  C   UNL     1       7.957   1.727   9.298  1.00  0.00     0.009 A 
ATOM     45  C   UNL     1       5.622   1.193   9.557  1.00  0.00     0.009 A 
ATOM     46  C   UNL     1       7.758   2.918  10.010  1.00  0.00     0.001 A 
ATOM     47  C   UNL     1       5.417   2.400  10.236  1.00  0.00     0.001 A 
ATOM     48  C   UNL     1       6.489   3.253  10.478  1.00  0.00     0.000 A 
ENDBRANCH  24  43
BRANCH  36  49
ATOM     49  C   UNL     1      10.633  -4.767  10.795  1.00  0.00    -0.014 A 
ATOM     50  C   UNL     1      10.126  -4.988  12.083  1.00  0.00     0.009 A 
ATOM     51  C   UNL     1      12.015  -4.850  10.573  1.00  0.00     0.009 A 
ATOM     52  C   UNL     1      10.994  -5.259  13.139  1.00  0.00     0.001 A 
ATOM     53  C   UNL     1      12.877  -5.154  11.624  1.00  0.00     0.001 A 
ATOM     54  C   UNL     1      12.367  -5.349  12.906  1.00  0.00     0.000 A 
ENDBRANCH  36  49
ENDBRANCH  10  11
ENDBRANCH   3   5
ENDBRANCH   2   3
ENDBRANCH   1   2
BRANCH   1  55
ATOM     55  C   UNL     1       5.185   1.644  -0.387  1.00  0.00     0.275 C 
BRANCH  55  56
ATOM     56  O   UNL     1       4.292   2.556   1.224  1.00  0.00    -0.457 OA
BRANCH  56  57
ATOM     57  C   UNL     1       3.242   2.742   2.253  1.00  0.00     0.359 C 
ATOM     58  O   UNL     1       2.950   3.902   2.563  1.00  0.00    -0.244 OA
BRANCH  57  59
ATOM     59  C   UNL     1       2.480   1.650   3.072  1.00  0.00     0.179 A 
ATOM     60  N   UNL     1       2.905   1.738   4.389  1.00  0.00    -0.245 NA
ATOM     61  C   UNL     1       1.403   0.780   2.780  1.00  0.00     0.161 A 
ATOM     62  C   UNL     1       2.293   0.980   5.340  1.00  0.00     0.132 A 
ATOM     63  N   UNL     1       0.905  -0.054   3.778  1.00  0.00    -0.247 NA
ATOM     64  C   UNL     1       1.344   0.052   5.032  1.00  0.00     0.132 A 
BRANCH  61  65
ATOM     65  C   UNL     1       0.582   0.412   1.543  1.00  0.00     0.278 C 
ATOM     66  O   UNL     1      -0.460  -0.243   1.692  1.00  0.00    -0.267 OA
ATOM     67  N   UNL     1       0.861   0.696   0.245  1.00  0.00    -0.303 N 
ATOM     68  H   UNL     1       0.250   0.305  -0.421  1.00  0.00     0.172 HD
BRANCH  67  69
ATOM     69  C   UNL     1       1.865   1.441  -0.247  1.00  0.00     0.164 A 
ATOM     70  N   UNL     1       1.518   2.373  -1.145  1.00  0.00    -0.155 NA
ATOM     71  C   UNL     1       3.197   1.470   0.184  1.00  0.00     0.063 A 
ATOM     72  N   UNL     1       2.416   3.382  -1.083  1.00  0.00    -0.259 N 
ATOM     73  C   UNL     1       3.551   3.069  -0.424  1.00  0.00     0.157 A 
ATOM     74  C   UNL     1       4.493   0.706   1.291  1.00  0.00     0.017 A 
ATOM     75  H   UNL     1       2.256   4.268  -1.483  1.00  0.00     0.192 HD
ATOM     76  N   UNL     1       4.947   3.939  -0.066  1.00  0.00    -0.237 NA
ATOM     77  C   UNL     1       5.941   1.630   1.718  1.00  0.00     0.021 A 
ATOM     78  C   UNL     1       6.074   3.193   1.010  1.00  0.00     0.113 A 
ENDBRANCH  67  69
ENDBRANCH  61  65
ENDBRANCH  57  59
ENDBRANCH  56  57
ENDBRANCH  55  56
ENDBRANCH   1  55
TORSDOF 13
