REMARK SMILES COc1cc2c(c(OC)c1)[C@H](C)C[C@H](CC(=O)OCCOC(=O)c1ccc(-c3c4nc(c(-c5ccccc5)c5ccc([nH]5)c(-c5ccccc5)c5nc(c(-c6ccccc6)c6ccc3[nH]6)C=C5)C=C4)cc1)C2
REMARK SMILES IDX 19 1 18 2 16 3 17 4 15 5 14 6 3 7 4 8 10 9 5 10 7 11 6 12
REMARK SMILES IDX 72 13 11 14 12 15 13 16 2 17 1 18 8 19 9 20 20 21 21 22
REMARK SMILES IDX 22 23 23 24 24 25 25 26 71 27 26 28 70 29 27 30 28 31 29 32
REMARK SMILES IDX 64 33 30 34 69 35 63 36 65 37 31 38 68 39 62 40 61 41 32 43
REMARK SMILES IDX 54 44 39 45 53 46 40 47 43 48 52 49 66 50 41 51 42 52 51 54
REMARK SMILES IDX 67 55 44 56 33 57 34 58 38 59 35 60 37 61 36 62 55 63 56 64
REMARK SMILES IDX 60 65 57 66 59 67 58 68 45 69 46 70 50 71 47 72 49 73 48 74
REMARK H PARENT 65 42 43 53
REMARK Flexibility Score: inf
ROOT
ATOM      1  C   UNL     1       0.739  -2.256  11.373  1.00  0.00     0.274 C 
ENDROOT
BRANCH   1   2
ATOM      2  O   UNL     1       0.337  -2.346   9.992  1.00  0.00    -0.462 OA
BRANCH   2   3
ATOM      3  C   UNL     1      -0.939  -1.998   9.699  1.00  0.00     0.306 C 
ATOM      4  O   UNL     1      -1.776  -1.649  10.523  1.00  0.00    -0.252 OA
BRANCH   3   5
ATOM      5  C   UNL     1      -1.266  -2.141   8.227  1.00  0.00     0.126 C 
BRANCH   5   6
ATOM      6  C   UNL     1      -0.114  -1.845   7.250  1.00  0.00     0.005 C 
ATOM      7  C   UNL     1       0.981  -0.340   2.651  1.00  0.00     0.122 A 
ATOM      8  C   UNL     1       0.068  -0.503   3.689  1.00  0.00     0.050 A 
ATOM      9  C   UNL     1       2.253  -0.881   2.778  1.00  0.00     0.093 A 
ATOM     10  C   UNL     1       0.386  -1.269   4.827  1.00  0.00    -0.037 A 
ATOM     11  C   UNL     1       2.590  -1.625   3.916  1.00  0.00     0.126 A 
ATOM     12  C   UNL     1       1.643  -1.902   4.925  1.00  0.00     0.000 A 
ATOM     13  C   UNL     1      -0.678  -1.425   5.886  1.00  0.00     0.040 C 
ATOM     14  C   UNL     1       1.959  -2.811   6.105  1.00  0.00     0.020 C 
ATOM     15  C   UNL     1       2.498  -4.189   5.688  1.00  0.00     0.013 C 
ATOM     16  C   UNL     1       0.758  -3.081   7.034  1.00  0.00     0.012 C 
BRANCH   7  17
ATOM     17  O   UNL     1       0.543   0.396   1.584  1.00  0.00    -0.497 OA
ATOM     18  C   UNL     1       1.098   0.018   0.328  1.00  0.00     0.278 C 
ENDBRANCH   7  17
BRANCH  11  19
ATOM     19  O   UNL     1       3.875  -2.106   3.927  1.00  0.00    -0.496 OA
ATOM     20  C   UNL     1       4.676  -1.505   4.946  1.00  0.00     0.278 C 
ENDBRANCH  11  19
ENDBRANCH   5   6
ENDBRANCH   3   5
ENDBRANCH   2   3
ENDBRANCH   1   2
BRANCH   1  21
ATOM     21  C   UNL     1       1.562  -0.993  11.625  1.00  0.00     0.275 C 
BRANCH  21  22
ATOM     22  O   UNL     1       0.734   0.182  11.556  1.00  0.00    -0.458 OA
BRANCH  22  23
ATOM     23  C   UNL     1       0.725   0.815  10.362  1.00  0.00     0.338 C 
ATOM     24  O   UNL     1       1.393   0.555   9.374  1.00  0.00    -0.246 OA
BRANCH  23  25
ATOM     25  C   UNL     1      -0.341   1.826  10.366  1.00  0.00     0.060 A 
ATOM     26  C   UNL     1      -1.429   1.646   9.508  1.00  0.00     0.016 A 
ATOM     27  C   UNL     1      -0.247   2.962  11.171  1.00  0.00     0.016 A 
ATOM     28  C   UNL     1      -2.439   2.602   9.455  1.00  0.00     0.010 A 
ATOM     29  C   UNL     1      -1.258   3.924  11.113  1.00  0.00     0.010 A 
ATOM     30  C   UNL     1      -2.356   3.752  10.251  1.00  0.00    -0.014 A 
BRANCH  30  31
ATOM     31  C   UNL     1      -3.396   4.801  10.148  1.00  0.00     0.031 A 
ATOM     32  C   UNL     1      -3.104   6.068   9.398  1.00  0.00     0.074 A 
ATOM     33  C   UNL     1      -4.595   4.616  10.729  1.00  0.00     0.049 A 
ATOM     34  N   UNL     1      -3.847   7.136   9.263  1.00  0.00    -0.248 NA
ATOM     35  C   UNL     1      -1.804   6.144   8.714  1.00  0.00     0.031 C 
ATOM     36  C   UNL     1      -5.008   3.415  11.456  1.00  0.00     0.029 A 
ATOM     37  N   UNL     1      -5.683   5.448  10.807  1.00  0.00    -0.354 N 
ATOM     38  C   UNL     1      -3.098   8.020   8.498  1.00  0.00     0.074 A 
ATOM     39  C   UNL     1      -1.839   7.369   8.207  1.00  0.00     0.031 C 
ATOM     40  C   UNL     1      -6.258   3.591  11.914  1.00  0.00     0.029 A 
ATOM     41  C   UNL     1      -6.717   4.928  11.547  1.00  0.00     0.049 A 
ATOM     42  H   UNL     1      -5.719   6.331  10.375  1.00  0.00     0.167 HD
ATOM     43  C   UNL     1      -3.431   9.264   8.078  1.00  0.00     0.031 A 
ATOM     44  C   UNL     1      -7.889   5.480  11.911  1.00  0.00     0.031 A 
ATOM     45  C   UNL     1      -4.684   9.909   8.363  1.00  0.00     0.049 A 
ATOM     46  C   UNL     1      -8.214   6.880  11.469  1.00  0.00     0.074 A 
ATOM     47  C   UNL     1      -5.122  11.158   7.959  1.00  0.00     0.029 A 
ATOM     48  N   UNL     1      -5.700   9.354   9.125  1.00  0.00    -0.354 N 
ATOM     49  N   UNL     1      -7.505   7.699  10.731  1.00  0.00    -0.248 NA
ATOM     50  C   UNL     1      -9.504   7.431  11.910  1.00  0.00     0.031 C 
ATOM     51  C   UNL     1      -6.387  11.378   8.514  1.00  0.00     0.029 A 
ATOM     52  C   UNL     1      -6.755  10.246   9.224  1.00  0.00     0.049 A 
ATOM     53  H   UNL     1      -5.676   8.460   9.535  1.00  0.00     0.167 HD
ATOM     54  C   UNL     1      -8.269   8.851  10.602  1.00  0.00     0.074 A 
ATOM     55  C   UNL     1      -9.503   8.620  11.325  1.00  0.00     0.031 C 
ATOM     56  C   UNL     1      -7.975   9.999   9.945  1.00  0.00     0.031 A 
BRANCH  43  57
ATOM     57  C   UNL     1      -2.404  10.027   7.293  1.00  0.00    -0.014 A 
ATOM     58  C   UNL     1      -2.133   9.717   5.952  1.00  0.00     0.009 A 
ATOM     59  C   UNL     1      -1.732  11.103   7.894  1.00  0.00     0.009 A 
ATOM     60  C   UNL     1      -1.189  10.457   5.235  1.00  0.00     0.001 A 
ATOM     61  C   UNL     1      -0.806  11.854   7.169  1.00  0.00     0.001 A 
ATOM     62  C   UNL     1      -0.530  11.526   5.842  1.00  0.00     0.000 A 
ENDBRANCH  43  57
BRANCH  44  63
ATOM     63  C   UNL     1      -8.832   4.721  12.772  1.00  0.00    -0.014 A 
ATOM     64  C   UNL     1     -10.045   4.240  12.257  1.00  0.00     0.009 A 
ATOM     65  C   UNL     1      -8.528   4.490  14.123  1.00  0.00     0.009 A 
ATOM     66  C   UNL     1     -10.944   3.563  13.084  1.00  0.00     0.001 A 
ATOM     67  C   UNL     1      -9.417   3.791  14.941  1.00  0.00     0.001 A 
ATOM     68  C   UNL     1     -10.629   3.336  14.423  1.00  0.00     0.000 A 
ENDBRANCH  44  63
BRANCH  56  69
ATOM     69  C   UNL     1      -9.018  11.078   9.952  1.00  0.00    -0.014 A 
ATOM     70  C   UNL     1      -9.248  11.858  11.095  1.00  0.00     0.009 A 
ATOM     71  C   UNL     1      -9.751  11.344   8.784  1.00  0.00     0.009 A 
ATOM     72  C   UNL     1     -10.215  12.866  11.077  1.00  0.00     0.001 A 
ATOM     73  C   UNL     1     -10.699  12.367   8.762  1.00  0.00     0.001 A 
ATOM     74  C   UNL     1     -10.935  13.122   9.910  1.00  0.00     0.000 A 
ENDBRANCH  56  69
ENDBRANCH  30  31
ENDBRANCH  23  25
ENDBRANCH  22  23
ENDBRANCH  21  22
ENDBRANCH   1  21
TORSDOF 14
