REMARK SMILES CCOc1ccccc1[C@H]1CC(C(=O)OCCOC(=O)c2ccc(-c3c4nc(c(-c5ccccc5)c5ccc([nH]5)c(-c5ccccc5)c5nc(c(-c6ccccc6)c6ccc3[nH]6)C=C5)C=C4)cc2)=Nc2c(C(=O)Nc3ccccc3)cnn21
REMARK SMILES IDX 16 1 15 2 13 3 14 4 12 5 10 6 11 7 83 8 70 9 82 10 69 11
REMARK SMILES IDX 71 12 81 13 9 14 4 15 5 16 6 17 8 18 7 19 3 20 2 21 1 22
REMARK SMILES IDX 72 23 73 24 74 25 75 27 76 28 80 29 77 30 79 31 78 32 17 33
REMARK SMILES IDX 18 34 19 35 20 36 21 37 22 38 68 39 23 40 67 41 24 42 25 43
REMARK SMILES IDX 26 44 61 45 27 46 66 47 60 48 62 49 28 50 65 51 59 52 58 53
REMARK SMILES IDX 29 55 51 56 36 57 50 58 37 59 40 60 49 61 63 62 38 63 39 64
REMARK SMILES IDX 48 66 64 67 41 68 30 69 31 70 35 71 32 72 34 73 33 74 52 75
REMARK SMILES IDX 53 76 57 77 54 78 56 79 55 80 42 81 43 82 47 83 44 84 46 85
REMARK SMILES IDX 45 86
REMARK H PARENT 74 26 62 54 40 65
REMARK Flexibility Score: inf
ROOT
ATOM      1  C   UNL     1      -1.130   4.450  -1.006  1.00  0.00     0.275 C 
ENDROOT
BRANCH   1   2
ATOM      2  O   UNL     1      -0.188   3.369  -0.790  1.00  0.00    -0.458 OA
BRANCH   2   3
ATOM      3  C   UNL     1      -0.136   2.843   0.467  1.00  0.00     0.352 C 
ATOM      4  O   UNL     1      -0.734   3.237   1.449  1.00  0.00    -0.245 OA
BRANCH   3   5
ATOM      5  C   UNL     1       0.817   1.621   0.487  1.00  0.00     0.130 C 
ATOM      6  C   UNL     1       3.377   0.938   0.234  1.00  0.00     0.150 C 
ATOM      7  C   UNL     1       2.232   1.960   0.079  1.00  0.00     0.096 C 
ATOM      8  N   UNL     1       2.909  -0.372   0.629  1.00  0.00    -0.239 N 
ATOM      9  C   UNL     1       1.089  -0.651   0.555  1.00  0.00     0.164 A 
ATOM     10  N   UNL     1       3.819  -1.998   0.536  1.00  0.00    -0.178 NA
ATOM     11  N   UNL     1       0.305   0.446   0.730  1.00  0.00    -0.225 NA
ATOM     12  C   UNL     1       0.842  -2.409   0.304  1.00  0.00     0.104 A 
ATOM     13  C   UNL     1       2.615  -3.230   0.353  1.00  0.00     0.151 A 
BRANCH   6  14
ATOM     14  C   UNL     1       4.120   0.892  -1.077  1.00  0.00     0.019 A 
ATOM     15  C   UNL     1       4.163  -0.241  -1.887  1.00  0.00     0.124 A 
ATOM     16  C   UNL     1       4.843  -0.190  -3.110  1.00  0.00     0.047 A 
ATOM     17  C   UNL     1       5.433   0.994  -3.558  1.00  0.00     0.004 A 
ATOM     18  C   UNL     1       4.746   2.077  -1.529  1.00  0.00     0.010 A 
ATOM     19  C   UNL     1       5.378   2.134  -2.767  1.00  0.00     0.001 A 
BRANCH  15  20
ATOM     20  O   UNL     1       3.655  -1.466  -1.562  1.00  0.00    -0.494 OA
BRANCH  20  21
ATOM     21  C   UNL     1       2.369  -1.612  -0.665  1.00  0.00     0.226 C 
ATOM     22  C   UNL     1       2.243  -1.838   1.591  1.00  0.00     0.049 C 
ENDBRANCH  20  21
ENDBRANCH  15  20
ENDBRANCH   6  14
BRANCH  12  23
ATOM     23  C   UNL     1      -0.347  -3.270   0.183  1.00  0.00     0.261 C 
ATOM     24  O   UNL     1      -0.230  -4.487   0.324  1.00  0.00    -0.269 OA
ATOM     25  N   UNL     1      -1.611  -2.764  -0.015  1.00  0.00    -0.322 N 
ATOM     26  H   UNL     1      -2.357  -3.373   0.190  1.00  0.00     0.170 HD
BRANCH  25  27
ATOM     27  C   UNL     1      -1.962  -1.501  -0.467  1.00  0.00     0.041 A 
ATOM     28  C   UNL     1      -3.059  -0.864   0.116  1.00  0.00     0.026 A 
ATOM     29  C   UNL     1      -1.185  -0.858  -1.415  1.00  0.00     0.026 A 
ATOM     30  C   UNL     1      -3.272   0.485  -0.122  1.00  0.00     0.002 A 
ATOM     31  C   UNL     1      -1.348   0.501  -1.582  1.00  0.00     0.002 A 
ATOM     32  C   UNL     1      -2.397   1.163  -0.949  1.00  0.00     0.000 A 
ENDBRANCH  25  27
ENDBRANCH  12  23
ENDBRANCH   3   5
ENDBRANCH   2   3
ENDBRANCH   1   2
BRANCH   1  33
ATOM     33  C   UNL     1      -1.522   4.596  -2.491  1.00  0.00     0.275 C 
BRANCH  33  34
ATOM     34  O   UNL     1      -2.361   3.531  -2.973  1.00  0.00    -0.458 OA
BRANCH  34  35
ATOM     35  C   UNL     1      -1.732   2.641  -3.773  1.00  0.00     0.338 C 
ATOM     36  O   UNL     1      -0.544   2.632  -4.058  1.00  0.00    -0.246 OA
BRANCH  35  37
ATOM     37  C   UNL     1      -2.650   1.613  -4.287  1.00  0.00     0.060 A 
ATOM     38  C   UNL     1      -2.099   0.349  -4.550  1.00  0.00     0.016 A 
ATOM     39  C   UNL     1      -3.930   1.954  -4.722  1.00  0.00     0.016 A 
ATOM     40  C   UNL     1      -2.681  -0.454  -5.488  1.00  0.00     0.010 A 
ATOM     41  C   UNL     1      -4.548   1.114  -5.618  1.00  0.00     0.010 A 
ATOM     42  C   UNL     1      -3.817   0.036  -6.112  1.00  0.00    -0.014 A 
BRANCH  42  43
ATOM     43  C   UNL     1      -4.244  -0.637  -7.313  1.00  0.00     0.031 A 
ATOM     44  C   UNL     1      -4.833  -1.955  -6.985  1.00  0.00     0.074 A 
ATOM     45  C   UNL     1      -4.090  -0.023  -8.506  1.00  0.00     0.049 A 
ATOM     46  N   UNL     1      -4.348  -3.119  -7.260  1.00  0.00    -0.248 NA
ATOM     47  C   UNL     1      -5.928  -1.986  -5.994  1.00  0.00     0.031 C 
ATOM     48  C   UNL     1      -3.607   1.335  -8.802  1.00  0.00     0.029 A 
ATOM     49  N   UNL     1      -4.463  -0.460  -9.735  1.00  0.00    -0.354 N 
ATOM     50  C   UNL     1      -5.238  -4.026  -6.695  1.00  0.00     0.074 A 
ATOM     51  C   UNL     1      -6.016  -3.290  -5.738  1.00  0.00     0.031 C 
ATOM     52  C   UNL     1      -3.998   1.695 -10.049  1.00  0.00     0.029 A 
ATOM     53  C   UNL     1      -4.624   0.553 -10.684  1.00  0.00     0.049 A 
ATOM     54  H   UNL     1      -4.608  -1.411  -9.941  1.00  0.00     0.167 HD
ATOM     55  C   UNL     1      -5.516  -5.198  -7.328  1.00  0.00     0.031 A 
ATOM     56  C   UNL     1      -5.357   0.426 -11.825  1.00  0.00     0.031 A 
ATOM     57  C   UNL     1      -4.471  -5.538  -8.260  1.00  0.00     0.049 A 
ATOM     58  C   UNL     1      -5.480  -1.042 -12.076  1.00  0.00     0.074 A 
ATOM     59  C   UNL     1      -3.124  -5.812  -8.133  1.00  0.00     0.029 A 
ATOM     60  N   UNL     1      -4.669  -5.160  -9.568  1.00  0.00    -0.354 N 
ATOM     61  N   UNL     1      -4.440  -1.784 -12.354  1.00  0.00    -0.248 NA
ATOM     62  C   UNL     1      -6.590  -1.732 -11.425  1.00  0.00     0.031 C 
ATOM     63  C   UNL     1      -2.511  -5.117  -9.216  1.00  0.00     0.029 A 
ATOM     64  C   UNL     1      -3.514  -4.573 -10.020  1.00  0.00     0.049 A 
ATOM     65  H   UNL     1      -5.495  -5.287 -10.088  1.00  0.00     0.167 HD
ATOM     66  C   UNL     1      -4.572  -2.898 -11.535  1.00  0.00     0.074 A 
ATOM     67  C   UNL     1      -5.936  -2.820 -10.999  1.00  0.00     0.031 C 
ATOM     68  C   UNL     1      -3.484  -3.593 -11.084  1.00  0.00     0.031 A 
BRANCH  55  69
ATOM     69  C   UNL     1      -6.931  -5.702  -7.485  1.00  0.00    -0.014 A 
ATOM     70  C   UNL     1      -7.137  -6.891  -8.202  1.00  0.00     0.009 A 
ATOM     71  C   UNL     1      -8.073  -4.915  -7.227  1.00  0.00     0.009 A 
ATOM     72  C   UNL     1      -8.401  -7.227  -8.703  1.00  0.00     0.001 A 
ATOM     73  C   UNL     1      -9.340  -5.263  -7.696  1.00  0.00     0.001 A 
ATOM     74  C   UNL     1      -9.499  -6.407  -8.460  1.00  0.00     0.000 A 
ENDBRANCH  55  69
BRANCH  56  75
ATOM     75  C   UNL     1      -6.317   1.424 -12.372  1.00  0.00    -0.014 A 
ATOM     76  C   UNL     1      -6.849   1.321 -13.670  1.00  0.00     0.009 A 
ATOM     77  C   UNL     1      -6.918   2.361 -11.508  1.00  0.00     0.009 A 
ATOM     78  C   UNL     1      -7.940   2.114 -14.072  1.00  0.00     0.001 A 
ATOM     79  C   UNL     1      -8.005   3.147 -11.906  1.00  0.00     0.001 A 
ATOM     80  C   UNL     1      -8.524   3.018 -13.187  1.00  0.00     0.000 A 
ENDBRANCH  56  75
BRANCH  68  81
ATOM     81  C   UNL     1      -2.114  -3.214 -11.599  1.00  0.00    -0.014 A 
ATOM     82  C   UNL     1      -1.473  -1.986 -11.339  1.00  0.00     0.009 A 
ATOM     83  C   UNL     1      -1.370  -4.226 -12.217  1.00  0.00     0.009 A 
ATOM     84  C   UNL     1      -0.139  -1.779 -11.720  1.00  0.00     0.001 A 
ATOM     85  C   UNL     1      -0.037  -4.028 -12.578  1.00  0.00     0.001 A 
ATOM     86  C   UNL     1       0.577  -2.802 -12.339  1.00  0.00     0.000 A 
ENDBRANCH  68  81
ENDBRANCH  42  43
ENDBRANCH  35  37
ENDBRANCH  34  35
ENDBRANCH  33  34
ENDBRANCH   1  33
TORSDOF 16
