REMARK SMILES O=C(OCCOC(=O)c1ccc(-c2c3nc(c(-c4ccccc4)c4ccc([nH]4)c(-c4ccccc4)c4nc(c(-c5ccccc5)c5ccc2[nH]5)C=C4)C=C3)cc1)C1=Cc2cc(S(F)(F)(F)(F)F)ccc2O[C@H]1C(F)(F)F
REMARK SMILES IDX 5 1 4 2 3 3 2 4 1 5 57 6 58 7 72 8 59 9 71 10 60 11 70 12
REMARK SMILES IDX 61 13 69 14 68 15 73 16 74 17 75 18 76 19 62 20 63 21 64 22
REMARK SMILES IDX 65 23 66 24 67 25 6 26 7 27 8 28 9 29 10 30 56 31 11 32
REMARK SMILES IDX 55 33 12 34 13 35 14 36 49 37 15 38 54 39 48 40 50 41 16 42
REMARK SMILES IDX 53 43 47 44 46 45 17 47 39 48 24 49 38 50 25 51 28 52 37 53
REMARK SMILES IDX 51 54 26 55 27 56 36 58 52 59 29 60 18 61 19 62 23 63 20 64
REMARK SMILES IDX 22 65 21 66 40 67 41 68 45 69 42 70 44 71 43 72 30 73 31 74
REMARK SMILES IDX 35 75 32 76 34 77 33 78
REMARK H PARENT 50 46 28 57
REMARK Flexibility Score: inf
ROOT
ATOM      1  C   UNL     1       5.000  -0.876  -1.059  1.00  0.00     0.275 C 
ENDROOT
BRANCH   1   2
ATOM      2  C   UNL     1       4.494  -1.216   0.333  1.00  0.00     0.275 C 
BRANCH   2   3
ATOM      3  O   UNL     1       3.074  -1.216   0.333  1.00  0.00    -0.459 OA
BRANCH   3   4
ATOM      4  C   UNL     1       2.364  -0.035  -0.012  1.00  0.00     0.338 C 
ATOM      5  O   UNL     1       1.093  -0.035  -0.012  1.00  0.00    -0.246 OA
BRANCH   4   6
ATOM      6  C   UNL     1       3.124   1.228  -0.381  1.00  0.00     0.087 C 
ATOM      7  C   UNL     1       4.484   1.228  -0.381  1.00  0.00     0.027 C 
ATOM      8  C   UNL     1       2.364   2.492  -0.750  1.00  0.00     0.316 C 
ATOM      9  C   UNL     1       5.244  -0.035  -0.012  1.00  0.00     0.019 A 
ATOM     10  O   UNL     1       3.672  -1.330  -1.236  1.00  0.00    -0.475 OA
ATOM     11  C   UNL     1       6.336   0.087   0.832  1.00  0.00     0.036 A 
ATOM     12  C   UNL     1       4.886  -1.213  -0.508  1.00  0.00     0.128 A 
ATOM     13  C   UNL     1       7.167  -1.058   0.863  1.00  0.00     0.107 A 
ATOM     14  C   UNL     1       5.678  -2.321  -0.323  1.00  0.00     0.048 A 
ATOM     15  C   UNL     1       6.804  -2.258   0.450  1.00  0.00     0.028 A 
BRANCH   8  16
ATOM     16  C   UNL     1       0.869   2.225  -0.672  1.00  0.00     0.430 C 
ATOM     17  F   UNL     1       0.332   3.160  -1.451  1.00  0.00    -0.167 F 
ATOM     18  F   UNL     1       0.510   1.022  -1.110  1.00  0.00    -0.167 F 
ATOM     19  F   UNL     1       0.441   2.389   0.577  1.00  0.00    -0.167 F 
ENDBRANCH   8  16
BRANCH  13  20
ATOM     20  S   UNL     1       8.844  -0.864   1.515  1.00  0.00     0.310 S 
ATOM     21  F   UNL     1       8.328  -0.892   3.015  1.00  0.00    -0.094 F 
ATOM     22  F   UNL     1       8.622   0.696   1.540  1.00  0.00    -0.094 F 
ATOM     23  F   UNL     1      10.284  -0.696   2.078  1.00  0.00    -0.094 F 
ATOM     24  F   UNL     1       8.997  -2.432   1.615  1.00  0.00    -0.094 F 
ATOM     25  F   UNL     1       7.345  -1.054   1.051  1.00  0.00    -0.094 F 
ENDBRANCH  13  20
ENDBRANCH   4   6
ENDBRANCH   3   4
ENDBRANCH   2   3
ENDBRANCH   1   2
BRANCH   1  26
ATOM     26  O   UNL     1       4.527   0.409  -1.434  1.00  0.00    -0.458 OA
BRANCH  26  27
ATOM     27  C   UNL     1       3.131   0.658  -1.507  1.00  0.00     0.338 C 
ATOM     28  O   UNL     1       2.305  -0.269  -1.236  1.00  0.00    -0.246 OA
BRANCH  27  29
ATOM     29  C   UNL     1       2.624   2.034  -1.909  1.00  0.00     0.060 A 
ATOM     30  C   UNL     1       1.611   2.571  -1.132  1.00  0.00     0.016 A 
ATOM     31  C   UNL     1       3.138   2.706  -2.933  1.00  0.00     0.016 A 
ATOM     32  C   UNL     1       1.002   3.717  -1.697  1.00  0.00     0.010 A 
ATOM     33  C   UNL     1       2.574   3.889  -3.346  1.00  0.00     0.010 A 
ATOM     34  C   UNL     1       1.531   4.448  -2.661  1.00  0.00    -0.014 A 
BRANCH  34  35
ATOM     35  C   UNL     1       1.010   5.837  -2.990  1.00  0.00     0.031 A 
ATOM     36  C   UNL     1       0.509   6.118  -4.263  1.00  0.00     0.074 A 
ATOM     37  C   UNL     1       1.105   6.771  -1.973  1.00  0.00     0.049 A 
ATOM     38  N   UNL     1       0.018   7.276  -4.707  1.00  0.00    -0.248 NA
ATOM     39  C   UNL     1       0.438   5.136  -5.355  1.00  0.00     0.031 C 
ATOM     40  C   UNL     1       1.601   6.494  -0.684  1.00  0.00     0.029 A 
ATOM     41  N   UNL     1       0.752   8.102  -2.011  1.00  0.00    -0.354 N 
ATOM     42  C   UNL     1      -0.382   7.151  -5.974  1.00  0.00     0.074 A 
ATOM     43  C   UNL     1      -0.112   5.775  -6.411  1.00  0.00     0.031 C 
ATOM     44  C   UNL     1       1.558   7.643   0.040  1.00  0.00     0.029 A 
ATOM     45  C   UNL     1       1.034   8.658  -0.783  1.00  0.00     0.049 A 
ATOM     46  H   UNL     1       0.364   8.574  -2.783  1.00  0.00     0.167 HD
ATOM     47  C   UNL     1      -0.964   8.130  -6.781  1.00  0.00     0.031 A 
ATOM     48  C   UNL     1       0.854   9.973  -0.385  1.00  0.00     0.031 A 
ATOM     49  C   UNL     1      -1.184   9.435  -6.369  1.00  0.00     0.049 A 
ATOM     50  C   UNL     1       0.326  10.968  -1.212  1.00  0.00     0.074 A 
ATOM     51  C   UNL     1      -1.776  10.432  -7.167  1.00  0.00     0.029 A 
ATOM     52  N   UNL     1      -0.879   9.997  -5.149  1.00  0.00    -0.354 N 
ATOM     53  N   UNL     1      -0.111  10.833  -2.465  1.00  0.00    -0.248 NA
ATOM     54  C   UNL     1       0.160  12.371  -0.811  1.00  0.00     0.031 C 
ATOM     55  C   UNL     1      -1.819  11.582  -6.442  1.00  0.00     0.029 A 
ATOM     56  C   UNL     1      -1.253  11.322  -5.179  1.00  0.00     0.049 A 
ATOM     57  H   UNL     1      -0.464   9.532  -4.386  1.00  0.00     0.167 HD
ATOM     58  C   UNL     1      -0.563  12.002  -2.922  1.00  0.00     0.074 A 
ATOM     59  C   UNL     1      -0.388  13.010  -1.868  1.00  0.00     0.031 C 
ATOM     60  C   UNL     1      -1.118  12.268  -4.175  1.00  0.00     0.031 A 
BRANCH  47  61
ATOM     61  C   UNL     1      -1.379   7.744  -8.191  1.00  0.00    -0.014 A 
ATOM     62  C   UNL     1      -2.373   6.802  -8.395  1.00  0.00     0.009 A 
ATOM     63  C   UNL     1      -0.825   8.392  -9.210  1.00  0.00     0.009 A 
ATOM     64  C   UNL     1      -2.516   6.401  -9.744  1.00  0.00     0.001 A 
ATOM     65  C   UNL     1      -1.113   8.036 -10.505  1.00  0.00     0.001 A 
ATOM     66  C   UNL     1      -2.043   7.072 -10.779  1.00  0.00     0.000 A 
ENDBRANCH  47  61
BRANCH  48  67
ATOM     67  C   UNL     1       1.254  10.355   1.031  1.00  0.00    -0.014 A 
ATOM     68  C   UNL     1       0.324  10.944   1.872  1.00  0.00     0.009 A 
ATOM     69  C   UNL     1       2.517  10.193   1.406  1.00  0.00     0.009 A 
ATOM     70  C   UNL     1       0.895  11.597   2.990  1.00  0.00     0.001 A 
ATOM     71  C   UNL     1       2.974  10.743   2.579  1.00  0.00     0.001 A 
ATOM     72  C   UNL     1       2.123  11.392   3.430  1.00  0.00     0.000 A 
ENDBRANCH  48  67
BRANCH  60  73
ATOM     73  C   UNL     1      -1.602  13.681  -4.456  1.00  0.00    -0.014 A 
ATOM     74  C   UNL     1      -0.677  14.710  -4.392  1.00  0.00     0.009 A 
ATOM     75  C   UNL     1      -2.873  13.916  -4.760  1.00  0.00     0.009 A 
ATOM     76  C   UNL     1      -1.255  16.001  -4.383  1.00  0.00     0.001 A 
ATOM     77  C   UNL     1      -3.340  15.204  -4.869  1.00  0.00     0.001 A 
ATOM     78  C   UNL     1      -2.492  16.271  -4.758  1.00  0.00     0.000 A 
ENDBRANCH  60  73
ENDBRANCH  34  35
ENDBRANCH  27  29
ENDBRANCH  26  27
ENDBRANCH   1  26
TORSDOF 13
