REMARK SMILES CCCCCCNC(=O)Oc1cccc(-c2ccc([C@@H](C)C(=O)OCCOC(=O)c3ccc(-c4c5nc(c(-c6ccccc6)c6ccc([nH]6)c(-c6ccccc6)c6nc(c(-c7ccccc7)c7ccc4[nH]7)C=C6)C=C5)cc3)cc2Cl)c1
REMARK SMILES IDX 20 1 21 2 19 3 16 4 17 5 79 6 18 7 78 8 80 9 15 10 11 11
REMARK SMILES IDX 12 12 81 13 13 14 14 15 10 16 8 17 7 18 9 20 6 21 5 22 4 23
REMARK SMILES IDX 3 24 2 25 1 26 22 27 23 28 24 29 25 30 26 31 27 32 28 33
REMARK SMILES IDX 29 34 30 35 31 36 77 37 32 38 76 39 33 40 34 41 35 42 70 43
REMARK SMILES IDX 36 44 75 45 69 46 71 47 37 48 74 49 68 50 67 51 38 53 60 54
REMARK SMILES IDX 45 55 59 56 46 57 49 58 58 59 72 60 47 61 48 62 57 64 73 65
REMARK SMILES IDX 50 66 39 67 40 68 44 69 41 70 43 71 42 72 61 73 62 74 66 75
REMARK SMILES IDX 63 76 65 77 64 78 51 79 52 80 56 81 53 82 55 83 54 84
REMARK H PARENT 7 19 71 52 49 63
REMARK Flexibility Score: inf
ROOT
ATOM      1  C   UNL     1      -4.681 -11.634  -7.799  1.00  0.00     0.126 C 
ATOM      2  C   UNL     1      -5.869 -12.162  -8.599  1.00  0.00     0.025 C 
ENDROOT
BRANCH   1   3
ATOM      3  C   UNL     1      -4.749 -10.130  -7.577  1.00  0.00    -0.033 A 
ATOM      4  C   UNL     1      -4.887  -7.319  -7.093  1.00  0.00     0.000 A 
ATOM      5  C   UNL     1      -4.865  -7.844  -8.399  1.00  0.00     0.010 A 
ATOM      6  C   UNL     1      -4.838  -8.236  -6.029  1.00  0.00     0.049 A 
ATOM      7  C   UNL     1      -4.804  -9.222  -8.638  1.00  0.00     0.005 A 
ATOM      8  C   UNL     1      -4.772  -9.617  -6.270  1.00  0.00     0.025 A 
ATOM      9  Cl  UNL     1      -4.911  -7.741  -4.369  1.00  0.00    -0.084 Cl
BRANCH   4  10
ATOM     10  C   UNL     1      -4.996  -5.859  -6.911  1.00  0.00    -0.013 A 
ATOM     11  C   UNL     1      -4.159  -3.747  -6.061  1.00  0.00     0.133 A 
ATOM     12  C   UNL     1      -5.269  -3.071  -6.563  1.00  0.00     0.047 A 
ATOM     13  C   UNL     1      -4.015  -5.126  -6.225  1.00  0.00     0.056 A 
ATOM     14  C   UNL     1      -6.241  -3.782  -7.260  1.00  0.00     0.004 A 
ATOM     15  C   UNL     1      -6.106  -5.163  -7.429  1.00  0.00     0.009 A 
BRANCH  11  16
ATOM     16  O   UNL     1      -3.267  -3.003  -5.272  1.00  0.00    -0.410 OA
BRANCH  16  17
ATOM     17  C   UNL     1      -1.925  -3.022  -5.618  1.00  0.00     0.412 C 
ATOM     18  N   UNL     1      -1.140  -2.297  -4.762  1.00  0.00    -0.321 N 
ATOM     19  H   UNL     1      -0.175  -2.284  -4.957  1.00  0.00     0.167 HD
ATOM     20  O   UNL     1      -1.435  -3.594  -6.584  1.00  0.00    -0.224 OA
BRANCH  18  21
ATOM     21  C   UNL     1      -1.576  -1.548  -3.601  1.00  0.00     0.119 C 
BRANCH  21  22
ATOM     22  C   UNL     1      -0.969  -2.086  -2.305  1.00  0.00     0.021 C 
BRANCH  22  23
ATOM     23  C   UNL     1       0.561  -2.002  -2.222  1.00  0.00     0.002 C 
BRANCH  23  24
ATOM     24  C   UNL     1       1.159  -0.600  -2.379  1.00  0.00    -0.000 C 
BRANCH  24  25
ATOM     25  C   UNL     1       0.680   0.439  -1.363  1.00  0.00    -0.003 C 
ATOM     26  C   UNL     1       1.052   0.097   0.072  1.00  0.00     0.004 C 
ENDBRANCH  24  25
ENDBRANCH  23  24
ENDBRANCH  22  23
ENDBRANCH  21  22
ENDBRANCH  18  21
ENDBRANCH  16  17
ENDBRANCH  11  16
ENDBRANCH   4  10
ENDBRANCH   1   3
BRANCH   1  27
ATOM     27  C   UNL     1      -3.377 -12.165  -8.384  1.00  0.00     0.313 C 
ATOM     28  O   UNL     1      -2.935 -13.272  -8.088  1.00  0.00    -0.252 OA
BRANCH  27  29
ATOM     29  O   UNL     1      -2.798 -11.325  -9.280  1.00  0.00    -0.462 OA
BRANCH  29  30
ATOM     30  C   UNL     1      -1.539 -11.741  -9.844  1.00  0.00     0.274 C 
BRANCH  30  31
ATOM     31  C   UNL     1      -0.357 -11.059  -9.149  1.00  0.00     0.275 C 
BRANCH  31  32
ATOM     32  O   UNL     1      -0.181 -11.552  -7.807  1.00  0.00    -0.458 OA
BRANCH  32  33
ATOM     33  C   UNL     1      -0.781 -10.811  -6.848  1.00  0.00     0.338 C 
ATOM     34  O   UNL     1      -1.397  -9.770  -6.991  1.00  0.00    -0.246 OA
BRANCH  33  35
ATOM     35  C   UNL     1      -0.712 -11.515  -5.560  1.00  0.00     0.060 A 
ATOM     36  C   UNL     1      -1.916 -11.897  -4.965  1.00  0.00     0.016 A 
ATOM     37  C   UNL     1       0.501 -11.709  -4.898  1.00  0.00     0.016 A 
ATOM     38  C   UNL     1      -1.922 -12.451  -3.690  1.00  0.00     0.010 A 
ATOM     39  C   UNL     1       0.496 -12.276  -3.619  1.00  0.00     0.010 A 
ATOM     40  C   UNL     1      -0.717 -12.630  -3.001  1.00  0.00    -0.014 A 
BRANCH  40  41
ATOM     41  C   UNL     1      -0.749 -13.133  -1.608  1.00  0.00     0.031 A 
ATOM     42  C   UNL     1      -0.523 -12.187  -0.465  1.00  0.00     0.074 A 
ATOM     43  C   UNL     1      -1.023 -14.428  -1.370  1.00  0.00     0.049 A 
ATOM     44  N   UNL     1      -0.497 -12.435   0.820  1.00  0.00    -0.248 NA
ATOM     45  C   UNL     1      -0.292 -10.776  -0.813  1.00  0.00     0.031 C 
ATOM     46  C   UNL     1      -1.295 -15.436  -2.395  1.00  0.00     0.029 A 
ATOM     47  N   UNL     1      -1.120 -15.114  -0.187  1.00  0.00    -0.354 N 
ATOM     48  C   UNL     1      -0.230 -11.218   1.433  1.00  0.00     0.074 A 
ATOM     49  C   UNL     1      -0.082 -10.237   0.379  1.00  0.00     0.031 C 
ATOM     50  C   UNL     1      -1.532 -16.613  -1.794  1.00  0.00     0.029 A 
ATOM     51  C   UNL     1      -1.394 -16.448  -0.350  1.00  0.00     0.049 A 
ATOM     52  H   UNL     1      -1.004 -14.690   0.694  1.00  0.00     0.167 HD
ATOM     53  C   UNL     1      -0.120 -10.943   2.754  1.00  0.00     0.031 A 
ATOM     54  C   UNL     1      -1.503 -17.433   0.561  1.00  0.00     0.031 A 
ATOM     55  C   UNL     1      -0.269 -11.917   3.803  1.00  0.00     0.049 A 
ATOM     56  C   UNL     1      -1.339 -17.111   2.019  1.00  0.00     0.074 A 
ATOM     57  C   UNL     1      -0.194 -11.730   5.172  1.00  0.00     0.029 A 
ATOM     58  N   UNL     1      -0.521 -13.264   3.596  1.00  0.00    -0.354 N 
ATOM     59  N   UNL     1      -1.099 -15.954   2.587  1.00  0.00    -0.248 NA
ATOM     60  C   UNL     1      -1.464 -18.231   2.962  1.00  0.00     0.031 C 
ATOM     61  C   UNL     1      -0.358 -12.974   5.793  1.00  0.00     0.029 A 
ATOM     62  C   UNL     1      -0.582 -13.925   4.811  1.00  0.00     0.049 A 
ATOM     63  H   UNL     1      -0.640 -13.688   2.715  1.00  0.00     0.167 HD
ATOM     64  C   UNL     1      -1.059 -16.202   3.952  1.00  0.00     0.074 A 
ATOM     65  C   UNL     1      -1.316 -17.617   4.129  1.00  0.00     0.031 C 
ATOM     66  C   UNL     1      -0.829 -15.335   4.968  1.00  0.00     0.031 A 
BRANCH  53  67
ATOM     67  C   UNL     1       0.217  -9.529   3.132  1.00  0.00    -0.014 A 
ATOM     68  C   UNL     1      -0.729  -8.497   3.025  1.00  0.00     0.009 A 
ATOM     69  C   UNL     1       1.501  -9.227   3.614  1.00  0.00     0.009 A 
ATOM     70  C   UNL     1      -0.383  -7.185   3.357  1.00  0.00     0.001 A 
ATOM     71  C   UNL     1       1.836  -7.920   3.967  1.00  0.00     0.001 A 
ATOM     72  C   UNL     1       0.897  -6.898   3.829  1.00  0.00     0.000 A 
ENDBRANCH  53  67
BRANCH  54  73
ATOM     73  C   UNL     1      -1.759 -18.824   0.110  1.00  0.00    -0.014 A 
ATOM     74  C   UNL     1      -3.010 -19.425   0.312  1.00  0.00     0.009 A 
ATOM     75  C   UNL     1      -0.751 -19.551  -0.543  1.00  0.00     0.009 A 
ATOM     76  C   UNL     1      -3.241 -20.733  -0.121  1.00  0.00     0.001 A 
ATOM     77  C   UNL     1      -0.993 -20.848  -0.996  1.00  0.00     0.001 A 
ATOM     78  C   UNL     1      -2.236 -21.440  -0.779  1.00  0.00     0.000 A 
ENDBRANCH  54  73
BRANCH  66  79
ATOM     79  C   UNL     1      -0.861 -15.893   6.362  1.00  0.00    -0.014 A 
ATOM     80  C   UNL     1       0.197 -16.671   6.856  1.00  0.00     0.009 A 
ATOM     81  C   UNL     1      -1.948 -15.606   7.202  1.00  0.00     0.009 A 
ATOM     82  C   UNL     1       0.153 -17.174   8.158  1.00  0.00     0.001 A 
ATOM     83  C   UNL     1      -1.978 -16.092   8.510  1.00  0.00     0.001 A 
ATOM     84  C   UNL     1      -0.931 -16.882   8.984  1.00  0.00     0.000 A 
ENDBRANCH  66  79
ENDBRANCH  40  41
ENDBRANCH  33  35
ENDBRANCH  32  33
ENDBRANCH  31  32
ENDBRANCH  30  31
ENDBRANCH  29  30
ENDBRANCH  27  29
ENDBRANCH   1  27
TORSDOF 20
