REMARK SMILES C[N@H+]1[C@H](C(=O)OCCOC(=O)c2ccc(-c3c4nc(c(-c5ccccc5)c5ccc([nH]5)c(-c5ccccc5)c5nc(c(-c6ccccc6)c6ccc3[nH]6)C=C5)C=C4)cc2)C[C@H](C(=O)NCC2(CO)CCCC2)[C@@H]1c1ccccc1F
REMARK SMILES IDX 6 1 4 2 5 3 3 4 1 5 2 6 73 7 60 9 61 10 74 11 75 12 79 13
REMARK SMILES IDX 76 14 78 15 80 16 77 17 62 18 63 19 64 20 65 22 66 23 69 24
REMARK SMILES IDX 72 25 70 26 71 27 67 28 68 29 7 31 8 32 9 33 10 34 11 35
REMARK SMILES IDX 12 36 13 37 59 38 14 39 58 40 15 41 16 42 17 43 52 44 18 45
REMARK SMILES IDX 57 46 51 47 53 48 19 49 56 50 50 51 49 52 20 54 42 55 27 56
REMARK SMILES IDX 41 57 28 58 31 59 40 60 54 61 29 62 30 63 39 65 55 66 32 67
REMARK SMILES IDX 21 68 22 69 26 70 23 71 25 72 24 73 43 74 44 75 48 76 45 77
REMARK SMILES IDX 47 78 46 79 33 80 34 81 38 82 35 83 37 84 36 85
REMARK H PARENT 2 8 64 21 68 30 53 53 31 64
REMARK Flexibility Score: inf
ROOT
ATOM      1  O   UNL     1      -0.723   2.273  -1.851  1.00  0.00    -0.458 OA
ENDROOT
BRANCH   1   2
ATOM      2  C   UNL     1      -0.009   2.306  -0.700  1.00  0.00     0.365 C 
ATOM      3  O   UNL     1       0.536   3.314  -0.247  1.00  0.00    -0.245 OA
BRANCH   2   4
ATOM      4  C   UNL     1       0.116   0.972   0.025  1.00  0.00     0.296 C 
ATOM      5  C   UNL     1      -1.988  -0.222   0.008  1.00  0.00     0.333 C 
ATOM      6  N   UNL     1      -0.634  -0.167  -0.547  1.00  0.00    -0.319 N 
ATOM      7  C   UNL     1       0.185  -1.355  -0.223  1.00  0.00     0.231 C 
ATOM      8  H   UNL     1      -0.773  -0.096  -1.555  1.00  0.00     0.349 HD
ATOM      9  C   UNL     1       1.581   0.570   0.009  1.00  0.00     0.097 C 
ATOM     10  C   UNL     1       1.627  -0.875  -0.481  1.00  0.00     0.148 C 
BRANCH   7  11
ATOM     11  C   UNL     1      -0.156  -2.707  -0.809  1.00  0.00     0.046 A 
ATOM     12  C   UNL     1       0.476  -3.842  -0.256  1.00  0.00     0.013 A 
ATOM     13  C   UNL     1      -1.034  -2.916  -1.877  1.00  0.00     0.132 A 
ATOM     14  C   UNL     1       0.236  -5.125  -0.756  1.00  0.00     0.001 A 
ATOM     15  C   UNL     1      -1.284  -4.197  -2.373  1.00  0.00     0.040 A 
ATOM     16  F   UNL     1      -1.676  -1.895  -2.461  1.00  0.00    -0.206 F 
ATOM     17  C   UNL     1      -0.646  -5.302  -1.816  1.00  0.00     0.003 A 
ENDBRANCH   7  11
BRANCH  10  18
ATOM     18  C   UNL     1       2.156  -0.950  -1.919  1.00  0.00     0.229 C 
ATOM     19  O   UNL     1       1.543  -1.447  -2.859  1.00  0.00    -0.275 OA
ATOM     20  N   UNL     1       3.428  -0.497  -2.162  1.00  0.00    -0.355 N 
ATOM     21  H   UNL     1       3.752  -0.636  -3.081  1.00  0.00     0.163 HD
BRANCH  20  22
ATOM     22  C   UNL     1       4.368   0.155  -1.270  1.00  0.00     0.125 C 
BRANCH  22  23
ATOM     23  C   UNL     1       5.774  -0.459  -1.279  1.00  0.00     0.011 C 
ATOM     24  C   UNL     1       6.552   0.027  -0.040  1.00  0.00     0.011 C 
ATOM     25  C   UNL     1       5.730  -1.976  -1.037  1.00  0.00     0.011 C 
ATOM     26  C   UNL     1       7.610  -1.039   0.214  1.00  0.00     0.001 C 
ATOM     27  C   UNL     1       7.082  -2.323  -0.422  1.00  0.00     0.001 C 
BRANCH  23  28
ATOM     28  C   UNL     1       6.527  -0.081  -2.570  1.00  0.00     0.164 C 
BRANCH  28  29
ATOM     29  O   UNL     1       5.827  -0.506  -3.733  1.00  0.00    -0.396 OA
ATOM     30  H   UNL     1       5.737  -1.472  -3.721  1.00  0.00     0.210 HD
ENDBRANCH  28  29
ENDBRANCH  23  28
ENDBRANCH  22  23
ENDBRANCH  20  22
ENDBRANCH  10  18
ENDBRANCH   2   4
ENDBRANCH   1   2
BRANCH   1  31
ATOM     31  C   UNL     1      -0.820   3.532  -2.536  1.00  0.00     0.274 C 
BRANCH  31  32
ATOM     32  C   UNL     1      -2.102   4.265  -2.148  1.00  0.00     0.275 C 
BRANCH  32  33
ATOM     33  O   UNL     1      -2.197   4.386  -0.716  1.00  0.00    -0.458 OA
BRANCH  33  34
ATOM     34  C   UNL     1      -3.298   3.839  -0.156  1.00  0.00     0.338 C 
ATOM     35  O   UNL     1      -4.255   3.339  -0.722  1.00  0.00    -0.246 OA
BRANCH  34  36
ATOM     36  C   UNL     1      -3.218   3.932   1.312  1.00  0.00     0.060 A 
ATOM     37  C   UNL     1      -2.175   3.319   2.007  1.00  0.00     0.016 A 
ATOM     38  C   UNL     1      -4.268   4.525   2.010  1.00  0.00     0.016 A 
ATOM     39  C   UNL     1      -2.206   3.237   3.398  1.00  0.00     0.010 A 
ATOM     40  C   UNL     1      -4.264   4.508   3.406  1.00  0.00     0.010 A 
ATOM     41  C   UNL     1      -3.250   3.836   4.112  1.00  0.00    -0.014 A 
BRANCH  41  42
ATOM     42  C   UNL     1      -3.321   3.729   5.591  1.00  0.00     0.031 A 
ATOM     43  C   UNL     1      -4.470   3.001   6.232  1.00  0.00     0.074 A 
ATOM     44  C   UNL     1      -2.373   4.294   6.362  1.00  0.00     0.049 A 
ATOM     45  N   UNL     1      -4.825   2.960   7.491  1.00  0.00    -0.248 NA
ATOM     46  C   UNL     1      -5.340   2.222   5.335  1.00  0.00     0.031 C 
ATOM     47  C   UNL     1      -1.176   4.981   5.873  1.00  0.00     0.029 A 
ATOM     48  N   UNL     1      -2.277   4.387   7.728  1.00  0.00    -0.354 N 
ATOM     49  C   UNL     1      -5.986   2.198   7.530  1.00  0.00     0.074 A 
ATOM     50  C   UNL     1      -6.274   1.793   6.171  1.00  0.00     0.031 C 
ATOM     51  C   UNL     1      -0.460   5.413   6.924  1.00  0.00     0.029 A 
ATOM     52  C   UNL     1      -1.183   5.099   8.152  1.00  0.00     0.049 A 
ATOM     53  H   UNL     1      -2.930   3.982   8.344  1.00  0.00     0.167 HD
ATOM     54  C   UNL     1      -6.747   1.873   8.602  1.00  0.00     0.031 A 
ATOM     55  C   UNL     1      -0.823   5.497   9.386  1.00  0.00     0.031 A 
ATOM     56  C   UNL     1      -6.447   2.255   9.956  1.00  0.00     0.049 A 
ATOM     57  C   UNL     1      -1.708   5.167  10.553  1.00  0.00     0.074 A 
ATOM     58  C   UNL     1      -7.154   1.970  11.111  1.00  0.00     0.029 A 
ATOM     59  N   UNL     1      -5.341   2.998  10.336  1.00  0.00    -0.354 N 
ATOM     60  N   UNL     1      -2.828   4.488  10.572  1.00  0.00    -0.248 NA
ATOM     61  C   UNL     1      -1.284   5.673  11.866  1.00  0.00     0.031 C 
ATOM     62  C   UNL     1      -6.492   2.570  12.188  1.00  0.00     0.029 A 
ATOM     63  C   UNL     1      -5.351   3.193  11.707  1.00  0.00     0.049 A 
ATOM     64  H   UNL     1      -4.650   3.338   9.722  1.00  0.00     0.167 HD
ATOM     65  C   UNL     1      -3.239   4.475  11.898  1.00  0.00     0.074 A 
ATOM     66  C   UNL     1      -2.238   5.198  12.656  1.00  0.00     0.031 C 
ATOM     67  C   UNL     1      -4.348   3.917  12.440  1.00  0.00     0.031 A 
BRANCH  54  68
ATOM     68  C   UNL     1      -8.006   1.098   8.343  1.00  0.00    -0.014 A 
ATOM     69  C   UNL     1      -7.974  -0.270   8.034  1.00  0.00     0.009 A 
ATOM     70  C   UNL     1      -9.248   1.747   8.436  1.00  0.00     0.009 A 
ATOM     71  C   UNL     1      -9.162  -0.966   7.793  1.00  0.00     0.001 A 
ATOM     72  C   UNL     1     -10.434   1.043   8.217  1.00  0.00     0.001 A 
ATOM     73  C   UNL     1     -10.389  -0.310   7.888  1.00  0.00     0.000 A 
ENDBRANCH  54  68
BRANCH  55  74
ATOM     74  C   UNL     1       0.414   6.296   9.574  1.00  0.00    -0.014 A 
ATOM     75  C   UNL     1       1.542   5.729  10.184  1.00  0.00     0.009 A 
ATOM     76  C   UNL     1       0.474   7.630   9.138  1.00  0.00     0.009 A 
ATOM     77  C   UNL     1       2.702   6.486  10.366  1.00  0.00     0.001 A 
ATOM     78  C   UNL     1       1.643   8.376   9.298  1.00  0.00     0.001 A 
ATOM     79  C   UNL     1       2.753   7.806   9.918  1.00  0.00     0.000 A 
ENDBRANCH  55  74
BRANCH  67  80
ATOM     80  C   UNL     1      -4.516   4.043  13.926  1.00  0.00    -0.014 A 
ATOM     81  C   UNL     1      -4.931   5.251  14.507  1.00  0.00     0.009 A 
ATOM     82  C   UNL     1      -4.282   2.931  14.749  1.00  0.00     0.009 A 
ATOM     83  C   UNL     1      -5.080   5.349  15.892  1.00  0.00     0.001 A 
ATOM     84  C   UNL     1      -4.453   3.028  16.130  1.00  0.00     0.001 A 
ATOM     85  C   UNL     1      -4.844   4.238  16.701  1.00  0.00     0.000 A 
ENDBRANCH  67  80
ENDBRANCH  41  42
ENDBRANCH  34  36
ENDBRANCH  33  34
ENDBRANCH  32  33
ENDBRANCH  31  32
ENDBRANCH   1  31
TORSDOF 17
