REMARK SMILES CC(C)Oc1ccc([C@@H]2CC(=O)Nc3c(C(=O)OCCOC(=O)c4ccc(-c5c6nc(c(-c7ccccc7)c7ccc([nH]7)c(-c7ccccc7)c7nc(c(-c8ccccc8)c8ccc5[nH]8)C=C7)C=C6)cc4)nsc32)cc1
REMARK SMILES IDX 19 1 18 2 16 3 17 4 15 5 9 6 10 7 74 8 11 9 14 10 73 11
REMARK SMILES IDX 12 12 13 13 72 14 8 16 5 17 6 18 76 19 7 20 75 21 4 22 2 23
REMARK SMILES IDX 1 24 3 25 20 26 21 27 22 28 23 29 24 30 25 31 71 32 26 33
REMARK SMILES IDX 70 34 27 35 28 36 29 37 64 38 30 39 69 40 63 41 65 42 31 43
REMARK SMILES IDX 68 44 62 45 61 46 32 48 54 49 39 50 53 51 40 52 43 53 52 54
REMARK SMILES IDX 66 55 41 56 42 57 51 59 67 60 44 61 33 62 34 63 38 64 35 65
REMARK SMILES IDX 37 66 36 67 55 68 56 69 60 70 57 71 59 72 58 73 45 74 46 75
REMARK SMILES IDX 50 76 47 77 49 78 48 79
REMARK H PARENT 13 15 65 47 43 58
REMARK Flexibility Score: inf
ROOT
ATOM      1  C   UNL     1      -1.972   5.787  -8.651  1.00  0.00     0.275 C 
ENDROOT
BRANCH   1   2
ATOM      2  O   UNL     1      -2.126   5.302  -7.309  1.00  0.00    -0.457 OA
BRANCH   2   3
ATOM      3  C   UNL     1      -1.107   5.595  -6.438  1.00  0.00     0.360 C 
ATOM      4  O   UNL     1      -0.012   6.028  -6.794  1.00  0.00    -0.244 OA
BRANCH   3   5
ATOM      5  C   UNL     1      -1.498   5.373  -5.040  1.00  0.00     0.185 A 
ATOM      6  C   UNL     1      -3.736   3.790  -2.477  1.00  0.00     0.073 C 
ATOM      7  C   UNL     1      -4.633   3.006  -3.460  1.00  0.00     0.114 C 
ATOM      8  C   UNL     1      -2.711   4.566  -3.243  1.00  0.00     0.058 A 
ATOM      9  C   UNL     1      -4.880   3.692  -4.794  1.00  0.00     0.225 C 
ATOM     10  C   UNL     1      -2.729   4.773  -4.596  1.00  0.00     0.091 A 
ATOM     11  S   UNL     1      -1.348   5.342  -2.590  1.00  0.00    -0.038 S 
ATOM     12  O   UNL     1      -5.911   3.508  -5.438  1.00  0.00    -0.275 OA
ATOM     13  N   UNL     1      -3.836   4.396  -5.332  1.00  0.00    -0.323 N 
ATOM     14  N   UNL     1      -0.669   5.734  -4.048  1.00  0.00    -0.183 NA
ATOM     15  H   UNL     1      -3.875   4.644  -6.284  1.00  0.00     0.170 HD
BRANCH   6  16
ATOM     16  C   UNL     1      -3.065   2.829  -1.503  1.00  0.00    -0.039 A 
ATOM     17  C   UNL     1      -1.590   1.233   0.274  1.00  0.00     0.119 A 
ATOM     18  C   UNL     1      -2.570   2.102   0.756  1.00  0.00     0.047 A 
ATOM     19  C   UNL     1      -1.405   1.094  -1.095  1.00  0.00     0.047 A 
ATOM     20  C   UNL     1      -3.303   2.904  -0.126  1.00  0.00     0.008 A 
ATOM     21  C   UNL     1      -2.123   1.896  -1.975  1.00  0.00     0.008 A 
BRANCH  17  22
ATOM     22  O   UNL     1      -0.910   0.474   1.181  1.00  0.00    -0.491 OA
BRANCH  22  23
ATOM     23  C   UNL     1       0.519   0.650   1.257  1.00  0.00     0.167 C 
ATOM     24  C   UNL     1       1.289  -0.042   0.133  1.00  0.00     0.052 C 
ATOM     25  C   UNL     1       0.960   2.101   1.450  1.00  0.00     0.052 C 
ENDBRANCH  22  23
ENDBRANCH  17  22
ENDBRANCH   6  16
ENDBRANCH   3   5
ENDBRANCH   2   3
ENDBRANCH   1   2
BRANCH   1  26
ATOM     26  C   UNL     1      -2.504   7.207  -8.754  1.00  0.00     0.275 C 
BRANCH  26  27
ATOM     27  O   UNL     1      -1.626   8.118  -8.098  1.00  0.00    -0.458 OA
BRANCH  27  28
ATOM     28  C   UNL     1      -1.969   8.476  -6.840  1.00  0.00     0.338 C 
ATOM     29  O   UNL     1      -2.751   7.902  -6.101  1.00  0.00    -0.246 OA
BRANCH  28  30
ATOM     30  C   UNL     1      -1.445   9.825  -6.596  1.00  0.00     0.060 A 
ATOM     31  C   UNL     1      -1.706  10.415  -5.356  1.00  0.00     0.016 A 
ATOM     32  C   UNL     1      -0.983  10.575  -7.688  1.00  0.00     0.016 A 
ATOM     33  C   UNL     1      -1.675  11.792  -5.266  1.00  0.00     0.010 A 
ATOM     34  C   UNL     1      -0.983  11.944  -7.607  1.00  0.00     0.010 A 
ATOM     35  C   UNL     1      -1.398  12.536  -6.419  1.00  0.00    -0.014 A 
BRANCH  35  36
ATOM     36  C   UNL     1      -1.420  13.978  -6.343  1.00  0.00     0.031 A 
ATOM     37  C   UNL     1      -0.261  14.536  -5.611  1.00  0.00     0.074 A 
ATOM     38  C   UNL     1      -2.314  14.726  -7.015  1.00  0.00     0.049 A 
ATOM     39  N   UNL     1      -0.282  15.203  -4.508  1.00  0.00    -0.248 NA
ATOM     40  C   UNL     1       1.089  14.178  -6.078  1.00  0.00     0.031 C 
ATOM     41  C   UNL     1      -3.308  14.291  -8.000  1.00  0.00     0.029 A 
ATOM     42  N   UNL     1      -2.428  16.079  -7.045  1.00  0.00    -0.354 N 
ATOM     43  C   UNL     1       1.044  15.512  -4.232  1.00  0.00     0.074 A 
ATOM     44  C   UNL     1       1.847  14.716  -5.124  1.00  0.00     0.031 C 
ATOM     45  C   UNL     1      -3.738  15.367  -8.700  1.00  0.00     0.029 A 
ATOM     46  C   UNL     1      -3.148  16.567  -8.127  1.00  0.00     0.049 A 
ATOM     47  H   UNL     1      -2.034  16.664  -6.359  1.00  0.00     0.167 HD
ATOM     48  C   UNL     1       1.371  16.590  -3.471  1.00  0.00     0.031 A 
ATOM     49  C   UNL     1      -3.180  17.854  -8.555  1.00  0.00     0.031 A 
ATOM     50  C   UNL     1       0.247  17.063  -2.706  1.00  0.00     0.049 A 
ATOM     51  C   UNL     1      -2.707  18.708  -7.438  1.00  0.00     0.074 A 
ATOM     52  C   UNL     1      -0.579  16.499  -1.753  1.00  0.00     0.029 A 
ATOM     53  N   UNL     1      -0.424  18.164  -3.186  1.00  0.00    -0.354 N 
ATOM     54  N   UNL     1      -3.380  18.880  -6.336  1.00  0.00    -0.248 NA
ATOM     55  C   UNL     1      -1.281  18.988  -7.346  1.00  0.00     0.031 C 
ATOM     56  C   UNL     1      -1.881  16.992  -2.061  1.00  0.00     0.029 A 
ATOM     57  C   UNL     1      -1.764  17.883  -3.129  1.00  0.00     0.049 A 
ATOM     58  H   UNL     1      -0.016  18.999  -3.511  1.00  0.00     0.167 HD
ATOM     59  C   UNL     1      -2.424  18.837  -5.331  1.00  0.00     0.074 A 
ATOM     60  C   UNL     1      -1.143  19.003  -6.017  1.00  0.00     0.031 C 
ATOM     61  C   UNL     1      -2.733  18.376  -4.083  1.00  0.00     0.031 A 
BRANCH  48  62
ATOM     62  C   UNL     1       2.566  17.458  -3.766  1.00  0.00    -0.014 A 
ATOM     63  C   UNL     1       2.835  18.540  -2.912  1.00  0.00     0.009 A 
ATOM     64  C   UNL     1       3.252  17.435  -4.996  1.00  0.00     0.009 A 
ATOM     65  C   UNL     1       3.680  19.584  -3.307  1.00  0.00     0.001 A 
ATOM     66  C   UNL     1       4.128  18.452  -5.377  1.00  0.00     0.001 A 
ATOM     67  C   UNL     1       4.317  19.544  -4.544  1.00  0.00     0.000 A 
ENDBRANCH  48  62
BRANCH  49  68
ATOM     68  C   UNL     1      -3.303  18.367  -9.939  1.00  0.00    -0.014 A 
ATOM     69  C   UNL     1      -3.589  19.721 -10.183  1.00  0.00     0.009 A 
ATOM     70  C   UNL     1      -2.872  17.587 -11.028  1.00  0.00     0.009 A 
ATOM     71  C   UNL     1      -3.411  20.278 -11.457  1.00  0.00     0.001 A 
ATOM     72  C   UNL     1      -2.699  18.142 -12.301  1.00  0.00     0.001 A 
ATOM     73  C   UNL     1      -2.954  19.492 -12.512  1.00  0.00     0.000 A 
ENDBRANCH  49  68
BRANCH  61  74
ATOM     74  C   UNL     1      -4.185  18.112  -3.760  1.00  0.00    -0.014 A 
ATOM     75  C   UNL     1      -4.975  17.186  -4.466  1.00  0.00     0.009 A 
ATOM     76  C   UNL     1      -4.723  18.697  -2.605  1.00  0.00     0.009 A 
ATOM     77  C   UNL     1      -6.273  16.880  -4.043  1.00  0.00     0.001 A 
ATOM     78  C   UNL     1      -6.010  18.375  -2.170  1.00  0.00     0.001 A 
ATOM     79  C   UNL     1      -6.787  17.472  -2.892  1.00  0.00     0.000 A 
ENDBRANCH  61  74
ENDBRANCH  35  36
ENDBRANCH  28  30
ENDBRANCH  27  28
ENDBRANCH  26  27
ENDBRANCH   1  26
TORSDOF 14
