REMARK SMILES C[C@H](c1ccc(C(=O)OCCOC(=O)c2ccc(-c3c4nc(c(-c5ccccc5)c5ccc([nH]5)c(-c5ccccc5)c5nc(c(-c6ccccc6)c6ccc3[nH]6)C=C5)C=C4)cc2)o1)[NH+]1Cc2ccccc2C1
REMARK SMILES IDX 10 1 9 2 7 3 8 4 6 5 3 6 4 7 63 8 5 9 2 10 1 11 64 12 65 13
REMARK SMILES IDX 72 14 66 16 71 17 67 18 70 19 68 20 69 21 11 22 12 23 13 24
REMARK SMILES IDX 14 25 15 26 16 27 62 28 17 29 61 30 18 31 19 32 20 33 55 34
REMARK SMILES IDX 21 35 60 36 54 37 56 38 22 39 59 40 53 41 52 42 23 44 45 45
REMARK SMILES IDX 30 46 44 47 31 48 34 49 43 50 57 51 32 52 33 53 42 55 58 56
REMARK SMILES IDX 35 57 24 58 25 59 29 60 26 61 28 62 27 63 46 64 47 65 51 66
REMARK SMILES IDX 48 67 50 68 49 69 36 70 37 71 41 72 38 73 40 74 39 75
REMARK H PARENT 64 15 56 43 34 54
REMARK Flexibility Score: inf
ROOT
ATOM      1  C   UNL     1      -0.788  -4.688   3.631  1.00  0.00     0.275 C 
ENDROOT
BRANCH   1   2
ATOM      2  O   UNL     1      -0.441  -4.040   2.397  1.00  0.00    -0.456 OA
BRANCH   2   3
ATOM      3  C   UNL     1      -0.994  -2.800   2.233  1.00  0.00     0.374 C 
ATOM      4  O   UNL     1      -1.866  -2.334   2.943  1.00  0.00    -0.242 OA
BRANCH   3   5
ATOM      5  C   UNL     1      -0.308  -2.096   1.177  1.00  0.00     0.212 A 
ATOM      6  C   UNL     1       0.269  -0.239   0.131  1.00  0.00     0.162 A 
ATOM      7  C   UNL     1       1.010  -1.256  -0.439  1.00  0.00     0.053 A 
ATOM      8  O   UNL     1      -0.551  -0.755   1.086  1.00  0.00    -0.448 OA
ATOM      9  C   UNL     1       0.639  -2.449   0.235  1.00  0.00     0.059 A 
BRANCH   6  10
ATOM     10  C   UNL     1       0.127   1.244  -0.109  1.00  0.00     0.248 C 
ATOM     11  C   UNL     1       1.310   1.761  -0.953  1.00  0.00     0.084 C 
BRANCH  10  12
ATOM     12  N   UNL     1      -1.268   1.595  -0.515  1.00  0.00    -0.319 N 
ATOM     13  C   UNL     1      -1.790   0.726  -1.606  1.00  0.00     0.300 C 
ATOM     14  C   UNL     1      -1.376   2.967  -1.086  1.00  0.00     0.300 C 
ATOM     15  H   UNL     1      -1.793   1.489   0.353  1.00  0.00     0.349 HD
ATOM     16  C   UNL     1      -1.384   1.424  -2.858  1.00  0.00     0.015 A 
ATOM     17  C   UNL     1      -1.172   2.773  -2.560  1.00  0.00     0.015 A 
ATOM     18  C   UNL     1      -1.144   0.905  -4.114  1.00  0.00     0.010 A 
ATOM     19  C   UNL     1      -0.750   3.657  -3.531  1.00  0.00     0.010 A 
ATOM     20  C   UNL     1      -0.680   1.781  -5.094  1.00  0.00     0.001 A 
ATOM     21  C   UNL     1      -0.496   3.146  -4.808  1.00  0.00     0.001 A 
ENDBRANCH  10  12
ENDBRANCH   6  10
ENDBRANCH   3   5
ENDBRANCH   2   3
ENDBRANCH   1   2
BRANCH   1  22
ATOM     22  C   UNL     1       0.322  -4.507   4.672  1.00  0.00     0.275 C 
BRANCH  22  23
ATOM     23  O   UNL     1       0.523  -3.126   5.042  1.00  0.00    -0.458 OA
BRANCH  23  24
ATOM     24  C   UNL     1       1.517  -2.487   4.379  1.00  0.00     0.338 C 
ATOM     25  O   UNL     1       2.222  -2.945   3.494  1.00  0.00    -0.246 OA
BRANCH  24  26
ATOM     26  C   UNL     1       1.607  -1.080   4.810  1.00  0.00     0.060 A 
ATOM     27  C   UNL     1       1.323  -0.086   3.873  1.00  0.00     0.016 A 
ATOM     28  C   UNL     1       2.084  -0.731   6.074  1.00  0.00     0.016 A 
ATOM     29  C   UNL     1       1.516   1.258   4.183  1.00  0.00     0.010 A 
ATOM     30  C   UNL     1       2.274   0.623   6.390  1.00  0.00     0.010 A 
ATOM     31  C   UNL     1       2.003   1.627   5.442  1.00  0.00    -0.014 A 
BRANCH  31  32
ATOM     32  C   UNL     1       2.265   3.060   5.733  1.00  0.00     0.031 A 
ATOM     33  C   UNL     1       3.676   3.568   5.834  1.00  0.00     0.074 A 
ATOM     34  C   UNL     1       1.237   3.920   5.867  1.00  0.00     0.049 A 
ATOM     35  N   UNL     1       4.104   4.770   6.132  1.00  0.00    -0.248 NA
ATOM     36  C   UNL     1       4.748   2.599   5.561  1.00  0.00     0.031 C 
ATOM     37  C   UNL     1      -0.179   3.573   5.736  1.00  0.00     0.029 A 
ATOM     38  N   UNL     1       1.228   5.267   6.135  1.00  0.00    -0.354 N 
ATOM     39  C   UNL     1       5.491   4.696   6.109  1.00  0.00     0.074 A 
ATOM     40  C   UNL     1       5.833   3.328   5.779  1.00  0.00     0.031 C 
ATOM     41  C   UNL     1      -0.918   4.681   5.912  1.00  0.00     0.029 A 
ATOM     42  C   UNL     1      -0.034   5.802   6.218  1.00  0.00     0.049 A 
ATOM     43  H   UNL     1       2.049   5.798   6.257  1.00  0.00     0.167 HD
ATOM     44  C   UNL     1       6.397   5.676   6.340  1.00  0.00     0.031 A 
ATOM     45  C   UNL     1      -0.438   7.048   6.530  1.00  0.00     0.031 A 
ATOM     46  C   UNL     1       6.063   7.039   6.660  1.00  0.00     0.049 A 
ATOM     47  C   UNL     1       0.586   8.101   6.848  1.00  0.00     0.074 A 
ATOM     48  C   UNL     1       6.916   8.104   6.899  1.00  0.00     0.029 A 
ATOM     49  N   UNL     1       4.772   7.527   6.785  1.00  0.00    -0.354 N 
ATOM     50  N   UNL     1       1.894   8.013   6.832  1.00  0.00    -0.248 NA
ATOM     51  C   UNL     1       0.075   9.425   7.233  1.00  0.00     0.031 C 
ATOM     52  C   UNL     1       6.140   9.225   7.214  1.00  0.00     0.029 A 
ATOM     53  C   UNL     1       4.804   8.870   7.122  1.00  0.00     0.049 A 
ATOM     54  H   UNL     1       3.952   6.997   6.653  1.00  0.00     0.167 HD
ATOM     55  C   UNL     1       2.362   9.271   7.189  1.00  0.00     0.074 A 
ATOM     56  C   UNL     1       1.199  10.109   7.396  1.00  0.00     0.031 C 
ATOM     57  C   UNL     1       3.642   9.692   7.333  1.00  0.00     0.031 A 
BRANCH  44  58
ATOM     58  C   UNL     1       7.851   5.296   6.297  1.00  0.00    -0.014 A 
ATOM     59  C   UNL     1       8.505   5.038   5.083  1.00  0.00     0.009 A 
ATOM     60  C   UNL     1       8.583   5.227   7.493  1.00  0.00     0.009 A 
ATOM     61  C   UNL     1       9.857   4.687   5.071  1.00  0.00     0.001 A 
ATOM     62  C   UNL     1       9.940   4.900   7.475  1.00  0.00     0.001 A 
ATOM     63  C   UNL     1      10.574   4.622   6.265  1.00  0.00     0.000 A 
ENDBRANCH  44  58
BRANCH  45  64
ATOM     64  C   UNL     1      -1.889   7.362   6.592  1.00  0.00    -0.014 A 
ATOM     65  C   UNL     1      -2.484   8.190   5.629  1.00  0.00     0.009 A 
ATOM     66  C   UNL     1      -2.684   6.835   7.622  1.00  0.00     0.009 A 
ATOM     67  C   UNL     1      -3.845   8.498   5.707  1.00  0.00     0.001 A 
ATOM     68  C   UNL     1      -4.049   7.123   7.681  1.00  0.00     0.001 A 
ATOM     69  C   UNL     1      -4.626   7.960   6.729  1.00  0.00     0.000 A 
ENDBRANCH  45  64
BRANCH  57  70
ATOM     70  C   UNL     1       3.850  11.131   7.710  1.00  0.00    -0.014 A 
ATOM     71  C   UNL     1       3.597  11.583   9.015  1.00  0.00     0.009 A 
ATOM     72  C   UNL     1       4.335  12.039   6.756  1.00  0.00     0.009 A 
ATOM     73  C   UNL     1       3.796  12.925   9.347  1.00  0.00     0.001 A 
ATOM     74  C   UNL     1       4.557  13.374   7.098  1.00  0.00     0.001 A 
ATOM     75  C   UNL     1       4.279  13.818   8.390  1.00  0.00     0.000 A 
ENDBRANCH  57  70
ENDBRANCH  31  32
ENDBRANCH  24  26
ENDBRANCH  23  24
ENDBRANCH  22  23
ENDBRANCH   1  22
TORSDOF 13
