REMARK SMILES COc1cc([C@H]2CC(c3ccc(S(C)(=O)=O)cc3)=NN2c2ccc(C(=O)OCCOC(=O)c3ccc(-c4c5nc(c(-c6ccccc6)c6ccc([nH]6)c(-c6ccccc6)c6nc(c(-c7ccccc7)c7ccc4[nH]7)C=C6)C=C5)cc3)cc2)cc(OC)c1OC
REMARK SMILES IDX 28 1 27 2 25 3 26 4 24 5 21 6 22 7 82 8 23 9 81 10 20 11
REMARK SMILES IDX 6 12 7 13 8 14 19 15 5 16 3 17 4 18 87 19 84 20 83 21 2 22
REMARK SMILES IDX 1 23 88 24 89 25 85 26 86 27 9 28 10 29 18 30 11 31 17 32
REMARK SMILES IDX 12 33 13 34 14 35 15 36 16 37 29 38 30 39 31 40 32 41 33 42
REMARK SMILES IDX 34 43 80 44 35 45 79 46 36 47 37 48 38 49 73 50 39 51 78 52
REMARK SMILES IDX 72 53 74 54 40 55 77 56 71 57 70 58 41 60 63 61 48 62 62 63
REMARK SMILES IDX 49 64 52 65 61 66 75 67 50 68 51 69 60 71 76 72 53 73 42 74
REMARK SMILES IDX 43 75 47 76 44 77 46 78 45 79 64 80 65 81 69 82 66 83 68 84
REMARK SMILES IDX 67 85 54 86 55 87 59 88 56 89 58 90 57 91
REMARK H PARENT 74 59 52 70
REMARK Flexibility Score: inf
ROOT
ATOM      1  C   UNL     1       0.843   3.648   8.541  1.00  0.00     0.275 C 
ENDROOT
BRANCH   1   2
ATOM      2  O   UNL     1       0.405   2.346   8.099  1.00  0.00    -0.458 OA
BRANCH   2   3
ATOM      3  C   UNL     1       1.300   1.660   7.342  1.00  0.00     0.338 C 
ATOM      4  O   UNL     1       2.411   2.031   7.017  1.00  0.00    -0.246 OA
BRANCH   3   5
ATOM      5  C   UNL     1       0.780   0.313   7.013  1.00  0.00     0.060 A 
ATOM      6  C   UNL     1      -0.055  -2.262   6.249  1.00  0.00     0.060 A 
ATOM      7  C   UNL     1       1.219  -2.055   6.782  1.00  0.00     0.029 A 
ATOM      8  C   UNL     1      -0.917  -1.163   6.130  1.00  0.00     0.029 A 
ATOM      9  C   UNL     1       1.647  -0.776   7.115  1.00  0.00     0.018 A 
ATOM     10  C   UNL     1      -0.516   0.119   6.532  1.00  0.00     0.018 A 
BRANCH   6  11
ATOM     11  N   UNL     1      -0.415  -3.530   5.810  1.00  0.00    -0.257 N 
ATOM     12  C   UNL     1      -0.621  -3.863   4.394  1.00  0.00     0.144 C 
ATOM     13  C   UNL     1      -0.619  -5.405   4.418  1.00  0.00     0.091 C 
ATOM     14  C   UNL     1      -0.275  -5.658   5.862  1.00  0.00     0.071 C 
ATOM     15  N   UNL     1      -0.151  -4.603   6.602  1.00  0.00    -0.176 NA
BRANCH  12  16
ATOM     16  C   UNL     1       0.419  -3.224   3.475  1.00  0.00    -0.015 A 
ATOM     17  C   UNL     1       1.088  -1.378   2.005  1.00  0.00     0.164 A 
ATOM     18  C   UNL     1       0.120  -2.038   2.786  1.00  0.00     0.056 A 
ATOM     19  C   UNL     1       2.398  -1.879   1.892  1.00  0.00     0.203 A 
ATOM     20  C   UNL     1       2.706  -3.071   2.580  1.00  0.00     0.164 A 
ATOM     21  C   UNL     1       1.724  -3.717   3.359  1.00  0.00     0.056 A 
BRANCH  17  22
ATOM     22  O   UNL     1       0.746  -0.155   1.483  1.00  0.00    -0.493 OA
ATOM     23  C   UNL     1      -0.126  -0.273   0.359  1.00  0.00     0.278 C 
ENDBRANCH  17  22
BRANCH  19  24
ATOM     24  O   UNL     1       3.421  -1.292   1.200  1.00  0.00    -0.490 OA
ATOM     25  C   UNL     1       3.168  -0.267   0.255  1.00  0.00     0.278 C 
ENDBRANCH  19  24
BRANCH  20  26
ATOM     26  O   UNL     1       3.897  -3.757   2.613  1.00  0.00    -0.493 OA
ATOM     27  C   UNL     1       5.055  -3.167   2.043  1.00  0.00     0.278 C 
ENDBRANCH  20  26
ENDBRANCH  12  16
BRANCH  14  28
ATOM     28  C   UNL     1      -0.179  -7.018   6.423  1.00  0.00    -0.002 A 
ATOM     29  C   UNL     1      -0.826  -7.270   7.641  1.00  0.00     0.011 A 
ATOM     30  C   UNL     1       0.517  -8.038   5.770  1.00  0.00     0.011 A 
ATOM     31  C   UNL     1      -0.812  -8.552   8.193  1.00  0.00     0.021 A 
ATOM     32  C   UNL     1       0.556  -9.319   6.335  1.00  0.00     0.021 A 
ATOM     33  C   UNL     1      -0.116  -9.571   7.538  1.00  0.00     0.067 A 
BRANCH  33  34
ATOM     34  S   UNL     1      -0.154 -11.217   8.214  1.00  0.00     0.175 S 
ATOM     35  C   UNL     1       0.592 -11.068   9.816  1.00  0.00     0.163 C 
ATOM     36  O   UNL     1      -1.552 -11.557   8.393  1.00  0.00    -0.224 OA
ATOM     37  O   UNL     1       0.717 -12.044   7.401  1.00  0.00    -0.224 OA
ENDBRANCH  33  34
ENDBRANCH  14  28
ENDBRANCH   6  11
ENDBRANCH   3   5
ENDBRANCH   2   3
ENDBRANCH   1   2
BRANCH   1  38
ATOM     38  C   UNL     1       1.359   3.610   9.980  1.00  0.00     0.275 C 
BRANCH  38  39
ATOM     39  O   UNL     1       2.573   2.841  10.057  1.00  0.00    -0.458 OA
BRANCH  39  40
ATOM     40  C   UNL     1       2.512   1.730  10.824  1.00  0.00     0.338 C 
ATOM     41  O   UNL     1       1.572   1.336  11.495  1.00  0.00    -0.246 OA
BRANCH  40  42
ATOM     42  C   UNL     1       3.777   0.983  10.734  1.00  0.00     0.060 A 
ATOM     43  C   UNL     1       4.125   0.397   9.524  1.00  0.00     0.016 A 
ATOM     44  C   UNL     1       4.521   0.709  11.878  1.00  0.00     0.016 A 
ATOM     45  C   UNL     1       5.117  -0.578   9.475  1.00  0.00     0.010 A 
ATOM     46  C   UNL     1       5.612  -0.166  11.797  1.00  0.00     0.010 A 
ATOM     47  C   UNL     1       5.892  -0.864  10.607  1.00  0.00    -0.014 A 
BRANCH  47  48
ATOM     48  C   UNL     1       6.967  -1.900  10.553  1.00  0.00     0.031 A 
ATOM     49  C   UNL     1       6.981  -3.045  11.537  1.00  0.00     0.074 A 
ATOM     50  C   UNL     1       7.941  -1.829   9.622  1.00  0.00     0.049 A 
ATOM     51  N   UNL     1       7.919  -3.931  11.765  1.00  0.00    -0.248 NA
ATOM     52  C   UNL     1       5.793  -3.201  12.391  1.00  0.00     0.031 C 
ATOM     53  C   UNL     1       8.047  -0.809   8.576  1.00  0.00     0.029 A 
ATOM     54  N   UNL     1       9.030  -2.638   9.403  1.00  0.00    -0.354 N 
ATOM     55  C   UNL     1       7.467  -4.698  12.833  1.00  0.00     0.074 A 
ATOM     56  C   UNL     1       6.173  -4.172  13.209  1.00  0.00     0.031 C 
ATOM     57  C   UNL     1       9.106  -1.080   7.801  1.00  0.00     0.029 A 
ATOM     58  C   UNL     1       9.816  -2.227   8.353  1.00  0.00     0.049 A 
ATOM     59  H   UNL     1       9.229  -3.435   9.945  1.00  0.00     0.167 HD
ATOM     60  C   UNL     1       8.076  -5.741  13.449  1.00  0.00     0.031 A 
ATOM     61  C   UNL     1      11.002  -2.679   7.905  1.00  0.00     0.031 A 
ATOM     62  C   UNL     1       9.341  -6.299  13.044  1.00  0.00     0.049 A 
ATOM     63  C   UNL     1      11.670  -3.819   8.613  1.00  0.00     0.074 A 
ATOM     64  C   UNL     1      10.020  -7.380  13.582  1.00  0.00     0.029 A 
ATOM     65  N   UNL     1      10.112  -5.828  11.992  1.00  0.00    -0.354 N 
ATOM     66  N   UNL     1      11.251  -4.505   9.647  1.00  0.00    -0.248 NA
ATOM     67  C   UNL     1      12.983  -4.234   8.101  1.00  0.00     0.031 C 
ATOM     68  C   UNL     1      11.225  -7.531  12.887  1.00  0.00     0.029 A 
ATOM     69  C   UNL     1      11.271  -6.580  11.880  1.00  0.00     0.049 A 
ATOM     70  H   UNL     1       9.872  -5.071  11.410  1.00  0.00     0.167 HD
ATOM     71  C   UNL     1      12.244  -5.439   9.908  1.00  0.00     0.074 A 
ATOM     72  C   UNL     1      13.276  -5.245   8.909  1.00  0.00     0.031 C 
ATOM     73  C   UNL     1      12.296  -6.369  10.892  1.00  0.00     0.031 A 
BRANCH  60  74
ATOM     74  C   UNL     1       7.405  -6.313  14.670  1.00  0.00    -0.014 A 
ATOM     75  C   UNL     1       6.220  -7.061  14.586  1.00  0.00     0.009 A 
ATOM     76  C   UNL     1       7.987  -6.107  15.932  1.00  0.00     0.009 A 
ATOM     77  C   UNL     1       5.608  -7.548  15.745  1.00  0.00     0.001 A 
ATOM     78  C   UNL     1       7.391  -6.622  17.084  1.00  0.00     0.001 A 
ATOM     79  C   UNL     1       6.195  -7.331  16.991  1.00  0.00     0.000 A 
ENDBRANCH  60  74
BRANCH  61  80
ATOM     80  C   UNL     1      11.651  -2.002   6.752  1.00  0.00    -0.014 A 
ATOM     81  C   UNL     1      11.727  -2.633   5.502  1.00  0.00     0.009 A 
ATOM     82  C   UNL     1      12.154  -0.697   6.887  1.00  0.00     0.009 A 
ATOM     83  C   UNL     1      12.297  -1.970   4.411  1.00  0.00     0.001 A 
ATOM     84  C   UNL     1      12.694  -0.027   5.788  1.00  0.00     0.001 A 
ATOM     85  C   UNL     1      12.769  -0.665   4.553  1.00  0.00     0.000 A 
ENDBRANCH  61  80
BRANCH  73  86
ATOM     86  C   UNL     1      13.502  -7.264  10.918  1.00  0.00    -0.014 A 
ATOM     87  C   UNL     1      14.752  -6.788  11.344  1.00  0.00     0.009 A 
ATOM     88  C   UNL     1      13.379  -8.610  10.537  1.00  0.00     0.009 A 
ATOM     89  C   UNL     1      15.862  -7.635  11.356  1.00  0.00     0.001 A 
ATOM     90  C   UNL     1      14.484  -9.460  10.575  1.00  0.00     0.001 A 
ATOM     91  C   UNL     1      15.726  -8.970  10.976  1.00  0.00     0.000 A 
ENDBRANCH  73  86
ENDBRANCH  47  48
ENDBRANCH  40  42
ENDBRANCH  39  40
ENDBRANCH  38  39
ENDBRANCH   1  38
TORSDOF 18
