REMARK SMILES CC(C)[NH2+][C@]1(C(=O)OCCOC(=O)c2ccc(-c3c4nc(c(-c5ccccc5)c5ccc([nH]5)c(-c5ccccc5)c5nc(c(-c6ccccc6)c6ccc3[nH]6)C=C5)C=C4)cc2)CC[C@@H](Oc2cc(F)ccc2F)C1
REMARK SMILES IDX 9 1 8 2 6 3 7 4 5 5 62 6 74 7 63 8 64 9 4 10 2 13 1 14 3 15
REMARK SMILES IDX 65 16 66 17 67 18 72 19 68 20 71 21 73 22 69 23 70 24 10 25
REMARK SMILES IDX 11 26 12 27 13 28 14 29 15 30 61 31 16 32 60 33 17 34 18 35
REMARK SMILES IDX 19 36 54 37 20 38 59 39 53 40 55 41 21 42 58 43 52 44 51 45
REMARK SMILES IDX 22 47 44 48 29 49 43 50 30 51 33 52 42 53 56 54 31 55 32 56
REMARK SMILES IDX 41 58 57 59 34 60 23 61 24 62 28 63 25 64 27 65 26 66 45 67
REMARK SMILES IDX 46 68 50 69 47 70 49 71 48 72 35 73 36 74 40 75 37 76 39 77
REMARK SMILES IDX 38 78
REMARK H PARENT 4 11 4 12 55 46 33 57
REMARK Flexibility Score: inf
ROOT
ATOM      1  C   UNL     1       0.300  -0.565  -0.122  1.00  0.00     0.274 C 
ENDROOT
BRANCH   1   2
ATOM      2  O   UNL     1       0.002  -0.113  -1.457  1.00  0.00    -0.457 OA
BRANCH   2   3
ATOM      3  C   UNL     1      -1.241  -0.379  -1.953  1.00  0.00     0.368 C 
ATOM      4  O   UNL     1      -2.079  -1.060  -1.372  1.00  0.00    -0.245 OA
BRANCH   3   5
ATOM      5  C   UNL     1      -1.447   0.262  -3.363  1.00  0.00     0.198 C 
ATOM      6  C   UNL     1      -0.570   1.522  -3.562  1.00  0.00     0.085 C 
ATOM      7  C   UNL     1      -0.861  -0.708  -4.397  1.00  0.00     0.126 C 
ATOM      8  C   UNL     1      -0.352   1.612  -5.065  1.00  0.00     0.052 C 
ATOM      9  C   UNL     1      -0.328   0.152  -5.546  1.00  0.00     0.180 C 
BRANCH   5  10
ATOM     10  N   UNL     1      -2.861   0.672  -3.501  1.00  0.00    -0.330 N 
ATOM     11  H   UNL     1      -3.297   0.460  -2.603  1.00  0.00     0.347 HD
ATOM     12  H   UNL     1      -2.750   1.635  -3.819  1.00  0.00     0.347 HD
BRANCH  10  13
ATOM     13  C   UNL     1      -3.768   0.155  -4.509  1.00  0.00     0.176 C 
ATOM     14  C   UNL     1      -5.114  -0.123  -3.833  1.00  0.00     0.075 C 
ATOM     15  C   UNL     1      -3.979   1.184  -5.621  1.00  0.00     0.075 C 
ENDBRANCH  10  13
ENDBRANCH   5  10
BRANCH   9  16
ATOM     16  O   UNL     1       0.897  -0.383  -6.073  1.00  0.00    -0.487 OA
BRANCH  16  17
ATOM     17  C   UNL     1       2.062   0.114  -5.564  1.00  0.00     0.158 A 
ATOM     18  C   UNL     1       2.728   1.093  -6.300  1.00  0.00     0.088 A 
ATOM     19  C   UNL     1       2.657  -0.403  -4.411  1.00  0.00     0.165 A 
ATOM     20  C   UNL     1       3.939   1.593  -5.832  1.00  0.00     0.127 A 
ATOM     21  C   UNL     1       3.872   0.100  -3.948  1.00  0.00     0.046 A 
ATOM     22  F   UNL     1       2.091  -1.408  -3.731  1.00  0.00    -0.203 F 
ATOM     23  F   UNL     1       4.564   2.554  -6.524  1.00  0.00    -0.207 F 
ATOM     24  C   UNL     1       4.513   1.112  -4.659  1.00  0.00     0.042 A 
ENDBRANCH  16  17
ENDBRANCH   9  16
ENDBRANCH   3   5
ENDBRANCH   2   3
ENDBRANCH   1   2
BRANCH   1  25
ATOM     25  C   UNL     1       0.292   0.628   0.831  1.00  0.00     0.275 C 
BRANCH  25  26
ATOM     26  O   UNL     1      -1.047   1.149   0.900  1.00  0.00    -0.458 OA
BRANCH  26  27
ATOM     27  C   UNL     1      -1.192   2.467   0.640  1.00  0.00     0.338 C 
ATOM     28  O   UNL     1      -0.319   3.297   0.457  1.00  0.00    -0.246 OA
BRANCH  27  29
ATOM     29  C   UNL     1      -2.629   2.779   0.572  1.00  0.00     0.060 A 
ATOM     30  C   UNL     1      -3.426   2.131  -0.370  1.00  0.00     0.016 A 
ATOM     31  C   UNL     1      -3.167   3.785   1.373  1.00  0.00     0.016 A 
ATOM     32  C   UNL     1      -4.741   2.535  -0.572  1.00  0.00     0.010 A 
ATOM     33  C   UNL     1      -4.516   4.128   1.231  1.00  0.00     0.010 A 
ATOM     34  C   UNL     1      -5.309   3.531   0.233  1.00  0.00    -0.014 A 
BRANCH  34  35
ATOM     35  C   UNL     1      -6.708   3.981  -0.003  1.00  0.00     0.031 A 
ATOM     36  C   UNL     1      -6.987   5.414  -0.375  1.00  0.00     0.074 A 
ATOM     37  C   UNL     1      -7.734   3.110   0.081  1.00  0.00     0.049 A 
ATOM     38  N   UNL     1      -8.135   6.037  -0.467  1.00  0.00    -0.248 NA
ATOM     39  C   UNL     1      -5.820   6.259  -0.675  1.00  0.00     0.031 C 
ATOM     40  C   UNL     1      -7.618   1.679   0.370  1.00  0.00     0.029 A 
ATOM     41  N   UNL     1      -9.084   3.305  -0.086  1.00  0.00    -0.354 N 
ATOM     42  C   UNL     1      -7.827   7.354  -0.780  1.00  0.00     0.074 A 
ATOM     43  C   UNL     1      -6.385   7.443  -0.864  1.00  0.00     0.031 C 
ATOM     44  C   UNL     1      -8.837   1.119   0.317  1.00  0.00     0.029 A 
ATOM     45  C   UNL     1      -9.828   2.161   0.071  1.00  0.00     0.049 A 
ATOM     46  H   UNL     1      -9.480   4.181  -0.297  1.00  0.00     0.167 HD
ATOM     47  C   UNL     1      -8.666   8.399  -0.977  1.00  0.00     0.031 A 
ATOM     48  C   UNL     1     -11.161   1.972   0.054  1.00  0.00     0.031 A 
ATOM     49  C   UNL     1     -10.101   8.311  -0.934  1.00  0.00     0.049 A 
ATOM     50  C   UNL     1     -12.072   3.151  -0.134  1.00  0.00     0.074 A 
ATOM     51  C   UNL     1     -11.034   9.321  -1.098  1.00  0.00     0.029 A 
ATOM     52  N   UNL     1     -10.811   7.139  -0.735  1.00  0.00    -0.354 N 
ATOM     53  N   UNL     1     -11.764   4.407  -0.344  1.00  0.00    -0.248 NA
ATOM     54  C   UNL     1     -13.516   2.885  -0.067  1.00  0.00     0.031 C 
ATOM     55  C   UNL     1     -12.311   8.761  -0.977  1.00  0.00     0.029 A 
ATOM     56  C   UNL     1     -12.170   7.399  -0.772  1.00  0.00     0.049 A 
ATOM     57  H   UNL     1     -10.408   6.252  -0.588  1.00  0.00     0.167 HD
ATOM     58  C   UNL     1     -12.973   5.081  -0.436  1.00  0.00     0.074 A 
ATOM     59  C   UNL     1     -14.021   4.092  -0.286  1.00  0.00     0.031 C 
ATOM     60  C   UNL     1     -13.197   6.404  -0.620  1.00  0.00     0.031 A 
BRANCH  47  61
ATOM     61  C   UNL     1      -8.044   9.743  -1.220  1.00  0.00    -0.014 A 
ATOM     62  C   UNL     1      -7.482  10.074  -2.462  1.00  0.00     0.009 A 
ATOM     63  C   UNL     1      -8.047  10.702  -0.195  1.00  0.00     0.009 A 
ATOM     64  C   UNL     1      -6.908  11.332  -2.663  1.00  0.00     0.001 A 
ATOM     65  C   UNL     1      -7.493  11.966  -0.406  1.00  0.00     0.001 A 
ATOM     66  C   UNL     1      -6.917  12.277  -1.637  1.00  0.00     0.000 A 
ENDBRANCH  47  61
BRANCH  48  67
ATOM     67  C   UNL     1     -11.722   0.614   0.271  1.00  0.00    -0.014 A 
ATOM     68  C   UNL     1     -12.326  -0.084  -0.785  1.00  0.00     0.009 A 
ATOM     69  C   UNL     1     -11.662   0.013   1.538  1.00  0.00     0.009 A 
ATOM     70  C   UNL     1     -12.874  -1.350  -0.572  1.00  0.00     0.001 A 
ATOM     71  C   UNL     1     -12.188  -1.264   1.742  1.00  0.00     0.001 A 
ATOM     72  C   UNL     1     -12.800  -1.941   0.689  1.00  0.00     0.000 A 
ENDBRANCH  48  67
BRANCH  60  73
ATOM     73  C   UNL     1     -14.628   6.848  -0.690  1.00  0.00    -0.014 A 
ATOM     74  C   UNL     1     -15.405   6.964   0.472  1.00  0.00     0.009 A 
ATOM     75  C   UNL     1     -15.197   7.172  -1.931  1.00  0.00     0.009 A 
ATOM     76  C   UNL     1     -16.738   7.370   0.389  1.00  0.00     0.001 A 
ATOM     77  C   UNL     1     -16.524   7.597  -2.008  1.00  0.00     0.001 A 
ATOM     78  C   UNL     1     -17.295   7.688  -0.850  1.00  0.00     0.000 A 
ENDBRANCH  60  73
ENDBRANCH  34  35
ENDBRANCH  27  29
ENDBRANCH  26  27
ENDBRANCH  25  26
ENDBRANCH   1  25
TORSDOF 15
