REMARK SMILES C=C[C@@H]1[C@@H](O)C[C@@H]2[C@@]3(CC[C@@]4(C)[C@@H]([C@H](C)CCC=C(C)C)CC[C@@]24C)C[C@@]13CCC(=O)OCCOC(=O)c1ccc(-c2c3nc(c(-c4ccccc4)c4ccc([nH]4)c(-c4ccccc4)c4nc(c(-c5ccccc5)c5ccc2[nH]5)C=C4)C=C3)cc1
REMARK SMILES IDX 30 1 31 2 29 3 28 4 27 5 3 6 4 7 6 8 8 9 26 10 7 11 9 12
REMARK SMILES IDX 24 13 10 14 11 15 23 16 25 17 12 18 13 19 22 20 2 21 1 22
REMARK SMILES IDX 5 23 14 25 15 26 16 27 17 28 18 29 19 30 20 31 21 32 32 33
REMARK SMILES IDX 33 34 34 35 35 36 36 37 37 38 38 39 39 40 85 41 40 42 84 43
REMARK SMILES IDX 41 44 42 45 43 46 78 47 44 48 83 49 77 50 79 51 45 52 82 53
REMARK SMILES IDX 76 54 75 55 46 57 68 58 53 59 67 60 54 61 57 62 66 63 80 64
REMARK SMILES IDX 55 65 56 66 65 68 81 69 58 70 47 71 48 72 52 73 49 74 51 75
REMARK SMILES IDX 50 76 69 77 70 78 74 79 71 80 73 81 72 82 59 83 60 84 64 85
REMARK SMILES IDX 61 86 63 87 62 88
REMARK H PARENT 5 24 79 56 57 67
REMARK Flexibility Score: inf
ROOT
ATOM      1  C   UNL     1      -1.717  -4.473   7.128  1.00  0.00     0.305 C 
ATOM      2  O   UNL     1      -2.745  -4.432   6.462  1.00  0.00    -0.252 OA
ENDROOT
BRANCH   1   3
ATOM      3  C   UNL     1      -1.679  -5.077   8.469  1.00  0.00     0.123 C 
BRANCH   3   4
ATOM      4  C   UNL     1      -1.514  -3.891   9.419  1.00  0.00     0.020 C 
BRANCH   4   5
ATOM      5  C   UNL     1      -2.699  -2.909   9.329  1.00  0.00    -0.014 C 
ATOM      6  C   UNL     1      -4.091  -3.498   9.790  1.00  0.00     0.047 C 
ATOM      7  C   UNL     1      -5.144  -3.312   8.661  1.00  0.00     0.122 C 
ATOM      8  C   UNL     1      -5.107  -1.891   8.060  1.00  0.00     0.037 C 
ATOM      9  C   UNL     1      -2.590  -1.632   8.307  1.00  0.00    -0.019 C 
ATOM     10  C   UNL     1      -2.570  -1.514   9.828  1.00  0.00     0.016 C 
ATOM     11  C   UNL     1      -3.796  -1.624   7.302  1.00  0.00     0.005 C 
ATOM     12  C   UNL     1      -1.327  -0.898   7.829  1.00  0.00     0.008 C 
ATOM     13  C   UNL     1      -3.833  -0.429   6.256  1.00  0.00    -0.023 C 
ATOM     14  C   UNL     1      -1.384  -0.130   6.488  1.00  0.00     0.008 C 
ATOM     15  C   UNL     1      -2.500  -0.396   5.410  1.00  0.00    -0.024 C 
ATOM     16  C   UNL     1      -4.878  -0.587   5.131  1.00  0.00     0.008 C 
ATOM     17  C   UNL     1      -4.166   0.864   7.045  1.00  0.00     0.012 C 
ATOM     18  C   UNL     1      -2.377   0.965   4.566  1.00  0.00     0.012 C 
ATOM     19  C   UNL     1      -2.729  -1.585   4.115  1.00  0.00    -0.002 C 
ATOM     20  C   UNL     1      -4.245  -1.216   3.875  1.00  0.00     0.005 C 
BRANCH   6  21
ATOM     21  C   UNL     1      -4.071  -4.863  10.494  1.00  0.00    -0.028 C 
ATOM     22  C   UNL     1      -5.085  -5.701  10.750  1.00  0.00     0.004 C 
ENDBRANCH   6  21
BRANCH   7  23
ATOM     23  O   UNL     1      -6.480  -3.497   9.152  1.00  0.00    -0.392 OA
ATOM     24  H   UNL     1      -6.676  -2.820   9.818  1.00  0.00     0.210 HD
ENDBRANCH   7  23
BRANCH  19  25
ATOM     25  C   UNL     1      -2.510  -3.248   3.426  1.00  0.00    -0.010 C 
ATOM     26  C   UNL     1      -3.822  -4.050   3.302  1.00  0.00     0.008 C 
BRANCH  25  27
ATOM     27  C   UNL     1      -1.265  -4.441   3.230  1.00  0.00     0.008 C 
BRANCH  27  28
ATOM     28  C   UNL     1      -0.778  -5.431   4.399  1.00  0.00     0.027 C 
BRANCH  28  29
ATOM     29  C   UNL     1      -0.419  -6.908   4.411  1.00  0.00    -0.028 C 
ATOM     30  C   UNL     1       0.292  -7.554   5.383  1.00  0.00    -0.080 C 
ATOM     31  C   UNL     1       0.329  -9.067   5.428  1.00  0.00     0.039 C 
ATOM     32  C   UNL     1       1.073  -6.958   6.544  1.00  0.00     0.039 C 
ENDBRANCH  28  29
ENDBRANCH  27  28
ENDBRANCH  25  27
ENDBRANCH  19  25
ENDBRANCH   4   5
ENDBRANCH   3   4
ENDBRANCH   1   3
BRANCH   1  33
ATOM     33  O   UNL     1      -0.508  -3.870   6.844  1.00  0.00    -0.462 OA
BRANCH  33  34
ATOM     34  C   UNL     1      -0.663  -2.899   5.829  1.00  0.00     0.274 C 
BRANCH  34  35
ATOM     35  C   UNL     1       0.536  -2.117   5.322  1.00  0.00     0.275 C 
BRANCH  35  36
ATOM     36  O   UNL     1       1.297  -2.937   4.457  1.00  0.00    -0.458 OA
BRANCH  36  37
ATOM     37  C   UNL     1       2.536  -2.519   4.137  1.00  0.00     0.338 C 
ATOM     38  O   UNL     1       3.050  -1.446   4.433  1.00  0.00    -0.246 OA
BRANCH  37  39
ATOM     39  C   UNL     1       3.230  -3.710   3.607  1.00  0.00     0.060 A 
ATOM     40  C   UNL     1       2.478  -4.847   3.350  1.00  0.00     0.016 A 
ATOM     41  C   UNL     1       4.611  -3.812   3.688  1.00  0.00     0.016 A 
ATOM     42  C   UNL     1       3.025  -6.078   3.611  1.00  0.00     0.010 A 
ATOM     43  C   UNL     1       5.194  -5.083   3.678  1.00  0.00     0.010 A 
ATOM     44  C   UNL     1       4.392  -6.240   3.761  1.00  0.00    -0.014 A 
BRANCH  44  45
ATOM     45  C   UNL     1       4.957  -7.577   4.097  1.00  0.00     0.031 A 
ATOM     46  C   UNL     1       6.065  -7.640   5.111  1.00  0.00     0.074 A 
ATOM     47  C   UNL     1       4.498  -8.732   3.563  1.00  0.00     0.049 A 
ATOM     48  N   UNL     1       7.050  -8.490   5.192  1.00  0.00    -0.248 NA
ATOM     49  C   UNL     1       6.099  -6.578   6.135  1.00  0.00     0.031 C 
ATOM     50  C   UNL     1       3.315  -8.908   2.713  1.00  0.00     0.029 A 
ATOM     51  N   UNL     1       5.003 -10.009   3.662  1.00  0.00    -0.354 N 
ATOM     52  C   UNL     1       7.901  -7.979   6.164  1.00  0.00     0.074 A 
ATOM     53  C   UNL     1       7.283  -6.786   6.697  1.00  0.00     0.031 C 
ATOM     54  C   UNL     1       3.148 -10.205   2.432  1.00  0.00     0.029 A 
ATOM     55  C   UNL     1       4.332 -10.914   2.871  1.00  0.00     0.049 A 
ATOM     56  H   UNL     1       5.764 -10.249   4.238  1.00  0.00     0.167 HD
ATOM     57  C   UNL     1       9.118  -8.454   6.510  1.00  0.00     0.031 A 
ATOM     58  C   UNL     1       4.694 -12.123   2.407  1.00  0.00     0.031 A 
ATOM     59  C   UNL     1       9.645  -9.690   5.997  1.00  0.00     0.049 A 
ATOM     60  C   UNL     1       6.077 -12.604   2.735  1.00  0.00     0.074 A 
ATOM     61  C   UNL     1      10.872 -10.278   6.237  1.00  0.00     0.029 A 
ATOM     62  N   UNL     1       8.945 -10.544   5.156  1.00  0.00    -0.354 N 
ATOM     63  N   UNL     1       6.987 -12.047   3.498  1.00  0.00    -0.248 NA
ATOM     64  C   UNL     1       6.504 -13.852   2.094  1.00  0.00     0.031 C 
ATOM     65  C   UNL     1      10.935 -11.462   5.495  1.00  0.00     0.029 A 
ATOM     66  C   UNL     1       9.719 -11.646   4.854  1.00  0.00     0.049 A 
ATOM     67  H   UNL     1       8.031 -10.387   4.824  1.00  0.00     0.167 HD
ATOM     68  C   UNL     1       8.089 -12.886   3.441  1.00  0.00     0.074 A 
ATOM     69  C   UNL     1       7.721 -14.002   2.593  1.00  0.00     0.031 C 
ATOM     70  C   UNL     1       9.305 -12.746   4.023  1.00  0.00     0.031 A 
BRANCH  57  71
ATOM     71  C   UNL     1      10.000  -7.594   7.369  1.00  0.00    -0.014 A 
ATOM     72  C   UNL     1       9.773  -7.399   8.738  1.00  0.00     0.009 A 
ATOM     73  C   UNL     1      11.130  -6.998   6.778  1.00  0.00     0.009 A 
ATOM     74  C   UNL     1      10.650  -6.611   9.491  1.00  0.00     0.001 A 
ATOM     75  C   UNL     1      12.018  -6.236   7.537  1.00  0.00     0.001 A 
ATOM     76  C   UNL     1      11.774  -6.038   8.893  1.00  0.00     0.000 A 
ENDBRANCH  57  71
BRANCH  58  77
ATOM     77  C   UNL     1       3.832 -12.864   1.440  1.00  0.00    -0.014 A 
ATOM     78  C   UNL     1       3.339 -14.140   1.749  1.00  0.00     0.009 A 
ATOM     79  C   UNL     1       3.524 -12.314   0.182  1.00  0.00     0.009 A 
ATOM     80  C   UNL     1       2.591 -14.858   0.811  1.00  0.00     0.001 A 
ATOM     81  C   UNL     1       2.733 -13.011  -0.733  1.00  0.00     0.001 A 
ATOM     82  C   UNL     1       2.282 -14.290  -0.425  1.00  0.00     0.000 A 
ENDBRANCH  58  77
BRANCH  70  83
ATOM     83  C   UNL     1      10.280 -13.866   3.820  1.00  0.00    -0.014 A 
ATOM     84  C   UNL     1      10.912 -14.075   2.586  1.00  0.00     0.009 A 
ATOM     85  C   UNL     1      10.587 -14.705   4.902  1.00  0.00     0.009 A 
ATOM     86  C   UNL     1      11.808 -15.132   2.430  1.00  0.00     0.001 A 
ATOM     87  C   UNL     1      11.510 -15.737   4.752  1.00  0.00     0.001 A 
ATOM     88  C   UNL     1      12.111 -15.957   3.514  1.00  0.00     0.000 A 
ENDBRANCH  70  83
ENDBRANCH  44  45
ENDBRANCH  37  39
ENDBRANCH  36  37
ENDBRANCH  35  36
ENDBRANCH  34  35
ENDBRANCH  33  34
ENDBRANCH   1  33
TORSDOF 19
