REMARK SMILES Cc1c(NC(=O)c2cccc(-c3cc4ccccc4oc3=O)c2)cccc1C(=O)OCCOC(=O)c1ccc(-c2c3nc(c(-c4ccccc4)c4ccc([nH]4)c(-c4ccccc4)c4nc(c(-c5ccccc5)c5ccc2[nH]5)C=C4)C=C3)cc1
REMARK SMILES IDX 31 1 30 2 28 3 29 4 27 5 1 6 2 7 3 8 24 9 26 10 25 11 4 12
REMARK SMILES IDX 5 13 6 15 7 16 8 17 23 18 9 19 11 20 10 21 12 22 13 23 21 24
REMARK SMILES IDX 14 25 20 26 22 27 15 28 19 29 16 30 18 31 17 32 32 33 33 34
REMARK SMILES IDX 34 35 35 36 36 37 37 38 83 39 38 40 82 41 39 42 40 43 41 44
REMARK SMILES IDX 76 45 42 46 81 47 75 48 77 49 43 50 80 51 74 52 73 53 44 55
REMARK SMILES IDX 66 56 51 57 65 58 52 59 55 60 64 61 78 62 53 63 54 64 63 66
REMARK SMILES IDX 79 67 56 68 45 69 46 70 50 71 47 72 49 73 48 74 67 75 68 76
REMARK SMILES IDX 72 77 69 78 71 79 70 80 57 81 58 82 62 83 59 84 61 85 60 86
REMARK H PARENT 4 14 77 54 55 65
REMARK Flexibility Score: inf
ROOT
ATOM      1  C   UNL     1       3.619   2.906  -1.451  1.00  0.00     0.275 C 
ENDROOT
BRANCH   1   2
ATOM      2  O   UNL     1       2.923   1.798  -0.798  1.00  0.00    -0.458 OA
BRANCH   2   3
ATOM      3  C   UNL     1       1.662   1.497  -1.150  1.00  0.00     0.338 C 
ATOM      4  O   UNL     1       1.039   2.132  -1.984  1.00  0.00    -0.246 OA
BRANCH   3   5
ATOM      5  C   UNL     1       0.961   0.413  -0.396  1.00  0.00     0.065 A 
ATOM      6  C   UNL     1       2.982  -1.076   0.061  1.00  0.00     0.047 C 
ATOM      7  C   UNL     1       1.507  -0.789   0.092  1.00  0.00    -0.013 A 
ATOM      8  C   UNL     1       0.581  -1.795   0.481  1.00  0.00     0.045 A 
ATOM      9  C   UNL     1      -0.765  -1.489   0.721  1.00  0.00     0.026 A 
ATOM     10  C   UNL     1      -0.437   0.612  -0.323  1.00  0.00     0.016 A 
ATOM     11  C   UNL     1      -1.284  -0.281   0.308  1.00  0.00     0.003 A 
BRANCH   8  12
ATOM     12  N   UNL     1       0.978  -3.144   0.517  1.00  0.00    -0.322 N 
ATOM     13  C   UNL     1       0.272  -4.292   0.191  1.00  0.00     0.255 C 
ATOM     14  H   UNL     1       1.902  -3.297   0.821  1.00  0.00     0.170 HD
ATOM     15  O   UNL     1       0.766  -5.377   0.503  1.00  0.00    -0.269 OA
BRANCH  13  16
ATOM     16  C   UNL     1      -0.997  -4.298  -0.617  1.00  0.00     0.040 A 
ATOM     17  C   UNL     1      -1.838  -5.413  -0.500  1.00  0.00     0.014 A 
ATOM     18  C   UNL     1      -1.309  -3.332  -1.587  1.00  0.00     0.022 A 
ATOM     19  C   UNL     1      -2.985  -5.531  -1.291  1.00  0.00     0.001 A 
ATOM     20  C   UNL     1      -2.466  -3.432  -2.388  1.00  0.00    -0.010 A 
ATOM     21  C   UNL     1      -3.303  -4.540  -2.220  1.00  0.00     0.009 A 
BRANCH  20  22
ATOM     22  C   UNL     1      -2.720  -2.566  -3.582  1.00  0.00     0.068 A 
ATOM     23  C   UNL     1      -2.466  -1.238  -3.571  1.00  0.00     0.028 A 
ATOM     24  C   UNL     1      -2.107  -3.179  -4.810  1.00  0.00     0.344 A 
ATOM     25  C   UNL     1      -1.113  -0.840  -4.013  1.00  0.00     0.018 A 
ATOM     26  O   UNL     1      -0.720  -3.111  -4.793  1.00  0.00    -0.422 OA
ATOM     27  O   UNL     1      -2.761  -3.784  -5.647  1.00  0.00    -0.246 OA
ATOM     28  C   UNL     1      -0.660   0.469  -3.988  1.00  0.00     0.012 A 
ATOM     29  C   UNL     1      -0.231  -1.848  -4.422  1.00  0.00     0.138 A 
ATOM     30  C   UNL     1       0.686   0.723  -4.266  1.00  0.00     0.001 A 
ATOM     31  C   UNL     1       1.134  -1.623  -4.539  1.00  0.00     0.048 A 
ATOM     32  C   UNL     1       1.599  -0.320  -4.433  1.00  0.00     0.004 A 
ENDBRANCH  20  22
ENDBRANCH  13  16
ENDBRANCH   8  12
ENDBRANCH   3   5
ENDBRANCH   2   3
ENDBRANCH   1   2
BRANCH   1  33
ATOM     33  C   UNL     1       2.991   3.800  -2.579  1.00  0.00     0.275 C 
BRANCH  33  34
ATOM     34  O   UNL     1       2.016   4.888  -2.409  1.00  0.00    -0.458 OA
BRANCH  34  35
ATOM     35  C   UNL     1       0.782   4.814  -1.815  1.00  0.00     0.338 C 
ATOM     36  O   UNL     1      -0.257   5.115  -2.322  1.00  0.00    -0.246 OA
BRANCH  35  37
ATOM     37  C   UNL     1       0.914   4.516  -0.379  1.00  0.00     0.060 A 
ATOM     38  C   UNL     1      -0.080   3.806   0.309  1.00  0.00     0.016 A 
ATOM     39  C   UNL     1       2.132   4.825   0.202  1.00  0.00     0.016 A 
ATOM     40  C   UNL     1       0.218   3.272   1.556  1.00  0.00     0.010 A 
ATOM     41  C   UNL     1       2.498   4.151   1.326  1.00  0.00     0.010 A 
ATOM     42  C   UNL     1       1.518   3.442   2.031  1.00  0.00    -0.014 A 
BRANCH  42  43
ATOM     43  C   UNL     1       1.853   3.430   3.436  1.00  0.00     0.031 A 
ATOM     44  C   UNL     1       2.495   2.277   4.058  1.00  0.00     0.074 A 
ATOM     45  C   UNL     1       1.772   4.691   3.916  1.00  0.00     0.049 A 
ATOM     46  N   UNL     1       2.451   2.030   5.316  1.00  0.00    -0.248 NA
ATOM     47  C   UNL     1       3.222   1.258   3.300  1.00  0.00     0.031 C 
ATOM     48  C   UNL     1       2.352   5.347   5.067  1.00  0.00     0.029 A 
ATOM     49  N   UNL     1       0.992   5.696   3.351  1.00  0.00    -0.354 N 
ATOM     50  C   UNL     1       3.445   1.109   5.566  1.00  0.00     0.074 A 
ATOM     51  C   UNL     1       3.752   0.520   4.285  1.00  0.00     0.031 C 
ATOM     52  C   UNL     1       1.676   6.501   5.277  1.00  0.00     0.029 A 
ATOM     53  C   UNL     1       0.557   6.558   4.330  1.00  0.00     0.049 A 
ATOM     54  H   UNL     1       0.782   5.778   2.392  1.00  0.00     0.167 HD
ATOM     55  C   UNL     1       4.066   1.138   6.780  1.00  0.00     0.031 A 
ATOM     56  C   UNL     1      -0.772   6.463   4.642  1.00  0.00     0.031 A 
ATOM     57  C   UNL     1       3.521   2.236   7.589  1.00  0.00     0.049 A 
ATOM     58  C   UNL     1      -0.925   5.757   5.972  1.00  0.00     0.074 A 
ATOM     59  C   UNL     1       3.985   3.523   7.807  1.00  0.00     0.029 A 
ATOM     60  N   UNL     1       2.172   2.240   7.931  1.00  0.00    -0.354 N 
ATOM     61  N   UNL     1      -0.095   4.857   6.430  1.00  0.00    -0.248 NA
ATOM     62  C   UNL     1      -1.988   6.079   6.914  1.00  0.00     0.031 C 
ATOM     63  C   UNL     1       2.869   4.330   8.167  1.00  0.00     0.029 A 
ATOM     64  C   UNL     1       1.737   3.531   8.179  1.00  0.00     0.049 A 
ATOM     65  H   UNL     1       1.605   1.436   7.989  1.00  0.00     0.167 HD
ATOM     66  C   UNL     1      -0.412   4.574   7.727  1.00  0.00     0.074 A 
ATOM     67  C   UNL     1      -1.629   5.333   7.972  1.00  0.00     0.031 C 
ATOM     68  C   UNL     1       0.346   3.778   8.537  1.00  0.00     0.031 A 
BRANCH  55  69
ATOM     69  C   UNL     1       5.373   0.449   7.109  1.00  0.00    -0.014 A 
ATOM     70  C   UNL     1       6.139   0.917   8.196  1.00  0.00     0.009 A 
ATOM     71  C   UNL     1       5.918  -0.637   6.402  1.00  0.00     0.009 A 
ATOM     72  C   UNL     1       7.395   0.383   8.516  1.00  0.00     0.001 A 
ATOM     73  C   UNL     1       7.186  -1.164   6.703  1.00  0.00     0.001 A 
ATOM     74  C   UNL     1       7.928  -0.649   7.757  1.00  0.00     0.000 A 
ENDBRANCH  55  69
BRANCH  56  75
ATOM     75  C   UNL     1      -1.697   6.289   3.457  1.00  0.00    -0.014 A 
ATOM     76  C   UNL     1      -1.599   7.206   2.381  1.00  0.00     0.009 A 
ATOM     77  C   UNL     1      -2.489   5.149   3.251  1.00  0.00     0.009 A 
ATOM     78  C   UNL     1      -2.188   6.954   1.133  1.00  0.00     0.001 A 
ATOM     79  C   UNL     1      -3.104   4.911   2.005  1.00  0.00     0.001 A 
ATOM     80  C   UNL     1      -2.935   5.799   0.942  1.00  0.00     0.000 A 
ENDBRANCH  56  75
BRANCH  68  81
ATOM     81  C   UNL     1      -0.153   3.193   9.826  1.00  0.00    -0.014 A 
ATOM     82  C   UNL     1      -1.507   2.937  10.072  1.00  0.00     0.009 A 
ATOM     83  C   UNL     1       0.780   2.703  10.764  1.00  0.00     0.009 A 
ATOM     84  C   UNL     1      -1.915   2.274  11.231  1.00  0.00     0.001 A 
ATOM     85  C   UNL     1       0.380   1.985  11.889  1.00  0.00     0.001 A 
ATOM     86  C   UNL     1      -0.972   1.786  12.130  1.00  0.00     0.000 A 
ENDBRANCH  68  81
ENDBRANCH  42  43
ENDBRANCH  35  37
ENDBRANCH  34  35
ENDBRANCH  33  34
ENDBRANCH   1  33
TORSDOF 14
