REMARK SMILES CC(C)c1ccc(C(=O)NC[C@H]2CC[C@@H](C(=O)OCCOC(=O)c3ccc(-c4c5nc(c(-c6ccccc6)c6ccc([nH]6)c(-c6ccccc6)c6nc(c(-c7ccccc7)c7ccc4[nH]7)C=C6)C=C5)cc3)O2)cc1
REMARK SMILES IDX 19 1 18 2 16 3 17 4 15 5 12 6 13 7 72 8 14 9 11 10 10 11
REMARK SMILES IDX 8 12 9 13 7 15 4 16 5 17 74 18 6 19 73 20 2 21 1 22 3 23
REMARK SMILES IDX 20 24 21 25 22 26 23 27 24 28 25 29 71 30 26 31 70 32 27 33
REMARK SMILES IDX 28 34 29 35 64 36 30 37 69 38 63 39 65 40 31 41 68 42 62 43
REMARK SMILES IDX 61 44 32 46 54 47 39 48 53 49 40 50 43 51 52 52 66 53 41 54
REMARK SMILES IDX 42 55 51 57 67 58 44 59 33 60 34 61 38 62 35 63 37 64 36 65
REMARK SMILES IDX 55 66 56 67 60 68 57 69 59 70 58 71 45 72 46 73 50 74 47 75
REMARK SMILES IDX 49 76 48 77
REMARK H PARENT 10 14 65 45 43 56
REMARK Flexibility Score: inf
ROOT
ATOM      1  C   UNL     1     -10.279  -4.858   2.632  1.00  0.00     0.274 C 
ENDROOT
BRANCH   1   2
ATOM      2  O   UNL     1      -9.348  -4.625   1.555  1.00  0.00    -0.460 OA
BRANCH   2   3
ATOM      3  C   UNL     1      -8.535  -3.547   1.748  1.00  0.00     0.335 C 
ATOM      4  O   UNL     1      -8.472  -2.934   2.805  1.00  0.00    -0.249 OA
BRANCH   3   5
ATOM      5  C   UNL     1      -7.756  -3.170   0.484  1.00  0.00     0.228 C 
ATOM      6  C   UNL     1      -5.732  -2.001   0.199  1.00  0.00     0.138 C 
ATOM      7  C   UNL     1      -5.384  -3.476   0.119  1.00  0.00     0.037 C 
ATOM      8  O   UNL     1      -7.065  -1.930   0.706  1.00  0.00    -0.361 OA
ATOM      9  C   UNL     1      -6.717  -4.194   0.061  1.00  0.00     0.047 C 
BRANCH   6  10
ATOM     10  C   UNL     1      -4.757  -1.206   1.091  1.00  0.00     0.148 C 
BRANCH  10  11
ATOM     11  N   UNL     1      -5.026   0.225   1.108  1.00  0.00    -0.349 N 
ATOM     12  C   UNL     1      -5.669   1.090   1.957  1.00  0.00     0.251 C 
ATOM     13  O   UNL     1      -5.614   2.282   1.632  1.00  0.00    -0.269 OA
ATOM     14  H   UNL     1      -4.657   0.683   0.318  1.00  0.00     0.163 HD
BRANCH  12  15
ATOM     15  C   UNL     1      -6.407   0.733   3.210  1.00  0.00     0.039 A 
ATOM     16  C   UNL     1      -8.017   0.283   5.528  1.00  0.00    -0.045 A 
ATOM     17  C   UNL     1      -7.691   1.581   5.122  1.00  0.00     0.005 A 
ATOM     18  C   UNL     1      -7.478  -0.778   4.796  1.00  0.00     0.005 A 
ATOM     19  C   UNL     1      -6.899   1.799   3.985  1.00  0.00     0.014 A 
ATOM     20  C   UNL     1      -6.701  -0.553   3.647  1.00  0.00     0.014 A 
BRANCH  16  21
ATOM     21  C   UNL     1      -8.943   0.063   6.712  1.00  0.00     0.013 C 
ATOM     22  C   UNL     1      -9.970  -1.054   6.481  1.00  0.00     0.012 C 
ATOM     23  C   UNL     1      -8.142  -0.203   7.986  1.00  0.00     0.012 C 
ENDBRANCH  16  21
ENDBRANCH  12  15
ENDBRANCH  10  11
ENDBRANCH   6  10
ENDBRANCH   3   5
ENDBRANCH   2   3
ENDBRANCH   1   2
BRANCH   1  24
ATOM     24  C   UNL     1      -9.771  -5.847   3.686  1.00  0.00     0.275 C 
BRANCH  24  25
ATOM     25  O   UNL     1      -8.573  -5.394   4.344  1.00  0.00    -0.458 OA
BRANCH  25  26
ATOM     26  C   UNL     1      -7.436  -5.987   3.922  1.00  0.00     0.338 C 
ATOM     27  O   UNL     1      -7.322  -6.858   3.073  1.00  0.00    -0.246 OA
BRANCH  26  28
ATOM     28  C   UNL     1      -6.261  -5.364   4.548  1.00  0.00     0.060 A 
ATOM     29  C   UNL     1      -5.543  -4.444   3.787  1.00  0.00     0.016 A 
ATOM     30  C   UNL     1      -5.760  -5.812   5.770  1.00  0.00     0.016 A 
ATOM     31  C   UNL     1      -4.289  -4.011   4.206  1.00  0.00     0.010 A 
ATOM     32  C   UNL     1      -4.512  -5.349   6.211  1.00  0.00     0.010 A 
ATOM     33  C   UNL     1      -3.752  -4.474   5.414  1.00  0.00    -0.014 A 
BRANCH  33  34
ATOM     34  C   UNL     1      -2.365  -4.095   5.782  1.00  0.00     0.031 A 
ATOM     35  C   UNL     1      -1.255  -5.107   5.684  1.00  0.00     0.074 A 
ATOM     36  C   UNL     1      -2.075  -2.824   6.117  1.00  0.00     0.049 A 
ATOM     37  N   UNL     1       0.011  -4.979   5.995  1.00  0.00    -0.248 NA
ATOM     38  C   UNL     1      -1.613  -6.433   5.154  1.00  0.00     0.031 C 
ATOM     39  C   UNL     1      -3.034  -1.719   6.168  1.00  0.00     0.029 A 
ATOM     40  N   UNL     1      -0.878  -2.245   6.455  1.00  0.00    -0.354 N 
ATOM     41  C   UNL     1       0.594  -6.210   5.722  1.00  0.00     0.074 A 
ATOM     42  C   UNL     1      -0.455  -7.073   5.223  1.00  0.00     0.031 C 
ATOM     43  C   UNL     1      -2.380  -0.589   6.485  1.00  0.00     0.029 A 
ATOM     44  C   UNL     1      -0.971  -0.900   6.709  1.00  0.00     0.049 A 
ATOM     45  H   UNL     1      -0.033  -2.747   6.510  1.00  0.00     0.167 HD
ATOM     46  C   UNL     1       1.885  -6.591   5.874  1.00  0.00     0.031 A 
ATOM     47  C   UNL     1      -0.031  -0.018   7.098  1.00  0.00     0.031 A 
ATOM     48  C   UNL     1       2.939  -5.742   6.359  1.00  0.00     0.049 A 
ATOM     49  C   UNL     1       1.376  -0.484   7.337  1.00  0.00     0.074 A 
ATOM     50  C   UNL     1       4.271  -6.056   6.577  1.00  0.00     0.029 A 
ATOM     51  N   UNL     1       2.783  -4.407   6.690  1.00  0.00    -0.354 N 
ATOM     52  N   UNL     1       1.895  -1.671   7.147  1.00  0.00    -0.248 NA
ATOM     53  C   UNL     1       2.320   0.512   7.865  1.00  0.00     0.031 C 
ATOM     54  C   UNL     1       4.916  -4.912   7.064  1.00  0.00     0.029 A 
ATOM     55  C   UNL     1       3.990  -3.884   7.121  1.00  0.00     0.049 A 
ATOM     56  H   UNL     1       1.939  -3.905   6.628  1.00  0.00     0.167 HD
ATOM     57  C   UNL     1       3.225  -1.566   7.532  1.00  0.00     0.074 A 
ATOM     58  C   UNL     1       3.438  -0.196   7.949  1.00  0.00     0.031 C 
ATOM     59  C   UNL     1       4.183  -2.523   7.543  1.00  0.00     0.031 A 
BRANCH  46  60
ATOM     60  C   UNL     1       2.218  -8.014   5.541  1.00  0.00    -0.014 A 
ATOM     61  C   UNL     1       2.418  -8.419   4.213  1.00  0.00     0.009 A 
ATOM     62  C   UNL     1       2.354  -8.956   6.573  1.00  0.00     0.009 A 
ATOM     63  C   UNL     1       2.725  -9.750   3.923  1.00  0.00     0.001 A 
ATOM     64  C   UNL     1       2.675 -10.282   6.280  1.00  0.00     0.001 A 
ATOM     65  C   UNL     1       2.854 -10.679   4.955  1.00  0.00     0.000 A 
ENDBRANCH  46  60
BRANCH  47  66
ATOM     66  C   UNL     1      -0.399   1.401   7.321  1.00  0.00    -0.014 A 
ATOM     67  C   UNL     1      -0.022   2.385   6.397  1.00  0.00     0.009 A 
ATOM     68  C   UNL     1      -1.125   1.775   8.461  1.00  0.00     0.009 A 
ATOM     69  C   UNL     1      -0.358   3.722   6.616  1.00  0.00     0.001 A 
ATOM     70  C   UNL     1      -1.475   3.110   8.669  1.00  0.00     0.001 A 
ATOM     71  C   UNL     1      -1.087   4.083   7.749  1.00  0.00     0.000 A 
ENDBRANCH  47  66
BRANCH  59  72
ATOM     72  C   UNL     1       5.545  -2.117   8.019  1.00  0.00    -0.014 A 
ATOM     73  C   UNL     1       5.824  -2.020   9.390  1.00  0.00     0.009 A 
ATOM     74  C   UNL     1       6.564  -1.855   7.091  1.00  0.00     0.009 A 
ATOM     75  C   UNL     1       7.097  -1.645   9.825  1.00  0.00     0.001 A 
ATOM     76  C   UNL     1       7.839  -1.493   7.529  1.00  0.00     0.001 A 
ATOM     77  C   UNL     1       8.103  -1.383   8.894  1.00  0.00     0.000 A 
ENDBRANCH  59  72
ENDBRANCH  33  34
ENDBRANCH  26  28
ENDBRANCH  25  26
ENDBRANCH  24  25
ENDBRANCH   1  24
TORSDOF 15
