REMARK SMILES CC(C)[C@H](NC(=O)OCc1ccccc1)C(=O)NCC(=O)OCCOC(=O)c1ccc(-c2c3nc(c(-c4ccccc4)c4ccc([nH]4)c(-c4ccccc4)c4nc(c(-c5ccccc5)c5ccc2[nH]5)C=C4)C=C3)cc1
REMARK SMILES IDX 20 1 21 2 19 3 18 4 16 5 17 6 4 8 2 9 1 10 3 11 5 12 6 13
REMARK SMILES IDX 7 15 8 16 9 17 10 18 11 19 15 20 12 21 14 22 13 23 22 24
REMARK SMILES IDX 23 25 24 26 25 27 26 28 27 29 28 30 29 31 75 32 30 33 74 34
REMARK SMILES IDX 31 35 32 36 33 37 68 38 34 39 73 40 67 41 69 42 35 43 72 44
REMARK SMILES IDX 66 45 65 46 36 48 58 49 43 50 57 51 44 52 47 53 56 54 70 55
REMARK SMILES IDX 45 56 46 57 55 59 71 60 48 61 37 62 38 63 42 64 39 65 41 66
REMARK SMILES IDX 40 67 59 68 60 69 64 70 61 71 63 72 62 73 49 74 50 75 54 76
REMARK SMILES IDX 51 77 53 78 52 79
REMARK H PARENT 18 7 5 14 69 47 47 58
REMARK Flexibility Score: inf
ROOT
ATOM      1  C   UNL     1       2.071   2.065  -2.492  1.00  0.00     0.325 C 
ATOM      2  O   UNL     1       2.864   2.893  -2.050  1.00  0.00    -0.250 OA
ENDROOT
BRANCH   1   3
ATOM      3  C   UNL     1       0.439   2.162  -2.024  1.00  0.00     0.238 C 
BRANCH   3   4
ATOM      4  N   UNL     1      -0.923   1.810  -2.652  1.00  0.00    -0.343 N 
ATOM      5  C   UNL     1      -1.640   0.623  -2.563  1.00  0.00     0.243 C 
ATOM      6  O   UNL     1      -2.589   0.361  -3.301  1.00  0.00    -0.273 OA
ATOM      7  H   UNL     1      -1.341   2.521  -3.189  1.00  0.00     0.164 HD
BRANCH   5   8
ATOM      8  C   UNL     1      -1.184  -0.317  -1.484  1.00  0.00     0.177 C 
BRANCH   8   9
ATOM      9  C   UNL     1      -1.577   0.375  -0.080  1.00  0.00     0.015 C 
ATOM     10  C   UNL     1      -0.521   0.543   1.019  1.00  0.00     0.010 C 
ATOM     11  C   UNL     1      -2.367   1.725  -0.191  1.00  0.00     0.010 C 
ENDBRANCH   8   9
BRANCH   8  12
ATOM     12  N   UNL     1       0.193  -0.719  -1.895  1.00  0.00    -0.309 N 
ATOM     13  C   UNL     1       0.732  -0.657  -3.215  1.00  0.00     0.408 C 
ATOM     14  H   UNL     1       0.787  -1.060  -1.188  1.00  0.00     0.167 HD
ATOM     15  O   UNL     1       1.613  -1.476  -3.527  1.00  0.00    -0.225 OA
BRANCH  13  16
ATOM     16  O   UNL     1       0.388   0.458  -3.957  1.00  0.00    -0.445 OA
BRANCH  16  17
ATOM     17  C   UNL     1       0.844   1.710  -4.947  1.00  0.00     0.270 C 
BRANCH  17  18
ATOM     18  C   UNL     1       1.987   3.055  -4.939  1.00  0.00    -0.011 A 
ATOM     19  C   UNL     1       3.390   3.076  -5.308  1.00  0.00     0.007 A 
ATOM     20  C   UNL     1       1.562   4.313  -4.500  1.00  0.00     0.007 A 
ATOM     21  C   UNL     1       4.328   4.052  -4.938  1.00  0.00     0.000 A 
ATOM     22  C   UNL     1       2.491   5.349  -4.200  1.00  0.00     0.000 A 
ATOM     23  C   UNL     1       3.872   5.184  -4.325  1.00  0.00     0.000 A 
ENDBRANCH  17  18
ENDBRANCH  16  17
ENDBRANCH  13  16
ENDBRANCH   8  12
ENDBRANCH   5   8
ENDBRANCH   3   4
ENDBRANCH   1   3
BRANCH   1  24
ATOM     24  O   UNL     1       2.424   1.014  -3.328  1.00  0.00    -0.461 OA
BRANCH  24  25
ATOM     25  C   UNL     1       3.332   0.545  -4.564  1.00  0.00     0.274 C 
BRANCH  25  26
ATOM     26  C   UNL     1       2.752   0.452  -6.288  1.00  0.00     0.275 C 
BRANCH  26  27
ATOM     27  O   UNL     1       2.215   1.734  -7.126  1.00  0.00    -0.458 OA
BRANCH  27  28
ATOM     28  C   UNL     1       1.049   1.877  -7.892  1.00  0.00     0.338 C 
ATOM     29  O   UNL     1       0.437   0.919  -8.346  1.00  0.00    -0.246 OA
BRANCH  28  30
ATOM     30  C   UNL     1       0.336   3.284  -7.832  1.00  0.00     0.060 A 
ATOM     31  C   UNL     1      -0.692   3.531  -6.889  1.00  0.00     0.016 A 
ATOM     32  C   UNL     1       0.473   4.301  -8.784  1.00  0.00     0.016 A 
ATOM     33  C   UNL     1      -1.353   4.781  -6.720  1.00  0.00     0.010 A 
ATOM     34  C   UNL     1      -0.280   5.532  -8.694  1.00  0.00     0.010 A 
ATOM     35  C   UNL     1      -1.166   5.816  -7.631  1.00  0.00    -0.014 A 
BRANCH  35  36
ATOM     36  C   UNL     1      -1.991   7.084  -7.542  1.00  0.00     0.031 A 
ATOM     37  C   UNL     1      -3.315   7.183  -8.275  1.00  0.00     0.074 A 
ATOM     38  C   UNL     1      -1.637   8.144  -6.777  1.00  0.00     0.049 A 
ATOM     39  N   UNL     1      -4.097   8.221  -8.469  1.00  0.00    -0.248 NA
ATOM     40  C   UNL     1      -3.832   5.934  -8.851  1.00  0.00     0.031 C 
ATOM     41  C   UNL     1      -0.490   8.192  -5.873  1.00  0.00     0.029 A 
ATOM     42  N   UNL     1      -2.208   9.400  -6.644  1.00  0.00    -0.354 N 
ATOM     43  C   UNL     1      -5.173   7.760  -9.225  1.00  0.00     0.074 A 
ATOM     44  C   UNL     1      -4.950   6.344  -9.434  1.00  0.00     0.031 C 
ATOM     45  C   UNL     1      -0.416   9.416  -5.316  1.00  0.00     0.029 A 
ATOM     46  C   UNL     1      -1.475  10.267  -5.860  1.00  0.00     0.049 A 
ATOM     47  H   UNL     1      -3.059   9.650  -7.070  1.00  0.00     0.167 HD
ATOM     48  C   UNL     1      -6.235   8.446  -9.722  1.00  0.00     0.031 A 
ATOM     49  C   UNL     1      -1.599  11.598  -5.643  1.00  0.00     0.031 A 
ATOM     50  C   UNL     1      -6.473   9.855  -9.526  1.00  0.00     0.049 A 
ATOM     51  C   UNL     1      -2.713  12.374  -6.311  1.00  0.00     0.074 A 
ATOM     52  C   UNL     1      -7.513  10.631 -10.014  1.00  0.00     0.029 A 
ATOM     53  N   UNL     1      -5.662  10.700  -8.788  1.00  0.00    -0.354 N 
ATOM     54  N   UNL     1      -3.687  11.934  -7.071  1.00  0.00    -0.248 NA
ATOM     55  C   UNL     1      -2.740  13.832  -6.097  1.00  0.00     0.031 C 
ATOM     56  C   UNL     1      -7.293  11.957  -9.629  1.00  0.00     0.029 A 
ATOM     57  C   UNL     1      -6.158  11.994  -8.837  1.00  0.00     0.049 A 
ATOM     58  H   UNL     1      -4.853  10.423  -8.300  1.00  0.00     0.167 HD
ATOM     59  C   UNL     1      -4.451  13.051  -7.399  1.00  0.00     0.074 A 
ATOM     60  C   UNL     1      -3.843  14.187  -6.741  1.00  0.00     0.031 C 
ATOM     61  C   UNL     1      -5.558  13.125  -8.178  1.00  0.00     0.031 A 
BRANCH  48  62
ATOM     62  C   UNL     1      -7.198   7.698 -10.610  1.00  0.00    -0.014 A 
ATOM     63  C   UNL     1      -8.106   6.758 -10.099  1.00  0.00     0.009 A 
ATOM     64  C   UNL     1      -7.228   7.987 -11.985  1.00  0.00     0.009 A 
ATOM     65  C   UNL     1      -8.996   6.099 -10.952  1.00  0.00     0.001 A 
ATOM     66  C   UNL     1      -8.138   7.350 -12.830  1.00  0.00     0.001 A 
ATOM     67  C   UNL     1      -9.014   6.398 -12.315  1.00  0.00     0.000 A 
ENDBRANCH  48  62
BRANCH  49  68
ATOM     68  C   UNL     1      -0.589  12.334  -4.821  1.00  0.00    -0.014 A 
ATOM     69  C   UNL     1      -0.946  12.978  -3.624  1.00  0.00     0.009 A 
ATOM     70  C   UNL     1       0.736  12.459  -5.275  1.00  0.00     0.009 A 
ATOM     71  C   UNL     1      -0.010  13.743  -2.917  1.00  0.00     0.001 A 
ATOM     72  C   UNL     1       1.678  13.192  -4.548  1.00  0.00     0.001 A 
ATOM     73  C   UNL     1       1.302  13.843  -3.376  1.00  0.00     0.000 A 
ENDBRANCH  49  68
BRANCH  61  74
ATOM     74  C   UNL     1      -6.223  14.469  -8.328  1.00  0.00    -0.014 A 
ATOM     75  C   UNL     1      -5.636  15.503  -9.073  1.00  0.00     0.009 A 
ATOM     76  C   UNL     1      -7.484  14.687  -7.748  1.00  0.00     0.009 A 
ATOM     77  C   UNL     1      -6.280  16.736  -9.205  1.00  0.00     0.001 A 
ATOM     78  C   UNL     1      -8.140  15.909  -7.907  1.00  0.00     0.001 A 
ATOM     79  C   UNL     1      -7.534  16.936  -8.627  1.00  0.00     0.000 A 
ENDBRANCH  61  74
ENDBRANCH  35  36
ENDBRANCH  28  30
ENDBRANCH  27  28
ENDBRANCH  26  27
ENDBRANCH  25  26
ENDBRANCH  24  25
ENDBRANCH   1  24
TORSDOF 18
