REMARK SMILES Cc1ccc(NC(=O)[C@H]2CC(Cl)=CC[C@@H]2C(=O)OCCOC(=O)c2ccc(-c3c4nc(c(-c5ccccc5)c5ccc([nH]5)c(-c5ccccc5)c5nc(c(-c6ccccc6)c6ccc3[nH]6)C=C5)C=C4)cc2)cc1[N+](=O)[O-]
REMARK SMILES IDX 19 1 18 2 16 3 17 4 15 5 9 6 10 7 11 8 14 9 12 10 13 11 7 12
REMARK SMILES IDX 6 13 8 15 5 16 1 17 2 18 3 19 73 20 4 21 72 22 74 23 75 24
REMARK SMILES IDX 76 25 20 26 21 27 22 28 23 29 24 30 25 31 71 32 26 33 70 34
REMARK SMILES IDX 27 35 28 36 29 37 64 38 30 39 69 40 63 41 65 42 31 43 68 44
REMARK SMILES IDX 62 45 61 46 32 48 54 49 39 50 53 51 40 52 43 53 52 54 66 55
REMARK SMILES IDX 41 56 42 57 51 59 67 60 44 61 33 62 34 63 38 64 35 65 37 66
REMARK SMILES IDX 36 67 55 68 56 69 60 70 57 71 59 72 58 73 45 74 46 75 50 76
REMARK SMILES IDX 47 77 49 78 48 79
REMARK H PARENT 6 14 65 47 43 58
REMARK Flexibility Score: inf
ROOT
ATOM      1  C   UNL     1      -1.048   0.910  -0.415  1.00  0.00     0.274 C 
ENDROOT
BRANCH   1   2
ATOM      2  O   UNL     1      -2.363   0.165  -1.394  1.00  0.00    -0.462 OA
BRANCH   2   3
ATOM      3  C   UNL     1      -3.299  -0.763  -1.758  1.00  0.00     0.310 C 
ATOM      4  O   UNL     1      -3.702  -0.689  -2.928  1.00  0.00    -0.252 OA
BRANCH   3   5
ATOM      5  C   UNL     1      -4.007  -1.921  -0.926  1.00  0.00     0.116 C 
ATOM      6  C   UNL     1      -3.904  -2.151   0.598  1.00  0.00     0.098 C 
ATOM      7  C   UNL     1      -4.630  -3.396   1.131  1.00  0.00     0.062 C 
ATOM      8  C   UNL     1      -4.183  -4.607   0.385  1.00  0.00     0.015 C 
ATOM      9  C   UNL     1      -4.067  -3.279  -1.716  1.00  0.00     0.044 C 
ATOM     10  Cl  UNL     1      -3.998  -6.067   1.279  1.00  0.00    -0.089 Cl
ATOM     11  C   UNL     1      -3.923  -4.554  -0.924  1.00  0.00    -0.010 C 
BRANCH   6  12
ATOM     12  C   UNL     1      -4.462  -0.921   1.231  1.00  0.00     0.228 C 
ATOM     13  N   UNL     1      -3.614   0.120   1.392  1.00  0.00    -0.326 N 
ATOM     14  H   UNL     1      -4.007   0.922   1.808  1.00  0.00     0.169 HD
ATOM     15  O   UNL     1      -5.645  -0.798   1.535  1.00  0.00    -0.274 OA
BRANCH  13  16
ATOM     16  C   UNL     1      -2.271   0.224   1.057  1.00  0.00     0.048 A 
ATOM     17  C   UNL     1       2.615   1.255  -0.014  1.00  0.00     0.052 C 
ATOM     18  C   UNL     1       1.106   1.169   0.092  1.00  0.00     0.027 A 
ATOM     19  C   UNL     1       0.473  -0.391  -0.351  1.00  0.00     0.012 A 
ATOM     20  C   UNL     1       0.099   2.212   0.991  1.00  0.00     0.274 A 
ATOM     21  C   UNL     1      -1.258  -0.950   0.090  1.00  0.00     0.027 A 
ATOM     22  C   UNL     1      -1.527   1.776   1.505  1.00  0.00     0.112 A 
BRANCH  20  23
ATOM     23  N   UNL     1       0.469   3.625   1.007  1.00  0.00     0.063 N 
ATOM     24  O   UNL     1      -0.462   4.435   1.031  1.00  0.00    -0.258 OA
ATOM     25  O   UNL     1       1.667   3.909   0.926  1.00  0.00    -0.258 OA
ENDBRANCH  20  23
ENDBRANCH  13  16
ENDBRANCH   6  12
ENDBRANCH   3   5
ENDBRANCH   2   3
ENDBRANCH   1   2
BRANCH   1  26
ATOM     26  C   UNL     1      -0.231  -0.007   1.420  1.00  0.00     0.275 C 
BRANCH  26  27
ATOM     27  O   UNL     1       0.245  -1.803   1.421  1.00  0.00    -0.458 OA
BRANCH  27  28
ATOM     28  C   UNL     1       0.330  -3.035   0.602  1.00  0.00     0.338 C 
ATOM     29  O   UNL     1       0.420  -4.119   1.173  1.00  0.00    -0.246 OA
BRANCH  28  30
ATOM     30  C   UNL     1       0.306  -3.100  -0.999  1.00  0.00     0.060 A 
ATOM     31  C   UNL     1      -0.740  -3.509  -1.853  1.00  0.00     0.016 A 
ATOM     32  C   UNL     1       1.302  -2.462  -1.672  1.00  0.00     0.016 A 
ATOM     33  C   UNL     1      -0.926  -2.908  -3.163  1.00  0.00     0.010 A 
ATOM     34  C   UNL     1       0.847  -1.548  -2.609  1.00  0.00     0.010 A 
ATOM     35  C   UNL     1      -0.183  -1.786  -3.496  1.00  0.00    -0.014 A 
BRANCH  35  36
ATOM     36  C   UNL     1      -0.085  -0.901  -4.704  1.00  0.00     0.031 A 
ATOM     37  C   UNL     1      -1.246  -0.247  -5.379  1.00  0.00     0.074 A 
ATOM     38  C   UNL     1       1.205  -0.719  -5.132  1.00  0.00     0.049 A 
ATOM     39  N   UNL     1      -1.632  -0.462  -6.597  1.00  0.00    -0.248 NA
ATOM     40  C   UNL     1      -2.074   0.771  -4.717  1.00  0.00     0.031 C 
ATOM     41  C   UNL     1       1.849   0.005  -6.211  1.00  0.00     0.029 A 
ATOM     42  N   UNL     1       2.320  -1.400  -4.579  1.00  0.00    -0.354 N 
ATOM     43  C   UNL     1      -2.480   0.595  -6.926  1.00  0.00     0.074 A 
ATOM     44  C   UNL     1      -2.933   1.145  -5.678  1.00  0.00     0.031 C 
ATOM     45  C   UNL     1       3.034  -0.612  -6.470  1.00  0.00     0.029 A 
ATOM     46  C   UNL     1       3.150  -1.787  -5.598  1.00  0.00     0.049 A 
ATOM     47  H   UNL     1       2.472  -1.567  -3.621  1.00  0.00     0.167 HD
ATOM     48  C   UNL     1      -2.400   1.221  -8.141  1.00  0.00     0.031 A 
ATOM     49  C   UNL     1       3.126  -3.122  -5.883  1.00  0.00     0.031 A 
ATOM     50  C   UNL     1      -1.194   0.779  -8.823  1.00  0.00     0.049 A 
ATOM     51  C   UNL     1       2.482  -3.337  -7.221  1.00  0.00     0.074 A 
ATOM     52  C   UNL     1       0.057   1.357  -8.945  1.00  0.00     0.029 A 
ATOM     53  N   UNL     1      -1.048  -0.551  -9.144  1.00  0.00    -0.354 N 
ATOM     54  N   UNL     1       1.720  -2.460  -7.808  1.00  0.00    -0.248 NA
ATOM     55  C   UNL     1       2.587  -4.584  -7.962  1.00  0.00     0.031 C 
ATOM     56  C   UNL     1       0.964   0.344  -9.358  1.00  0.00     0.029 A 
ATOM     57  C   UNL     1       0.255  -0.836  -9.488  1.00  0.00     0.049 A 
ATOM     58  H   UNL     1      -1.778  -1.211  -9.129  1.00  0.00     0.167 HD
ATOM     59  C   UNL     1       1.294  -2.953  -9.002  1.00  0.00     0.074 A 
ATOM     60  C   UNL     1       1.801  -4.316  -9.018  1.00  0.00     0.031 C 
ATOM     61  C   UNL     1       0.571  -2.198  -9.876  1.00  0.00     0.031 A 
BRANCH  48  62
ATOM     62  C   UNL     1      -3.144   2.466  -8.599  1.00  0.00    -0.014 A 
ATOM     63  C   UNL     1      -2.590   3.258  -9.631  1.00  0.00     0.009 A 
ATOM     64  C   UNL     1      -4.409   2.868  -8.137  1.00  0.00     0.009 A 
ATOM     65  C   UNL     1      -3.214   4.409 -10.130  1.00  0.00     0.001 A 
ATOM     66  C   UNL     1      -5.042   4.029  -8.631  1.00  0.00     0.001 A 
ATOM     67  C   UNL     1      -4.441   4.802  -9.621  1.00  0.00     0.000 A 
ENDBRANCH  48  62
BRANCH  49  68
ATOM     68  C   UNL     1       2.930  -4.068  -4.705  1.00  0.00    -0.014 A 
ATOM     69  C   UNL     1       3.780  -3.991  -3.574  1.00  0.00     0.009 A 
ATOM     70  C   UNL     1       1.788  -4.881  -4.580  1.00  0.00     0.009 A 
ATOM     71  C   UNL     1       3.473  -4.646  -2.366  1.00  0.00     0.001 A 
ATOM     72  C   UNL     1       1.490  -5.549  -3.377  1.00  0.00     0.001 A 
ATOM     73  C   UNL     1       2.320  -5.418  -2.265  1.00  0.00     0.000 A 
ENDBRANCH  49  68
BRANCH  61  74
ATOM     74  C   UNL     1       0.051  -2.696 -11.191  1.00  0.00    -0.014 A 
ATOM     75  C   UNL     1       0.696  -3.681 -11.938  1.00  0.00     0.009 A 
ATOM     76  C   UNL     1      -1.103  -2.116 -11.762  1.00  0.00     0.009 A 
ATOM     77  C   UNL     1       0.132  -4.175 -13.116  1.00  0.00     0.001 A 
ATOM     78  C   UNL     1      -1.653  -2.579 -12.953  1.00  0.00     0.001 A 
ATOM     79  C   UNL     1      -1.050  -3.635 -13.613  1.00  0.00     0.000 A 
ENDBRANCH  61  74
ENDBRANCH  35  36
ENDBRANCH  28  30
ENDBRANCH  27  28
ENDBRANCH  26  27
ENDBRANCH   1  26
TORSDOF 14
