REMARK SMILES Cc1cc2c(c(C)c1Cl)C=C(C(=O)OCCOC(=O)c1ccc(-c3c4nc(c(-c5ccccc5)c5ccc([nH]5)c(-c5ccccc5)c5nc(c(-c6ccccc6)c6ccc3[nH]6)C=C5)C=C4)cc1)[C@@H](C(F)(F)F)O2
REMARK SMILES IDX 16 1 15 2 14 3 12 4 13 5 11 6 1 7 2 8 3 9 8 10 4 11 6 12
REMARK SMILES IDX 9 13 5 14 73 15 7 16 10 17 68 18 69 19 70 20 71 21 72 22
REMARK SMILES IDX 17 23 18 24 19 25 20 26 21 27 67 28 22 29 66 30 23 31 24 32
REMARK SMILES IDX 25 33 60 34 26 35 65 36 59 37 61 38 27 39 64 40 58 41 57 42
REMARK SMILES IDX 28 44 50 45 35 46 49 47 36 48 39 49 48 50 62 51 37 52 38 53
REMARK SMILES IDX 47 55 63 56 40 57 29 58 30 59 34 60 31 61 33 62 32 63 51 64
REMARK SMILES IDX 52 65 56 66 53 67 55 68 54 69 41 70 42 71 46 72 43 73 45 74
REMARK SMILES IDX 44 75
REMARK H PARENT 61 43 39 54
REMARK Flexibility Score: inf
ROOT
ATOM      1  C   UNL     1      -1.116   1.113  10.348  1.00  0.00     0.275 C 
ENDROOT
BRANCH   1   2
ATOM      2  C   UNL     1      -2.107   0.339   9.480  1.00  0.00     0.275 C 
BRANCH   2   3
ATOM      3  O   UNL     1      -1.534   0.005   8.196  1.00  0.00    -0.459 OA
BRANCH   3   4
ATOM      4  C   UNL     1      -1.955   0.755   7.153  1.00  0.00     0.338 C 
ATOM      5  O   UNL     1      -2.759   1.675   7.192  1.00  0.00    -0.246 OA
BRANCH   4   6
ATOM      6  C   UNL     1      -1.297   0.324   5.905  1.00  0.00     0.087 C 
ATOM      7  C   UNL     1       1.091  -0.461  -0.083  1.00  0.00     0.046 C 
ATOM      8  C   UNL     1       0.647   0.038   1.265  1.00  0.00    -0.028 A 
ATOM      9  C   UNL     1       0.168  -0.884   2.205  1.00  0.00     0.052 A 
ATOM     10  C   UNL     1       0.718   1.399   1.619  1.00  0.00     0.047 A 
ATOM     11  C   UNL     1      -0.274  -0.466   3.458  1.00  0.00     0.128 A 
ATOM     12  C   UNL     1       0.271   1.845   2.884  1.00  0.00    -0.021 A 
ATOM     13  Cl  UNL     1       1.373   2.521   0.463  1.00  0.00    -0.084 Cl
ATOM     14  C   UNL     1      -0.241   0.890   3.803  1.00  0.00     0.022 A 
ATOM     15  O   UNL     1      -0.703  -1.465   4.288  1.00  0.00    -0.475 OA
ATOM     16  C   UNL     1       0.342   3.303   3.271  1.00  0.00     0.047 C 
ATOM     17  C   UNL     1      -0.771   1.265   5.111  1.00  0.00     0.027 C 
ATOM     18  C   UNL     1      -1.379  -1.122   5.524  1.00  0.00     0.316 C 
BRANCH  18  19
ATOM     19  C   UNL     1      -2.839  -1.599   5.444  1.00  0.00     0.430 C 
ATOM     20  F   UNL     1      -2.916  -2.896   5.066  1.00  0.00    -0.167 F 
ATOM     21  F   UNL     1      -3.458  -1.510   6.646  1.00  0.00    -0.167 F 
ATOM     22  F   UNL     1      -3.564  -0.874   4.562  1.00  0.00    -0.167 F 
ENDBRANCH  18  19
ENDBRANCH   4   6
ENDBRANCH   3   4
ENDBRANCH   2   3
ENDBRANCH   1   2
BRANCH   1  23
ATOM     23  O   UNL     1      -0.839   2.396   9.756  1.00  0.00    -0.458 OA
BRANCH  23  24
ATOM     24  C   UNL     1       0.388   2.519   9.203  1.00  0.00     0.338 C 
ATOM     25  O   UNL     1       1.288   1.696   9.202  1.00  0.00    -0.246 OA
BRANCH  24  26
ATOM     26  C   UNL     1       0.503   3.795   8.479  1.00  0.00     0.060 A 
ATOM     27  C   UNL     1      -0.343   4.036   7.404  1.00  0.00     0.016 A 
ATOM     28  C   UNL     1       1.599   4.626   8.699  1.00  0.00     0.016 A 
ATOM     29  C   UNL     1       0.015   4.975   6.441  1.00  0.00     0.010 A 
ATOM     30  C   UNL     1       1.871   5.664   7.799  1.00  0.00     0.010 A 
ATOM     31  C   UNL     1       1.135   5.800   6.607  1.00  0.00    -0.014 A 
BRANCH  31  32
ATOM     32  C   UNL     1       1.601   6.722   5.521  1.00  0.00     0.031 A 
ATOM     33  C   UNL     1       3.056   6.713   5.099  1.00  0.00     0.074 A 
ATOM     34  C   UNL     1       0.757   7.545   4.864  1.00  0.00     0.049 A 
ATOM     35  N   UNL     1       3.733   7.614   4.431  1.00  0.00    -0.248 NA
ATOM     36  C   UNL     1       3.857   5.542   5.494  1.00  0.00     0.031 C 
ATOM     37  C   UNL     1      -0.695   7.614   5.040  1.00  0.00     0.029 A 
ATOM     38  N   UNL     1       1.010   8.487   3.893  1.00  0.00    -0.354 N 
ATOM     39  C   UNL     1       5.049   7.162   4.405  1.00  0.00     0.074 A 
ATOM     40  C   UNL     1       5.076   5.903   5.117  1.00  0.00     0.031 C 
ATOM     41  C   UNL     1      -1.207   8.493   4.168  1.00  0.00     0.029 A 
ATOM     42  C   UNL     1      -0.113   9.164   3.479  1.00  0.00     0.049 A 
ATOM     43  H   UNL     1       1.908   8.660   3.530  1.00  0.00     0.167 HD
ATOM     44  C   UNL     1       6.137   7.747   3.845  1.00  0.00     0.031 A 
ATOM     45  C   UNL     1      -0.258  10.254   2.701  1.00  0.00     0.031 A 
ATOM     46  C   UNL     1       6.096   8.963   3.074  1.00  0.00     0.049 A 
ATOM     47  C   UNL     1       0.964  10.946   2.173  1.00  0.00     0.074 A 
ATOM     48  C   UNL     1       7.144   9.643   2.478  1.00  0.00     0.029 A 
ATOM     49  N   UNL     1       4.940   9.661   2.764  1.00  0.00    -0.354 N 
ATOM     50  N   UNL     1       2.223  10.598   2.280  1.00  0.00    -0.248 NA
ATOM     51  C   UNL     1       0.744  12.204   1.446  1.00  0.00     0.031 C 
ATOM     52  C   UNL     1       6.628  10.781   1.849  1.00  0.00     0.029 A 
ATOM     53  C   UNL     1       5.252  10.775   2.002  1.00  0.00     0.049 A 
ATOM     54  H   UNL     1       4.032   9.404   3.044  1.00  0.00     0.167 HD
ATOM     55  C   UNL     1       2.945  11.592   1.632  1.00  0.00     0.074 A 
ATOM     56  C   UNL     1       1.981  12.537   1.106  1.00  0.00     0.031 C 
ATOM     57  C   UNL     1       4.287  11.717   1.497  1.00  0.00     0.031 A 
BRANCH  44  58
ATOM     58  C   UNL     1       7.482   7.112   4.083  1.00  0.00    -0.014 A 
ATOM     59  C   UNL     1       7.861   5.916   3.456  1.00  0.00     0.009 A 
ATOM     60  C   UNL     1       8.414   7.770   4.904  1.00  0.00     0.009 A 
ATOM     61  C   UNL     1       9.135   5.381   3.666  1.00  0.00     0.001 A 
ATOM     62  C   UNL     1       9.696   7.250   5.088  1.00  0.00     0.001 A 
ATOM     63  C   UNL     1      10.053   6.051   4.474  1.00  0.00     0.000 A 
ENDBRANCH  44  58
BRANCH  45  64
ATOM     64  C   UNL     1      -1.615  10.815   2.460  1.00  0.00    -0.014 A 
ATOM     65  C   UNL     1      -2.179  10.789   1.176  1.00  0.00     0.009 A 
ATOM     66  C   UNL     1      -2.360  11.366   3.516  1.00  0.00     0.009 A 
ATOM     67  C   UNL     1      -3.459  11.305   0.957  1.00  0.00     0.001 A 
ATOM     68  C   UNL     1      -3.653  11.845   3.302  1.00  0.00     0.001 A 
ATOM     69  C   UNL     1      -4.199  11.820   2.021  1.00  0.00     0.000 A 
ENDBRANCH  45  64
BRANCH  57  70
ATOM     70  C   UNL     1       4.789  12.913   0.738  1.00  0.00    -0.014 A 
ATOM     71  C   UNL     1       4.713  14.203   1.285  1.00  0.00     0.009 A 
ATOM     72  C   UNL     1       5.361  12.745  -0.533  1.00  0.00     0.009 A 
ATOM     73  C   UNL     1       5.164  15.306   0.558  1.00  0.00     0.001 A 
ATOM     74  C   UNL     1       5.840  13.846  -1.244  1.00  0.00     0.001 A 
ATOM     75  C   UNL     1       5.730  15.126  -0.704  1.00  0.00     0.000 A 
ENDBRANCH  57  70
ENDBRANCH  31  32
ENDBRANCH  24  26
ENDBRANCH  23  24
ENDBRANCH   1  23
TORSDOF 12
