REMARK SMILES C[C@H]1CCCC[C@H]1[N@H+]1[C@@H](C(=O)OCCOC(=O)c2ccc(-c3c4nc(c(-c5ccccc5)c5ccc([nH]5)c(-c5ccccc5)c5nc(c(-c6ccccc6)c6ccc3[nH]6)C=C5)C=C4)cc2)CC[C@H]2CCCC[C@H]21
REMARK SMILES IDX 14 1 13 2 12 3 10 4 11 5 9 6 8 7 73 8 66 10 68 11 72 12
REMARK SMILES IDX 67 13 69 14 71 15 70 16 7 17 1 18 2 19 3 20 4 21 6 22 5 23
REMARK SMILES IDX 15 24 16 25 17 26 18 27 19 28 65 29 20 30 64 31 21 32 22 33
REMARK SMILES IDX 23 34 58 35 24 36 63 37 57 38 59 39 25 40 62 41 56 42 55 43
REMARK SMILES IDX 26 45 48 46 33 47 47 48 34 49 37 50 46 51 60 52 35 53 36 54
REMARK SMILES IDX 45 56 61 57 38 58 27 59 28 60 32 61 29 62 31 63 30 64 49 65
REMARK SMILES IDX 50 66 54 67 51 68 53 69 52 70 39 71 40 72 44 73 41 74 43 75
REMARK SMILES IDX 42 76
REMARK H PARENT 8 9 59 44 37 55
REMARK Flexibility Score: inf
ROOT
ATOM      1  C   UNL     1      -4.305  -0.054  -0.800  1.00  0.00     0.275 C 
ENDROOT
BRANCH   1   2
ATOM      2  C   UNL     1      -3.642  -0.415  -2.159  1.00  0.00     0.274 C 
BRANCH   2   3
ATOM      3  O   UNL     1      -2.209  -0.735  -2.152  1.00  0.00    -0.458 OA
BRANCH   3   4
ATOM      4  C   UNL     1      -1.329   0.289  -2.345  1.00  0.00     0.365 C 
ATOM      5  O   UNL     1      -1.709   1.457  -2.436  1.00  0.00    -0.245 OA
BRANCH   4   6
ATOM      6  C   UNL     1       0.156  -0.088  -2.644  1.00  0.00     0.295 C 
ATOM      7  N   UNL     1       0.820  -1.351  -2.174  1.00  0.00    -0.318 N 
ATOM      8  C   UNL     1       2.251  -1.276  -2.997  1.00  0.00     0.188 C 
ATOM      9  H   UNL     1       0.372  -2.246  -2.372  1.00  0.00     0.349 HD
ATOM     10  C   UNL     1       1.147   1.058  -2.347  1.00  0.00     0.078 C 
ATOM     11  C   UNL     1       3.191  -0.847  -1.929  1.00  0.00     0.048 C 
ATOM     12  C   UNL     1       3.175  -2.183  -3.917  1.00  0.00     0.065 C 
ATOM     13  C   UNL     1       2.596   0.649  -1.812  1.00  0.00     0.016 C 
ATOM     14  C   UNL     1       3.255  -2.322  -1.233  1.00  0.00     0.010 C 
ATOM     15  C   UNL     1       4.310  -3.064  -3.329  1.00  0.00     0.006 C 
ATOM     16  C   UNL     1       4.254  -3.284  -1.839  1.00  0.00     0.001 C 
BRANCH   7  17
ATOM     17  C   UNL     1       0.820  -1.413  -0.548  1.00  0.00     0.187 C 
ATOM     18  C   UNL     1       2.947  -0.299   1.074  1.00  0.00     0.014 C 
ATOM     19  C   UNL     1       1.459  -0.519   0.687  1.00  0.00     0.044 C 
ATOM     20  C   UNL     1       0.705   0.762   0.962  1.00  0.00     0.009 C 
ATOM     21  C   UNL     1      -0.776   0.528   0.997  1.00  0.00     0.001 C 
ATOM     22  C   UNL     1      -0.549  -1.876   0.008  1.00  0.00     0.065 C 
ATOM     23  C   UNL     1      -1.346  -0.854   0.781  1.00  0.00     0.006 C 
ENDBRANCH   7  17
ENDBRANCH   4   6
ENDBRANCH   3   4
ENDBRANCH   2   3
ENDBRANCH   1   2
BRANCH   1  24
ATOM     24  O   UNL     1      -3.807   1.204  -0.290  1.00  0.00    -0.458 OA
BRANCH  24  25
ATOM     25  C   UNL     1      -4.002   1.499   1.022  1.00  0.00     0.338 C 
ATOM     26  O   UNL     1      -4.700   0.846   1.806  1.00  0.00    -0.246 OA
BRANCH  25  27
ATOM     27  C   UNL     1      -3.091   2.612   1.456  1.00  0.00     0.060 A 
ATOM     28  C   UNL     1      -2.296   3.264   0.511  1.00  0.00     0.016 A 
ATOM     29  C   UNL     1      -2.804   2.821   2.816  1.00  0.00     0.016 A 
ATOM     30  C   UNL     1      -1.131   3.928   0.914  1.00  0.00     0.010 A 
ATOM     31  C   UNL     1      -1.708   3.625   3.213  1.00  0.00     0.010 A 
ATOM     32  C   UNL     1      -0.827   4.176   2.266  1.00  0.00    -0.014 A 
BRANCH  32  33
ATOM     33  C   UNL     1       0.351   5.037   2.653  1.00  0.00     0.031 A 
ATOM     34  C   UNL     1       1.332   4.656   3.751  1.00  0.00     0.074 A 
ATOM     35  C   UNL     1       0.566   6.215   2.022  1.00  0.00     0.049 A 
ATOM     36  N   UNL     1       2.217   5.406   4.373  1.00  0.00    -0.248 NA
ATOM     37  C   UNL     1       1.331   3.257   4.199  1.00  0.00     0.031 C 
ATOM     38  C   UNL     1      -0.198   6.732   0.884  1.00  0.00     0.029 A 
ATOM     39  N   UNL     1       1.497   7.204   2.256  1.00  0.00    -0.354 N 
ATOM     40  C   UNL     1       2.829   4.590   5.323  1.00  0.00     0.074 A 
ATOM     41  C   UNL     1       2.235   3.277   5.173  1.00  0.00     0.031 C 
ATOM     42  C   UNL     1       0.325   7.894   0.483  1.00  0.00     0.029 A 
ATOM     43  C   UNL     1       1.345   8.298   1.436  1.00  0.00     0.049 A 
ATOM     44  H   UNL     1       2.201   7.134   2.941  1.00  0.00     0.167 HD
ATOM     45  C   UNL     1       3.774   4.907   6.249  1.00  0.00     0.031 A 
ATOM     46  C   UNL     1       1.870   9.536   1.476  1.00  0.00     0.031 A 
ATOM     47  C   UNL     1       4.381   6.211   6.396  1.00  0.00     0.049 A 
ATOM     48  C   UNL     1       2.797   9.914   2.584  1.00  0.00     0.074 A 
ATOM     49  C   UNL     1       5.330   6.627   7.319  1.00  0.00     0.029 A 
ATOM     50  N   UNL     1       4.107   7.310   5.598  1.00  0.00    -0.354 N 
ATOM     51  N   UNL     1       3.268   9.171   3.553  1.00  0.00    -0.248 NA
ATOM     52  C   UNL     1       3.245  11.312   2.614  1.00  0.00     0.031 C 
ATOM     53  C   UNL     1       5.582   7.989   7.117  1.00  0.00     0.029 A 
ATOM     54  C   UNL     1       4.846   8.406   6.022  1.00  0.00     0.049 A 
ATOM     55  H   UNL     1       3.478   7.313   4.840  1.00  0.00     0.167 HD
ATOM     56  C   UNL     1       4.091  10.005   4.296  1.00  0.00     0.074 A 
ATOM     57  C   UNL     1       4.059  11.306   3.659  1.00  0.00     0.031 C 
ATOM     58  C   UNL     1       4.813   9.706   5.403  1.00  0.00     0.031 A 
BRANCH  45  59
ATOM     59  C   UNL     1       4.157   3.846   7.256  1.00  0.00    -0.014 A 
ATOM     60  C   UNL     1       4.919   2.720   6.910  1.00  0.00     0.009 A 
ATOM     61  C   UNL     1       3.778   4.011   8.601  1.00  0.00     0.009 A 
ATOM     62  C   UNL     1       5.250   1.763   7.877  1.00  0.00     0.001 A 
ATOM     63  C   UNL     1       4.137   3.072   9.570  1.00  0.00     0.001 A 
ATOM     64  C   UNL     1       4.861   1.940   9.205  1.00  0.00     0.000 A 
ENDBRANCH  45  59
BRANCH  46  65
ATOM     65  C   UNL     1       1.440  10.534   0.461  1.00  0.00    -0.014 A 
ATOM     66  C   UNL     1       2.325  10.950  -0.543  1.00  0.00     0.009 A 
ATOM     67  C   UNL     1       0.122  11.022   0.453  1.00  0.00     0.009 A 
ATOM     68  C   UNL     1       1.895  11.826  -1.541  1.00  0.00     0.001 A 
ATOM     69  C   UNL     1      -0.316  11.867  -0.566  1.00  0.00     0.001 A 
ATOM     70  C   UNL     1       0.573  12.272  -1.560  1.00  0.00     0.000 A 
ENDBRANCH  46  65
BRANCH  58  71
ATOM     71  C   UNL     1       5.684  10.799   5.957  1.00  0.00    -0.014 A 
ATOM     72  C   UNL     1       5.140  11.916   6.611  1.00  0.00     0.009 A 
ATOM     73  C   UNL     1       7.076  10.716   5.800  1.00  0.00     0.009 A 
ATOM     74  C   UNL     1       5.970  12.948   7.056  1.00  0.00     0.001 A 
ATOM     75  C   UNL     1       7.906  11.734   6.272  1.00  0.00     0.001 A 
ATOM     76  C   UNL     1       7.352  12.855   6.887  1.00  0.00     0.000 A 
ENDBRANCH  58  71
ENDBRANCH  32  33
ENDBRANCH  25  27
ENDBRANCH  24  25
ENDBRANCH   1  24
TORSDOF 12
