REMARK SMILES C[C@]1(C(=O)N2CCC(CC(=O)OCCOC(=O)c3ccc(-c4c5nc(c(-c6ccccc6)c6ccc([nH]6)c(-c6ccccc6)c6nc(c(-c7ccccc7)c7ccc4[nH]7)C=C6)C=C5)cc3)CC2)CCC[NH2+]C1
REMARK SMILES IDX 13 1 12 2 10 3 11 4 9 5 8 6 3 7 4 8 5 9 6 10 67 11 7 12
REMARK SMILES IDX 66 13 2 14 1 15 68 16 72 17 69 18 71 19 70 20 14 23 15 24
REMARK SMILES IDX 16 25 17 26 18 27 19 28 65 29 20 30 64 31 21 32 22 33 23 34
REMARK SMILES IDX 58 35 24 36 63 37 57 38 59 39 25 40 62 41 56 42 55 43 26 45
REMARK SMILES IDX 48 46 33 47 47 48 34 49 37 50 46 51 60 52 35 53 36 54 45 56
REMARK SMILES IDX 61 57 38 58 27 59 28 60 32 61 29 62 31 63 30 64 49 65 50 66
REMARK SMILES IDX 54 67 51 68 53 69 52 70 39 71 40 72 44 73 41 74 43 75 42 76
REMARK H PARENT 71 21 71 22 59 44 37 55
REMARK Flexibility Score: inf
ROOT
ATOM      1  C   UNL     1       0.566   0.419  -7.708  1.00  0.00     0.274 C 
ENDROOT
BRANCH   1   2
ATOM      2  O   UNL     1       0.334  -0.105  -6.388  1.00  0.00    -0.462 OA
BRANCH   2   3
ATOM      3  C   UNL     1       0.248  -1.453  -6.268  1.00  0.00     0.306 C 
ATOM      4  O   UNL     1       0.270  -2.245  -7.201  1.00  0.00    -0.252 OA
BRANCH   3   5
ATOM      5  C   UNL     1       0.069  -1.877  -4.828  1.00  0.00     0.126 C 
BRANCH   5   6
ATOM      6  C   UNL     1       1.230  -1.536  -3.870  1.00  0.00     0.003 C 
ATOM      7  C   UNL     1       1.452   0.273  -0.088  1.00  0.00     0.234 C 
ATOM      8  O   UNL     1       1.874  -0.263   0.945  1.00  0.00    -0.274 OA
ATOM      9  N   UNL     1       1.749  -0.312  -1.301  1.00  0.00    -0.342 N 
ATOM     10  C   UNL     1       1.869  -1.757  -1.387  1.00  0.00     0.120 C 
ATOM     11  C   UNL     1       2.224   0.372  -2.482  1.00  0.00     0.120 C 
ATOM     12  C   UNL     1       0.979  -2.256  -2.523  1.00  0.00     0.026 C 
ATOM     13  C   UNL     1       1.403  -0.013  -3.701  1.00  0.00     0.026 C 
BRANCH   7  14
ATOM     14  C   UNL     1       0.441   1.469   0.002  1.00  0.00     0.095 C 
ATOM     15  C   UNL     1       0.202   1.669   1.534  1.00  0.00     0.028 C 
ATOM     16  C   UNL     1       0.924   2.838  -0.535  1.00  0.00     0.028 C 
ATOM     17  C   UNL     1      -0.930   1.042  -0.578  1.00  0.00     0.277 C 
ATOM     18  C   UNL     1       0.400   3.277  -1.908  1.00  0.00     0.063 C 
ATOM     19  N   UNL     1      -1.130   1.357  -1.991  1.00  0.00    -0.345 N 
ATOM     20  C   UNL     1      -1.003   2.787  -2.231  1.00  0.00     0.260 C 
ATOM     21  H   UNL     1      -0.430   0.862  -2.545  1.00  0.00     0.346 HD
ATOM     22  H   UNL     1      -2.070   1.065  -2.259  1.00  0.00     0.346 HD
ENDBRANCH   7  14
ENDBRANCH   5   6
ENDBRANCH   3   5
ENDBRANCH   2   3
ENDBRANCH   1   2
BRANCH   1  23
ATOM     23  C   UNL     1       2.062   0.599  -7.978  1.00  0.00     0.275 C 
BRANCH  23  24
ATOM     24  O   UNL     1       2.695  -0.672  -8.219  1.00  0.00    -0.458 OA
BRANCH  24  25
ATOM     25  C   UNL     1       3.393  -1.188  -7.185  1.00  0.00     0.338 C 
ATOM     26  O   UNL     1       3.624  -0.666  -6.104  1.00  0.00    -0.246 OA
BRANCH  25  27
ATOM     27  C   UNL     1       3.777  -2.570  -7.495  1.00  0.00     0.060 A 
ATOM     28  C   UNL     1       3.187  -3.606  -6.764  1.00  0.00     0.016 A 
ATOM     29  C   UNL     1       4.776  -2.837  -8.431  1.00  0.00     0.016 A 
ATOM     30  C   UNL     1       3.609  -4.918  -6.950  1.00  0.00     0.010 A 
ATOM     31  C   UNL     1       5.197  -4.156  -8.620  1.00  0.00     0.010 A 
ATOM     32  C   UNL     1       4.631  -5.198  -7.864  1.00  0.00    -0.014 A 
BRANCH  32  33
ATOM     33  C   UNL     1       5.170  -6.572  -7.955  1.00  0.00     0.031 A 
ATOM     34  C   UNL     1       6.477  -6.896  -7.293  1.00  0.00     0.074 A 
ATOM     35  C   UNL     1       4.479  -7.528  -8.600  1.00  0.00     0.049 A 
ATOM     36  N   UNL     1       7.143  -8.022  -7.283  1.00  0.00    -0.248 NA
ATOM     37  C   UNL     1       7.121  -5.806  -6.542  1.00  0.00     0.031 C 
ATOM     38  C   UNL     1       3.175  -7.348  -9.237  1.00  0.00     0.029 A 
ATOM     39  N   UNL     1       4.783  -8.847  -8.818  1.00  0.00    -0.354 N 
ATOM     40  C   UNL     1       8.294  -7.771  -6.548  1.00  0.00     0.074 A 
ATOM     41  C   UNL     1       8.243  -6.384  -6.138  1.00  0.00     0.031 C 
ATOM     42  C   UNL     1       2.785  -8.519  -9.768  1.00  0.00     0.029 A 
ATOM     43  C   UNL     1       3.827  -9.517  -9.540  1.00  0.00     0.049 A 
ATOM     44  H   UNL     1       5.608  -9.273  -8.489  1.00  0.00     0.167 HD
ATOM     45  C   UNL     1       9.303  -8.620  -6.241  1.00  0.00     0.031 A 
ATOM     46  C   UNL     1       3.803 -10.789  -9.978  1.00  0.00     0.031 A 
ATOM     47  C   UNL     1       9.353  -9.999  -6.645  1.00  0.00     0.049 A 
ATOM     48  C   UNL     1       4.960 -11.698  -9.668  1.00  0.00     0.074 A 
ATOM     49  C   UNL     1      10.329 -10.943  -6.376  1.00  0.00     0.029 A 
ATOM     50  N   UNL     1       8.382 -10.632  -7.405  1.00  0.00    -0.354 N 
ATOM     51  N   UNL     1       6.043 -11.449  -8.972  1.00  0.00    -0.248 NA
ATOM     52  C   UNL     1       4.886 -13.065 -10.202  1.00  0.00     0.031 C 
ATOM     53  C   UNL     1       9.965 -12.139  -7.006  1.00  0.00     0.029 A 
ATOM     54  C   UNL     1       8.742 -11.949  -7.630  1.00  0.00     0.049 A 
ATOM     55  H   UNL     1       7.558 -10.207  -7.736  1.00  0.00     0.167 HD
ATOM     56  C   UNL     1       6.766 -12.634  -8.962  1.00  0.00     0.074 A 
ATOM     57  C   UNL     1       5.995 -13.603  -9.715  1.00  0.00     0.031 C 
ATOM     58  C   UNL     1       7.960 -12.898  -8.378  1.00  0.00     0.031 A 
BRANCH  45  59
ATOM     59  C   UNL     1      10.457  -8.057  -5.464  1.00  0.00    -0.014 A 
ATOM     60  C   UNL     1      10.344  -7.767  -4.095  1.00  0.00     0.009 A 
ATOM     61  C   UNL     1      11.678  -7.817  -6.113  1.00  0.00     0.009 A 
ATOM     62  C   UNL     1      11.422  -7.214  -3.401  1.00  0.00     0.001 A 
ATOM     63  C   UNL     1      12.761  -7.287  -5.411  1.00  0.00     0.001 A 
ATOM     64  C   UNL     1      12.629  -6.977  -4.058  1.00  0.00     0.000 A 
ENDBRANCH  45  59
BRANCH  46  65
ATOM     65  C   UNL     1       2.643 -11.281 -10.761  1.00  0.00    -0.014 A 
ATOM     66  C   UNL     1       1.728 -12.177 -10.189  1.00  0.00     0.009 A 
ATOM     67  C   UNL     1       2.447 -10.859 -12.086  1.00  0.00     0.009 A 
ATOM     68  C   UNL     1       0.648 -12.655 -10.935  1.00  0.00     0.001 A 
ATOM     69  C   UNL     1       1.354 -11.322 -12.821  1.00  0.00     0.001 A 
ATOM     70  C   UNL     1       0.460 -12.224 -12.248  1.00  0.00     0.000 A 
ENDBRANCH  46  65
BRANCH  58  71
ATOM     71  C   UNL     1       8.482 -14.301  -8.495  1.00  0.00    -0.014 A 
ATOM     72  C   UNL     1       9.038 -14.773  -9.693  1.00  0.00     0.009 A 
ATOM     73  C   UNL     1       8.444 -15.149  -7.377  1.00  0.00     0.009 A 
ATOM     74  C   UNL     1       9.520 -16.081  -9.778  1.00  0.00     0.001 A 
ATOM     75  C   UNL     1       8.947 -16.448  -7.459  1.00  0.00     0.001 A 
ATOM     76  C   UNL     1       9.476 -16.916  -8.661  1.00  0.00     0.000 A 
ENDBRANCH  58  71
ENDBRANCH  32  33
ENDBRANCH  25  27
ENDBRANCH  24  25
ENDBRANCH  23  24
ENDBRANCH   1  23
TORSDOF 13
