REMARK SMILES O=C(Cn1c(=O)n(Cc2cccnc2)c(=O)c2sccc21)OCCOC(=O)c1ccc(-c2c3nc(c(-c4ccccc4)c4ccc([nH]4)c(-c4ccccc4)c4nc(c(-c5ccccc5)c5ccc2[nH]5)C=C4)C=C3)cc1
REMARK SMILES IDX 23 1 22 2 2 3 1 4 3 5 4 6 5 7 21 8 6 9 7 10 17 11 20 12
REMARK SMILES IDX 15 13 18 14 19 15 16 16 8 17 9 18 10 19 14 20 11 21 13 22
REMARK SMILES IDX 12 23 24 24 25 25 26 26 27 27 28 28 29 29 75 30 30 31 74 32
REMARK SMILES IDX 31 33 32 34 33 35 68 36 34 37 73 38 67 39 69 40 35 41 72 42
REMARK SMILES IDX 66 43 65 44 36 46 58 47 43 48 57 49 44 50 47 51 56 52 70 53
REMARK SMILES IDX 45 54 46 55 55 57 71 58 48 59 37 60 38 61 42 62 39 63 41 64
REMARK SMILES IDX 40 65 59 66 60 67 64 68 61 69 63 70 62 71 49 72 50 73 54 74
REMARK SMILES IDX 51 75 53 76 52 77
REMARK H PARENT 69 45 47 56
REMARK Flexibility Score: inf
ROOT
ATOM      1  C   UNL     1       4.136  -0.983  -0.777  1.00  0.00     0.274 C 
ENDROOT
BRANCH   1   2
ATOM      2  O   UNL     1       2.705  -1.008  -0.576  1.00  0.00    -0.461 OA
BRANCH   2   3
ATOM      3  C   UNL     1       1.977  -0.239   0.269  1.00  0.00     0.326 C 
ATOM      4  O   UNL     1       0.758  -0.153   0.111  1.00  0.00    -0.250 OA
BRANCH   3   5
ATOM      5  C   UNL     1       2.645   0.540   1.397  1.00  0.00     0.250 C 
BRANCH   5   6
ATOM      6  N   UNL     1       3.629  -0.080   2.285  1.00  0.00    -0.281 N 
ATOM      7  C   UNL     1       4.480   0.794   2.989  1.00  0.00     0.332 A 
ATOM      8  C   UNL     1       3.693  -1.455   2.523  1.00  0.00     0.070 A 
ATOM      9  O   UNL     1       4.396   2.018   2.848  1.00  0.00    -0.247 OA
ATOM     10  N   UNL     1       5.442   0.220   3.825  1.00  0.00    -0.254 N 
ATOM     11  C   UNL     1       4.747  -1.961   3.234  1.00  0.00     0.116 A 
ATOM     12  C   UNL     1       2.817  -2.498   2.100  1.00  0.00     0.039 A 
ATOM     13  C   UNL     1       5.751  -1.142   3.847  1.00  0.00     0.274 A 
ATOM     14  S   UNL     1       4.761  -3.655   3.306  1.00  0.00    -0.136 S 
ATOM     15  C   UNL     1       3.300  -3.748   2.425  1.00  0.00     0.068 A 
ATOM     16  O   UNL     1       6.787  -1.580   4.343  1.00  0.00    -0.268 OA
BRANCH  10  17
ATOM     17  C   UNL     1       6.264   1.100   4.654  1.00  0.00     0.168 C 
BRANCH  17  18
ATOM     18  C   UNL     1       5.762   1.191   6.079  1.00  0.00    -0.010 A 
ATOM     19  C   UNL     1       5.238   2.378   6.601  1.00  0.00     0.009 A 
ATOM     20  C   UNL     1       5.820   0.097   6.942  1.00  0.00     0.116 A 
ATOM     21  C   UNL     1       4.793   2.420   7.922  1.00  0.00     0.020 A 
ATOM     22  N   UNL     1       5.381   0.106   8.222  1.00  0.00    -0.264 NA
ATOM     23  C   UNL     1       4.876   1.267   8.683  1.00  0.00     0.111 A 
ENDBRANCH  17  18
ENDBRANCH  10  17
ENDBRANCH   5   6
ENDBRANCH   3   5
ENDBRANCH   2   3
ENDBRANCH   1   2
BRANCH   1  24
ATOM     24  C   UNL     1       4.507  -0.033  -1.897  1.00  0.00     0.275 C 
BRANCH  24  25
ATOM     25  O   UNL     1       4.305   1.290  -1.422  1.00  0.00    -0.458 OA
BRANCH  25  26
ATOM     26  C   UNL     1       3.125   1.871  -1.731  1.00  0.00     0.338 C 
ATOM     27  O   UNL     1       2.174   1.373  -2.293  1.00  0.00    -0.246 OA
BRANCH  26  28
ATOM     28  C   UNL     1       3.229   3.277  -1.331  1.00  0.00     0.060 A 
ATOM     29  C   UNL     1       2.090   4.080  -1.423  1.00  0.00     0.016 A 
ATOM     30  C   UNL     1       4.508   3.811  -1.111  1.00  0.00     0.016 A 
ATOM     31  C   UNL     1       2.269   5.442  -1.524  1.00  0.00     0.010 A 
ATOM     32  C   UNL     1       4.687   5.156  -1.241  1.00  0.00     0.010 A 
ATOM     33  C   UNL     1       3.577   5.934  -1.545  1.00  0.00    -0.014 A 
BRANCH  33  34
ATOM     34  C   UNL     1       3.819   7.309  -1.895  1.00  0.00     0.031 A 
ATOM     35  C   UNL     1       3.667   8.230  -0.755  1.00  0.00     0.074 A 
ATOM     36  C   UNL     1       4.301   7.642  -3.107  1.00  0.00     0.049 A 
ATOM     37  N   UNL     1       2.710   9.073  -0.565  1.00  0.00    -0.248 NA
ATOM     38  C   UNL     1       4.571   8.068   0.397  1.00  0.00     0.031 C 
ATOM     39  C   UNL     1       4.772   6.761  -4.181  1.00  0.00     0.029 A 
ATOM     40  N   UNL     1       4.577   8.877  -3.590  1.00  0.00    -0.354 N 
ATOM     41  C   UNL     1       3.009   9.701   0.635  1.00  0.00     0.074 A 
ATOM     42  C   UNL     1       4.014   8.897   1.279  1.00  0.00     0.031 C 
ATOM     43  C   UNL     1       5.486   7.489  -5.074  1.00  0.00     0.029 A 
ATOM     44  C   UNL     1       5.397   8.893  -4.709  1.00  0.00     0.049 A 
ATOM     45  H   UNL     1       4.223   9.699  -3.179  1.00  0.00     0.167 HD
ATOM     46  C   UNL     1       2.628  10.985   0.866  1.00  0.00     0.031 A 
ATOM     47  C   UNL     1       5.999   9.991  -5.235  1.00  0.00     0.031 A 
ATOM     48  C   UNL     1       1.645  11.425  -0.091  1.00  0.00     0.049 A 
ATOM     49  C   UNL     1       5.272  11.176  -4.715  1.00  0.00     0.074 A 
ATOM     50  C   UNL     1       0.369  11.020  -0.425  1.00  0.00     0.029 A 
ATOM     51  N   UNL     1       2.108  12.160  -1.158  1.00  0.00    -0.354 N 
ATOM     52  N   UNL     1       4.040  11.455  -5.032  1.00  0.00    -0.248 NA
ATOM     53  C   UNL     1       5.752  11.780  -3.481  1.00  0.00     0.031 C 
ATOM     54  C   UNL     1       0.304  11.140  -1.844  1.00  0.00     0.029 A 
ATOM     55  C   UNL     1       1.510  11.681  -2.295  1.00  0.00     0.049 A 
ATOM     56  H   UNL     1       2.755  12.900  -1.113  1.00  0.00     0.167 HD
ATOM     57  C   UNL     1       3.459  11.880  -3.845  1.00  0.00     0.074 A 
ATOM     58  C   UNL     1       4.583  12.155  -2.950  1.00  0.00     0.031 C 
ATOM     59  C   UNL     1       2.129  11.684  -3.604  1.00  0.00     0.031 A 
BRANCH  46  60
ATOM     60  C   UNL     1       3.459  11.951   1.664  1.00  0.00    -0.014 A 
ATOM     61  C   UNL     1       2.935  13.226   1.929  1.00  0.00     0.009 A 
ATOM     62  C   UNL     1       4.829  11.758   1.934  1.00  0.00     0.009 A 
ATOM     63  C   UNL     1       3.754  14.264   2.388  1.00  0.00     0.001 A 
ATOM     64  C   UNL     1       5.639  12.779   2.432  1.00  0.00     0.001 A 
ATOM     65  C   UNL     1       5.106  14.041   2.635  1.00  0.00     0.000 A 
ENDBRANCH  46  60
BRANCH  47  66
ATOM     66  C   UNL     1       7.337  10.114  -5.860  1.00  0.00    -0.014 A 
ATOM     67  C   UNL     1       7.689  11.278  -6.563  1.00  0.00     0.009 A 
ATOM     68  C   UNL     1       8.370   9.226  -5.510  1.00  0.00     0.009 A 
ATOM     69  C   UNL     1       9.030  11.570  -6.854  1.00  0.00     0.001 A 
ATOM     70  C   UNL     1       9.708   9.516  -5.803  1.00  0.00     0.001 A 
ATOM     71  C   UNL     1      10.040  10.697  -6.458  1.00  0.00     0.000 A 
ENDBRANCH  47  66
BRANCH  59  72
ATOM     72  C   UNL     1       1.270  11.195  -4.748  1.00  0.00    -0.014 A 
ATOM     73  C   UNL     1       1.441   9.941  -5.364  1.00  0.00     0.009 A 
ATOM     74  C   UNL     1       0.143  11.955  -5.094  1.00  0.00     0.009 A 
ATOM     75  C   UNL     1       0.519   9.474  -6.308  1.00  0.00     0.001 A 
ATOM     76  C   UNL     1      -0.788  11.479  -6.020  1.00  0.00     0.001 A 
ATOM     77  C   UNL     1      -0.599  10.240  -6.628  1.00  0.00     0.000 A 
ENDBRANCH  59  72
ENDBRANCH  33  34
ENDBRANCH  26  28
ENDBRANCH  25  26
ENDBRANCH  24  25
ENDBRANCH   1  24
TORSDOF 14
