REMARK SMILES COc1ccc(Cl)c(C[C@H]([NH3+])C(=O)OCCOC(=O)c2ccc(-c3c4nc(c(-c5ccccc5)c5ccc([nH]5)c(-c5ccccc5)c5nc(c(-c6ccccc6)c6ccc3[nH]6)C=C5)C=C4)cc2)c1F
REMARK SMILES IDX 15 1 14 2 12 3 13 4 10 5 9 6 8 7 3 8 4 9 68 10 5 11 69 12
REMARK SMILES IDX 6 13 7 14 2 15 1 16 11 17 16 21 17 22 18 23 19 24 20 25
REMARK SMILES IDX 21 26 67 27 22 28 66 29 23 30 24 31 25 32 60 33 26 34 65 35
REMARK SMILES IDX 59 36 61 37 27 38 64 39 58 40 57 41 28 43 50 44 35 45 49 46
REMARK SMILES IDX 36 47 39 48 48 49 62 50 37 51 38 52 47 54 63 55 40 56 29 57
REMARK SMILES IDX 30 58 34 59 31 60 33 61 32 62 51 63 52 64 56 65 53 66 55 67
REMARK SMILES IDX 54 68 41 69 42 70 46 71 43 72 45 73 44 74
REMARK H PARENT 11 18 11 19 11 20 61 42 39 53
REMARK Flexibility Score: inf
ROOT
ATOM      1  C   UNL     1       7.936   5.581   2.148  1.00  0.00     0.274 C 
ENDROOT
BRANCH   1   2
ATOM      2  O   UNL     1       6.515   5.448   1.954  1.00  0.00    -0.458 OA
BRANCH   2   3
ATOM      3  C   UNL     1       6.041   5.856   0.743  1.00  0.00     0.365 C 
ATOM      4  O   UNL     1       6.733   6.327  -0.153  1.00  0.00    -0.245 OA
BRANCH   3   5
ATOM      5  C   UNL     1       4.520   5.665   0.613  1.00  0.00     0.296 C 
BRANCH   5   6
ATOM      6  C   UNL     1       3.706   6.887   1.084  1.00  0.00     0.117 C 
BRANCH   6   7
ATOM      7  C   UNL     1       4.374   8.219   0.828  1.00  0.00     0.017 A 
ATOM      8  C   UNL     1       4.928  10.007  -0.742  1.00  0.00     0.154 A 
ATOM      9  C   UNL     1       5.806  10.561   0.186  1.00  0.00     0.051 A 
ATOM     10  C   UNL     1       4.244   8.828  -0.430  1.00  0.00     0.169 A 
ATOM     11  C   UNL     1       5.934   9.985   1.448  1.00  0.00     0.025 A 
ATOM     12  F   UNL     1       3.466   8.242  -1.354  1.00  0.00    -0.203 F 
ATOM     13  C   UNL     1       5.210   8.836   1.774  1.00  0.00     0.047 A 
ATOM     14  Cl  UNL     1       5.414   8.205   3.371  1.00  0.00    -0.084 Cl
BRANCH   8  15
ATOM     15  O   UNL     1       4.845  10.655  -1.945  1.00  0.00    -0.494 OA
ATOM     16  C   UNL     1       3.499  10.912  -2.342  1.00  0.00     0.278 C 
ENDBRANCH   8  15
ENDBRANCH   6   7
ENDBRANCH   5   6
BRANCH   5  17
ATOM     17  N   UNL     1       4.064   4.431   1.304  1.00  0.00    -0.346 N 
ATOM     18  H   UNL     1       4.239   4.517   2.305  1.00  0.00     0.345 HD
ATOM     19  H   UNL     1       4.576   3.628   0.938  1.00  0.00     0.345 HD
ATOM     20  H   UNL     1       3.066   4.300   1.143  1.00  0.00     0.345 HD
ENDBRANCH   5  17
ENDBRANCH   3   5
ENDBRANCH   2   3
ENDBRANCH   1   2
BRANCH   1  21
ATOM     21  C   UNL     1       8.671   4.256   1.922  1.00  0.00     0.275 C 
BRANCH  21  22
ATOM     22  O   UNL     1       8.634   3.836   0.546  1.00  0.00    -0.458 OA
BRANCH  22  23
ATOM     23  C   UNL     1       7.541   3.121   0.192  1.00  0.00     0.338 C 
ATOM     24  O   UNL     1       6.614   2.778   0.908  1.00  0.00    -0.246 OA
BRANCH  23  25
ATOM     25  C   UNL     1       7.526   2.930  -1.266  1.00  0.00     0.060 A 
ATOM     26  C   UNL     1       6.393   3.354  -1.967  1.00  0.00     0.016 A 
ATOM     27  C   UNL     1       8.574   2.287  -1.928  1.00  0.00     0.016 A 
ATOM     28  C   UNL     1       6.296   3.135  -3.336  1.00  0.00     0.010 A 
ATOM     29  C   UNL     1       8.474   2.064  -3.304  1.00  0.00     0.010 A 
ATOM     30  C   UNL     1       7.330   2.477  -4.011  1.00  0.00    -0.014 A 
BRANCH  30  31
ATOM     31  C   UNL     1       7.185   2.165  -5.449  1.00  0.00     0.031 A 
ATOM     32  C   UNL     1       6.878   0.760  -5.876  1.00  0.00     0.074 A 
ATOM     33  C   UNL     1       7.325   3.140  -6.364  1.00  0.00     0.049 A 
ATOM     34  N   UNL     1       6.797   0.261  -7.082  1.00  0.00    -0.248 NA
ATOM     35  C   UNL     1       6.632  -0.212  -4.799  1.00  0.00     0.031 C 
ATOM     36  C   UNL     1       7.580   4.550  -6.066  1.00  0.00     0.029 A 
ATOM     37  N   UNL     1       7.282   3.087  -7.734  1.00  0.00    -0.354 N 
ATOM     38  C   UNL     1       6.515  -1.088  -6.911  1.00  0.00     0.074 A 
ATOM     39  C   UNL     1       6.455  -1.332  -5.486  1.00  0.00     0.031 C 
ATOM     40  C   UNL     1       7.682   5.227  -7.221  1.00  0.00     0.029 A 
ATOM     41  C   UNL     1       7.544   4.293  -8.335  1.00  0.00     0.049 A 
ATOM     42  H   UNL     1       7.083   2.264  -8.237  1.00  0.00     0.167 HD
ATOM     43  C   UNL     1       6.325  -2.036  -7.859  1.00  0.00     0.031 A 
ATOM     44  C   UNL     1       7.690   4.601  -9.637  1.00  0.00     0.031 A 
ATOM     45  C   UNL     1       6.392  -1.788  -9.275  1.00  0.00     0.049 A 
ATOM     46  C   UNL     1       7.535   3.520 -10.669  1.00  0.00     0.074 A 
ATOM     47  C   UNL     1       6.198  -2.676 -10.318  1.00  0.00     0.029 A 
ATOM     48  N   UNL     1       6.681  -0.557  -9.845  1.00  0.00    -0.354 N 
ATOM     49  N   UNL     1       7.258   2.249 -10.498  1.00  0.00    -0.248 NA
ATOM     50  C   UNL     1       7.710   3.916 -12.073  1.00  0.00     0.031 C 
ATOM     51  C   UNL     1       6.422  -1.994 -11.519  1.00  0.00     0.029 A 
ATOM     52  C   UNL     1       6.697  -0.668 -11.225  1.00  0.00     0.049 A 
ATOM     53  H   UNL     1       6.849   0.273  -9.343  1.00  0.00     0.167 HD
ATOM     54  C   UNL     1       7.204   1.698 -11.772  1.00  0.00     0.074 A 
ATOM     55  C   UNL     1       7.462   2.777 -12.705  1.00  0.00     0.031 C 
ATOM     56  C   UNL     1       6.962   0.416 -12.137  1.00  0.00     0.031 A 
BRANCH  43  57
ATOM     57  C   UNL     1       6.075  -3.441  -7.386  1.00  0.00    -0.014 A 
ATOM     58  C   UNL     1       4.863  -3.806  -6.779  1.00  0.00     0.009 A 
ATOM     59  C   UNL     1       7.068  -4.418  -7.562  1.00  0.00     0.009 A 
ATOM     60  C   UNL     1       4.667  -5.112  -6.323  1.00  0.00     0.001 A 
ATOM     61  C   UNL     1       6.858  -5.728  -7.130  1.00  0.00     0.001 A 
ATOM     62  C   UNL     1       5.663  -6.072  -6.502  1.00  0.00     0.000 A 
ENDBRANCH  43  57
BRANCH  44  63
ATOM     63  C   UNL     1       8.036   5.991 -10.030  1.00  0.00    -0.014 A 
ATOM     64  C   UNL     1       7.099   6.808 -10.681  1.00  0.00     0.009 A 
ATOM     65  C   UNL     1       9.309   6.511  -9.747  1.00  0.00     0.009 A 
ATOM     66  C   UNL     1       7.438   8.111 -11.055  1.00  0.00     0.001 A 
ATOM     67  C   UNL     1       9.635   7.822 -10.098  1.00  0.00     0.001 A 
ATOM     68  C   UNL     1       8.702   8.618 -10.758  1.00  0.00     0.000 A 
ENDBRANCH  44  63
BRANCH  56  69
ATOM     69  C   UNL     1       6.933   0.116 -13.609  1.00  0.00    -0.014 A 
ATOM     70  C   UNL     1       8.112   0.075 -14.368  1.00  0.00     0.009 A 
ATOM     71  C   UNL     1       5.709  -0.168 -14.235  1.00  0.00     0.009 A 
ATOM     72  C   UNL     1       8.062  -0.216 -15.732  1.00  0.00     0.001 A 
ATOM     73  C   UNL     1       5.665  -0.485 -15.593  1.00  0.00     0.001 A 
ATOM     74  C   UNL     1       6.840  -0.500 -16.342  1.00  0.00     0.000 A 
ENDBRANCH  56  69
ENDBRANCH  30  31
ENDBRANCH  23  25
ENDBRANCH  22  23
ENDBRANCH  21  22
ENDBRANCH   1  21
TORSDOF 15
