REMARK SMILES CCCCCCNC(=O)Oc1cccc(-c2ccc([C@@H](C)C(=O)OCCOC(=O)c3ccc(-c4c5nc(c(-c6ccccc6)c6ccc([nH]6)c(-c6ccccc6)c6nc(c(-c7ccccc7)c7ccc4[nH]7)C=C6)C=C5)cc3)cc2[N+](=O)[O-])c1
REMARK SMILES IDX 20 1 21 2 19 3 16 4 17 5 79 6 18 7 78 8 15 9 11 10 12 11
REMARK SMILES IDX 83 12 13 13 14 14 10 15 8 16 7 17 9 19 6 20 5 21 4 22 3 23
REMARK SMILES IDX 2 24 1 25 80 26 81 27 82 28 22 29 23 30 24 31 25 32 26 33
REMARK SMILES IDX 27 34 28 35 29 36 30 37 31 38 77 39 32 40 76 41 33 42 34 43
REMARK SMILES IDX 35 44 70 45 36 46 75 47 69 48 71 49 37 50 74 51 68 52 67 53
REMARK SMILES IDX 38 55 60 56 45 57 59 58 46 59 49 60 58 61 72 62 47 63 48 64
REMARK SMILES IDX 57 66 73 67 50 68 39 69 40 70 44 71 41 72 43 73 42 74 61 75
REMARK SMILES IDX 62 76 66 77 63 78 65 79 64 80 51 81 52 82 56 83 53 84 55 85
REMARK SMILES IDX 54 86
REMARK H PARENT 7 18 71 54 49 65
REMARK Flexibility Score: inf
ROOT
ATOM      1  C   UNL     1      -5.481 -13.092   4.248  1.00  0.00     0.126 C 
ATOM      2  C   UNL     1      -6.817 -13.824   4.140  1.00  0.00     0.025 C 
ENDROOT
BRANCH   1   3
ATOM      3  C   UNL     1      -5.335 -11.992   3.206  1.00  0.00    -0.027 A 
ATOM      4  C   UNL     1      -5.156  -9.874   1.277  1.00  0.00     0.060 A 
ATOM      5  C   UNL     1      -5.329 -11.217   0.893  1.00  0.00     0.016 A 
ATOM      6  C   UNL     1      -5.040  -9.631   2.656  1.00  0.00     0.277 A 
ATOM      7  C   UNL     1      -5.424 -12.252   1.834  1.00  0.00     0.006 A 
ATOM      8  C   UNL     1      -5.131 -10.664   3.609  1.00  0.00     0.091 A 
BRANCH   4   9
ATOM      9  C   UNL     1      -5.172  -8.829   0.236  1.00  0.00    -0.008 A 
ATOM     10  C   UNL     1      -4.219  -6.912  -0.898  1.00  0.00     0.133 A 
ATOM     11  C   UNL     1      -5.340  -6.800  -1.718  1.00  0.00     0.047 A 
ATOM     12  C   UNL     1      -4.119  -7.915   0.069  1.00  0.00     0.056 A 
ATOM     13  C   UNL     1      -6.378  -7.713  -1.580  1.00  0.00     0.004 A 
ATOM     14  C   UNL     1      -6.296  -8.711  -0.608  1.00  0.00     0.009 A 
BRANCH  10  15
ATOM     15  O   UNL     1      -3.279  -5.871  -0.992  1.00  0.00    -0.410 OA
BRANCH  15  16
ATOM     16  C   UNL     1      -1.929  -6.167  -1.086  1.00  0.00     0.412 C 
ATOM     17  N   UNL     1      -1.141  -5.047  -1.087  1.00  0.00    -0.321 N 
ATOM     18  H   UNL     1      -0.170  -5.191  -1.163  1.00  0.00     0.167 HD
ATOM     19  O   UNL     1      -1.441  -7.286  -1.176  1.00  0.00    -0.224 OA
BRANCH  17  20
ATOM     20  C   UNL     1      -1.588  -3.671  -0.988  1.00  0.00     0.119 C 
BRANCH  20  21
ATOM     21  C   UNL     1      -1.008  -2.963   0.235  1.00  0.00     0.021 C 
BRANCH  21  22
ATOM     22  C   UNL     1       0.519  -2.821   0.235  1.00  0.00     0.002 C 
BRANCH  22  23
ATOM     23  C   UNL     1       1.113  -2.068  -0.961  1.00  0.00    -0.000 C 
BRANCH  23  24
ATOM     24  C   UNL     1       0.622  -0.630  -1.143  1.00  0.00    -0.003 C 
ATOM     25  C   UNL     1       0.992   0.284   0.016  1.00  0.00     0.004 C 
ENDBRANCH  23  24
ENDBRANCH  22  23
ENDBRANCH  21  22
ENDBRANCH  20  21
ENDBRANCH  17  20
ENDBRANCH  15  16
ENDBRANCH  10  15
ENDBRANCH   4   9
BRANCH   6  26
ATOM     26  N   UNL     1      -4.885  -8.282   3.180  1.00  0.00     0.063 N 
ATOM     27  O   UNL     1      -3.932  -8.083   3.948  1.00  0.00    -0.258 OA
ATOM     28  O   UNL     1      -5.745  -7.443   2.879  1.00  0.00    -0.258 OA
ENDBRANCH   6  26
ENDBRANCH   1   3
BRANCH   1  29
ATOM     29  C   UNL     1      -4.338 -14.097   4.332  1.00  0.00     0.313 C 
ATOM     30  O   UNL     1      -4.026 -14.638   5.388  1.00  0.00    -0.252 OA
BRANCH  29  31
ATOM     31  O   UNL     1      -3.747 -14.354   3.137  1.00  0.00    -0.462 OA
BRANCH  31  32
ATOM     32  C   UNL     1      -2.625 -15.258   3.147  1.00  0.00     0.274 C 
BRANCH  32  33
ATOM     33  C   UNL     1      -1.294 -14.503   3.097  1.00  0.00     0.275 C 
BRANCH  33  34
ATOM     34  O   UNL     1      -1.047 -13.783   4.320  1.00  0.00    -0.458 OA
BRANCH  34  35
ATOM     35  C   UNL     1      -1.436 -12.488   4.302  1.00  0.00     0.338 C 
ATOM     36  O   UNL     1      -1.923 -11.874   3.368  1.00  0.00    -0.246 OA
BRANCH  35  37
ATOM     37  C   UNL     1      -1.335 -11.912   5.651  1.00  0.00     0.060 A 
ATOM     38  C   UNL     1      -2.522 -11.516   6.270  1.00  0.00     0.016 A 
ATOM     39  C   UNL     1      -0.104 -11.652   6.252  1.00  0.00     0.016 A 
ATOM     40  C   UNL     1      -2.490 -10.820   7.471  1.00  0.00     0.010 A 
ATOM     41  C   UNL     1      -0.072 -10.965   7.473  1.00  0.00     0.010 A 
ATOM     42  C   UNL     1      -1.264 -10.522   8.075  1.00  0.00    -0.014 A 
BRANCH  42  43
ATOM     43  C   UNL     1      -1.254  -9.682   9.296  1.00  0.00     0.031 A 
ATOM     44  C   UNL     1      -0.809  -8.248   9.216  1.00  0.00     0.074 A 
ATOM     45  C   UNL     1      -1.702 -10.185  10.462  1.00  0.00     0.049 A 
ATOM     46  N   UNL     1      -0.720  -7.357  10.171  1.00  0.00    -0.248 NA
ATOM     47  C   UNL     1      -0.409  -7.751   7.889  1.00  0.00     0.031 C 
ATOM     48  C   UNL     1      -2.199 -11.547  10.661  1.00  0.00     0.029 A 
ATOM     49  N   UNL     1      -1.821  -9.601  11.698  1.00  0.00    -0.354 N 
ATOM     50  C   UNL     1      -0.227  -6.207   9.569  1.00  0.00     0.074 A 
ATOM     51  C   UNL     1      -0.024  -6.513   8.169  1.00  0.00     0.031 C 
ATOM     52  C   UNL     1      -2.578 -11.691  11.942  1.00  0.00     0.029 A 
ATOM     53  C   UNL     1      -2.316 -10.447  12.660  1.00  0.00     0.049 A 
ATOM     54  H   UNL     1      -1.576  -8.665  11.878  1.00  0.00     0.167 HD
ATOM     55  C   UNL     1       0.031  -5.002  10.131  1.00  0.00     0.031 A 
ATOM     56  C   UNL     1      -2.516 -10.249  13.976  1.00  0.00     0.031 A 
ATOM     57  C   UNL     1      -0.201  -4.684  11.514  1.00  0.00     0.049 A 
ATOM     58  C   UNL     1      -2.196  -8.909  14.578  1.00  0.00     0.074 A 
ATOM     59  C   UNL     1      -0.009  -3.476  12.163  1.00  0.00     0.029 A 
ATOM     60  N   UNL     1      -0.680  -5.575  12.460  1.00  0.00    -0.354 N 
ATOM     61  N   UNL     1      -1.752  -7.825  13.990  1.00  0.00    -0.248 NA
ATOM     62  C   UNL     1      -2.409  -8.765  16.026  1.00  0.00     0.031 C 
ATOM     63  C   UNL     1      -0.329  -3.650  13.514  1.00  0.00     0.029 A 
ATOM     64  C   UNL     1      -0.763  -4.953  13.694  1.00  0.00     0.049 A 
ATOM     65  H   UNL     1      -0.925  -6.512  12.281  1.00  0.00     0.167 HD
ATOM     66  C   UNL     1      -1.648  -6.868  14.991  1.00  0.00     0.074 A 
ATOM     67  C   UNL     1      -2.097  -7.492  16.218  1.00  0.00     0.031 C 
ATOM     68  C   UNL     1      -1.213  -5.588  14.903  1.00  0.00     0.031 A 
BRANCH  55  69
ATOM     69  C   UNL     1       0.631  -3.939   9.257  1.00  0.00    -0.014 A 
ATOM     70  C   UNL     1      -0.140  -3.244   8.313  1.00  0.00     0.009 A 
ATOM     71  C   UNL     1       1.980  -3.589   9.427  1.00  0.00     0.009 A 
ATOM     72  C   UNL     1       0.436  -2.232   7.542  1.00  0.00     0.001 A 
ATOM     73  C   UNL     1       2.547  -2.562   8.670  1.00  0.00     0.001 A 
ATOM     74  C   UNL     1       1.776  -1.889   7.724  1.00  0.00     0.000 A 
ENDBRANCH  55  69
BRANCH  56  75
ATOM     75  C   UNL     1      -3.012 -11.359  14.832  1.00  0.00    -0.014 A 
ATOM     76  C   UNL     1      -4.295 -11.315  15.396  1.00  0.00     0.009 A 
ATOM     77  C   UNL     1      -2.183 -12.457  15.113  1.00  0.00     0.009 A 
ATOM     78  C   UNL     1      -4.727 -12.334  16.249  1.00  0.00     0.001 A 
ATOM     79  C   UNL     1      -2.628 -13.487  15.943  1.00  0.00     0.001 A 
ATOM     80  C   UNL     1      -3.895 -13.419  16.519  1.00  0.00     0.000 A 
ENDBRANCH  56  75
BRANCH  68  81
ATOM     81  C   UNL     1      -1.225  -4.773  16.165  1.00  0.00    -0.014 A 
ATOM     82  C   UNL     1      -0.272  -4.986  17.172  1.00  0.00     0.009 A 
ATOM     83  C   UNL     1      -2.180  -3.759  16.330  1.00  0.00     0.009 A 
ATOM     84  C   UNL     1      -0.295  -4.217  18.337  1.00  0.00     0.001 A 
ATOM     85  C   UNL     1      -2.185  -2.975  17.485  1.00  0.00     0.001 A 
ATOM     86  C   UNL     1      -1.249  -3.210  18.491  1.00  0.00     0.000 A 
ENDBRANCH  68  81
ENDBRANCH  42  43
ENDBRANCH  35  37
ENDBRANCH  34  35
ENDBRANCH  33  34
ENDBRANCH  32  33
ENDBRANCH  31  32
ENDBRANCH  29  31
ENDBRANCH   1  29
TORSDOF 21
