REMARK SMILES CCSc1ccc(-c2cc(Cl)cc3c2O[C@H](C(F)(F)F)C(C(=O)OCCOC(=O)c2ccc(-c4c5nc(c(-c6ccccc6)c6ccc([nH]6)c(-c6ccccc6)c6nc(c(-c7ccccc7)c7ccc4[nH]7)C=C6)C=C5)cc2)=C3)cc1
REMARK SMILES IDX 25 1 24 2 22 3 23 4 21 5 8 6 9 7 14 8 10 9 13 10 15 11 11 12
REMARK SMILES IDX 12 13 78 14 16 15 7 16 4 17 5 18 80 19 6 20 79 21 3 22 2 23
REMARK SMILES IDX 1 24 17 25 18 26 19 27 20 28 26 29 27 30 28 31 29 32 30 33
REMARK SMILES IDX 31 34 77 35 32 36 76 37 33 38 34 39 35 40 70 41 36 42 75 43
REMARK SMILES IDX 69 44 71 45 37 46 74 47 68 48 67 49 38 51 60 52 45 53 59 54
REMARK SMILES IDX 46 55 49 56 58 57 72 58 47 59 48 60 57 62 73 63 50 64 39 65
REMARK SMILES IDX 40 66 44 67 41 68 43 69 42 70 61 71 62 72 66 73 63 74 65 75
REMARK SMILES IDX 64 76 51 77 52 78 56 79 53 80 55 81 54 82
REMARK H PARENT 71 50 49 61
REMARK Flexibility Score: inf
ROOT
ATOM      1  C   UNL     1      13.857  -3.431   0.750  1.00  0.00     0.275 C 
ENDROOT
BRANCH   1   2
ATOM      2  O   UNL     1      12.857  -2.621   1.419  1.00  0.00    -0.459 OA
BRANCH   2   3
ATOM      3  C   UNL     1      12.734  -1.378   0.886  1.00  0.00     0.338 C 
ATOM      4  O   UNL     1      13.378  -0.975  -0.077  1.00  0.00    -0.246 OA
BRANCH   3   5
ATOM      5  C   UNL     1      11.707  -0.522   1.540  1.00  0.00     0.087 C 
ATOM      6  C   UNL     1       7.859  -1.322   0.587  1.00  0.00     0.026 A 
ATOM      7  C   UNL     1       8.043  -1.955  -0.665  1.00  0.00     0.033 A 
ATOM      8  C   UNL     1       9.004  -0.698   1.082  1.00  0.00     0.135 A 
ATOM      9  C   UNL     1       9.180  -1.794  -1.459  1.00  0.00     0.042 A 
ATOM     10  C   UNL     1      10.024  -0.322   0.172  1.00  0.00     0.019 A 
ATOM     11  O   UNL     1       9.337  -0.619   2.431  1.00  0.00    -0.475 OA
ATOM     12  Cl  UNL     1       9.495  -2.722  -2.865  1.00  0.00    -0.084 Cl
ATOM     13  C   UNL     1      10.117  -0.863  -1.098  1.00  0.00     0.032 A 
ATOM     14  C   UNL     1      11.195   0.397   0.704  1.00  0.00     0.027 C 
ATOM     15  C   UNL     1      10.796  -0.964   2.674  1.00  0.00     0.316 C 
BRANCH   6  16
ATOM     16  C   UNL     1       6.428  -1.232   1.017  1.00  0.00    -0.015 A 
ATOM     17  C   UNL     1       3.569  -1.608   0.874  1.00  0.00     0.007 A 
ATOM     18  C   UNL     1       4.380  -2.366   1.736  1.00  0.00     0.015 A 
ATOM     19  C   UNL     1       4.187  -0.594   0.153  1.00  0.00     0.015 A 
ATOM     20  C   UNL     1       5.779  -2.160   1.835  1.00  0.00     0.010 A 
ATOM     21  C   UNL     1       5.583  -0.408   0.233  1.00  0.00     0.010 A 
BRANCH  17  22
ATOM     22  S   UNL     1       1.842  -2.072   0.766  1.00  0.00    -0.126 SA
BRANCH  22  23
ATOM     23  C   UNL     1       1.044  -0.858  -0.348  1.00  0.00     0.071 C 
ATOM     24  C   UNL     1       0.741   0.445   0.370  1.00  0.00     0.016 C 
ENDBRANCH  22  23
ENDBRANCH  17  22
ENDBRANCH   6  16
BRANCH  15  25
ATOM     25  C   UNL     1      11.327  -0.257   3.928  1.00  0.00     0.430 C 
ATOM     26  F   UNL     1      11.155   1.086   3.855  1.00  0.00    -0.167 F 
ATOM     27  F   UNL     1      10.725  -0.689   5.056  1.00  0.00    -0.167 F 
ATOM     28  F   UNL     1      12.659  -0.474   4.081  1.00  0.00    -0.167 F 
ENDBRANCH  15  25
ENDBRANCH   3   5
ENDBRANCH   2   3
ENDBRANCH   1   2
BRANCH   1  29
ATOM     29  C   UNL     1      13.519  -4.925   0.725  1.00  0.00     0.275 C 
BRANCH  29  30
ATOM     30  O   UNL     1      12.207  -5.171   0.185  1.00  0.00    -0.458 OA
BRANCH  30  31
ATOM     31  C   UNL     1      11.238  -5.277   1.125  1.00  0.00     0.338 C 
ATOM     32  O   UNL     1      11.402  -5.191   2.337  1.00  0.00    -0.246 OA
BRANCH  31  33
ATOM     33  C   UNL     1       9.889  -5.389   0.518  1.00  0.00     0.060 A 
ATOM     34  C   UNL     1       8.832  -4.894   1.276  1.00  0.00     0.016 A 
ATOM     35  C   UNL     1       9.616  -5.961  -0.733  1.00  0.00     0.016 A 
ATOM     36  C   UNL     1       7.535  -4.925   0.764  1.00  0.00     0.010 A 
ATOM     37  C   UNL     1       8.294  -5.982  -1.244  1.00  0.00     0.010 A 
ATOM     38  C   UNL     1       7.235  -5.430  -0.514  1.00  0.00    -0.014 A 
BRANCH  38  39
ATOM     39  C   UNL     1       5.796  -5.364  -0.956  1.00  0.00     0.031 A 
ATOM     40  C   UNL     1       4.759  -6.061  -0.125  1.00  0.00     0.074 A 
ATOM     41  C   UNL     1       5.352  -4.534  -1.928  1.00  0.00     0.049 A 
ATOM     42  N   UNL     1       3.457  -5.941  -0.157  1.00  0.00    -0.248 NA
ATOM     43  C   UNL     1       5.261  -7.013   0.875  1.00  0.00     0.031 C 
ATOM     44  C   UNL     1       6.202  -3.759  -2.808  1.00  0.00     0.029 A 
ATOM     45  N   UNL     1       4.082  -4.113  -2.272  1.00  0.00    -0.354 N 
ATOM     46  C   UNL     1       2.982  -6.792   0.826  1.00  0.00     0.074 A 
ATOM     47  C   UNL     1       4.137  -7.405   1.451  1.00  0.00     0.031 C 
ATOM     48  C   UNL     1       5.481  -2.811  -3.425  1.00  0.00     0.029 A 
ATOM     49  C   UNL     1       4.070  -3.039  -3.143  1.00  0.00     0.049 A 
ATOM     50  H   UNL     1       3.263  -4.537  -1.929  1.00  0.00     0.167 HD
ATOM     51  C   UNL     1       1.702  -7.086   1.149  1.00  0.00     0.031 A 
ATOM     52  C   UNL     1       3.053  -2.337  -3.691  1.00  0.00     0.031 A 
ATOM     53  C   UNL     1       0.544  -6.598   0.453  1.00  0.00     0.049 A 
ATOM     54  C   UNL     1       1.643  -2.799  -3.438  1.00  0.00     0.074 A 
ATOM     55  C   UNL     1      -0.779  -6.965   0.626  1.00  0.00     0.029 A 
ATOM     56  N   UNL     1       0.568  -5.659  -0.566  1.00  0.00    -0.354 N 
ATOM     57  N   UNL     1       1.211  -3.685  -2.577  1.00  0.00    -0.248 NA
ATOM     58  C   UNL     1       0.583  -2.202  -4.266  1.00  0.00     0.031 C 
ATOM     59  C   UNL     1      -1.546  -6.306  -0.341  1.00  0.00     0.029 A 
ATOM     60  C   UNL     1      -0.714  -5.466  -1.061  1.00  0.00     0.049 A 
ATOM     61  H   UNL     1       1.374  -5.198  -0.891  1.00  0.00     0.167 HD
ATOM     62  C   UNL     1      -0.164  -3.754  -2.756  1.00  0.00     0.074 A 
ATOM     63  C   UNL     1      -0.502  -2.797  -3.788  1.00  0.00     0.031 C 
ATOM     64  C   UNL     1      -1.058  -4.545  -2.115  1.00  0.00     0.031 A 
BRANCH  51  65
ATOM     65  C   UNL     1       1.530  -8.111   2.229  1.00  0.00    -0.014 A 
ATOM     66  C   UNL     1       1.789  -7.804   3.574  1.00  0.00     0.009 A 
ATOM     67  C   UNL     1       1.191  -9.426   1.876  1.00  0.00     0.009 A 
ATOM     68  C   UNL     1       1.762  -8.813   4.539  1.00  0.00     0.001 A 
ATOM     69  C   UNL     1       1.138 -10.424   2.847  1.00  0.00     0.001 A 
ATOM     70  C   UNL     1       1.439 -10.120   4.174  1.00  0.00     0.000 A 
ENDBRANCH  51  65
BRANCH  52  71
ATOM     71  C   UNL     1       3.302  -1.184  -4.614  1.00  0.00    -0.014 A 
ATOM     72  C   UNL     1       2.793   0.096  -4.331  1.00  0.00     0.009 A 
ATOM     73  C   UNL     1       4.004  -1.364  -5.817  1.00  0.00     0.009 A 
ATOM     74  C   UNL     1       2.977   1.156  -5.227  1.00  0.00     0.001 A 
ATOM     75  C   UNL     1       4.226  -0.295  -6.690  1.00  0.00     0.001 A 
ATOM     76  C   UNL     1       3.703   0.962  -6.400  1.00  0.00     0.000 A 
ENDBRANCH  52  71
BRANCH  64  77
ATOM     77  C   UNL     1      -2.505  -4.415  -2.504  1.00  0.00    -0.014 A 
ATOM     78  C   UNL     1      -2.976  -4.863  -3.748  1.00  0.00     0.009 A 
ATOM     79  C   UNL     1      -3.422  -3.880  -1.586  1.00  0.00     0.009 A 
ATOM     80  C   UNL     1      -4.330  -4.751  -4.075  1.00  0.00     0.001 A 
ATOM     81  C   UNL     1      -4.779  -3.798  -1.902  1.00  0.00     0.001 A 
ATOM     82  C   UNL     1      -5.231  -4.225  -3.149  1.00  0.00     0.000 A 
ENDBRANCH  64  77
ENDBRANCH  38  39
ENDBRANCH  31  33
ENDBRANCH  30  31
ENDBRANCH  29  30
ENDBRANCH   1  29
TORSDOF 15
