REMARK SMILES C[C@@H](C(=O)OCCOC(=O)c1ccc(-c2c3nc(c(-c4ccccc4)c4ccc([nH]4)c(-c4ccccc4)c4nc(c(-c5ccccc5)c5ccc2[nH]5)C=C4)C=C3)cc1)c1ccc(-c2cccc(OC(=O)NC3CC3)c2)c(F)c1
REMARK SMILES IDX 5 1 3 2 4 3 2 4 1 5 59 6 60 7 78 8 61 9 76 10 62 11 77 12
REMARK SMILES IDX 63 13 64 14 75 15 65 16 67 17 66 18 68 19 69 20 70 21 71 22
REMARK SMILES IDX 72 24 73 25 74 26 6 27 7 28 8 29 9 30 10 31 11 32 12 33
REMARK SMILES IDX 58 34 13 35 57 36 14 37 15 38 16 39 51 40 17 41 56 42 50 43
REMARK SMILES IDX 52 44 18 45 55 46 49 47 48 48 19 50 41 51 26 52 40 53 27 54
REMARK SMILES IDX 30 55 39 56 53 57 28 58 29 59 38 61 54 62 31 63 20 64 21 65
REMARK SMILES IDX 25 66 22 67 24 68 23 69 42 70 43 71 47 72 44 73 46 74 45 75
REMARK SMILES IDX 32 76 33 77 37 78 34 79 36 80 35 81
REMARK H PARENT 71 23 52 49 30 60
REMARK Flexibility Score: inf
ROOT
ATOM      1  O   UNL     1       2.185   0.840   1.960  1.00  0.00    -0.462 OA
ENDROOT
BRANCH   1   2
ATOM      2  C   UNL     1       1.143  -0.018   2.142  1.00  0.00     0.313 C 
ATOM      3  O   UNL     1       0.607  -0.224   3.225  1.00  0.00    -0.252 OA
BRANCH   2   4
ATOM      4  C   UNL     1       0.750  -0.750   0.849  1.00  0.00     0.126 C 
ATOM      5  C   UNL     1       1.419  -0.180  -0.405  1.00  0.00     0.025 C 
BRANCH   4   6
ATOM      6  C   UNL     1      -0.768  -0.853   0.712  1.00  0.00    -0.031 A 
ATOM      7  C   UNL     1      -1.543   0.145   0.113  1.00  0.00     0.005 A 
ATOM      8  C   UNL     1      -1.441  -1.948   1.269  1.00  0.00     0.044 A 
ATOM      9  C   UNL     1      -2.948   0.080   0.135  1.00  0.00     0.012 A 
ATOM     10  C   UNL     1      -2.839  -2.008   1.277  1.00  0.00     0.131 A 
ATOM     11  C   UNL     1      -3.640  -0.975   0.761  1.00  0.00     0.018 A 
ATOM     12  F   UNL     1      -3.396  -3.098   1.826  1.00  0.00    -0.206 F 
BRANCH  11  13
ATOM     13  C   UNL     1      -5.119  -0.925   0.952  1.00  0.00    -0.012 A 
ATOM     14  C   UNL     1      -5.966  -0.254   0.049  1.00  0.00     0.009 A 
ATOM     15  C   UNL     1      -5.730  -1.490   2.094  1.00  0.00     0.056 A 
ATOM     16  C   UNL     1      -7.342  -0.127   0.284  1.00  0.00     0.004 A 
ATOM     17  C   UNL     1      -7.105  -1.377   2.321  1.00  0.00     0.133 A 
ATOM     18  C   UNL     1      -7.912  -0.688   1.422  1.00  0.00     0.047 A 
BRANCH  17  19
ATOM     19  O   UNL     1      -7.793  -1.992   3.401  1.00  0.00    -0.410 OA
BRANCH  19  20
ATOM     20  C   UNL     1      -7.205  -2.583   4.513  1.00  0.00     0.412 C 
ATOM     21  O   UNL     1      -6.024  -2.500   4.833  1.00  0.00    -0.224 OA
ATOM     22  N   UNL     1      -8.061  -3.337   5.279  1.00  0.00    -0.318 N 
ATOM     23  H   UNL     1      -7.619  -3.841   6.000  1.00  0.00     0.167 HD
BRANCH  22  24
ATOM     24  C   UNL     1      -9.473  -3.521   5.220  1.00  0.00     0.085 C 
ATOM     25  C   UNL     1     -10.395  -3.156   4.094  1.00  0.00     0.027 C 
ATOM     26  C   UNL     1     -10.075  -4.597   4.362  1.00  0.00     0.027 C 
ENDBRANCH  22  24
ENDBRANCH  19  20
ENDBRANCH  17  19
ENDBRANCH  11  13
ENDBRANCH   4   6
ENDBRANCH   2   4
ENDBRANCH   1   2
BRANCH   1  27
ATOM     27  C   UNL     1       2.639   1.572   3.119  1.00  0.00     0.274 C 
BRANCH  27  28
ATOM     28  C   UNL     1       2.178   3.025   3.044  1.00  0.00     0.275 C 
BRANCH  28  29
ATOM     29  O   UNL     1       0.751   3.083   3.201  1.00  0.00    -0.458 OA
BRANCH  29  30
ATOM     30  C   UNL     1       0.053   3.504   2.121  1.00  0.00     0.338 C 
ATOM     31  O   UNL     1       0.494   3.893   1.053  1.00  0.00    -0.246 OA
BRANCH  30  32
ATOM     32  C   UNL     1      -1.388   3.414   2.403  1.00  0.00     0.060 A 
ATOM     33  C   UNL     1      -1.947   2.193   2.764  1.00  0.00     0.016 A 
ATOM     34  C   UNL     1      -2.206   4.519   2.164  1.00  0.00     0.016 A 
ATOM     35  C   UNL     1      -3.334   2.047   2.775  1.00  0.00     0.010 A 
ATOM     36  C   UNL     1      -3.596   4.387   2.268  1.00  0.00     0.010 A 
ATOM     37  C   UNL     1      -4.183   3.133   2.515  1.00  0.00    -0.014 A 
BRANCH  37  38
ATOM     38  C   UNL     1      -5.663   2.945   2.438  1.00  0.00     0.031 A 
ATOM     39  C   UNL     1      -6.419   3.337   1.189  1.00  0.00     0.074 A 
ATOM     40  C   UNL     1      -6.341   2.401   3.469  1.00  0.00     0.049 A 
ATOM     41  N   UNL     1      -7.712   3.388   0.982  1.00  0.00    -0.248 NA
ATOM     42  C   UNL     1      -5.617   3.735   0.019  1.00  0.00     0.031 C 
ATOM     43  C   UNL     1      -5.740   1.903   4.706  1.00  0.00     0.029 A 
ATOM     44  N   UNL     1      -7.684   2.153   3.633  1.00  0.00    -0.354 N 
ATOM     45  C   UNL     1      -7.874   3.892  -0.303  1.00  0.00     0.074 A 
ATOM     46  C   UNL     1      -6.551   4.125  -0.837  1.00  0.00     0.031 C 
ATOM     47  C   UNL     1      -6.695   1.355   5.470  1.00  0.00     0.029 A 
ATOM     48  C   UNL     1      -7.993   1.564   4.838  1.00  0.00     0.049 A 
ATOM     49  H   UNL     1      -8.361   2.375   2.954  1.00  0.00     0.167 HD
ATOM     50  C   UNL     1      -9.022   4.139  -0.978  1.00  0.00     0.031 A 
ATOM     51  C   UNL     1      -9.181   1.254   5.394  1.00  0.00     0.031 A 
ATOM     52  C   UNL     1     -10.337   3.824  -0.488  1.00  0.00     0.049 A 
ATOM     53  C   UNL     1     -10.438   1.521   4.608  1.00  0.00     0.074 A 
ATOM     54  C   UNL     1     -11.558   4.026  -1.108  1.00  0.00     0.029 A 
ATOM     55  N   UNL     1     -10.599   3.218   0.730  1.00  0.00    -0.354 N 
ATOM     56  N   UNL     1     -10.568   1.979   3.386  1.00  0.00    -0.248 NA
ATOM     57  C   UNL     1     -11.715   1.222   5.272  1.00  0.00     0.031 C 
ATOM     58  C   UNL     1     -12.564   3.564  -0.252  1.00  0.00     0.029 A 
ATOM     59  C   UNL     1     -11.964   3.049   0.886  1.00  0.00     0.049 A 
ATOM     60  H   UNL     1      -9.917   2.949   1.387  1.00  0.00     0.167 HD
ATOM     61  C   UNL     1     -11.933   2.007   3.133  1.00  0.00     0.074 A 
ATOM     62  C   UNL     1     -12.588   1.471   4.307  1.00  0.00     0.031 C 
ATOM     63  C   UNL     1     -12.591   2.464   2.040  1.00  0.00     0.031 A 
BRANCH  50  64
ATOM     64  C   UNL     1      -8.916   4.824  -2.312  1.00  0.00    -0.014 A 
ATOM     65  C   UNL     1      -8.522   4.134  -3.467  1.00  0.00     0.009 A 
ATOM     66  C   UNL     1      -9.273   6.178  -2.415  1.00  0.00     0.009 A 
ATOM     67  C   UNL     1      -8.465   4.796  -4.697  1.00  0.00     0.001 A 
ATOM     68  C   UNL     1      -9.237   6.831  -3.648  1.00  0.00     0.001 A 
ATOM     69  C   UNL     1      -8.827   6.141  -4.787  1.00  0.00     0.000 A 
ENDBRANCH  50  64
BRANCH  51  70
ATOM     70  C   UNL     1      -9.229   0.664   6.767  1.00  0.00    -0.014 A 
ATOM     71  C   UNL     1      -9.815  -0.589   6.988  1.00  0.00     0.009 A 
ATOM     72  C   UNL     1      -8.666   1.329   7.870  1.00  0.00     0.009 A 
ATOM     73  C   UNL     1      -9.823  -1.172   8.258  1.00  0.00     0.001 A 
ATOM     74  C   UNL     1      -8.632   0.728   9.131  1.00  0.00     0.001 A 
ATOM     75  C   UNL     1      -9.212  -0.522   9.325  1.00  0.00     0.000 A 
ENDBRANCH  51  70
BRANCH  63  76
ATOM     76  C   UNL     1     -14.090   2.362   2.051  1.00  0.00    -0.014 A 
ATOM     77  C   UNL     1     -14.865   3.223   2.845  1.00  0.00     0.009 A 
ATOM     78  C   UNL     1     -14.736   1.423   1.232  1.00  0.00     0.009 A 
ATOM     79  C   UNL     1     -16.256   3.117   2.849  1.00  0.00     0.001 A 
ATOM     80  C   UNL     1     -16.129   1.338   1.219  1.00  0.00     0.001 A 
ATOM     81  C   UNL     1     -16.887   2.178   2.034  1.00  0.00     0.000 A 
ENDBRANCH  63  76
ENDBRANCH  37  38
ENDBRANCH  30  32
ENDBRANCH  29  30
ENDBRANCH  28  29
ENDBRANCH  27  28
ENDBRANCH   1  27
TORSDOF 16
