REMARK SMILES Cc1cc(SCC(=O)OCCOC(=O)c2ccc(-c3c4nc(c(-c5ccccc5)c5ccc([nH]5)c(-c5ccccc5)c5nc(c(-c6ccccc6)c6ccc3[nH]6)C=C5)C=C4)cc2)c2cc(I)ccc2n1
REMARK SMILES IDX 10 1 9 2 7 3 8 4 6 5 5 6 4 7 1 8 2 9 3 10 70 11 69 12 63 13
REMARK SMILES IDX 68 14 64 15 67 16 65 17 66 18 11 19 12 20 13 21 14 22 15 23
REMARK SMILES IDX 16 24 62 25 17 26 61 27 18 28 19 29 20 30 55 31 21 32 60 33
REMARK SMILES IDX 54 34 56 35 22 36 59 37 53 38 52 39 23 41 45 42 30 43 44 44
REMARK SMILES IDX 31 45 34 46 43 47 57 48 32 49 33 50 42 52 58 53 35 54 24 55
REMARK SMILES IDX 25 56 29 57 26 58 28 59 27 60 46 61 47 62 51 63 48 64 50 65
REMARK SMILES IDX 49 66 36 67 37 68 41 69 38 70 40 71 39 72
REMARK H PARENT 56 40 34 51
REMARK Flexibility Score: inf
ROOT
ATOM      1  C   UNL     1       5.424  -3.681  -1.636  1.00  0.00     0.274 C 
ENDROOT
BRANCH   1   2
ATOM      2  O   UNL     1       4.247  -4.203  -0.989  1.00  0.00    -0.461 OA
BRANCH   2   3
ATOM      3  C   UNL     1       4.309  -4.337   0.360  1.00  0.00     0.316 C 
ATOM      4  O   UNL     1       5.264  -3.976   1.044  1.00  0.00    -0.251 OA
BRANCH   3   5
ATOM      5  C   UNL     1       3.084  -4.955   1.001  1.00  0.00     0.197 C 
BRANCH   5   6
ATOM      6  S   UNL     1       1.831  -5.593  -0.149  1.00  0.00    -0.114 SA
BRANCH   6   7
ATOM      7  C   UNL     1       0.580  -4.294  -0.309  1.00  0.00     0.019 A 
ATOM      8  C   UNL     1       0.021  -0.606   0.367  1.00  0.00     0.067 C 
ATOM      9  C   UNL     1      -0.183  -2.024  -0.076  1.00  0.00     0.039 A 
ATOM     10  C   UNL     1       0.808  -2.981   0.104  1.00  0.00     0.039 A 
ATOM     11  N   UNL     1      -1.357  -2.302  -0.675  1.00  0.00    -0.253 NA
ATOM     12  C   UNL     1      -1.586  -3.550  -1.097  1.00  0.00     0.072 A 
ATOM     13  C   UNL     1      -0.667  -4.608  -0.924  1.00  0.00     0.015 A 
ATOM     14  C   UNL     1      -2.795  -3.790  -1.734  1.00  0.00     0.030 A 
ATOM     15  C   UNL     1      -1.050  -5.900  -1.377  1.00  0.00     0.026 A 
ATOM     16  C   UNL     1      -3.152  -5.059  -2.191  1.00  0.00     0.017 A 
ATOM     17  C   UNL     1      -2.279  -6.117  -1.998  1.00  0.00     0.014 A 
ATOM     18  I   UNL     1      -2.798  -8.024  -2.632  1.00  0.00    -0.044 I 
ENDBRANCH   6   7
ENDBRANCH   5   6
ENDBRANCH   3   5
ENDBRANCH   2   3
ENDBRANCH   1   2
BRANCH   1  19
ATOM     19  C   UNL     1       5.276  -2.193  -1.940  1.00  0.00     0.275 C 
BRANCH  19  20
ATOM     20  O   UNL     1       5.061  -1.458  -0.722  1.00  0.00    -0.458 OA
BRANCH  20  21
ATOM     21  C   UNL     1       3.869  -0.835  -0.633  1.00  0.00     0.338 C 
ATOM     22  O   UNL     1       2.986  -0.787  -1.476  1.00  0.00    -0.246 OA
BRANCH  21  23
ATOM     23  C   UNL     1       3.724  -0.189   0.678  1.00  0.00     0.060 A 
ATOM     24  C   UNL     1       3.552   1.194   0.727  1.00  0.00     0.016 A 
ATOM     25  C   UNL     1       3.584  -0.964   1.832  1.00  0.00     0.016 A 
ATOM     26  C   UNL     1       3.253   1.804   1.946  1.00  0.00     0.010 A 
ATOM     27  C   UNL     1       3.214  -0.361   3.033  1.00  0.00     0.010 A 
ATOM     28  C   UNL     1       3.065   1.030   3.104  1.00  0.00    -0.014 A 
BRANCH  28  29
ATOM     29  C   UNL     1       2.724   1.693   4.385  1.00  0.00     0.031 A 
ATOM     30  C   UNL     1       3.738   1.776   5.487  1.00  0.00     0.074 A 
ATOM     31  C   UNL     1       1.505   2.240   4.553  1.00  0.00     0.049 A 
ATOM     32  N   UNL     1       3.702   2.495   6.580  1.00  0.00    -0.248 NA
ATOM     33  C   UNL     1       4.944   0.944   5.353  1.00  0.00     0.031 C 
ATOM     34  C   UNL     1       0.402   2.167   3.594  1.00  0.00     0.029 A 
ATOM     35  N   UNL     1       0.998   2.983   5.590  1.00  0.00    -0.354 N 
ATOM     36  C   UNL     1       4.892   2.230   7.242  1.00  0.00     0.074 A 
ATOM     37  C   UNL     1       5.593   1.226   6.473  1.00  0.00     0.031 C 
ATOM     38  C   UNL     1      -0.640   2.867   4.071  1.00  0.00     0.029 A 
ATOM     39  C   UNL     1      -0.274   3.446   5.361  1.00  0.00     0.049 A 
ATOM     40  H   UNL     1       1.499   3.167   6.417  1.00  0.00     0.167 HD
ATOM     41  C   UNL     1       5.379   2.801   8.367  1.00  0.00     0.031 A 
ATOM     42  C   UNL     1      -1.045   4.277   6.088  1.00  0.00     0.031 A 
ATOM     43  C   UNL     1       4.680   3.787   9.141  1.00  0.00     0.049 A 
ATOM     44  C   UNL     1      -0.495   4.888   7.345  1.00  0.00     0.074 A 
ATOM     45  C   UNL     1       5.118   4.478  10.257  1.00  0.00     0.029 A 
ATOM     46  N   UNL     1       3.385   4.210   8.887  1.00  0.00    -0.354 N 
ATOM     47  N   UNL     1       0.690   4.737   7.885  1.00  0.00    -0.248 NA
ATOM     48  C   UNL     1      -1.378   5.809   8.076  1.00  0.00     0.031 C 
ATOM     49  C   UNL     1       4.071   5.292  10.703  1.00  0.00     0.029 A 
ATOM     50  C   UNL     1       2.997   5.133   9.841  1.00  0.00     0.049 A 
ATOM     51  H   UNL     1       2.826   3.900   8.139  1.00  0.00     0.167 HD
ATOM     52  C   UNL     1       0.706   5.565   9.000  1.00  0.00     0.074 A 
ATOM     53  C   UNL     1      -0.586   6.217   9.059  1.00  0.00     0.031 C 
ATOM     54  C   UNL     1       1.708   5.771   9.888  1.00  0.00     0.031 A 
BRANCH  41  55
ATOM     55  C   UNL     1       6.754   2.390   8.802  1.00  0.00    -0.014 A 
ATOM     56  C   UNL     1       6.929   1.587   9.937  1.00  0.00     0.009 A 
ATOM     57  C   UNL     1       7.885   2.830   8.094  1.00  0.00     0.009 A 
ATOM     58  C   UNL     1       8.212   1.224  10.350  1.00  0.00     0.001 A 
ATOM     59  C   UNL     1       9.164   2.448   8.497  1.00  0.00     0.001 A 
ATOM     60  C   UNL     1       9.327   1.648   9.627  1.00  0.00     0.000 A 
ENDBRANCH  41  55
BRANCH  42  61
ATOM     61  C   UNL     1      -2.394   4.645   5.593  1.00  0.00    -0.014 A 
ATOM     62  C   UNL     1      -3.466   3.747   5.703  1.00  0.00     0.009 A 
ATOM     63  C   UNL     1      -2.609   5.893   4.988  1.00  0.00     0.009 A 
ATOM     64  C   UNL     1      -4.728   4.091   5.213  1.00  0.00     0.001 A 
ATOM     65  C   UNL     1      -3.876   6.240   4.514  1.00  0.00     0.001 A 
ATOM     66  C   UNL     1      -4.933   5.338   4.624  1.00  0.00     0.000 A 
ENDBRANCH  42  61
BRANCH  54  67
ATOM     67  C   UNL     1       1.462   6.749  10.999  1.00  0.00    -0.014 A 
ATOM     68  C   UNL     1       2.091   8.003  10.975  1.00  0.00     0.009 A 
ATOM     69  C   UNL     1       0.680   6.396  12.109  1.00  0.00     0.009 A 
ATOM     70  C   UNL     1       1.950   8.884  12.047  1.00  0.00     0.001 A 
ATOM     71  C   UNL     1       0.523   7.289  13.171  1.00  0.00     0.001 A 
ATOM     72  C   UNL     1       1.164   8.528  13.142  1.00  0.00     0.000 A 
ENDBRANCH  54  67
ENDBRANCH  28  29
ENDBRANCH  21  23
ENDBRANCH  20  21
ENDBRANCH  19  20
ENDBRANCH   1  19
TORSDOF 13
