REMARK SMILES Cc1c(C[NH2+]Cc2cccc(F)c2)c(C(=O)OCCOC(=O)c2ccc(-c3c4nc(c(-c5ccccc5)c5ccc([nH]5)c(-c5ccccc5)c5nc(c(-c6ccccc6)c6ccc3[nH]6)C=C5)C=C4)cc2)c(C)n1Cc1c(F)cccc1Cl
REMARK SMILES IDX 18 1 17 2 15 3 16 4 14 5 1 6 2 7 3 8 73 9 71 10 72 11 4 12
REMARK SMILES IDX 5 13 6 16 7 17 8 18 13 19 9 20 11 21 10 22 12 23 74 24 75 25
REMARK SMILES IDX 76 26 81 27 77 28 78 29 80 30 82 31 79 32 19 33 20 34 21 35
REMARK SMILES IDX 22 36 23 37 24 38 70 39 25 40 69 41 26 42 27 43 28 44 63 45
REMARK SMILES IDX 29 46 68 47 62 48 64 49 30 50 67 51 61 52 60 53 31 55 53 56
REMARK SMILES IDX 38 57 52 58 39 59 42 60 51 61 65 62 40 63 41 64 50 66 66 67
REMARK SMILES IDX 43 68 32 69 33 70 37 71 34 72 36 73 35 74 54 75 55 76 59 77
REMARK SMILES IDX 56 78 58 79 57 80 44 81 45 82 49 83 46 84 48 85 47 86
REMARK H PARENT 5 14 5 15 64 54 42 65
REMARK Flexibility Score: inf
ROOT
ATOM      1  C   UNL     1       0.241  -7.544   0.080  1.00  0.00     0.275 C 
ENDROOT
BRANCH   1   2
ATOM      2  O   UNL     1       0.013  -6.111   0.130  1.00  0.00    -0.458 OA
BRANCH   2   3
ATOM      3  C   UNL     1       0.798  -5.393   0.991  1.00  0.00     0.340 C 
ATOM      4  O   UNL     1       1.678  -5.885   1.697  1.00  0.00    -0.246 OA
BRANCH   3   5
ATOM      5  C   UNL     1       0.453  -3.966   1.011  1.00  0.00     0.089 A 
ATOM      6  C   UNL     1       0.798  -0.379   0.021  1.00  0.00     0.065 C 
ATOM      7  C   UNL     1       0.454  -1.732   0.556  1.00  0.00     0.025 A 
ATOM      8  C   UNL     1       0.975  -2.958   0.144  1.00  0.00     0.042 A 
ATOM      9  N   UNL     1      -0.450  -1.977   1.586  1.00  0.00    -0.343 N 
ATOM     10  C   UNL     1      -0.304  -3.307   1.976  1.00  0.00     0.030 A 
ATOM     11  C   UNL     1      -0.857  -3.896   3.228  1.00  0.00     0.065 C 
BRANCH   8  12
ATOM     12  C   UNL     1       1.985  -3.214  -0.939  1.00  0.00     0.300 C 
BRANCH  12  13
ATOM     13  N   UNL     1       3.214  -3.632  -0.274  1.00  0.00    -0.339 N 
ATOM     14  H   UNL     1       3.019  -4.485   0.251  1.00  0.00     0.346 HD
ATOM     15  H   UNL     1       3.502  -2.856   0.322  1.00  0.00     0.346 HD
BRANCH  13  16
ATOM     16  C   UNL     1       4.324  -3.898  -1.177  1.00  0.00     0.297 C 
BRANCH  16  17
ATOM     17  C   UNL     1       4.903  -2.701  -1.900  1.00  0.00     0.009 A 
ATOM     18  C   UNL     1       4.778  -1.382  -1.432  1.00  0.00     0.010 A 
ATOM     19  C   UNL     1       5.639  -2.919  -3.075  1.00  0.00     0.048 A 
ATOM     20  C   UNL     1       5.301  -0.307  -2.157  1.00  0.00     0.004 A 
ATOM     21  C   UNL     1       6.171  -1.845  -3.781  1.00  0.00     0.123 A 
ATOM     22  C   UNL     1       5.995  -0.540  -3.340  1.00  0.00     0.039 A 
ATOM     23  F   UNL     1       6.862  -2.074  -4.906  1.00  0.00    -0.207 F 
ENDBRANCH  16  17
ENDBRANCH  13  16
ENDBRANCH  12  13
ENDBRANCH   8  12
BRANCH   9  24
ATOM     24  C   UNL     1      -1.280  -0.963   2.268  1.00  0.00     0.162 C 
BRANCH  24  25
ATOM     25  C   UNL     1      -2.725  -0.931   1.821  1.00  0.00     0.026 A 
ATOM     26  C   UNL     1      -3.639  -1.839   2.375  1.00  0.00     0.129 A 
ATOM     27  C   UNL     1      -3.249   0.004   0.913  1.00  0.00     0.048 A 
ATOM     28  F   UNL     1      -3.255  -2.663   3.355  1.00  0.00    -0.207 F 
ATOM     29  C   UNL     1      -4.982  -1.883   2.003  1.00  0.00     0.040 A 
ATOM     30  C   UNL     1      -4.609  -0.016   0.551  1.00  0.00     0.021 A 
ATOM     31  Cl  UNL     1      -2.299   1.280   0.242  1.00  0.00    -0.084 Cl
ATOM     32  C   UNL     1      -5.472  -0.972   1.081  1.00  0.00     0.005 A 
ENDBRANCH  24  25
ENDBRANCH   9  24
ENDBRANCH   3   5
ENDBRANCH   2   3
ENDBRANCH   1   2
BRANCH   1  33
ATOM     33  C   UNL     1      -0.314  -8.129  -1.243  1.00  0.00     0.275 C 
BRANCH  33  34
ATOM     34  O   UNL     1       0.690  -8.638  -2.192  1.00  0.00    -0.458 OA
BRANCH  34  35
ATOM     35  C   UNL     1       0.633  -8.127  -3.469  1.00  0.00     0.338 C 
ATOM     36  O   UNL     1       0.014  -7.137  -3.782  1.00  0.00    -0.246 OA
BRANCH  35  37
ATOM     37  C   UNL     1       1.410  -8.921  -4.511  1.00  0.00     0.060 A 
ATOM     38  C   UNL     1       2.711  -8.556  -4.819  1.00  0.00     0.016 A 
ATOM     39  C   UNL     1       0.792  -9.815  -5.413  1.00  0.00     0.016 A 
ATOM     40  C   UNL     1       3.361  -9.085  -5.977  1.00  0.00     0.010 A 
ATOM     41  C   UNL     1       1.442 -10.306  -6.625  1.00  0.00     0.010 A 
ATOM     42  C   UNL     1       2.751  -9.934  -6.971  1.00  0.00    -0.014 A 
BRANCH  42  43
ATOM     43  C   UNL     1       3.420  -9.940  -8.420  1.00  0.00     0.031 A 
ATOM     44  C   UNL     1       3.827  -8.526  -8.643  1.00  0.00     0.074 A 
ATOM     45  C   UNL     1       3.653 -10.716  -9.551  1.00  0.00     0.049 A 
ATOM     46  N   UNL     1       2.952  -7.567  -8.581  1.00  0.00    -0.248 NA
ATOM     47  C   UNL     1       5.226  -8.099  -8.622  1.00  0.00     0.031 C 
ATOM     48  C   UNL     1       3.260 -12.108  -9.813  1.00  0.00     0.029 A 
ATOM     49  N   UNL     1       4.339 -10.420 -10.772  1.00  0.00    -0.354 N 
ATOM     50  C   UNL     1       3.657  -6.412  -8.798  1.00  0.00     0.074 A 
ATOM     51  C   UNL     1       5.051  -6.775  -8.603  1.00  0.00     0.031 C 
ATOM     52  C   UNL     1       3.794 -12.565 -10.984  1.00  0.00     0.029 A 
ATOM     53  C   UNL     1       4.550 -11.516 -11.664  1.00  0.00     0.049 A 
ATOM     54  H   UNL     1       4.648  -9.510 -10.985  1.00  0.00     0.167 HD
ATOM     55  C   UNL     1       3.123  -5.498  -9.653  1.00  0.00     0.031 A 
ATOM     56  C   UNL     1       5.217 -11.587 -12.877  1.00  0.00     0.031 A 
ATOM     57  C   UNL     1       3.877  -5.381 -10.870  1.00  0.00     0.049 A 
ATOM     58  C   UNL     1       5.303 -10.234 -13.451  1.00  0.00     0.074 A 
ATOM     59  C   UNL     1       5.220  -5.266 -11.166  1.00  0.00     0.029 A 
ATOM     60  N   UNL     1       3.260  -5.834 -12.017  1.00  0.00    -0.354 N 
ATOM     61  N   UNL     1       4.292  -9.715 -14.078  1.00  0.00    -0.248 NA
ATOM     62  C   UNL     1       6.545  -9.473 -13.548  1.00  0.00     0.031 C 
ATOM     63  C   UNL     1       5.424  -6.095 -12.298  1.00  0.00     0.029 A 
ATOM     64  C   UNL     1       4.188  -6.489 -12.800  1.00  0.00     0.049 A 
ATOM     65  H   UNL     1       2.309  -5.710 -12.242  1.00  0.00     0.167 HD
ATOM     66  C   UNL     1       4.617  -8.397 -14.170  1.00  0.00     0.074 A 
ATOM     67  C   UNL     1       6.065  -8.364 -14.118  1.00  0.00     0.031 C 
ATOM     68  C   UNL     1       3.705  -7.506 -13.708  1.00  0.00     0.031 A 
BRANCH  55  69
ATOM     69  C   UNL     1       1.626  -5.362  -9.585  1.00  0.00    -0.014 A 
ATOM     70  C   UNL     1       1.069  -4.196  -9.052  1.00  0.00     0.009 A 
ATOM     71  C   UNL     1       0.763  -6.425  -9.923  1.00  0.00     0.009 A 
ATOM     72  C   UNL     1      -0.306  -4.123  -8.802  1.00  0.00     0.001 A 
ATOM     73  C   UNL     1      -0.601  -6.364  -9.644  1.00  0.00     0.001 A 
ATOM     74  C   UNL     1      -1.134  -5.214  -9.073  1.00  0.00     0.000 A 
ENDBRANCH  55  69
BRANCH  56  75
ATOM     75  C   UNL     1       5.716 -12.592 -13.926  1.00  0.00    -0.014 A 
ATOM     76  C   UNL     1       5.684 -12.229 -15.313  1.00  0.00     0.009 A 
ATOM     77  C   UNL     1       6.555 -13.666 -13.617  1.00  0.00     0.009 A 
ATOM     78  C   UNL     1       6.516 -12.800 -16.291  1.00  0.00     0.001 A 
ATOM     79  C   UNL     1       7.366 -14.274 -14.612  1.00  0.00     0.001 A 
ATOM     80  C   UNL     1       7.376 -13.820 -15.934  1.00  0.00     0.000 A 
ENDBRANCH  56  75
BRANCH  68  81
ATOM     81  C   UNL     1       2.228  -7.845 -13.918  1.00  0.00    -0.014 A 
ATOM     82  C   UNL     1       1.647  -9.118 -13.714  1.00  0.00     0.009 A 
ATOM     83  C   UNL     1       1.375  -6.836 -14.385  1.00  0.00     0.009 A 
ATOM     84  C   UNL     1       0.315  -9.394 -14.043  1.00  0.00     0.001 A 
ATOM     85  C   UNL     1       0.024  -7.093 -14.659  1.00  0.00     0.001 A 
ATOM     86  C   UNL     1      -0.499  -8.376 -14.513  1.00  0.00     0.000 A 
ENDBRANCH  68  81
ENDBRANCH  42  43
ENDBRANCH  35  37
ENDBRANCH  34  35
ENDBRANCH  33  34
ENDBRANCH   1  33
TORSDOF 17
