REMARK SMILES O=C(OCCOC(=O)c1cn(C2CC2)c2cc(N3CC[NH2+]CC3)ccc2c1=O)c1ccc(-c2c3nc(c(-c4ccccc4)c4ccc([nH]4)c(-c4ccccc4)c4nc(c(-c5ccccc5)c5ccc2[nH]5)C=C4)C=C3)cc1
REMARK SMILES IDX 4 1 3 2 2 3 1 4 29 5 30 6 76 7 31 8 75 9 32 10 33 11 34 12
REMARK SMILES IDX 69 13 35 14 74 15 68 16 70 17 36 18 73 19 67 20 66 21 37 23
REMARK SMILES IDX 59 24 44 25 58 26 45 27 48 28 57 29 71 30 46 31 47 32 56 34
REMARK SMILES IDX 72 35 49 36 38 37 39 38 43 39 40 40 42 41 41 42 60 43 61 44
REMARK SMILES IDX 65 45 62 46 64 47 63 48 50 49 51 50 55 51 52 52 54 53 53 54
REMARK SMILES IDX 5 55 6 56 7 57 8 58 9 59 10 60 27 61 11 62 26 63 28 64 15 65
REMARK SMILES IDX 25 66 16 67 24 68 17 69 12 70 13 71 14 72 18 73 19 74 23 75
REMARK SMILES IDX 20 76 22 77 21 78
REMARK H PARENT 70 22 48 33 21 79 21 80
REMARK Flexibility Score: inf
ROOT
ATOM      1  C   UNL     1       4.278  -0.753  -1.223  1.00  0.00     0.275 C 
ENDROOT
BRANCH   1   2
ATOM      2  O   UNL     1       3.215  -1.125  -0.329  1.00  0.00    -0.458 OA
BRANCH   2   3
ATOM      3  C   UNL     1       3.147  -0.895   1.006  1.00  0.00     0.338 C 
ATOM      4  O   UNL     1       2.468  -1.620   1.727  1.00  0.00    -0.246 OA
BRANCH   3   5
ATOM      5  C   UNL     1       3.725   0.342   1.607  1.00  0.00     0.060 A 
ATOM      6  C   UNL     1       2.897   1.059   2.481  1.00  0.00     0.016 A 
ATOM      7  C   UNL     1       5.032   0.798   1.416  1.00  0.00     0.016 A 
ATOM      8  C   UNL     1       3.328   2.259   3.057  1.00  0.00     0.010 A 
ATOM      9  C   UNL     1       5.478   1.984   2.019  1.00  0.00     0.010 A 
ATOM     10  C   UNL     1       4.631   2.736   2.835  1.00  0.00    -0.014 A 
BRANCH  10  11
ATOM     11  C   UNL     1       5.140   3.877   3.639  1.00  0.00     0.031 A 
ATOM     12  C   UNL     1       5.540   5.200   3.054  1.00  0.00     0.074 A 
ATOM     13  C   UNL     1       5.270   3.699   4.968  1.00  0.00     0.049 A 
ATOM     14  N   UNL     1       5.591   6.362   3.659  1.00  0.00    -0.248 NA
ATOM     15  C   UNL     1       5.933   5.254   1.638  1.00  0.00     0.031 C 
ATOM     16  C   UNL     1       5.039   2.438   5.676  1.00  0.00     0.029 A 
ATOM     17  N   UNL     1       5.641   4.575   5.953  1.00  0.00    -0.354 N 
ATOM     18  C   UNL     1       5.857   7.296   2.667  1.00  0.00     0.074 A 
ATOM     19  C   UNL     1       6.137   6.558   1.461  1.00  0.00     0.031 C 
ATOM     20  C   UNL     1       5.275   2.622   6.983  1.00  0.00     0.029 A 
ATOM     21  C   UNL     1       5.682   4.006   7.201  1.00  0.00     0.049 A 
ATOM     22  H   UNL     1       5.857   5.520   5.783  1.00  0.00     0.167 HD
ATOM     23  C   UNL     1       5.782   8.643   2.771  1.00  0.00     0.031 A 
ATOM     24  C   UNL     1       6.010   4.541   8.392  1.00  0.00     0.031 A 
ATOM     25  C   UNL     1       5.745   9.337   4.027  1.00  0.00     0.049 A 
ATOM     26  C   UNL     1       6.265   6.018   8.474  1.00  0.00     0.074 A 
ATOM     27  C   UNL     1       5.699  10.701   4.251  1.00  0.00     0.029 A 
ATOM     28  N   UNL     1       5.879   8.724   5.258  1.00  0.00    -0.354 N 
ATOM     29  N   UNL     1       6.127   6.929   7.540  1.00  0.00    -0.248 NA
ATOM     30  C   UNL     1       6.686   6.551   9.775  1.00  0.00     0.031 C 
ATOM     31  C   UNL     1       5.951  10.914   5.608  1.00  0.00     0.029 A 
ATOM     32  C   UNL     1       6.059   9.682   6.236  1.00  0.00     0.049 A 
ATOM     33  H   UNL     1       5.851   7.752   5.415  1.00  0.00     0.167 HD
ATOM     34  C   UNL     1       6.391   8.148   8.153  1.00  0.00     0.074 A 
ATOM     35  C   UNL     1       6.704   7.856   9.537  1.00  0.00     0.031 C 
ATOM     36  C   UNL     1       6.360   9.392   7.616  1.00  0.00     0.031 A 
BRANCH  23  37
ATOM     37  C   UNL     1       5.660   9.488   1.536  1.00  0.00    -0.014 A 
ATOM     38  C   UNL     1       6.759  10.111   0.937  1.00  0.00     0.009 A 
ATOM     39  C   UNL     1       4.366   9.845   1.111  1.00  0.00     0.009 A 
ATOM     40  C   UNL     1       6.562  11.059  -0.075  1.00  0.00     0.001 A 
ATOM     41  C   UNL     1       4.172  10.775   0.088  1.00  0.00     0.001 A 
ATOM     42  C   UNL     1       5.273  11.387  -0.501  1.00  0.00     0.000 A 
ENDBRANCH  23  37
BRANCH  24  43
ATOM     43  C   UNL     1       6.075   3.657   9.585  1.00  0.00    -0.014 A 
ATOM     44  C   UNL     1       7.016   2.613   9.639  1.00  0.00     0.009 A 
ATOM     45  C   UNL     1       5.169   3.803  10.644  1.00  0.00     0.009 A 
ATOM     46  C   UNL     1       7.028   1.716  10.709  1.00  0.00     0.001 A 
ATOM     47  C   UNL     1       5.207   2.926  11.732  1.00  0.00     0.001 A 
ATOM     48  C   UNL     1       6.127   1.878  11.757  1.00  0.00     0.000 A 
ENDBRANCH  24  43
BRANCH  36  49
ATOM     49  C   UNL     1       6.654  10.564   8.508  1.00  0.00    -0.014 A 
ATOM     50  C   UNL     1       5.656  11.526   8.738  1.00  0.00     0.009 A 
ATOM     51  C   UNL     1       7.944  10.791   9.009  1.00  0.00     0.009 A 
ATOM     52  C   UNL     1       5.950  12.705   9.421  1.00  0.00     0.001 A 
ATOM     53  C   UNL     1       8.224  11.951   9.733  1.00  0.00     0.001 A 
ATOM     54  C   UNL     1       7.233  12.913   9.924  1.00  0.00     0.000 A 
ENDBRANCH  36  49
ENDBRANCH  10  11
ENDBRANCH   3   5
ENDBRANCH   2   3
ENDBRANCH   1   2
BRANCH   1  55
ATOM     55  C   UNL     1       4.062   0.572  -1.957  1.00  0.00     0.275 C 
BRANCH  55  56
ATOM     56  O   UNL     1       3.450   1.570  -1.131  1.00  0.00    -0.458 OA
BRANCH  56  57
ATOM     57  C   UNL     1       2.096   1.676  -1.252  1.00  0.00     0.343 C 
ATOM     58  O   UNL     1       1.407   1.099  -2.079  1.00  0.00    -0.246 OA
BRANCH  57  59
ATOM     59  C   UNL     1       1.579   2.591  -0.224  1.00  0.00     0.124 A 
ATOM     60  C   UNL     1       2.117   3.811  -0.086  1.00  0.00     0.106 A 
ATOM     61  C   UNL     1       0.494   2.202   0.708  1.00  0.00     0.203 A 
ATOM     62  N   UNL     1       1.718   4.764   0.829  1.00  0.00    -0.343 N 
ATOM     63  C   UNL     1       0.139   3.162   1.787  1.00  0.00     0.047 A 
ATOM     64  O   UNL     1      -0.050   1.106   0.655  1.00  0.00    -0.288 OA
ATOM     65  C   UNL     1       0.704   4.443   1.775  1.00  0.00     0.054 A 
ATOM     66  C   UNL     1      -0.709   2.768   2.831  1.00  0.00     0.016 A 
ATOM     67  C   UNL     1       0.269   5.358   2.746  1.00  0.00     0.053 A 
ATOM     68  C   UNL     1      -1.055   3.680   3.834  1.00  0.00     0.027 A 
ATOM     69  C   UNL     1      -0.615   5.003   3.776  1.00  0.00     0.039 A 
BRANCH  62  70
ATOM     70  C   UNL     1       2.431   6.049   0.924  1.00  0.00     0.087 C 
ATOM     71  C   UNL     1       3.223   6.714  -0.166  1.00  0.00     0.027 C 
ATOM     72  C   UNL     1       1.868   7.236   0.183  1.00  0.00     0.027 C 
ENDBRANCH  62  70
BRANCH  69  73
ATOM     73  N   UNL     1      -1.036   5.969   4.663  1.00  0.00    -0.360 N 
ATOM     74  C   UNL     1      -1.774   7.127   4.147  1.00  0.00     0.178 C 
ATOM     75  C   UNL     1      -1.036   5.787   6.115  1.00  0.00     0.178 C 
ATOM     76  C   UNL     1      -3.194   7.156   4.757  1.00  0.00     0.282 C 
ATOM     77  C   UNL     1      -2.463   5.926   6.692  1.00  0.00     0.282 C 
ATOM     78  N   UNL     1      -3.192   7.133   6.237  1.00  0.00    -0.343 N 
ATOM     79  H   UNL     1      -4.152   7.104   6.581  1.00  0.00     0.346 HD
ATOM     80  H   UNL     1      -2.735   7.971   6.597  1.00  0.00     0.346 HD
ENDBRANCH  69  73
ENDBRANCH  57  59
ENDBRANCH  56  57
ENDBRANCH  55  56
ENDBRANCH   1  55
TORSDOF 13
