REMARK SMILES CCc1cc(OC[C@@H]2C[N@@H+](CC)CCO2)c(C(=O)OCCOC(=O)c2ccc(-c3c4nc(c(-c5ccccc5)c5ccc([nH]5)c(-c5ccccc5)c5nc(c(-c6ccccc6)c6ccc3[nH]6)C=C5)C=C4)cc2)s1
REMARK SMILES IDX 20 1 19 2 17 3 18 4 16 5 3 6 4 7 73 8 5 9 2 10 1 11 6 12
REMARK SMILES IDX 7 13 8 14 9 15 15 16 10 17 14 18 13 19 11 21 12 22 21 23
REMARK SMILES IDX 22 24 23 25 24 26 25 27 26 28 72 29 27 30 71 31 28 32 29 33
REMARK SMILES IDX 30 34 65 35 31 36 70 37 64 38 66 39 32 40 69 41 63 42 62 43
REMARK SMILES IDX 33 45 55 46 40 47 54 48 41 49 44 50 53 51 67 52 42 53 43 54
REMARK SMILES IDX 52 56 68 57 45 58 34 59 35 60 39 61 36 62 38 63 37 64 56 65
REMARK SMILES IDX 57 66 61 67 58 68 60 69 59 70 46 71 47 72 51 73 48 74 50 75
REMARK SMILES IDX 49 76
REMARK H PARENT 10 20 66 44 44 55
REMARK Flexibility Score: inf
ROOT
ATOM      1  C   UNL     1       2.333   4.246  -6.776  1.00  0.00     0.275 C 
ENDROOT
BRANCH   1   2
ATOM      2  O   UNL     1       1.939   4.233  -5.391  1.00  0.00    -0.458 OA
BRANCH   2   3
ATOM      3  C   UNL     1       1.100   3.232  -4.991  1.00  0.00     0.352 C 
ATOM      4  O   UNL     1       0.583   2.429  -5.762  1.00  0.00    -0.245 OA
BRANCH   3   5
ATOM      5  C   UNL     1       1.023   3.180  -3.544  1.00  0.00     0.155 A 
ATOM      6  C   UNL     1       0.881   2.259  -1.242  1.00  0.00     0.009 A 
ATOM      7  C   UNL     1       1.519   3.482  -1.293  1.00  0.00     0.062 A 
ATOM      8  S   UNL     1       0.310   1.800  -2.789  1.00  0.00    -0.130 S 
ATOM      9  C   UNL     1       1.371   4.095  -2.571  1.00  0.00     0.145 A 
BRANCH   6  10
ATOM     10  C   UNL     1       0.542   1.461  -0.018  1.00  0.00     0.043 C 
ATOM     11  C   UNL     1       1.146   0.069  -0.009  1.00  0.00     0.010 C 
ENDBRANCH   6  10
BRANCH   9  12
ATOM     12  O   UNL     1       1.529   5.412  -2.851  1.00  0.00    -0.489 OA
BRANCH  12  13
ATOM     13  C   UNL     1       0.838   6.286  -1.923  1.00  0.00     0.267 C 
BRANCH  13  14
ATOM     14  C   UNL     1      -0.665   5.955  -1.709  1.00  0.00     0.210 C 
ATOM     15  C   UNL     1      -1.445   7.166  -1.151  1.00  0.00     0.298 C 
ATOM     16  O   UNL     1      -0.771   4.886  -0.749  1.00  0.00    -0.363 OA
ATOM     17  N   UNL     1      -2.836   6.886  -0.742  1.00  0.00    -0.331 N 
ATOM     18  C   UNL     1      -2.124   4.468  -0.590  1.00  0.00     0.222 C 
ATOM     19  C   UNL     1      -2.950   5.616  -0.008  1.00  0.00     0.291 C 
ATOM     20  H   UNL     1      -3.065   7.623  -0.075  1.00  0.00     0.348 HD
BRANCH  17  21
ATOM     21  C   UNL     1      -3.861   7.104  -1.760  1.00  0.00     0.258 C 
ATOM     22  C   UNL     1      -3.871   6.197  -2.982  1.00  0.00     0.071 C 
ENDBRANCH  17  21
ENDBRANCH  13  14
ENDBRANCH  12  13
ENDBRANCH   9  12
ENDBRANCH   3   5
ENDBRANCH   2   3
ENDBRANCH   1   2
BRANCH   1  23
ATOM     23  C   UNL     1       3.799   3.828  -6.923  1.00  0.00     0.275 C 
BRANCH  23  24
ATOM     24  O   UNL     1       3.980   2.439  -6.581  1.00  0.00    -0.458 OA
BRANCH  24  25
ATOM     25  C   UNL     1       4.455   2.214  -5.335  1.00  0.00     0.338 C 
ATOM     26  O   UNL     1       4.774   3.042  -4.499  1.00  0.00    -0.246 OA
BRANCH  25  27
ATOM     27  C   UNL     1       4.431   0.774  -5.044  1.00  0.00     0.060 A 
ATOM     28  C   UNL     1       3.434   0.313  -4.189  1.00  0.00     0.016 A 
ATOM     29  C   UNL     1       5.431  -0.090  -5.484  1.00  0.00     0.016 A 
ATOM     30  C   UNL     1       3.433  -1.002  -3.741  1.00  0.00     0.010 A 
ATOM     31  C   UNL     1       5.417  -1.426  -5.057  1.00  0.00     0.010 A 
ATOM     32  C   UNL     1       4.429  -1.888  -4.166  1.00  0.00    -0.014 A 
BRANCH  32  33
ATOM     33  C   UNL     1       4.446  -3.273  -3.627  1.00  0.00     0.031 A 
ATOM     34  C   UNL     1       5.556  -3.719  -2.713  1.00  0.00     0.074 A 
ATOM     35  C   UNL     1       3.438  -4.119  -3.916  1.00  0.00     0.049 A 
ATOM     36  N   UNL     1       5.764  -4.896  -2.178  1.00  0.00    -0.248 NA
ATOM     37  C   UNL     1       6.566  -2.711  -2.358  1.00  0.00     0.031 C 
ATOM     38  C   UNL     1       2.275  -3.796  -4.746  1.00  0.00     0.029 A 
ATOM     39  N   UNL     1       3.221  -5.419  -3.531  1.00  0.00    -0.354 N 
ATOM     40  C   UNL     1       6.942  -4.779  -1.450  1.00  0.00     0.074 A 
ATOM     41  C   UNL     1       7.415  -3.423  -1.630  1.00  0.00     0.031 C 
ATOM     42  C   UNL     1       1.457  -4.859  -4.786  1.00  0.00     0.029 A 
ATOM     43  C   UNL     1       2.064  -5.957  -4.040  1.00  0.00     0.049 A 
ATOM     44  H   UNL     1       3.837  -5.918  -2.947  1.00  0.00     0.167 HD
ATOM     45  C   UNL     1       7.572  -5.715  -0.699  1.00  0.00     0.031 A 
ATOM     46  C   UNL     1       1.558  -7.200  -3.940  1.00  0.00     0.031 A 
ATOM     47  C   UNL     1       7.095  -7.061  -0.512  1.00  0.00     0.049 A 
ATOM     48  C   UNL     1       2.307  -8.237  -3.151  1.00  0.00     0.074 A 
ATOM     49  C   UNL     1       7.657  -8.078   0.242  1.00  0.00     0.029 A 
ATOM     50  N   UNL     1       5.943  -7.579  -1.084  1.00  0.00    -0.354 N 
ATOM     51  N   UNL     1       3.423  -8.113  -2.473  1.00  0.00    -0.248 NA
ATOM     52  C   UNL     1       1.726  -9.586  -3.113  1.00  0.00     0.031 C 
ATOM     53  C   UNL     1       6.876  -9.226   0.079  1.00  0.00     0.029 A 
ATOM     54  C   UNL     1       5.790  -8.907  -0.720  1.00  0.00     0.049 A 
ATOM     55  H   UNL     1       5.325  -7.077  -1.663  1.00  0.00     0.167 HD
ATOM     56  C   UNL     1       3.661  -9.358  -1.905  1.00  0.00     0.074 A 
ATOM     57  C   UNL     1       2.566 -10.217  -2.305  1.00  0.00     0.031 C 
ATOM     58  C   UNL     1       4.695  -9.752  -1.122  1.00  0.00     0.031 A 
BRANCH  45  59
ATOM     59  C   UNL     1       8.876  -5.326  -0.055  1.00  0.00    -0.014 A 
ATOM     60  C   UNL     1       8.928  -4.419   1.015  1.00  0.00     0.009 A 
ATOM     61  C   UNL     1      10.071  -5.907  -0.509  1.00  0.00     0.009 A 
ATOM     62  C   UNL     1      10.155  -4.073   1.590  1.00  0.00     0.001 A 
ATOM     63  C   UNL     1      11.291  -5.583   0.087  1.00  0.00     0.001 A 
ATOM     64  C   UNL     1      11.333  -4.658   1.129  1.00  0.00     0.000 A 
ENDBRANCH  45  59
BRANCH  46  65
ATOM     65  C   UNL     1       0.286  -7.543  -4.631  1.00  0.00    -0.014 A 
ATOM     66  C   UNL     1      -0.873  -7.842  -3.898  1.00  0.00     0.009 A 
ATOM     67  C   UNL     1       0.227  -7.579  -6.034  1.00  0.00     0.009 A 
ATOM     68  C   UNL     1      -2.055  -8.191  -4.555  1.00  0.00     0.001 A 
ATOM     69  C   UNL     1      -0.965  -7.896  -6.688  1.00  0.00     0.001 A 
ATOM     70  C   UNL     1      -2.102  -8.211  -5.948  1.00  0.00     0.000 A 
ENDBRANCH  46  65
BRANCH  58  71
ATOM     71  C   UNL     1       4.665 -11.163  -0.604  1.00  0.00    -0.014 A 
ATOM     72  C   UNL     1       4.884 -12.262  -1.450  1.00  0.00     0.009 A 
ATOM     73  C   UNL     1       4.445 -11.392   0.764  1.00  0.00     0.009 A 
ATOM     74  C   UNL     1       4.844 -13.562  -0.942  1.00  0.00     0.001 A 
ATOM     75  C   UNL     1       4.438 -12.691   1.274  1.00  0.00     0.001 A 
ATOM     76  C   UNL     1       4.627 -13.775   0.419  1.00  0.00     0.000 A 
ENDBRANCH  58  71
ENDBRANCH  32  33
ENDBRANCH  25  27
ENDBRANCH  24  25
ENDBRANCH  23  24
ENDBRANCH   1  23
TORSDOF 16
