REMARK SMILES CC(C)c1ccc([C@]2(C(=O)OCCOC(=O)c3ccc(-c4c5nc(c(-c6ccccc6)c6ccc([nH]6)c(-c6ccccc6)c6nc(c(-c7ccccc7)c7ccc4[nH]7)C=C6)C=C5)cc3)CCC[C@@H]2C)cc1
REMARK SMILES IDX 12 1 11 2 9 3 10 4 8 5 65 6 68 7 66 8 67 9 69 10 7 11 4 12
REMARK SMILES IDX 5 13 71 14 6 15 70 16 2 17 1 18 3 19 13 20 14 21 15 22 16 23
REMARK SMILES IDX 17 24 18 25 64 26 19 27 63 28 20 29 21 30 22 31 57 32 23 33
REMARK SMILES IDX 62 34 56 35 58 36 24 37 61 38 55 39 54 40 25 42 47 43 32 44
REMARK SMILES IDX 46 45 33 46 36 47 45 48 59 49 34 50 35 51 44 53 60 54 37 55
REMARK SMILES IDX 26 56 27 57 31 58 28 59 30 60 29 61 48 62 49 63 53 64 50 65
REMARK SMILES IDX 52 66 51 67 38 68 39 69 43 70 40 71 42 72 41 73
REMARK H PARENT 58 41 36 52
REMARK Flexibility Score: inf
ROOT
ATOM      1  C   UNL     1      -7.230  -0.100   3.107  1.00  0.00     0.274 C 
ENDROOT
BRANCH   1   2
ATOM      2  O   UNL     1      -6.792   0.355   1.810  1.00  0.00    -0.461 OA
BRANCH   2   3
ATOM      3  C   UNL     1      -5.845   1.333   1.774  1.00  0.00     0.316 C 
ATOM      4  O   UNL     1      -5.333   1.820   2.778  1.00  0.00    -0.251 OA
BRANCH   3   5
ATOM      5  C   UNL     1      -5.545   1.828   0.325  1.00  0.00     0.095 C 
ATOM      6  C   UNL     1      -6.320   1.019  -0.748  1.00  0.00     0.024 C 
ATOM      7  C   UNL     1      -6.222   3.231   0.184  1.00  0.00     0.008 C 
ATOM      8  C   UNL     1      -7.741   1.588  -0.786  1.00  0.00     0.002 C 
ATOM      9  C   UNL     1      -7.710   2.882   0.020  1.00  0.00     0.005 C 
ATOM     10  C   UNL     1      -5.758   4.071  -1.014  1.00  0.00     0.009 C 
BRANCH   5  11
ATOM     11  C   UNL     1      -4.021   1.830   0.110  1.00  0.00    -0.030 A 
ATOM     12  C   UNL     1      -1.178   1.844  -0.239  1.00  0.00    -0.045 A 
ATOM     13  C   UNL     1      -1.821   2.810   0.549  1.00  0.00     0.004 A 
ATOM     14  C   UNL     1      -1.979   0.865  -0.838  1.00  0.00     0.004 A 
ATOM     15  C   UNL     1      -3.211   2.800   0.723  1.00  0.00     0.005 A 
ATOM     16  C   UNL     1      -3.371   0.850  -0.656  1.00  0.00     0.005 A 
BRANCH  12  17
ATOM     17  C   UNL     1       0.343   1.866  -0.343  1.00  0.00     0.013 C 
ATOM     18  C   UNL     1       0.970   0.623  -0.983  1.00  0.00     0.012 C 
ATOM     19  C   UNL     1       0.835   3.110  -1.089  1.00  0.00     0.012 C 
ENDBRANCH  12  17
ENDBRANCH   5  11
ENDBRANCH   3   5
ENDBRANCH   2   3
ENDBRANCH   1   2
BRANCH   1  20
ATOM     20  C   UNL     1      -6.770  -1.534   3.337  1.00  0.00     0.275 C 
BRANCH  20  21
ATOM     21  O   UNL     1      -5.337  -1.548   3.440  1.00  0.00    -0.458 OA
BRANCH  21  22
ATOM     22  C   UNL     1      -4.679  -2.247   2.492  1.00  0.00     0.338 C 
ATOM     23  O   UNL     1      -5.152  -2.955   1.616  1.00  0.00    -0.246 OA
BRANCH  22  24
ATOM     24  C   UNL     1      -3.236  -2.018   2.649  1.00  0.00     0.060 A 
ATOM     25  C   UNL     1      -2.736  -0.727   2.509  1.00  0.00     0.016 A 
ATOM     26  C   UNL     1      -2.367  -3.095   2.816  1.00  0.00     0.016 A 
ATOM     27  C   UNL     1      -1.361  -0.526   2.443  1.00  0.00     0.010 A 
ATOM     28  C   UNL     1      -0.984  -2.873   2.834  1.00  0.00     0.010 A 
ATOM     29  C   UNL     1      -0.460  -1.591   2.595  1.00  0.00    -0.014 A 
BRANCH  29  30
ATOM     30  C   UNL     1       1.004  -1.362   2.407  1.00  0.00     0.031 A 
ATOM     31  C   UNL     1       1.760  -2.103   1.329  1.00  0.00     0.074 A 
ATOM     32  C   UNL     1       1.653  -0.417   3.119  1.00  0.00     0.049 A 
ATOM     33  N   UNL     1       3.043  -2.090   1.060  1.00  0.00    -0.248 NA
ATOM     34  C   UNL     1       0.971  -2.952   0.419  1.00  0.00     0.031 C 
ATOM     35  C   UNL     1       1.052   0.444   4.139  1.00  0.00     0.029 A 
ATOM     36  N   UNL     1       2.962   0.002   3.065  1.00  0.00    -0.354 N 
ATOM     37  C   UNL     1       3.216  -2.947  -0.020  1.00  0.00     0.074 A 
ATOM     38  C   UNL     1       1.911  -3.471  -0.358  1.00  0.00     0.031 C 
ATOM     39  C   UNL     1       1.966   1.330   4.562  1.00  0.00     0.029 A 
ATOM     40  C   UNL     1       3.243   1.042   3.918  1.00  0.00     0.049 A 
ATOM     41  H   UNL     1       3.634  -0.405   2.472  1.00  0.00     0.167 HD
ATOM     42  C   UNL     1       4.353  -3.268  -0.682  1.00  0.00     0.031 A 
ATOM     43  C   UNL     1       4.401   1.674   4.188  1.00  0.00     0.031 A 
ATOM     44  C   UNL     1       5.655  -2.741  -0.381  1.00  0.00     0.049 A 
ATOM     45  C   UNL     1       5.667   1.221   3.522  1.00  0.00     0.074 A 
ATOM     46  C   UNL     1       6.870  -3.054  -0.968  1.00  0.00     0.029 A 
ATOM     47  N   UNL     1       5.911  -1.777   0.579  1.00  0.00    -0.354 N 
ATOM     48  N   UNL     1       5.828   0.324   2.581  1.00  0.00    -0.248 NA
ATOM     49  C   UNL     1       6.916   1.844   3.985  1.00  0.00     0.031 C 
ATOM     50  C   UNL     1       7.868  -2.300  -0.339  1.00  0.00     0.029 A 
ATOM     51  C   UNL     1       7.266  -1.492   0.611  1.00  0.00     0.049 A 
ATOM     52  H   UNL     1       5.231  -1.357   1.153  1.00  0.00     0.167 HD
ATOM     53  C   UNL     1       7.195   0.266   2.347  1.00  0.00     0.074 A 
ATOM     54  C   UNL     1       7.816   1.242   3.219  1.00  0.00     0.031 C 
ATOM     55  C   UNL     1       7.875  -0.536   1.494  1.00  0.00     0.031 A 
BRANCH  42  56
ATOM     56  C   UNL     1       4.242  -4.279  -1.786  1.00  0.00    -0.014 A 
ATOM     57  C   UNL     1       3.764  -3.920  -3.055  1.00  0.00     0.009 A 
ATOM     58  C   UNL     1       4.660  -5.600  -1.560  1.00  0.00     0.009 A 
ATOM     59  C   UNL     1       3.686  -4.874  -4.072  1.00  0.00     0.001 A 
ATOM     60  C   UNL     1       4.598  -6.545  -2.584  1.00  0.00     0.001 A 
ATOM     61  C   UNL     1       4.106  -6.183  -3.837  1.00  0.00     0.000 A 
ENDBRANCH  42  56
BRANCH  43  62
ATOM     62  C   UNL     1       4.432   2.765   5.198  1.00  0.00    -0.014 A 
ATOM     63  C   UNL     1       4.663   4.093   4.810  1.00  0.00     0.009 A 
ATOM     64  C   UNL     1       4.234   2.478   6.558  1.00  0.00     0.009 A 
ATOM     65  C   UNL     1       4.703   5.110   5.766  1.00  0.00     0.001 A 
ATOM     66  C   UNL     1       4.246   3.501   7.508  1.00  0.00     0.001 A 
ATOM     67  C   UNL     1       4.487   4.814   7.112  1.00  0.00     0.000 A 
ENDBRANCH  43  62
BRANCH  55  68
ATOM     68  C   UNL     1       9.368  -0.396   1.469  1.00  0.00    -0.014 A 
ATOM     69  C   UNL     1      10.157  -0.946   2.491  1.00  0.00     0.009 A 
ATOM     70  C   UNL     1       9.995   0.266   0.402  1.00  0.00     0.009 A 
ATOM     71  C   UNL     1      11.546  -0.813   2.458  1.00  0.00     0.001 A 
ATOM     72  C   UNL     1      11.385   0.381   0.363  1.00  0.00     0.001 A 
ATOM     73  C   UNL     1      12.159  -0.152   1.394  1.00  0.00     0.000 A 
ENDBRANCH  55  68
ENDBRANCH  29  30
ENDBRANCH  22  24
ENDBRANCH  21  22
ENDBRANCH  20  21
ENDBRANCH   1  20
TORSDOF 13
