REMARK SMILES CC(C)C[C@H](NC(=O)CNC(=O)[C@@H](NC(=O)OCc1ccccc1)C(C)C)C(=O)OCCOC(=O)c1ccc(-c2c3nc(c(-c4ccccc4)c4ccc([nH]4)c(-c4ccccc4)c4nc(c(-c5ccccc5)c5ccc2[nH]5)C=C4)C=C3)cc1
REMARK SMILES IDX 5 1 4 2 2 3 1 4 3 5 28 6 29 7 30 8 31 9 32 10 33 11 34 12
REMARK SMILES IDX 35 13 36 14 37 15 83 16 38 17 82 18 39 19 40 20 41 21 76 22
REMARK SMILES IDX 42 23 81 24 75 25 77 26 43 27 80 28 74 29 73 30 44 32 66 33
REMARK SMILES IDX 51 34 65 35 52 36 55 37 64 38 78 39 53 40 54 41 63 43 79 44
REMARK SMILES IDX 56 45 45 46 46 47 50 48 47 49 49 50 48 51 67 52 68 53 72 54
REMARK SMILES IDX 69 55 71 56 70 57 57 58 58 59 62 60 59 61 61 62 60 63 6 64
REMARK SMILES IDX 7 65 8 67 9 68 10 69 11 70 12 72 13 73 14 74 15 75 16 77
REMARK SMILES IDX 17 78 18 79 19 80 20 81 24 82 21 83 23 84 22 85 25 86 26 87
REMARK SMILES IDX 27 88
REMARK H PARENT 77 31 55 42 6 66 10 71 14 76
REMARK Flexibility Score: inf
ROOT
ATOM      1  C   UNL     1      -2.195   1.995  -0.935  1.00  0.00     0.192 C 
ENDROOT
BRANCH   1   2
ATOM      2  C   UNL     1      -1.992   3.476  -1.276  1.00  0.00     0.040 C 
BRANCH   2   3
ATOM      3  C   UNL     1      -2.958   4.615  -0.876  1.00  0.00    -0.015 C 
ATOM      4  C   UNL     1      -3.376   4.678   0.594  1.00  0.00     0.007 C 
ATOM      5  C   UNL     1      -2.255   5.947  -1.206  1.00  0.00     0.007 C 
ENDBRANCH   2   3
ENDBRANCH   1   2
BRANCH   1   6
ATOM      6  C   UNL     1      -3.634   1.698  -0.510  1.00  0.00     0.328 C 
ATOM      7  O   UNL     1      -4.041   1.833   0.637  1.00  0.00    -0.250 OA
BRANCH   6   8
ATOM      8  O   UNL     1      -4.406   1.319  -1.567  1.00  0.00    -0.461 OA
BRANCH   8   9
ATOM      9  C   UNL     1      -5.782   1.034  -1.264  1.00  0.00     0.274 C 
BRANCH   9  10
ATOM     10  C   UNL     1      -6.000  -0.441  -0.905  1.00  0.00     0.275 C 
BRANCH  10  11
ATOM     11  O   UNL     1      -5.456  -0.787   0.384  1.00  0.00    -0.458 OA
BRANCH  11  12
ATOM     12  C   UNL     1      -4.151  -1.158   0.379  1.00  0.00     0.338 C 
ATOM     13  O   UNL     1      -3.434  -1.258  -0.604  1.00  0.00    -0.246 OA
BRANCH  12  14
ATOM     14  C   UNL     1      -3.634  -1.268   1.760  1.00  0.00     0.060 A 
ATOM     15  C   UNL     1      -2.369  -0.730   2.029  1.00  0.00     0.016 A 
ATOM     16  C   UNL     1      -4.343  -1.927   2.767  1.00  0.00     0.016 A 
ATOM     17  C   UNL     1      -1.803  -0.857   3.297  1.00  0.00     0.010 A 
ATOM     18  C   UNL     1      -3.770  -2.062   4.038  1.00  0.00     0.010 A 
ATOM     19  C   UNL     1      -2.490  -1.543   4.306  1.00  0.00    -0.014 A 
BRANCH  19  20
ATOM     20  C   UNL     1      -1.820  -1.800   5.605  1.00  0.00     0.031 A 
ATOM     21  C   UNL     1      -1.264  -3.166   5.892  1.00  0.00     0.074 A 
ATOM     22  C   UNL     1      -1.671  -0.811   6.505  1.00  0.00     0.049 A 
ATOM     23  N   UNL     1      -0.683  -3.614   6.977  1.00  0.00    -0.248 NA
ATOM     24  C   UNL     1      -1.379  -4.161   4.814  1.00  0.00     0.031 C 
ATOM     25  C   UNL     1      -2.118   0.570   6.329  1.00  0.00     0.029 A 
ATOM     26  N   UNL     1      -1.096  -0.822   7.752  1.00  0.00    -0.354 N 
ATOM     27  C   UNL     1      -0.366  -4.941   6.713  1.00  0.00     0.074 A 
ATOM     28  C   UNL     1      -0.851  -5.236   5.382  1.00  0.00     0.031 C 
ATOM     29  C   UNL     1      -1.799   1.275   7.428  1.00  0.00     0.029 A 
ATOM     30  C   UNL     1      -1.163   0.388   8.399  1.00  0.00     0.049 A 
ATOM     31  H   UNL     1      -0.676  -1.621   8.145  1.00  0.00     0.167 HD
ATOM     32  C   UNL     1       0.279  -5.833   7.504  1.00  0.00     0.031 A 
ATOM     33  C   UNL     1      -0.775   0.735   9.641  1.00  0.00     0.031 A 
ATOM     34  C   UNL     1       0.754  -5.547   8.832  1.00  0.00     0.049 A 
ATOM     35  C   UNL     1      -0.135  -0.298  10.531  1.00  0.00     0.074 A 
ATOM     36  C   UNL     1       1.405  -6.390   9.716  1.00  0.00     0.029 A 
ATOM     37  N   UNL     1       0.630  -4.320   9.466  1.00  0.00    -0.354 N 
ATOM     38  N   UNL     1       0.153  -1.550  10.273  1.00  0.00    -0.248 NA
ATOM     39  C   UNL     1       0.238   0.137  11.885  1.00  0.00     0.031 C 
ATOM     40  C   UNL     1       1.634  -5.686  10.904  1.00  0.00     0.029 A 
ATOM     41  C   UNL     1       1.178  -4.388  10.736  1.00  0.00     0.049 A 
ATOM     42  H   UNL     1       0.215  -3.519   9.071  1.00  0.00     0.167 HD
ATOM     43  C   UNL     1       0.764  -2.044  11.419  1.00  0.00     0.074 A 
ATOM     44  C   UNL     1       0.824  -0.950  12.366  1.00  0.00     0.031 C 
ATOM     45  C   UNL     1       1.233  -3.291  11.667  1.00  0.00     0.031 A 
BRANCH  32  46
ATOM     46  C   UNL     1       0.483  -7.218   6.956  1.00  0.00    -0.014 A 
ATOM     47  C   UNL     1       1.408  -7.465   5.929  1.00  0.00     0.009 A 
ATOM     48  C   UNL     1      -0.239  -8.294   7.494  1.00  0.00     0.009 A 
ATOM     49  C   UNL     1       1.581  -8.758   5.431  1.00  0.00     0.001 A 
ATOM     50  C   UNL     1      -0.043  -9.590   7.013  1.00  0.00     0.001 A 
ATOM     51  C   UNL     1       0.860  -9.820   5.976  1.00  0.00     0.000 A 
ENDBRANCH  32  46
BRANCH  33  52
ATOM     52  C   UNL     1      -1.010   2.116  10.141  1.00  0.00    -0.014 A 
ATOM     53  C   UNL     1       0.065   2.978  10.405  1.00  0.00     0.009 A 
ATOM     54  C   UNL     1      -2.316   2.564  10.395  1.00  0.00     0.009 A 
ATOM     55  C   UNL     1      -0.162   4.248  10.942  1.00  0.00     0.001 A 
ATOM     56  C   UNL     1      -2.542   3.845  10.901  1.00  0.00     0.001 A 
ATOM     57  C   UNL     1      -1.464   4.682  11.186  1.00  0.00     0.000 A 
ENDBRANCH  33  52
BRANCH  45  58
ATOM     58  C   UNL     1       1.889  -3.526  12.999  1.00  0.00    -0.014 A 
ATOM     59  C   UNL     1       1.140  -3.576  14.185  1.00  0.00     0.009 A 
ATOM     60  C   UNL     1       3.277  -3.724  13.064  1.00  0.00     0.009 A 
ATOM     61  C   UNL     1       1.774  -3.780  15.413  1.00  0.00     0.001 A 
ATOM     62  C   UNL     1       3.905  -3.957  14.288  1.00  0.00     0.001 A 
ATOM     63  C   UNL     1       3.154  -3.973  15.463  1.00  0.00     0.000 A 
ENDBRANCH  45  58
ENDBRANCH  19  20
ENDBRANCH  12  14
ENDBRANCH  11  12
ENDBRANCH  10  11
ENDBRANCH   9  10
ENDBRANCH   8   9
ENDBRANCH   6   8
ENDBRANCH   1   6
BRANCH   1  64
ATOM     64  N   UNL     1      -1.833   1.068  -2.036  1.00  0.00    -0.341 N 
ATOM     65  C   UNL     1      -0.675   0.648  -2.606  1.00  0.00     0.240 C 
ATOM     66  H   UNL     1      -2.624   0.658  -2.454  1.00  0.00     0.164 HD
ATOM     67  O   UNL     1      -0.719  -0.432  -3.209  1.00  0.00    -0.273 OA
BRANCH  65  68
ATOM     68  C   UNL     1       0.673   1.359  -2.467  1.00  0.00     0.216 C 
BRANCH  68  69
ATOM     69  N   UNL     1       0.668   2.770  -2.785  1.00  0.00    -0.345 N 
ATOM     70  C   UNL     1       1.023   3.902  -2.136  1.00  0.00     0.243 C 
ATOM     71  H   UNL     1       0.324   2.949  -3.689  1.00  0.00     0.164 HD
ATOM     72  O   UNL     1       0.902   4.935  -2.810  1.00  0.00    -0.273 OA
BRANCH  70  73
ATOM     73  C   UNL     1       1.552   3.996  -0.669  1.00  0.00     0.177 C 
BRANCH  73  74
ATOM     74  N   UNL     1       1.131   2.910   0.221  1.00  0.00    -0.309 N 
ATOM     75  C   UNL     1       1.714   1.745   0.598  1.00  0.00     0.408 C 
ATOM     76  H   UNL     1       0.246   3.056   0.628  1.00  0.00     0.167 HD
ATOM     77  O   UNL     1       1.044   0.887   1.150  1.00  0.00    -0.225 OA
BRANCH  75  78
ATOM     78  O   UNL     1       3.035   1.679   0.336  1.00  0.00    -0.445 OA
BRANCH  78  79
ATOM     79  C   UNL     1       3.712   0.548   0.904  1.00  0.00     0.270 C 
BRANCH  79  80
ATOM     80  C   UNL     1       4.087   0.716   2.366  1.00  0.00    -0.011 A 
ATOM     81  C   UNL     1       3.298   1.434   3.281  1.00  0.00     0.007 A 
ATOM     82  C   UNL     1       5.217   0.047   2.860  1.00  0.00     0.007 A 
ATOM     83  C   UNL     1       3.623   1.488   4.636  1.00  0.00     0.000 A 
ATOM     84  C   UNL     1       5.546   0.104   4.217  1.00  0.00     0.000 A 
ATOM     85  C   UNL     1       4.748   0.821   5.105  1.00  0.00     0.000 A 
ENDBRANCH  79  80
ENDBRANCH  78  79
ENDBRANCH  75  78
ENDBRANCH  73  74
BRANCH  73  86
ATOM     86  C   UNL     1       3.030   4.455  -0.578  1.00  0.00     0.015 C 
ATOM     87  C   UNL     1       3.275   5.760  -1.358  1.00  0.00     0.010 C 
ATOM     88  C   UNL     1       3.453   4.724   0.874  1.00  0.00     0.010 C 
ENDBRANCH  73  86
ENDBRANCH  70  73
ENDBRANCH  68  69
ENDBRANCH  65  68
ENDBRANCH   1  64
TORSDOF 22
