REMARK SMILES CCOC(=O)c1c(NC(=O)[C@H]2[C@@H]3CC[C@@H](C3)[C@@H]2C(=O)OCCOC(=O)c2ccc(-c3c4nc(c(-c5ccccc5)c5ccc([nH]5)c(-c5ccccc5)c5nc(c(-c6ccccc6)c6ccc3[nH]6)C=C5)C=C4)cc2)sc2c1CCCC2
REMARK SMILES IDX 20 1 18 2 19 3 17 4 11 5 12 6 13 7 16 8 15 9 14 10 9 11 8 12
REMARK SMILES IDX 10 14 7 15 6 16 76 17 74 18 75 19 77 20 80 21 78 22 79 23
REMARK SMILES IDX 4 24 5 25 3 26 2 27 1 28 21 29 22 30 23 31 24 32 25 33 26 34
REMARK SMILES IDX 27 35 73 36 28 37 72 38 29 39 30 40 31 41 66 42 32 43 71 44
REMARK SMILES IDX 65 45 67 46 33 47 70 48 64 49 63 50 34 52 56 53 41 54 55 55
REMARK SMILES IDX 42 56 45 57 54 58 68 59 43 60 44 61 53 63 69 64 46 65 35 66
REMARK SMILES IDX 36 67 40 68 37 69 39 70 38 71 57 72 58 73 62 74 59 75 61 76
REMARK SMILES IDX 60 77 47 78 48 79 52 80 49 81 51 82 50 83
REMARK H PARENT 8 13 67 51 45 62
REMARK Flexibility Score: inf
ROOT
ATOM      1  O   UNL     1       2.930  -3.215   2.502  1.00  0.00    -0.462 OA
ENDROOT
BRANCH   1   2
ATOM      2  C   UNL     1       3.284  -1.913   2.445  1.00  0.00     0.310 C 
ATOM      3  O   UNL     1       3.402  -1.202   3.436  1.00  0.00    -0.252 OA
BRANCH   2   4
ATOM      4  C   UNL     1       3.638  -1.387   1.079  1.00  0.00     0.115 C 
ATOM      5  C   UNL     1       2.877  -0.091   0.725  1.00  0.00     0.096 C 
ATOM      6  C   UNL     1       2.682  -0.264  -0.816  1.00  0.00     0.003 C 
ATOM      7  C   UNL     1       1.463  -1.170  -1.034  1.00  0.00     0.005 C 
ATOM      8  C   UNL     1       3.799  -1.229  -1.236  1.00  0.00     0.009 C 
ATOM      9  C   UNL     1       3.434  -2.264  -0.165  1.00  0.00     0.004 C 
ATOM     10  C   UNL     1       1.943  -2.514  -0.466  1.00  0.00     0.005 C 
BRANCH   5  11
ATOM     11  C   UNL     1       3.646   1.174   1.076  1.00  0.00     0.229 C 
ATOM     12  N   UNL     1       3.555   1.823   2.271  1.00  0.00    -0.317 N 
ATOM     13  H   UNL     1       4.150   2.606   2.321  1.00  0.00     0.170 HD
ATOM     14  O   UNL     1       4.476   1.623   0.275  1.00  0.00    -0.274 OA
BRANCH  12  15
ATOM     15  C   UNL     1       2.826   1.638   3.428  1.00  0.00     0.110 A 
ATOM     16  C   UNL     1       1.667   1.008   3.855  1.00  0.00     0.098 A 
ATOM     17  C   UNL     1       1.645   0.908   5.301  1.00  0.00    -0.017 A 
ATOM     18  S   UNL     1       3.623   2.424   4.735  1.00  0.00    -0.122 S 
ATOM     19  C   UNL     1       2.628   1.677   5.885  1.00  0.00     0.011 A 
ATOM     20  C   UNL     1       0.688   0.092   6.125  1.00  0.00     0.038 C 
ATOM     21  C   UNL     1       2.798   1.888   7.359  1.00  0.00     0.047 C 
ATOM     22  C   UNL     1       0.634   0.563   7.583  1.00  0.00     0.005 C 
ATOM     23  C   UNL     1       2.037   0.814   8.153  1.00  0.00     0.006 C 
BRANCH  16  24
ATOM     24  C   UNL     1       0.604   0.474   3.026  1.00  0.00     0.341 C 
ATOM     25  O   UNL     1       0.100  -0.631   3.190  1.00  0.00    -0.246 OA
BRANCH  24  26
ATOM     26  O   UNL     1       0.191   1.382   2.096  1.00  0.00    -0.462 OA
BRANCH  26  27
ATOM     27  C   UNL     1      -0.918   0.966   1.292  1.00  0.00     0.230 C 
ATOM     28  C   UNL     1      -0.884   1.777   0.013  1.00  0.00     0.049 C 
ENDBRANCH  26  27
ENDBRANCH  24  26
ENDBRANCH  16  24
ENDBRANCH  12  15
ENDBRANCH   5  11
ENDBRANCH   2   4
ENDBRANCH   1   2
BRANCH   1  29
ATOM     29  C   UNL     1       2.616  -3.669   3.836  1.00  0.00     0.274 C 
BRANCH  29  30
ATOM     30  C   UNL     1       3.833  -4.223   4.592  1.00  0.00     0.275 C 
BRANCH  30  31
ATOM     31  O   UNL     1       4.866  -3.240   4.818  1.00  0.00    -0.458 OA
BRANCH  31  32
ATOM     32  C   UNL     1       5.839  -3.224   3.880  1.00  0.00     0.338 C 
ATOM     33  O   UNL     1       5.933  -3.955   2.905  1.00  0.00    -0.246 OA
BRANCH  32  34
ATOM     34  C   UNL     1       6.792  -2.123   4.098  1.00  0.00     0.060 A 
ATOM     35  C   UNL     1       6.669  -0.991   3.295  1.00  0.00     0.016 A 
ATOM     36  C   UNL     1       7.936  -2.307   4.872  1.00  0.00     0.016 A 
ATOM     37  C   UNL     1       7.719  -0.095   3.162  1.00  0.00     0.010 A 
ATOM     38  C   UNL     1       8.976  -1.371   4.788  1.00  0.00     0.010 A 
ATOM     39  C   UNL     1       8.896  -0.291   3.888  1.00  0.00    -0.014 A 
BRANCH  39  40
ATOM     40  C   UNL     1      10.072   0.560   3.586  1.00  0.00     0.031 A 
ATOM     41  C   UNL     1      11.261  -0.042   2.889  1.00  0.00     0.074 A 
ATOM     42  C   UNL     1      10.040   1.881   3.840  1.00  0.00     0.049 A 
ATOM     43  N   UNL     1      12.422   0.496   2.615  1.00  0.00    -0.248 NA
ATOM     44  C   UNL     1      11.124  -1.437   2.437  1.00  0.00     0.031 C 
ATOM     45  C   UNL     1       8.905   2.610   4.410  1.00  0.00     0.029 A 
ATOM     46  N   UNL     1      10.986   2.850   3.625  1.00  0.00    -0.354 N 
ATOM     47  C   UNL     1      13.168  -0.506   2.007  1.00  0.00     0.074 A 
ATOM     48  C   UNL     1      12.331  -1.684   1.949  1.00  0.00     0.031 C 
ATOM     49  C   UNL     1       9.210   3.917   4.468  1.00  0.00     0.029 A 
ATOM     50  C   UNL     1      10.581   4.106   4.006  1.00  0.00     0.049 A 
ATOM     51  H   UNL     1      11.871   2.664   3.235  1.00  0.00     0.167 HD
ATOM     52  C   UNL     1      14.440  -0.451   1.545  1.00  0.00     0.031 A 
ATOM     53  C   UNL     1      11.252   5.272   4.008  1.00  0.00     0.031 A 
ATOM     54  C   UNL     1      15.259   0.730   1.572  1.00  0.00     0.049 A 
ATOM     55  C   UNL     1      12.682   5.295   3.550  1.00  0.00     0.074 A 
ATOM     56  C   UNL     1      16.568   0.886   1.151  1.00  0.00     0.029 A 
ATOM     57  N   UNL     1      14.834   1.967   2.031  1.00  0.00    -0.354 N 
ATOM     58  N   UNL     1      13.407   4.321   3.058  1.00  0.00    -0.248 NA
ATOM     59  C   UNL     1      13.390   6.578   3.666  1.00  0.00     0.031 C 
ATOM     60  C   UNL     1      16.946   2.214   1.386  1.00  0.00     0.029 A 
ATOM     61  C   UNL     1      15.859   2.890   1.917  1.00  0.00     0.049 A 
ATOM     62  H   UNL     1      13.937   2.160   2.387  1.00  0.00     0.167 HD
ATOM     63  C   UNL     1      14.653   4.873   2.793  1.00  0.00     0.074 A 
ATOM     64  C   UNL     1      14.579   6.272   3.164  1.00  0.00     0.031 C 
ATOM     65  C   UNL     1      15.761   4.275   2.293  1.00  0.00     0.031 A 
BRANCH  52  66
ATOM     66  C   UNL     1      15.036  -1.729   1.028  1.00  0.00    -0.014 A 
ATOM     67  C   UNL     1      14.682  -2.253  -0.224  1.00  0.00     0.009 A 
ATOM     68  C   UNL     1      15.970  -2.419   1.817  1.00  0.00     0.009 A 
ATOM     69  C   UNL     1      15.227  -3.464  -0.660  1.00  0.00     0.001 A 
ATOM     70  C   UNL     1      16.529  -3.616   1.368  1.00  0.00     0.001 A 
ATOM     71  C   UNL     1      16.150  -4.143   0.135  1.00  0.00     0.000 A 
ENDBRANCH  52  66
BRANCH  53  72
ATOM     72  C   UNL     1      10.592   6.507   4.504  1.00  0.00    -0.014 A 
ATOM     73  C   UNL     1      10.249   7.538   3.618  1.00  0.00     0.009 A 
ATOM     74  C   UNL     1      10.304   6.659   5.870  1.00  0.00     0.009 A 
ATOM     75  C   UNL     1       9.643   8.704   4.093  1.00  0.00     0.001 A 
ATOM     76  C   UNL     1       9.676   7.815   6.337  1.00  0.00     0.001 A 
ATOM     77  C   UNL     1       9.352   8.839   5.450  1.00  0.00     0.000 A 
ENDBRANCH  53  72
BRANCH  65  78
ATOM     78  C   UNL     1      16.968   5.144   2.096  1.00  0.00    -0.014 A 
ATOM     79  C   UNL     1      17.764   5.534   3.183  1.00  0.00     0.009 A 
ATOM     80  C   UNL     1      17.325   5.555   0.803  1.00  0.00     0.009 A 
ATOM     81  C   UNL     1      18.881   6.347   2.981  1.00  0.00     0.001 A 
ATOM     82  C   UNL     1      18.454   6.350   0.602  1.00  0.00     0.001 A 
ATOM     83  C   UNL     1      19.226   6.752   1.692  1.00  0.00     0.000 A 
ENDBRANCH  65  78
ENDBRANCH  39  40
ENDBRANCH  32  34
ENDBRANCH  31  32
ENDBRANCH  30  31
ENDBRANCH  29  30
ENDBRANCH   1  29
TORSDOF 16
