REMARK SMILES CCCCC[NH2+][C@](C)(C(=O)OCCOC(=O)c1ccc(-c2c3nc(c(-c4ccccc4)c4ccc([nH]4)c(-c4ccccc4)c4nc(c(-c5ccccc5)c5ccc2[nH]5)C=C4)C=C3)cc1)C(F)(F)F
REMARK SMILES IDX 11 1 9 2 10 3 7 4 8 5 6 6 5 9 4 10 3 11 2 12 1 13 65 14
REMARK SMILES IDX 66 15 67 16 68 17 12 18 13 19 14 20 15 21 16 22 17 23 18 24
REMARK SMILES IDX 64 25 19 26 63 27 20 28 21 29 22 30 57 31 23 32 62 33 56 34
REMARK SMILES IDX 58 35 24 36 61 37 55 38 54 39 25 41 47 42 32 43 46 44 33 45
REMARK SMILES IDX 36 46 45 47 59 48 34 49 35 50 44 52 60 53 37 54 26 55 27 56
REMARK SMILES IDX 31 57 28 58 30 59 29 60 48 61 49 62 53 63 50 64 52 65 51 66
REMARK SMILES IDX 38 67 39 68 43 69 40 70 42 71 41 72
REMARK H PARENT 6 7 6 8 58 40 36 51
REMARK Flexibility Score: inf
ROOT
ATOM      1  O   UNL     1      -2.645  -5.267   0.375  1.00  0.00    -0.457 OA
ENDROOT
BRANCH   1   2
ATOM      2  C   UNL     1      -3.380  -4.321   1.034  1.00  0.00     0.377 C 
ATOM      3  O   UNL     1      -4.553  -4.487   1.349  1.00  0.00    -0.244 OA
BRANCH   2   4
ATOM      4  C   UNL     1      -2.635  -2.980   1.157  1.00  0.00     0.287 C 
ATOM      5  C   UNL     1      -1.109  -3.203   1.228  1.00  0.00     0.103 C 
BRANCH   4   6
ATOM      6  N   UNL     1      -2.885  -2.104  -0.049  1.00  0.00    -0.325 N 
ATOM      7  H   UNL     1      -2.730  -1.134   0.224  1.00  0.00     0.347 HD
ATOM      8  H   UNL     1      -2.243  -2.420  -0.776  1.00  0.00     0.347 HD
BRANCH   6   9
ATOM      9  C   UNL     1      -4.235  -2.213  -0.607  1.00  0.00     0.261 C 
BRANCH   9  10
ATOM     10  C   UNL     1      -4.476  -1.220  -1.748  1.00  0.00     0.061 C 
BRANCH  10  11
ATOM     11  C   UNL     1      -3.388  -1.149  -2.827  1.00  0.00     0.006 C 
BRANCH  11  12
ATOM     12  C   UNL     1      -2.918  -2.481  -3.421  1.00  0.00    -0.003 C 
ATOM     13  C   UNL     1      -4.011  -3.260  -4.128  1.00  0.00     0.004 C 
ENDBRANCH  11  12
ENDBRANCH  10  11
ENDBRANCH   9  10
ENDBRANCH   6   9
ENDBRANCH   4   6
BRANCH   4  14
ATOM     14  C   UNL     1      -3.062  -2.351   2.504  1.00  0.00     0.455 C 
ATOM     15  F   UNL     1      -2.646  -3.104   3.551  1.00  0.00    -0.164 F 
ATOM     16  F   UNL     1      -2.490  -1.130   2.675  1.00  0.00    -0.164 F 
ATOM     17  F   UNL     1      -4.394  -2.177   2.631  1.00  0.00    -0.164 F 
ENDBRANCH   4  14
ENDBRANCH   2   4
ENDBRANCH   1   2
BRANCH   1  18
ATOM     18  C   UNL     1      -3.350  -6.471  -0.002  1.00  0.00     0.274 C 
BRANCH  18  19
ATOM     19  C   UNL     1      -3.117  -7.596   1.002  1.00  0.00     0.275 C 
BRANCH  19  20
ATOM     20  O   UNL     1      -3.703  -7.247   2.268  1.00  0.00    -0.458 OA
BRANCH  20  21
ATOM     21  C   UNL     1      -2.866  -7.239   3.325  1.00  0.00     0.338 C 
ATOM     22  O   UNL     1      -1.681  -7.546   3.341  1.00  0.00    -0.246 OA
BRANCH  21  23
ATOM     23  C   UNL     1      -3.576  -6.753   4.517  1.00  0.00     0.060 A 
ATOM     24  C   UNL     1      -4.073  -5.453   4.527  1.00  0.00     0.016 A 
ATOM     25  C   UNL     1      -3.616  -7.526   5.676  1.00  0.00     0.016 A 
ATOM     26  C   UNL     1      -4.514  -4.878   5.713  1.00  0.00     0.010 A 
ATOM     27  C   UNL     1      -4.149  -6.979   6.849  1.00  0.00     0.010 A 
ATOM     28  C   UNL     1      -4.559  -5.633   6.891  1.00  0.00    -0.014 A 
BRANCH  28  29
ATOM     29  C   UNL     1      -4.953  -4.984   8.168  1.00  0.00     0.031 A 
ATOM     30  C   UNL     1      -3.967  -4.901   9.303  1.00  0.00     0.074 A 
ATOM     31  C   UNL     1      -6.165  -4.409   8.300  1.00  0.00     0.049 A 
ATOM     32  N   UNL     1      -4.158  -4.504  10.537  1.00  0.00    -0.248 NA
ATOM     33  C   UNL     1      -2.588  -5.329   9.017  1.00  0.00     0.031 C 
ATOM     34  C   UNL     1      -7.194  -4.343   7.261  1.00  0.00     0.029 A 
ATOM     35  N   UNL     1      -6.722  -3.741   9.362  1.00  0.00    -0.354 N 
ATOM     36  C   UNL     1      -2.946  -4.697  11.187  1.00  0.00     0.074 A 
ATOM     37  C   UNL     1      -2.022  -5.236  10.212  1.00  0.00     0.031 C 
ATOM     38  C   UNL     1      -8.231  -3.622   7.716  1.00  0.00     0.029 A 
ATOM     39  C   UNL     1      -7.976  -3.245   9.101  1.00  0.00     0.049 A 
ATOM     40  H   UNL     1      -6.267  -3.629  10.228  1.00  0.00     0.167 HD
ATOM     41  C   UNL     1      -2.632  -4.456  12.482  1.00  0.00     0.031 A 
ATOM     42  C   UNL     1      -8.837  -2.582   9.895  1.00  0.00     0.031 A 
ATOM     43  C   UNL     1      -3.530  -3.872  13.440  1.00  0.00     0.049 A 
ATOM     44  C   UNL     1      -8.469  -2.327  11.327  1.00  0.00     0.074 A 
ATOM     45  C   UNL     1      -3.317  -3.618  14.784  1.00  0.00     0.029 A 
ATOM     46  N   UNL     1      -4.806  -3.419  13.144  1.00  0.00    -0.354 N 
ATOM     47  N   UNL     1      -7.359  -2.620  11.958  1.00  0.00    -0.248 NA
ATOM     48  C   UNL     1      -9.486  -1.672  12.162  1.00  0.00     0.031 C 
ATOM     49  C   UNL     1      -4.473  -3.026  15.306  1.00  0.00     0.029 A 
ATOM     50  C   UNL     1      -5.391  -2.883  14.278  1.00  0.00     0.049 A 
ATOM     51  H   UNL     1      -5.232  -3.470  12.258  1.00  0.00     0.167 HD
ATOM     52  C   UNL     1      -7.544  -2.191  13.265  1.00  0.00     0.074 A 
ATOM     53  C   UNL     1      -8.861  -1.591  13.329  1.00  0.00     0.031 C 
ATOM     54  C   UNL     1      -6.704  -2.299  14.322  1.00  0.00     0.031 A 
BRANCH  41  55
ATOM     55  C   UNL     1      -1.268  -4.878  12.946  1.00  0.00    -0.014 A 
ATOM     56  C   UNL     1      -0.123  -4.130  12.636  1.00  0.00     0.009 A 
ATOM     57  C   UNL     1      -1.135  -6.042  13.719  1.00  0.00     0.009 A 
ATOM     58  C   UNL     1       1.135  -4.559  13.068  1.00  0.00     0.001 A 
ATOM     59  C   UNL     1       0.120  -6.456  14.167  1.00  0.00     0.001 A 
ATOM     60  C   UNL     1       1.255  -5.718  13.834  1.00  0.00     0.000 A 
ENDBRANCH  41  55
BRANCH  42  61
ATOM     61  C   UNL     1     -10.153  -2.151   9.362  1.00  0.00    -0.014 A 
ATOM     62  C   UNL     1     -10.412  -0.794   9.118  1.00  0.00     0.009 A 
ATOM     63  C   UNL     1     -11.154  -3.096   9.088  1.00  0.00     0.009 A 
ATOM     64  C   UNL     1     -11.654  -0.392   8.621  1.00  0.00     0.001 A 
ATOM     65  C   UNL     1     -12.385  -2.693   8.567  1.00  0.00     0.001 A 
ATOM     66  C   UNL     1     -12.636  -1.341   8.340  1.00  0.00     0.000 A 
ENDBRANCH  42  61
BRANCH  54  67
ATOM     67  C   UNL     1      -7.189  -1.745  15.628  1.00  0.00    -0.014 A 
ATOM     68  C   UNL     1      -8.118  -2.452  16.407  1.00  0.00     0.009 A 
ATOM     69  C   UNL     1      -6.702  -0.514  16.090  1.00  0.00     0.009 A 
ATOM     70  C   UNL     1      -8.575  -1.918  17.613  1.00  0.00     0.001 A 
ATOM     71  C   UNL     1      -7.147   0.008  17.305  1.00  0.00     0.001 A 
ATOM     72  C   UNL     1      -8.088  -0.690  18.061  1.00  0.00     0.000 A 
ENDBRANCH  54  67
ENDBRANCH  28  29
ENDBRANCH  21  23
ENDBRANCH  20  21
ENDBRANCH  19  20
ENDBRANCH  18  19
ENDBRANCH   1  18
TORSDOF 17
