REMARK SMILES CCn1ncc(-c2cc(C(F)(F)F)nc(-n3ccc(C(=O)OCCOC(=O)c4ccc(-c5c6nc(c(-c7ccccc7)c7ccc([nH]7)c(-c7ccccc7)c7nc(c(-c8ccccc8)c8ccc5[nH]8)C=C7)C=C6)cc4)n3)n2)c1C
REMARK SMILES IDX 23 1 22 2 20 3 21 4 19 5 16 6 17 7 76 8 18 9 15 10 7 11 8 12
REMARK SMILES IDX 77 13 9 14 14 15 6 16 3 17 4 18 78 19 5 20 79 21 2 22 1 23
REMARK SMILES IDX 10 24 11 25 12 26 13 27 24 28 25 29 26 30 27 31 28 32 29 33
REMARK SMILES IDX 75 34 30 35 74 36 31 37 32 38 33 39 68 40 34 41 73 42 67 43
REMARK SMILES IDX 69 44 35 45 72 46 66 47 65 48 36 50 58 51 43 52 57 53 44 54
REMARK SMILES IDX 47 55 56 56 70 57 45 58 46 59 55 61 71 62 48 63 37 64 38 65
REMARK SMILES IDX 42 66 39 67 41 68 40 69 59 70 60 71 64 72 61 73 63 74 62 75
REMARK SMILES IDX 49 76 50 77 54 78 51 79 53 80 52 81
REMARK H PARENT 69 49 47 60
REMARK Flexibility Score: inf
ROOT
ATOM      1  C   UNL     1       4.418   5.578  -7.505  1.00  0.00     0.275 C 
ENDROOT
BRANCH   1   2
ATOM      2  O   UNL     1       4.562   5.309  -6.103  1.00  0.00    -0.457 OA
BRANCH   2   3
ATOM      3  C   UNL     1       5.642   4.550  -5.742  1.00  0.00     0.358 C 
ATOM      4  O   UNL     1       6.371   3.963  -6.539  1.00  0.00    -0.244 OA
BRANCH   3   5
ATOM      5  C   UNL     1       5.942   4.642  -4.308  1.00  0.00     0.170 A 
ATOM      6  N   UNL     1       5.690   5.022  -2.213  1.00  0.00    -0.205 N 
ATOM      7  C   UNL     1       7.051   5.005  -2.421  1.00  0.00     0.119 A 
ATOM      8  N   UNL     1       4.999   4.739  -3.353  1.00  0.00    -0.158 NA
ATOM      9  C   UNL     1       7.243   4.687  -3.742  1.00  0.00     0.058 A 
BRANCH   6  10
ATOM     10  C   UNL     1       5.037   5.278  -0.964  1.00  0.00     0.251 A 
ATOM     11  C   UNL     1       3.290   4.870   0.454  1.00  0.00     0.080 A 
ATOM     12  C   UNL     1       3.822   5.685   1.427  1.00  0.00     0.062 A 
ATOM     13  N   UNL     1       3.844   4.700  -0.756  1.00  0.00    -0.211 NA
ATOM     14  C   UNL     1       5.037   6.277   1.129  1.00  0.00     0.150 A 
ATOM     15  N   UNL     1       5.683   6.030  -0.044  1.00  0.00    -0.207 NA
BRANCH  11  16
ATOM     16  C   UNL     1       2.157   4.021   0.732  1.00  0.00     0.041 A 
ATOM     17  N   UNL     1       0.944   2.214   1.024  1.00  0.00    -0.269 N 
ATOM     18  N   UNL     1       0.079   3.233   1.218  1.00  0.00    -0.181 NA
ATOM     19  C   UNL     1       2.230   2.637   0.787  1.00  0.00     0.045 A 
ATOM     20  C   UNL     1       0.816   4.327   1.015  1.00  0.00     0.145 A 
ATOM     21  C   UNL     1       3.395   1.730   0.607  1.00  0.00     0.067 C 
BRANCH  17  22
ATOM     22  C   UNL     1       0.454   0.853   1.160  1.00  0.00     0.141 C 
ATOM     23  C   UNL     1       0.589   0.018  -0.104  1.00  0.00     0.029 C 
ENDBRANCH  17  22
ENDBRANCH  11  16
BRANCH  14  24
ATOM     24  C   UNL     1       5.670   7.237   2.126  1.00  0.00     0.433 C 
ATOM     25  F   UNL     1       6.953   6.907   2.446  1.00  0.00    -0.165 F 
ATOM     26  F   UNL     1       5.710   8.520   1.668  1.00  0.00    -0.165 F 
ATOM     27  F   UNL     1       5.000   7.295   3.315  1.00  0.00    -0.165 F 
ENDBRANCH  14  24
ENDBRANCH   6  10
ENDBRANCH   3   5
ENDBRANCH   2   3
ENDBRANCH   1   2
BRANCH   1  28
ATOM     28  C   UNL     1       5.193   6.823  -7.923  1.00  0.00     0.275 C 
BRANCH  28  29
ATOM     29  O   UNL     1       6.603   6.592  -8.009  1.00  0.00    -0.458 OA
BRANCH  29  30
ATOM     30  C   UNL     1       7.315   6.997  -6.934  1.00  0.00     0.338 C 
ATOM     31  O   UNL     1       6.904   7.151  -5.797  1.00  0.00    -0.246 OA
BRANCH  30  32
ATOM     32  C   UNL     1       8.644   7.454  -7.370  1.00  0.00     0.060 A 
ATOM     33  C   UNL     1       9.555   7.840  -6.383  1.00  0.00     0.016 A 
ATOM     34  C   UNL     1       8.899   7.698  -8.728  1.00  0.00     0.016 A 
ATOM     35  C   UNL     1      10.676   8.561  -6.752  1.00  0.00     0.010 A 
ATOM     36  C   UNL     1      10.013   8.427  -9.095  1.00  0.00     0.010 A 
ATOM     37  C   UNL     1      10.870   8.892  -8.101  1.00  0.00    -0.014 A 
BRANCH  37  38
ATOM     38  C   UNL     1      12.095   9.587  -8.460  1.00  0.00     0.031 A 
ATOM     39  C   UNL     1      13.312   8.771  -8.240  1.00  0.00     0.074 A 
ATOM     40  C   UNL     1      12.145  10.794  -9.056  1.00  0.00     0.049 A 
ATOM     41  N   UNL     1      14.258   8.990  -7.389  1.00  0.00    -0.248 NA
ATOM     42  C   UNL     1      13.419   7.487  -8.951  1.00  0.00     0.031 C 
ATOM     43  C   UNL     1      11.033  11.583  -9.589  1.00  0.00     0.029 A 
ATOM     44  N   UNL     1      13.241  11.523  -9.412  1.00  0.00    -0.354 N 
ATOM     45  C   UNL     1      15.187   7.978  -7.596  1.00  0.00     0.074 A 
ATOM     46  C   UNL     1      14.547   6.998  -8.436  1.00  0.00     0.031 C 
ATOM     47  C   UNL     1      11.525  12.552 -10.397  1.00  0.00     0.029 A 
ATOM     48  C   UNL     1      12.978  12.530 -10.332  1.00  0.00     0.049 A 
ATOM     49  H   UNL     1      14.140  11.351  -9.049  1.00  0.00     0.167 HD
ATOM     50  C   UNL     1      16.502   8.166  -7.301  1.00  0.00     0.031 A 
ATOM     51  C   UNL     1      13.892  13.247 -11.033  1.00  0.00     0.031 A 
ATOM     52  C   UNL     1      16.697   9.267  -6.391  1.00  0.00     0.049 A 
ATOM     53  C   UNL     1      15.195  13.127 -10.342  1.00  0.00     0.074 A 
ATOM     54  C   UNL     1      16.224   9.594  -5.135  1.00  0.00     0.029 A 
ATOM     55  N   UNL     1      17.206  10.432  -6.913  1.00  0.00    -0.354 N 
ATOM     56  N   UNL     1      15.459  13.692  -9.201  1.00  0.00    -0.248 NA
ATOM     57  C   UNL     1      16.082  12.040 -10.722  1.00  0.00     0.031 C 
ATOM     58  C   UNL     1      16.036  11.008  -5.167  1.00  0.00     0.029 A 
ATOM     59  C   UNL     1      16.466  11.469  -6.412  1.00  0.00     0.049 A 
ATOM     60  H   UNL     1      17.965  10.508  -7.535  1.00  0.00     0.167 HD
ATOM     61  C   UNL     1      16.220  12.755  -8.519  1.00  0.00     0.074 A 
ATOM     62  C   UNL     1      16.672  11.817  -9.545  1.00  0.00     0.031 C 
ATOM     63  C   UNL     1      16.169  12.670  -7.157  1.00  0.00     0.031 A 
BRANCH  50  64
ATOM     64  C   UNL     1      17.604   7.683  -8.217  1.00  0.00    -0.014 A 
ATOM     65  C   UNL     1      18.937   7.939  -7.853  1.00  0.00     0.009 A 
ATOM     66  C   UNL     1      17.377   7.291  -9.552  1.00  0.00     0.009 A 
ATOM     67  C   UNL     1      19.966   7.912  -8.801  1.00  0.00     0.001 A 
ATOM     68  C   UNL     1      18.409   7.217 -10.489  1.00  0.00     0.001 A 
ATOM     69  C   UNL     1      19.699   7.564 -10.121  1.00  0.00     0.000 A 
ENDBRANCH  50  64
BRANCH  51  70
ATOM     70  C   UNL     1      13.793  13.832 -12.387  1.00  0.00    -0.014 A 
ATOM     71  C   UNL     1      14.738  14.776 -12.827  1.00  0.00     0.009 A 
ATOM     72  C   UNL     1      12.947  13.256 -13.351  1.00  0.00     0.009 A 
ATOM     73  C   UNL     1      14.865  15.089 -14.187  1.00  0.00     0.001 A 
ATOM     74  C   UNL     1      13.070  13.574 -14.708  1.00  0.00     0.001 A 
ATOM     75  C   UNL     1      14.042  14.476 -15.128  1.00  0.00     0.000 A 
ENDBRANCH  51  70
BRANCH  63  76
ATOM     76  C   UNL     1      15.529  13.804  -6.397  1.00  0.00    -0.014 A 
ATOM     77  C   UNL     1      14.211  14.242  -6.614  1.00  0.00     0.009 A 
ATOM     78  C   UNL     1      16.254  14.380  -5.342  1.00  0.00     0.009 A 
ATOM     79  C   UNL     1      13.657  15.262  -5.832  1.00  0.00     0.001 A 
ATOM     80  C   UNL     1      15.693  15.379  -4.545  1.00  0.00     0.001 A 
ATOM     81  C   UNL     1      14.399  15.827  -4.797  1.00  0.00     0.000 A 
ENDBRANCH  63  76
ENDBRANCH  37  38
ENDBRANCH  30  32
ENDBRANCH  29  30
ENDBRANCH  28  29
ENDBRANCH   1  28
TORSDOF 15
