REMARK SMILES Cc1cccc(-c2cc(C[C@]3(C(=O)OCCOC(=O)c4ccc(-c5c6nc(c(-c7ccccc7)c7ccc([nH]7)c(-c7ccccc7)c7nc(c(-c8ccccc8)c8ccc5[nH]8)C=C7)C=C6)cc4)CCCN(C(=O)C(C)C)C3)on2)c1
REMARK SMILES IDX 15 1 14 2 12 3 13 4 11 5 68 6 77 7 69 8 71 9 70 10 10 11
REMARK SMILES IDX 9 12 7 13 8 14 79 15 78 16 6 17 1 18 2 19 3 20 80 21 4 22
REMARK SMILES IDX 5 23 72 24 73 25 74 26 75 27 76 28 16 29 17 30 18 31 19 32
REMARK SMILES IDX 20 33 21 34 67 35 22 36 66 37 23 38 24 39 25 40 60 41 26 42
REMARK SMILES IDX 65 43 59 44 61 45 27 46 64 47 58 48 57 49 28 51 50 52 35 53
REMARK SMILES IDX 49 54 36 55 39 56 48 57 62 58 37 59 38 60 47 62 63 63 40 64
REMARK SMILES IDX 29 65 30 66 34 67 31 68 33 69 32 70 51 71 52 72 56 73 53 74
REMARK SMILES IDX 55 75 54 76 41 77 42 78 46 79 43 80 45 81 44 82
REMARK H PARENT 61 50 39 61
REMARK Flexibility Score: inf
ROOT
ATOM      1  C   UNL     1      -6.619   8.712  -1.403  1.00  0.00     0.274 C 
ENDROOT
BRANCH   1   2
ATOM      2  O   UNL     1      -5.693   7.728  -0.890  1.00  0.00    -0.462 OA
BRANCH   2   3
ATOM      3  C   UNL     1      -5.640   6.606  -1.679  1.00  0.00     0.314 C 
ATOM      4  O   UNL     1      -6.213   6.554  -2.764  1.00  0.00    -0.252 OA
BRANCH   3   5
ATOM      5  C   UNL     1      -4.980   5.367  -1.026  1.00  0.00     0.093 C 
ATOM      6  C   UNL     1      -5.768   5.175   0.302  1.00  0.00     0.023 C 
ATOM      7  C   UNL     1      -5.237   4.233  -2.066  1.00  0.00     0.138 C 
ATOM      8  C   UNL     1      -5.989   3.729   0.735  1.00  0.00     0.023 C 
ATOM      9  N   UNL     1      -5.378   2.927  -1.454  1.00  0.00    -0.341 N 
ATOM     10  C   UNL     1      -6.428   2.887  -0.451  1.00  0.00     0.119 C 
BRANCH   5  11
ATOM     11  C   UNL     1      -3.444   5.540  -0.808  1.00  0.00     0.099 C 
BRANCH  11  12
ATOM     12  C   UNL     1      -2.633   4.377  -0.280  1.00  0.00     0.138 A 
ATOM     13  C   UNL     1      -1.290   2.655   0.243  1.00  0.00     0.114 A 
ATOM     14  C   UNL     1      -1.769   3.452  -0.841  1.00  0.00     0.077 A 
ATOM     15  N   UNL     1      -1.805   3.116   1.395  1.00  0.00    -0.080 NA
ATOM     16  O   UNL     1      -2.615   4.193   1.070  1.00  0.00    -0.361 OA
BRANCH  13  17
ATOM     17  C   UNL     1      -0.464   1.435   0.202  1.00  0.00     0.004 A 
ATOM     18  C   UNL     1       3.154   0.222  -0.196  1.00  0.00     0.044 C 
ATOM     19  C   UNL     1       1.660   0.244  -0.043  1.00  0.00    -0.050 A 
ATOM     20  C   UNL     1       0.998  -0.984   0.089  1.00  0.00     0.003 A 
ATOM     21  C   UNL     1       0.922   1.452  -0.008  1.00  0.00     0.014 A 
ATOM     22  C   UNL     1      -0.369  -1.012   0.313  1.00  0.00     0.001 A 
ATOM     23  C   UNL     1      -1.075   0.189   0.394  1.00  0.00     0.010 A 
ENDBRANCH  13  17
ENDBRANCH  11  12
ENDBRANCH   5  11
BRANCH   9  24
ATOM     24  C   UNL     1      -4.544   1.908  -1.864  1.00  0.00     0.225 C 
ATOM     25  O   UNL     1      -3.761   2.070  -2.808  1.00  0.00    -0.275 OA
BRANCH  24  26
ATOM     26  C   UNL     1      -4.586   0.540  -1.194  1.00  0.00     0.072 C 
ATOM     27  C   UNL     1      -4.553   0.545   0.329  1.00  0.00     0.018 C 
ATOM     28  C   UNL     1      -5.720  -0.301  -1.756  1.00  0.00     0.018 C 
ENDBRANCH  24  26
ENDBRANCH   9  24
ENDBRANCH   3   5
ENDBRANCH   2   3
ENDBRANCH   1   2
BRANCH   1  29
ATOM     29  C   UNL     1      -6.325  10.171  -1.030  1.00  0.00     0.275 C 
BRANCH  29  30
ATOM     30  O   UNL     1      -4.965  10.560  -0.724  1.00  0.00    -0.458 OA
BRANCH  30  31
ATOM     31  C   UNL     1      -3.824  10.209  -1.355  1.00  0.00     0.338 C 
ATOM     32  O   UNL     1      -2.719  10.370  -0.850  1.00  0.00    -0.246 OA
BRANCH  31  33
ATOM     33  C   UNL     1      -3.947   9.539  -2.653  1.00  0.00     0.060 A 
ATOM     34  C   UNL     1      -3.250   8.338  -2.828  1.00  0.00     0.016 A 
ATOM     35  C   UNL     1      -4.795  10.037  -3.640  1.00  0.00     0.016 A 
ATOM     36  C   UNL     1      -3.486   7.561  -3.953  1.00  0.00     0.010 A 
ATOM     37  C   UNL     1      -5.071   9.246  -4.736  1.00  0.00     0.010 A 
ATOM     38  C   UNL     1      -4.414   8.015  -4.891  1.00  0.00    -0.014 A 
BRANCH  38  39
ATOM     39  C   UNL     1      -4.449   7.466  -6.234  1.00  0.00     0.031 A 
ATOM     40  C   UNL     1      -5.273   6.313  -6.628  1.00  0.00     0.074 A 
ATOM     41  C   UNL     1      -3.631   8.142  -7.065  1.00  0.00     0.049 A 
ATOM     42  N   UNL     1      -4.960   5.515  -7.592  1.00  0.00    -0.248 NA
ATOM     43  C   UNL     1      -6.504   5.921  -5.944  1.00  0.00     0.031 C 
ATOM     44  C   UNL     1      -3.486   8.098  -8.504  1.00  0.00     0.029 A 
ATOM     45  N   UNL     1      -2.549   8.915  -6.630  1.00  0.00    -0.354 N 
ATOM     46  C   UNL     1      -6.068   4.737  -7.851  1.00  0.00     0.074 A 
ATOM     47  C   UNL     1      -6.943   4.920  -6.720  1.00  0.00     0.031 C 
ATOM     48  C   UNL     1      -2.264   8.578  -8.816  1.00  0.00     0.029 A 
ATOM     49  C   UNL     1      -1.533   8.759  -7.561  1.00  0.00     0.049 A 
ATOM     50  H   UNL     1      -2.515   9.467  -5.815  1.00  0.00     0.167 HD
ATOM     51  C   UNL     1      -6.229   4.199  -9.092  1.00  0.00     0.031 A 
ATOM     52  C   UNL     1      -0.412   8.065  -7.200  1.00  0.00     0.031 A 
ATOM     53  C   UNL     1      -5.104   4.545  -9.949  1.00  0.00     0.049 A 
ATOM     54  C   UNL     1      -0.224   6.849  -8.071  1.00  0.00     0.074 A 
ATOM     55  C   UNL     1      -4.924   5.597 -10.833  1.00  0.00     0.029 A 
ATOM     56  N   UNL     1      -3.846   4.030  -9.672  1.00  0.00    -0.354 N 
ATOM     57  N   UNL     1      -1.198   6.112  -8.531  1.00  0.00    -0.248 NA
ATOM     58  C   UNL     1       1.087   6.423  -8.539  1.00  0.00     0.031 C 
ATOM     59  C   UNL     1      -3.531   5.758 -11.037  1.00  0.00     0.029 A 
ATOM     60  C   UNL     1      -2.876   4.788 -10.297  1.00  0.00     0.049 A 
ATOM     61  H   UNL     1      -3.671   3.240  -9.111  1.00  0.00     0.167 HD
ATOM     62  C   UNL     1      -0.684   5.216  -9.436  1.00  0.00     0.074 A 
ATOM     63  C   UNL     1       0.753   5.426  -9.376  1.00  0.00     0.031 C 
ATOM     64  C   UNL     1      -1.475   4.411 -10.208  1.00  0.00     0.031 A 
BRANCH  51  65
ATOM     65  C   UNL     1      -7.556   3.716  -9.620  1.00  0.00    -0.014 A 
ATOM     66  C   UNL     1      -7.894   3.975 -10.964  1.00  0.00     0.009 A 
ATOM     67  C   UNL     1      -8.524   3.049  -8.853  1.00  0.00     0.009 A 
ATOM     68  C   UNL     1      -9.154   3.671 -11.492  1.00  0.00     0.001 A 
ATOM     69  C   UNL     1      -9.798   2.758  -9.371  1.00  0.00     0.001 A 
ATOM     70  C   UNL     1     -10.117   3.081 -10.687  1.00  0.00     0.000 A 
ENDBRANCH  51  65
BRANCH  52  71
ATOM     71  C   UNL     1      -0.004   8.137  -5.756  1.00  0.00    -0.014 A 
ATOM     72  C   UNL     1       0.122   9.401  -5.134  1.00  0.00     0.009 A 
ATOM     73  C   UNL     1       0.073   7.003  -4.933  1.00  0.00     0.009 A 
ATOM     74  C   UNL     1       0.233   9.529  -3.744  1.00  0.00     0.001 A 
ATOM     75  C   UNL     1       0.208   7.132  -3.539  1.00  0.00     0.001 A 
ATOM     76  C   UNL     1       0.268   8.393  -2.945  1.00  0.00     0.000 A 
ENDBRANCH  52  71
BRANCH  64  77
ATOM     77  C   UNL     1      -1.032   3.243 -11.059  1.00  0.00    -0.014 A 
ATOM     78  C   UNL     1       0.224   2.635 -10.992  1.00  0.00     0.009 A 
ATOM     79  C   UNL     1      -1.986   2.617 -11.902  1.00  0.00     0.009 A 
ATOM     80  C   UNL     1       0.524   1.494 -11.748  1.00  0.00     0.001 A 
ATOM     81  C   UNL     1      -1.711   1.450 -12.614  1.00  0.00     0.001 A 
ATOM     82  C   UNL     1      -0.446   0.893 -12.545  1.00  0.00     0.000 A 
ENDBRANCH  64  77
ENDBRANCH  38  39
ENDBRANCH  31  33
ENDBRANCH  30  31
ENDBRANCH  29  30
ENDBRANCH   1  29
TORSDOF 16
