REMARK SMILES O=C(OCCOC(=O)C1CC[NH+]([C@H]2CC(=O)N(c3ccc4c(c3)OCCO4)C2=O)CC1)c1ccc(-c2c3nc(c(-c4ccccc4)c4ccc([nH]4)c(-c4ccccc4)c4nc(c(-c5ccccc5)c5ccc2[nH]5)C=C4)C=C3)cc1
REMARK SMILES IDX 4 1 3 2 2 3 1 4 32 5 33 6 79 7 34 8 78 9 35 10 36 11 37 12
REMARK SMILES IDX 72 13 38 14 77 15 71 16 73 17 39 18 76 19 70 20 69 21 40 23
REMARK SMILES IDX 62 24 47 25 61 26 48 27 51 28 60 29 74 30 49 31 50 32 59 34
REMARK SMILES IDX 75 35 52 36 41 37 42 38 46 39 43 40 45 41 44 42 63 43 64 44
REMARK SMILES IDX 68 45 65 46 67 47 66 48 53 49 54 50 58 51 55 52 57 53 56 54
REMARK SMILES IDX 5 55 6 56 7 57 8 58 9 59 10 60 31 61 11 62 30 63 12 64 13 66
REMARK SMILES IDX 14 67 28 68 15 69 17 70 29 71 16 72 18 73 19 74 23 75 20 76
REMARK SMILES IDX 22 77 21 78 24 79 27 80 25 81 26 82
REMARK H PARENT 73 22 51 33 12 65
REMARK Flexibility Score: inf
ROOT
ATOM      1  C   UNL     1       1.698  -2.723  10.360  1.00  0.00     0.275 C 
ENDROOT
BRANCH   1   2
ATOM      2  O   UNL     1       2.900  -2.087   9.890  1.00  0.00    -0.458 OA
BRANCH   2   3
ATOM      3  C   UNL     1       4.111  -2.617   9.594  1.00  0.00     0.338 C 
ATOM      4  O   UNL     1       5.050  -1.847   9.392  1.00  0.00    -0.246 OA
BRANCH   3   5
ATOM      5  C   UNL     1       4.354  -4.077   9.346  1.00  0.00     0.060 A 
ATOM      6  C   UNL     1       3.609  -5.143   9.863  1.00  0.00     0.016 A 
ATOM      7  C   UNL     1       5.423  -4.389   8.483  1.00  0.00     0.016 A 
ATOM      8  C   UNL     1       3.840  -6.461   9.449  1.00  0.00     0.010 A 
ATOM      9  C   UNL     1       5.664  -5.705   8.071  1.00  0.00     0.010 A 
ATOM     10  C   UNL     1       4.849  -6.748   8.531  1.00  0.00    -0.014 A 
BRANCH  10  11
ATOM     11  C   UNL     1       5.128  -8.143   8.130  1.00  0.00     0.031 A 
ATOM     12  C   UNL     1       6.287  -8.841   8.763  1.00  0.00     0.074 A 
ATOM     13  C   UNL     1       4.357  -8.792   7.235  1.00  0.00     0.049 A 
ATOM     14  N   UNL     1       6.686 -10.072   8.594  1.00  0.00    -0.248 NA
ATOM     15  C   UNL     1       7.049  -8.084   9.770  1.00  0.00     0.031 C 
ATOM     16  C   UNL     1       3.107  -8.298   6.670  1.00  0.00     0.029 A 
ATOM     17  N   UNL     1       4.537  -9.998   6.606  1.00  0.00    -0.354 N 
ATOM     18  C   UNL     1       7.685 -10.263   9.533  1.00  0.00     0.074 A 
ATOM     19  C   UNL     1       7.902  -9.000  10.201  1.00  0.00     0.031 C 
ATOM     20  C   UNL     1       2.715  -9.105   5.668  1.00  0.00     0.029 A 
ATOM     21  C   UNL     1       3.656 -10.209   5.568  1.00  0.00     0.049 A 
ATOM     22  H   UNL     1       5.227 -10.648   6.870  1.00  0.00     0.167 HD
ATOM     23  C   UNL     1       8.318 -11.414   9.847  1.00  0.00     0.031 A 
ATOM     24  C   UNL     1       3.622 -11.185   4.643  1.00  0.00     0.031 A 
ATOM     25  C   UNL     1       8.141 -12.643   9.127  1.00  0.00     0.049 A 
ATOM     26  C   UNL     1       4.551 -12.349   4.818  1.00  0.00     0.074 A 
ATOM     27  C   UNL     1       8.728 -13.872   9.356  1.00  0.00     0.029 A 
ATOM     28  N   UNL     1       7.335 -12.781   8.005  1.00  0.00    -0.354 N 
ATOM     29  N   UNL     1       5.434 -12.556   5.765  1.00  0.00    -0.248 NA
ATOM     30  C   UNL     1       4.424 -13.450   3.855  1.00  0.00     0.031 C 
ATOM     31  C   UNL     1       8.332 -14.737   8.330  1.00  0.00     0.029 A 
ATOM     32  C   UNL     1       7.449 -14.064   7.499  1.00  0.00     0.049 A 
ATOM     33  H   UNL     1       6.766 -12.073   7.626  1.00  0.00     0.167 HD
ATOM     34  C   UNL     1       5.900 -13.845   5.569  1.00  0.00     0.074 A 
ATOM     35  C   UNL     1       5.226 -14.358   4.391  1.00  0.00     0.031 C 
ATOM     36  C   UNL     1       6.772 -14.554   6.325  1.00  0.00     0.031 A 
BRANCH  23  37
ATOM     37  C   UNL     1       9.256 -11.364  11.014  1.00  0.00    -0.014 A 
ATOM     38  C   UNL     1       8.763 -11.255  12.326  1.00  0.00     0.009 A 
ATOM     39  C   UNL     1      10.640 -11.402  10.805  1.00  0.00     0.009 A 
ATOM     40  C   UNL     1       9.643 -11.149  13.404  1.00  0.00     0.001 A 
ATOM     41  C   UNL     1      11.517 -11.318  11.887  1.00  0.00     0.001 A 
ATOM     42  C   UNL     1      11.019 -11.182  13.183  1.00  0.00     0.000 A 
ENDBRANCH  23  37
BRANCH  24  43
ATOM     43  C   UNL     1       2.685 -11.134   3.490  1.00  0.00    -0.014 A 
ATOM     44  C   UNL     1       1.560 -11.968   3.415  1.00  0.00     0.009 A 
ATOM     45  C   UNL     1       2.971 -10.293   2.405  1.00  0.00     0.009 A 
ATOM     46  C   UNL     1       0.770 -11.989   2.259  1.00  0.00     0.001 A 
ATOM     47  C   UNL     1       2.172 -10.302   1.259  1.00  0.00     0.001 A 
ATOM     48  C   UNL     1       1.079 -11.161   1.181  1.00  0.00     0.000 A 
ENDBRANCH  24  43
BRANCH  36  49
ATOM     49  C   UNL     1       6.997 -15.985   5.936  1.00  0.00    -0.014 A 
ATOM     50  C   UNL     1       7.716 -16.328   4.783  1.00  0.00     0.009 A 
ATOM     51  C   UNL     1       6.502 -17.004   6.765  1.00  0.00     0.009 A 
ATOM     52  C   UNL     1       7.910 -17.669   4.452  1.00  0.00     0.001 A 
ATOM     53  C   UNL     1       6.728 -18.343   6.450  1.00  0.00     0.001 A 
ATOM     54  C   UNL     1       7.423 -18.674   5.289  1.00  0.00     0.000 A 
ENDBRANCH  36  49
ENDBRANCH  10  11
ENDBRANCH   3   5
ENDBRANCH   2   3
ENDBRANCH   1   2
BRANCH   1  55
ATOM     55  C   UNL     1       0.805  -3.289   9.251  1.00  0.00     0.274 C 
BRANCH  55  56
ATOM     56  O   UNL     1       1.572  -3.736   8.121  1.00  0.00    -0.462 OA
BRANCH  56  57
ATOM     57  C   UNL     1       1.526  -2.949   7.010  1.00  0.00     0.309 C 
ATOM     58  O   UNL     1       0.766  -1.998   6.879  1.00  0.00    -0.252 OA
BRANCH  57  59
ATOM     59  C   UNL     1       2.652  -3.276   6.028  1.00  0.00     0.110 C 
ATOM     60  C   UNL     1       2.362  -2.714   4.627  1.00  0.00     0.077 C 
ATOM     61  C   UNL     1       3.112  -4.740   6.005  1.00  0.00     0.077 C 
ATOM     62  C   UNL     1       1.728  -3.734   3.688  1.00  0.00     0.263 C 
ATOM     63  C   UNL     1       2.590  -5.617   4.872  1.00  0.00     0.263 C 
ATOM     64  N   UNL     1       2.490  -4.976   3.576  1.00  0.00    -0.324 N 
ATOM     65  H   UNL     1       1.956  -5.621   2.993  1.00  0.00     0.348 HD
BRANCH  64  66
ATOM     66  C   UNL     1       3.711  -4.911   2.742  1.00  0.00     0.284 C 
ATOM     67  C   UNL     1       4.994  -4.354   3.330  1.00  0.00     0.176 C 
ATOM     68  C   UNL     1       4.155  -6.295   2.244  1.00  0.00     0.292 C 
ATOM     69  C   UNL     1       5.872  -5.548   3.549  1.00  0.00     0.240 C 
ATOM     70  N   UNL     1       5.405  -6.577   2.763  1.00  0.00    -0.245 N 
ATOM     71  O   UNL     1       3.469  -7.011   1.522  1.00  0.00    -0.267 OA
ATOM     72  O   UNL     1       6.875  -5.492   4.237  1.00  0.00    -0.274 OA
BRANCH  70  73
ATOM     73  C   UNL     1       6.179  -7.733   2.453  1.00  0.00     0.056 A 
ATOM     74  C   UNL     1       6.104  -8.314   1.175  1.00  0.00     0.031 A 
ATOM     75  C   UNL     1       7.101  -8.270   3.366  1.00  0.00     0.077 A 
ATOM     76  C   UNL     1       6.954  -9.363   0.806  1.00  0.00     0.052 A 
ATOM     77  C   UNL     1       7.939  -9.331   3.003  1.00  0.00     0.163 A 
ATOM     78  C   UNL     1       7.867  -9.875   1.721  1.00  0.00     0.161 A 
ATOM     79  O   UNL     1       8.810  -9.784   3.961  1.00  0.00    -0.486 OA
ATOM     80  O   UNL     1       8.673 -10.893   1.285  1.00  0.00    -0.486 OA
ATOM     81  C   UNL     1       9.849 -10.591   3.398  1.00  0.00     0.271 C 
ATOM     82  C   UNL     1       9.296 -11.575   2.379  1.00  0.00     0.271 C 
ENDBRANCH  70  73
ENDBRANCH  64  66
ENDBRANCH  57  59
ENDBRANCH  56  57
ENDBRANCH  55  56
ENDBRANCH   1  55
TORSDOF 13
