REMARK SMILES O=C(OCCOC(=O)[C@H]1CCN1C(=O)OCC1c2ccccc2-c2ccccc21)c1ccc(-c2c3nc(c(-c4ccccc4)c4ccc([nH]4)c(-c4ccccc4)c4nc(c(-c5ccccc5)c5ccc2[nH]5)C=C4)C=C3)cc1
REMARK SMILES IDX 5 1 4 2 3 3 2 4 1 5 30 6 31 7 77 8 32 9 76 10 33 11 34 12
REMARK SMILES IDX 35 13 70 14 36 15 75 16 69 17 71 18 37 19 74 20 68 21 67 22
REMARK SMILES IDX 38 24 60 25 45 26 59 27 46 28 49 29 58 30 72 31 47 32 48 33
REMARK SMILES IDX 57 35 73 36 50 37 39 38 40 39 44 40 41 41 43 42 42 43 61 44
REMARK SMILES IDX 62 45 66 46 63 47 65 48 64 49 51 50 52 51 56 52 53 53 55 54
REMARK SMILES IDX 54 55 6 56 7 57 8 58 9 59 10 60 12 61 11 62 13 63 14 64
REMARK SMILES IDX 15 65 16 66 17 67 18 68 29 69 19 70 23 71 24 72 28 73 20 74
REMARK SMILES IDX 22 75 25 76 27 77 21 78 26 79
REMARK H PARENT 71 23 49 34
REMARK Flexibility Score: inf
ROOT
ATOM      1  C   UNL     1       2.280  -0.709  -5.692  1.00  0.00     0.274 C 
ENDROOT
BRANCH   1   2
ATOM      2  C   UNL     1       2.916   0.385  -6.552  1.00  0.00     0.275 C 
BRANCH   2   3
ATOM      3  O   UNL     1       4.097   0.933  -5.955  1.00  0.00    -0.458 OA
BRANCH   3   4
ATOM      4  C   UNL     1       4.249   1.975  -5.110  1.00  0.00     0.338 C 
ATOM      5  O   UNL     1       5.398   2.235  -4.748  1.00  0.00    -0.246 OA
BRANCH   4   6
ATOM      6  C   UNL     1       3.144   2.819  -4.521  1.00  0.00     0.060 A 
ATOM      7  C   UNL     1       1.759   2.669  -4.677  1.00  0.00     0.016 A 
ATOM      8  C   UNL     1       3.576   3.823  -3.628  1.00  0.00     0.016 A 
ATOM      9  C   UNL     1       0.843   3.453  -3.941  1.00  0.00     0.010 A 
ATOM     10  C   UNL     1       2.673   4.581  -2.873  1.00  0.00     0.010 A 
ATOM     11  C   UNL     1       1.292   4.400  -3.017  1.00  0.00    -0.014 A 
BRANCH  11  12
ATOM     12  C   UNL     1       0.364   5.304  -2.281  1.00  0.00     0.031 A 
ATOM     13  C   UNL     1       0.228   6.706  -2.776  1.00  0.00     0.074 A 
ATOM     14  C   UNL     1      -0.171   4.980  -1.085  1.00  0.00     0.049 A 
ATOM     15  N   UNL     1      -0.468   7.692  -2.278  1.00  0.00    -0.248 NA
ATOM     16  C   UNL     1       1.061   7.066  -3.934  1.00  0.00     0.031 C 
ATOM     17  C   UNL     1       0.059   3.719  -0.408  1.00  0.00     0.029 A 
ATOM     18  N   UNL     1      -0.964   5.680  -0.198  1.00  0.00    -0.354 N 
ATOM     19  C   UNL     1      -0.076   8.811  -2.994  1.00  0.00     0.074 A 
ATOM     20  C   UNL     1       0.911   8.379  -3.959  1.00  0.00     0.031 C 
ATOM     21  C   UNL     1      -0.537   3.745   0.792  1.00  0.00     0.029 A 
ATOM     22  C   UNL     1      -1.327   4.955   0.925  1.00  0.00     0.049 A 
ATOM     23  H   UNL     1      -1.246   6.611  -0.349  1.00  0.00     0.167 HD
ATOM     24  C   UNL     1      -0.480  10.091  -2.832  1.00  0.00     0.031 A 
ATOM     25  C   UNL     1      -2.260   5.206   1.877  1.00  0.00     0.031 A 
ATOM     26  C   UNL     1      -1.448  10.504  -1.856  1.00  0.00     0.049 A 
ATOM     27  C   UNL     1      -2.962   6.529   1.798  1.00  0.00     0.074 A 
ATOM     28  C   UNL     1      -1.959  11.765  -1.613  1.00  0.00     0.029 A 
ATOM     29  N   UNL     1      -2.051   9.643  -0.950  1.00  0.00    -0.354 N 
ATOM     30  N   UNL     1      -2.767   7.507   0.952  1.00  0.00    -0.248 NA
ATOM     31  C   UNL     1      -4.028   6.774   2.781  1.00  0.00     0.031 C 
ATOM     32  C   UNL     1      -2.856  11.671  -0.541  1.00  0.00     0.029 A 
ATOM     33  C   UNL     1      -2.930  10.346  -0.147  1.00  0.00     0.049 A 
ATOM     34  H   UNL     1      -1.879   8.676  -0.888  1.00  0.00     0.167 HD
ATOM     35  C   UNL     1      -3.671   8.487   1.313  1.00  0.00     0.074 A 
ATOM     36  C   UNL     1      -4.501   7.936   2.364  1.00  0.00     0.031 C 
ATOM     37  C   UNL     1      -3.754   9.763   0.875  1.00  0.00     0.031 A 
BRANCH  24  38
ATOM     38  C   UNL     1       0.221  11.105  -3.686  1.00  0.00    -0.014 A 
ATOM     39  C   UNL     1       0.061  11.124  -5.082  1.00  0.00     0.009 A 
ATOM     40  C   UNL     1       1.162  11.961  -3.095  1.00  0.00     0.009 A 
ATOM     41  C   UNL     1       0.897  11.911  -5.875  1.00  0.00     0.001 A 
ATOM     42  C   UNL     1       1.969  12.776  -3.888  1.00  0.00     0.001 A 
ATOM     43  C   UNL     1       1.854  12.731  -5.277  1.00  0.00     0.000 A 
ENDBRANCH  24  38
BRANCH  25  44
ATOM     44  C   UNL     1      -2.795   4.168   2.827  1.00  0.00    -0.014 A 
ATOM     45  C   UNL     1      -4.138   3.741   2.665  1.00  0.00     0.009 A 
ATOM     46  C   UNL     1      -2.031   3.529   3.811  1.00  0.00     0.009 A 
ATOM     47  C   UNL     1      -4.679   2.690   3.411  1.00  0.00     0.001 A 
ATOM     48  C   UNL     1      -2.571   2.458   4.548  1.00  0.00     0.001 A 
ATOM     49  C   UNL     1      -3.884   2.030   4.338  1.00  0.00     0.000 A 
ENDBRANCH  25  44
BRANCH  37  50
ATOM     50  C   UNL     1      -4.749  10.629   1.579  1.00  0.00    -0.014 A 
ATOM     51  C   UNL     1      -4.543  11.002   2.918  1.00  0.00     0.009 A 
ATOM     52  C   UNL     1      -5.896  11.068   0.908  1.00  0.00     0.009 A 
ATOM     53  C   UNL     1      -5.494  11.767   3.588  1.00  0.00     0.001 A 
ATOM     54  C   UNL     1      -6.829  11.862   1.573  1.00  0.00     0.001 A 
ATOM     55  C   UNL     1      -6.632  12.202   2.912  1.00  0.00     0.000 A 
ENDBRANCH  37  50
ENDBRANCH  11  12
ENDBRANCH   4   6
ENDBRANCH   3   4
ENDBRANCH   2   3
ENDBRANCH   1   2
BRANCH   1  56
ATOM     56  O   UNL     1       2.265  -0.385  -4.290  1.00  0.00    -0.461 OA
BRANCH  56  57
ATOM     57  C   UNL     1       3.164  -1.058  -3.491  1.00  0.00     0.329 C 
ATOM     58  O   UNL     1       3.984  -1.857  -3.945  1.00  0.00    -0.250 OA
BRANCH  57  59
ATOM     59  C   UNL     1       3.022  -0.717  -1.966  1.00  0.00     0.200 C 
ATOM     60  C   UNL     1       3.850   0.463  -1.423  1.00  0.00     0.059 C 
ATOM     61  N   UNL     1       1.850   0.049  -1.573  1.00  0.00    -0.294 N 
ATOM     62  C   UNL     1       2.558   1.260  -1.278  1.00  0.00     0.127 C 
BRANCH  61  63
ATOM     63  C   UNL     1       0.533  -0.223  -1.745  1.00  0.00     0.410 C 
ATOM     64  O   UNL     1      -0.343   0.620  -1.840  1.00  0.00    -0.224 OA
BRANCH  63  65
ATOM     65  O   UNL     1       0.340  -1.568  -1.751  1.00  0.00    -0.448 OA
BRANCH  65  66
ATOM     66  C   UNL     1      -1.006  -2.058  -1.602  1.00  0.00     0.248 C 
BRANCH  66  67
ATOM     67  C   UNL     1      -1.652  -1.843  -0.215  1.00  0.00     0.088 C 
ATOM     68  C   UNL     1      -0.684  -1.469   0.907  1.00  0.00    -0.029 A 
ATOM     69  C   UNL     1      -2.603  -0.655  -0.237  1.00  0.00    -0.029 A 
ATOM     70  C   UNL     1       0.437  -2.148   1.363  1.00  0.00     0.005 A 
ATOM     71  C   UNL     1      -1.031  -0.211   1.434  1.00  0.00    -0.014 A 
ATOM     72  C   UNL     1      -2.190   0.278   0.715  1.00  0.00    -0.014 A 
ATOM     73  C   UNL     1      -3.671  -0.398  -1.096  1.00  0.00     0.005 A 
ATOM     74  C   UNL     1       1.242  -1.538   2.330  1.00  0.00     0.000 A 
ATOM     75  C   UNL     1      -0.249   0.372   2.422  1.00  0.00     0.009 A 
ATOM     76  C   UNL     1      -2.819   1.496   0.749  1.00  0.00     0.009 A 
ATOM     77  C   UNL     1      -4.280   0.857  -1.057  1.00  0.00     0.000 A 
ATOM     78  C   UNL     1       0.905  -0.284   2.854  1.00  0.00     0.001 A 
ATOM     79  C   UNL     1      -3.838   1.813  -0.149  1.00  0.00     0.001 A 
ENDBRANCH  66  67
ENDBRANCH  65  66
ENDBRANCH  63  65
ENDBRANCH  61  63
ENDBRANCH  57  59
ENDBRANCH  56  57
ENDBRANCH   1  56
TORSDOF 15
