REMARK SMILES O=C(CCC1CC[NH+]([C@H]2CCO[C@]3(CCSC3)C2)CC1)OCCOC(=O)c1ccc(-c2c3nc(c(-c4ccccc4)c4ccc([nH]4)c(-c4ccccc4)c4nc(c(-c5ccccc5)c5ccc2[nH]5)C=C4)C=C3)cc1
REMARK SMILES IDX 22 1 21 2 2 3 1 4 3 5 4 6 5 7 6 8 20 9 7 10 19 11 8 12 9 14
REMARK SMILES IDX 10 15 18 16 11 17 13 18 12 19 14 20 17 21 15 22 16 23 23 24
REMARK SMILES IDX 24 25 25 26 26 27 27 28 28 29 74 30 29 31 73 32 30 33 31 34
REMARK SMILES IDX 32 35 67 36 33 37 72 38 66 39 68 40 34 41 71 42 65 43 64 44
REMARK SMILES IDX 35 46 57 47 42 48 56 49 43 50 46 51 55 52 69 53 44 54 45 55
REMARK SMILES IDX 54 57 70 58 47 59 36 60 37 61 41 62 38 63 40 64 39 65 58 66
REMARK SMILES IDX 59 67 63 68 60 69 62 70 61 71 48 72 49 73 53 74 50 75 52 76
REMARK SMILES IDX 51 77
REMARK H PARENT 8 13 68 45 46 56
REMARK Flexibility Score: inf
ROOT
ATOM      1  C   UNL     1       0.987   3.415   0.717  1.00  0.00     0.274 C 
ENDROOT
BRANCH   1   2
ATOM      2  O   UNL     1       1.732   5.146   0.221  1.00  0.00    -0.462 OA
BRANCH   2   3
ATOM      3  C   UNL     1       2.039   6.565   0.317  1.00  0.00     0.305 C 
ATOM      4  O   UNL     1       2.974   7.061  -0.308  1.00  0.00    -0.252 OA
BRANCH   3   5
ATOM      5  C   UNL     1       1.240   7.434   1.308  1.00  0.00     0.123 C 
BRANCH   5   6
ATOM      6  C   UNL     1      -0.118   6.866   1.517  1.00  0.00     0.016 C 
BRANCH   6   7
ATOM      7  C   UNL     1       0.093   5.417   1.240  1.00  0.00     0.001 C 
ATOM      8  C   UNL     1       1.818   4.832   2.056  1.00  0.00     0.065 C 
ATOM      9  C   UNL     1      -0.048   5.161  -0.674  1.00  0.00     0.065 C 
ATOM     10  C   UNL     1       3.145   4.013   0.769  1.00  0.00     0.262 C 
ATOM     11  C   UNL     1       1.446   4.545  -1.657  1.00  0.00     0.262 C 
ATOM     12  N   UNL     1       2.678   3.574  -0.967  1.00  0.00    -0.332 N 
ATOM     13  H   UNL     1       3.627   3.781  -1.278  1.00  0.00     0.348 HD
BRANCH  12  14
ATOM     14  C   UNL     1       2.496   2.109  -1.511  1.00  0.00     0.189 C 
ATOM     15  C   UNL     1       1.031   1.542  -1.499  1.00  0.00     0.093 C 
ATOM     16  C   UNL     1       2.970   1.959  -3.013  1.00  0.00     0.101 C 
ATOM     17  C   UNL     1       0.669   0.324  -2.296  1.00  0.00     0.167 C 
ATOM     18  C   UNL     1       2.498   0.651  -3.770  1.00  0.00     0.084 C 
ATOM     19  O   UNL     1       1.080   0.484  -3.628  1.00  0.00    -0.374 OA
ATOM     20  C   UNL     1       3.203  -0.649  -3.295  1.00  0.00     0.047 C 
ATOM     21  C   UNL     1       2.695   0.765  -5.296  1.00  0.00     0.105 C 
ATOM     22  C   UNL     1       3.978  -1.324  -4.417  1.00  0.00     0.072 C 
ATOM     23  S   UNL     1       4.247  -0.064  -5.663  1.00  0.00    -0.159 SA
ENDBRANCH  12  14
ENDBRANCH   6   7
ENDBRANCH   5   6
ENDBRANCH   3   5
ENDBRANCH   2   3
ENDBRANCH   1   2
BRANCH   1  24
ATOM     24  C   UNL     1       1.772   2.126   1.620  1.00  0.00     0.275 C 
BRANCH  24  25
ATOM     25  O   UNL     1       1.895   2.320   3.088  1.00  0.00    -0.458 OA
BRANCH  25  26
ATOM     26  C   UNL     1       3.074   2.717   3.697  1.00  0.00     0.338 C 
ATOM     27  O   UNL     1       4.185   2.554   3.297  1.00  0.00    -0.246 OA
BRANCH  26  28
ATOM     28  C   UNL     1       2.717   3.693   4.806  1.00  0.00     0.060 A 
ATOM     29  C   UNL     1       3.328   4.964   4.833  1.00  0.00     0.016 A 
ATOM     30  C   UNL     1       1.668   3.437   5.688  1.00  0.00     0.016 A 
ATOM     31  C   UNL     1       2.864   5.975   5.700  1.00  0.00     0.010 A 
ATOM     32  C   UNL     1       1.235   4.431   6.586  1.00  0.00     0.010 A 
ATOM     33  C   UNL     1       1.830   5.708   6.611  1.00  0.00    -0.014 A 
BRANCH  33  34
ATOM     34  C   UNL     1       1.591   6.615   7.779  1.00  0.00     0.031 A 
ATOM     35  C   UNL     1       2.413   6.350   9.019  1.00  0.00     0.074 A 
ATOM     36  C   UNL     1       0.691   7.620   7.804  1.00  0.00     0.049 A 
ATOM     37  N   UNL     1       2.394   6.948  10.184  1.00  0.00    -0.248 NA
ATOM     38  C   UNL     1       3.384   5.248   8.923  1.00  0.00     0.031 C 
ATOM     39  C   UNL     1      -0.158   8.046   6.696  1.00  0.00     0.029 A 
ATOM     40  N   UNL     1       0.344   8.474   8.833  1.00  0.00    -0.354 N 
ATOM     41  C   UNL     1       3.345   6.291  10.956  1.00  0.00     0.074 A 
ATOM     42  C   UNL     1       3.896   5.231  10.141  1.00  0.00     0.031 C 
ATOM     43  C   UNL     1      -0.929   9.075   7.103  1.00  0.00     0.029 A 
ATOM     44  C   UNL     1      -0.650   9.371   8.511  1.00  0.00     0.049 A 
ATOM     45  H   UNL     1       0.769   8.443   9.720  1.00  0.00     0.167 HD
ATOM     46  C   UNL     1       3.742   6.537  12.226  1.00  0.00     0.031 A 
ATOM     47  C   UNL     1      -1.266  10.313   9.260  1.00  0.00     0.031 A 
ATOM     48  C   UNL     1       3.192   7.559  13.072  1.00  0.00     0.049 A 
ATOM     49  C   UNL     1      -0.870  10.514  10.707  1.00  0.00     0.074 A 
ATOM     50  C   UNL     1       3.545   7.882  14.371  1.00  0.00     0.029 A 
ATOM     51  N   UNL     1       2.163   8.412  12.712  1.00  0.00    -0.354 N 
ATOM     52  N   UNL     1       0.065   9.916  11.405  1.00  0.00    -0.248 NA
ATOM     53  C   UNL     1      -1.613  11.536  11.466  1.00  0.00     0.031 C 
ATOM     54  C   UNL     1       2.686   8.890  14.820  1.00  0.00     0.029 A 
ATOM     55  C   UNL     1       1.849   9.243  13.774  1.00  0.00     0.049 A 
ATOM     56  H   UNL     1       1.722   8.427  11.832  1.00  0.00     0.167 HD
ATOM     57  C   UNL     1       0.052  10.521  12.661  1.00  0.00     0.074 A 
ATOM     58  C   UNL     1      -0.977  11.536  12.628  1.00  0.00     0.031 C 
ATOM     59  C   UNL     1       0.832  10.262  13.740  1.00  0.00     0.031 A 
BRANCH  46  60
ATOM     60  C   UNL     1       4.804   5.637  12.791  1.00  0.00    -0.014 A 
ATOM     61  C   UNL     1       6.130   5.693  12.330  1.00  0.00     0.009 A 
ATOM     62  C   UNL     1       4.471   4.718  13.797  1.00  0.00     0.009 A 
ATOM     63  C   UNL     1       7.090   4.814  12.835  1.00  0.00     0.001 A 
ATOM     64  C   UNL     1       5.441   3.864  14.324  1.00  0.00     0.001 A 
ATOM     65  C   UNL     1       6.745   3.905  13.834  1.00  0.00     0.000 A 
ENDBRANCH  46  60
BRANCH  47  66
ATOM     66  C   UNL     1      -2.343  11.169   8.680  1.00  0.00    -0.014 A 
ATOM     67  C   UNL     1      -2.148  12.551   8.512  1.00  0.00     0.009 A 
ATOM     68  C   UNL     1      -3.600  10.627   8.368  1.00  0.00     0.009 A 
ATOM     69  C   UNL     1      -3.193  13.372   8.078  1.00  0.00     0.001 A 
ATOM     70  C   UNL     1      -4.634  11.446   7.903  1.00  0.00     0.001 A 
ATOM     71  C   UNL     1      -4.434  12.819   7.769  1.00  0.00     0.000 A 
ENDBRANCH  47  66
BRANCH  59  72
ATOM     72  C   UNL     1       0.658  11.127  14.961  1.00  0.00    -0.014 A 
ATOM     73  C   UNL     1      -0.489  11.054  15.766  1.00  0.00     0.009 A 
ATOM     74  C   UNL     1       1.692  12.002  15.338  1.00  0.00     0.009 A 
ATOM     75  C   UNL     1      -0.615  11.868  16.896  1.00  0.00     0.001 A 
ATOM     76  C   UNL     1       1.579  12.789  16.486  1.00  0.00     0.001 A 
ATOM     77  C   UNL     1       0.420  12.730  17.258  1.00  0.00     0.000 A 
ENDBRANCH  59  72
ENDBRANCH  33  34
ENDBRANCH  26  28
ENDBRANCH  25  26
ENDBRANCH  24  25
ENDBRANCH   1  24
TORSDOF 14
