REMARK SMILES Cc1cc(O[C@@H](C)C(=O)NCCC(=O)OCCOC(=O)c2ccc(-c3c4nc(c(-c5ccccc5)c5ccc([nH]5)c(-c5ccccc5)c5nc(c(-c6ccccc6)c6ccc3[nH]6)C=C5)C=C4)cc2)c2c3c(c(=O)oc2c1)CCCC3
REMARK SMILES IDX 15 1 13 2 14 3 12 4 11 5 10 6 8 7 9 8 6 10 7 11 5 12 4 13
REMARK SMILES IDX 1 14 2 15 3 16 76 17 75 18 69 19 74 20 70 21 72 22 71 23
REMARK SMILES IDX 80 24 73 25 77 26 79 27 78 28 16 29 17 30 18 31 19 32 20 33
REMARK SMILES IDX 21 34 22 35 68 36 23 37 67 38 24 39 25 40 26 41 61 42 27 43
REMARK SMILES IDX 66 44 60 45 62 46 28 47 65 48 59 49 58 50 29 52 51 53 36 54
REMARK SMILES IDX 50 55 37 56 40 57 49 58 63 59 38 60 39 61 48 63 64 64 41 65
REMARK SMILES IDX 30 66 31 67 35 68 32 69 34 70 33 71 52 72 53 73 57 74 54 75
REMARK SMILES IDX 56 76 55 77 42 78 43 79 47 80 44 81 46 82 45 83
REMARK H PARENT 10 9 62 51 40 62
REMARK Flexibility Score: inf
ROOT
ATOM      1  O   UNL     1       2.715   0.422  -3.843  1.00  0.00    -0.462 OA
ENDROOT
BRANCH   1   2
ATOM      2  C   UNL     1       2.623  -0.609  -2.966  1.00  0.00     0.307 C 
ATOM      3  O   UNL     1       3.556  -1.047  -2.302  1.00  0.00    -0.252 OA
BRANCH   2   4
ATOM      4  C   UNL     1       1.234  -1.192  -2.900  1.00  0.00     0.144 C 
BRANCH   4   5
ATOM      5  C   UNL     1       0.115  -0.174  -3.098  1.00  0.00     0.127 C 
BRANCH   5   6
ATOM      6  N   UNL     1      -0.649  -0.446  -4.299  1.00  0.00    -0.352 N 
ATOM      7  C   UNL     1      -1.800  -1.133  -4.508  1.00  0.00     0.260 C 
ATOM      8  O   UNL     1      -2.172  -1.220  -5.686  1.00  0.00    -0.271 OA
ATOM      9  H   UNL     1      -0.260  -0.060  -5.117  1.00  0.00     0.163 HD
BRANCH   7  10
ATOM     10  C   UNL     1      -2.682  -1.723  -3.374  1.00  0.00     0.258 C 
ATOM     11  C   UNL     1      -3.533  -0.654  -2.697  1.00  0.00     0.064 C 
BRANCH  10  12
ATOM     12  O   UNL     1      -2.201  -2.810  -2.597  1.00  0.00    -0.480 OA
BRANCH  12  13
ATOM     13  C   UNL     1      -1.545  -2.803  -1.409  1.00  0.00     0.132 A 
ATOM     14  C   UNL     1      -0.608  -0.422   1.415  1.00  0.00     0.044 C 
ATOM     15  C   UNL     1      -0.694  -1.675   0.594  1.00  0.00    -0.044 A 
ATOM     16  C   UNL     1      -1.505  -1.701  -0.547  1.00  0.00     0.050 A 
ATOM     17  C   UNL     1       0.074  -2.792   0.888  1.00  0.00     0.051 A 
ATOM     18  C   UNL     1      -0.031  -3.926   0.082  1.00  0.00     0.142 A 
ATOM     19  C   UNL     1      -0.862  -3.991  -1.043  1.00  0.00     0.063 A 
ATOM     20  O   UNL     1       0.790  -4.999   0.470  1.00  0.00    -0.422 OA
ATOM     21  C   UNL     1      -0.974  -5.315  -1.715  1.00  0.00    -0.023 A 
ATOM     22  C   UNL     1       0.805  -6.192  -0.224  1.00  0.00     0.339 A 
ATOM     23  C   UNL     1      -0.185  -6.335  -1.318  1.00  0.00     0.042 A 
ATOM     24  C   UNL     1      -2.042  -5.539  -2.766  1.00  0.00     0.037 C 
ATOM     25  O   UNL     1       1.574  -7.097   0.081  1.00  0.00    -0.246 OA
ATOM     26  C   UNL     1      -0.249  -7.725  -1.906  1.00  0.00     0.043 C 
ATOM     27  C   UNL     1      -2.362  -7.011  -3.039  1.00  0.00     0.005 C 
ATOM     28  C   UNL     1      -1.088  -7.825  -3.176  1.00  0.00     0.005 C 
ENDBRANCH  12  13
ENDBRANCH  10  12
ENDBRANCH   7  10
ENDBRANCH   5   6
ENDBRANCH   4   5
ENDBRANCH   2   4
ENDBRANCH   1   2
BRANCH   1  29
ATOM     29  C   UNL     1       3.956   1.152  -3.844  1.00  0.00     0.274 C 
BRANCH  29  30
ATOM     30  C   UNL     1       3.887   2.357  -2.899  1.00  0.00     0.275 C 
BRANCH  30  31
ATOM     31  O   UNL     1       4.052   1.978  -1.517  1.00  0.00    -0.458 OA
BRANCH  31  32
ATOM     32  C   UNL     1       2.911   1.745  -0.828  1.00  0.00     0.338 C 
ATOM     33  O   UNL     1       1.767   1.816  -1.242  1.00  0.00    -0.246 OA
BRANCH  32  34
ATOM     34  C   UNL     1       3.231   1.274   0.529  1.00  0.00     0.060 A 
ATOM     35  C   UNL     1       3.817   2.121   1.468  1.00  0.00     0.016 A 
ATOM     36  C   UNL     1       2.829  -0.013   0.892  1.00  0.00     0.016 A 
ATOM     37  C   UNL     1       4.005   1.667   2.779  1.00  0.00     0.010 A 
ATOM     38  C   UNL     1       2.979  -0.446   2.210  1.00  0.00     0.010 A 
ATOM     39  C   UNL     1       3.577   0.383   3.168  1.00  0.00    -0.014 A 
BRANCH  39  40
ATOM     40  C   UNL     1       3.749  -0.083   4.572  1.00  0.00     0.031 A 
ATOM     41  C   UNL     1       4.661  -1.236   4.901  1.00  0.00     0.074 A 
ATOM     42  C   UNL     1       3.076   0.527   5.570  1.00  0.00     0.049 A 
ATOM     43  N   UNL     1       5.029  -1.682   6.078  1.00  0.00    -0.248 NA
ATOM     44  C   UNL     1       5.216  -2.000   3.772  1.00  0.00     0.031 C 
ATOM     45  C   UNL     1       2.097   1.600   5.397  1.00  0.00     0.029 A 
ATOM     46  N   UNL     1       3.135   0.347   6.931  1.00  0.00    -0.354 N 
ATOM     47  C   UNL     1       5.858  -2.769   5.829  1.00  0.00     0.074 A 
ATOM     48  C   UNL     1       5.886  -2.959   4.396  1.00  0.00     0.031 C 
ATOM     49  C   UNL     1       1.701   2.031   6.606  1.00  0.00     0.029 A 
ATOM     50  C   UNL     1       2.384   1.255   7.638  1.00  0.00     0.049 A 
ATOM     51  H   UNL     1       3.665  -0.364   7.359  1.00  0.00     0.167 HD
ATOM     52  C   UNL     1       6.564  -3.521   6.706  1.00  0.00     0.031 A 
ATOM     53  C   UNL     1       2.283   1.471   8.965  1.00  0.00     0.031 A 
ATOM     54  C   UNL     1       6.553  -3.337   8.131  1.00  0.00     0.049 A 
ATOM     55  C   UNL     1       3.097   0.644   9.922  1.00  0.00     0.074 A 
ATOM     56  C   UNL     1       7.284  -4.016   9.091  1.00  0.00     0.029 A 
ATOM     57  N   UNL     1       5.777  -2.407   8.801  1.00  0.00    -0.354 N 
ATOM     58  N   UNL     1       3.955  -0.311   9.663  1.00  0.00    -0.248 NA
ATOM     59  C   UNL     1       2.944   0.942  11.355  1.00  0.00     0.031 C 
ATOM     60  C   UNL     1       6.921  -3.522  10.347  1.00  0.00     0.029 A 
ATOM     61  C   UNL     1       6.002  -2.502  10.164  1.00  0.00     0.049 A 
ATOM     62  H   UNL     1       5.157  -1.773   8.373  1.00  0.00     0.167 HD
ATOM     63  C   UNL     1       4.462  -0.710  10.893  1.00  0.00     0.074 A 
ATOM     64  C   UNL     1       3.827   0.115  11.899  1.00  0.00     0.031 C 
ATOM     65  C   UNL     1       5.374  -1.675  11.160  1.00  0.00     0.031 A 
BRANCH  52  66
ATOM     66  C   UNL     1       7.446  -4.601   6.145  1.00  0.00    -0.014 A 
ATOM     67  C   UNL     1       7.141  -5.952   6.368  1.00  0.00     0.009 A 
ATOM     68  C   UNL     1       8.626  -4.274   5.457  1.00  0.00     0.009 A 
ATOM     69  C   UNL     1       8.001  -6.954   5.914  1.00  0.00     0.001 A 
ATOM     70  C   UNL     1       9.470  -5.278   4.981  1.00  0.00     0.001 A 
ATOM     71  C   UNL     1       9.161  -6.617   5.216  1.00  0.00     0.000 A 
ENDBRANCH  52  66
BRANCH  53  72
ATOM     72  C   UNL     1       1.440   2.588   9.465  1.00  0.00    -0.014 A 
ATOM     73  C   UNL     1       0.040   2.504   9.438  1.00  0.00     0.009 A 
ATOM     74  C   UNL     1       2.043   3.757   9.955  1.00  0.00     0.009 A 
ATOM     75  C   UNL     1      -0.740   3.574   9.884  1.00  0.00     0.001 A 
ATOM     76  C   UNL     1       1.260   4.815  10.422  1.00  0.00     0.001 A 
ATOM     77  C   UNL     1      -0.130   4.726  10.380  1.00  0.00     0.000 A 
ENDBRANCH  53  72
BRANCH  65  78
ATOM     78  C   UNL     1       5.771  -1.896  12.592  1.00  0.00    -0.014 A 
ATOM     79  C   UNL     1       7.061  -1.543  13.019  1.00  0.00     0.009 A 
ATOM     80  C   UNL     1       4.910  -2.543  13.491  1.00  0.00     0.009 A 
ATOM     81  C   UNL     1       7.487  -1.845  14.313  1.00  0.00     0.001 A 
ATOM     82  C   UNL     1       5.330  -2.822  14.793  1.00  0.00     0.001 A 
ATOM     83  C   UNL     1       6.620  -2.481  15.200  1.00  0.00     0.000 A 
ENDBRANCH  65  78
ENDBRANCH  39  40
ENDBRANCH  32  34
ENDBRANCH  31  32
ENDBRANCH  30  31
ENDBRANCH  29  30
ENDBRANCH   1  29
TORSDOF 16
