REMARK SMILES C[C@@H](CC(=O)OCCOC(=O)c1ccc(-c2c3nc(c(-c4ccccc4)c4ccc([nH]4)c(-c4ccccc4)c4nc(c(-c5ccccc5)c5ccc2[nH]5)C=C4)C=C3)cc1)NC(=O)[C@@H]1CCCN(C(N)=O)C1
REMARK SMILES IDX 7 1 6 2 4 3 5 4 3 5 2 6 1 7 60 8 61 9 62 11 63 12 64 13
REMARK SMILES IDX 71 14 65 15 67 16 66 17 68 18 69 19 70 20 8 23 9 24 10 25
REMARK SMILES IDX 11 26 12 27 13 28 59 29 14 30 58 31 15 32 16 33 17 34 52 35
REMARK SMILES IDX 18 36 57 37 51 38 53 39 19 40 56 41 50 42 49 43 20 45 42 46
REMARK SMILES IDX 27 47 41 48 28 49 31 50 40 51 54 52 29 53 30 54 39 56 55 57
REMARK SMILES IDX 32 58 21 59 22 60 26 61 23 62 25 63 24 64 43 65 44 66 48 67
REMARK SMILES IDX 45 68 47 69 46 70 33 71 34 72 38 73 35 74 37 75 36 76
REMARK H PARENT 60 10 69 21 69 22 53 44 31 55
REMARK Flexibility Score: inf
ROOT
ATOM      1  C   UNL     1       0.359  -4.023  -1.176  1.00  0.00     0.274 C 
ENDROOT
BRANCH   1   2
ATOM      2  O   UNL     1       0.839  -2.665  -1.103  1.00  0.00    -0.462 OA
BRANCH   2   3
ATOM      3  C   UNL     1       1.168  -2.072  -2.274  1.00  0.00     0.307 C 
ATOM      4  O   UNL     1       1.139  -2.632  -3.365  1.00  0.00    -0.252 OA
BRANCH   3   5
ATOM      5  C   UNL     1       1.692  -0.663  -2.117  1.00  0.00     0.147 C 
BRANCH   5   6
ATOM      6  C   UNL     1       1.076   0.302  -1.092  1.00  0.00     0.090 C 
ATOM      7  C   UNL     1       1.146  -0.203   0.349  1.00  0.00     0.031 C 
BRANCH   6   8
ATOM      8  N   UNL     1      -0.287   0.734  -1.392  1.00  0.00    -0.353 N 
ATOM      9  C   UNL     1      -0.893   1.959  -1.362  1.00  0.00     0.225 C 
ATOM     10  H   UNL     1      -0.884   0.002  -1.670  1.00  0.00     0.163 HD
ATOM     11  O   UNL     1      -2.108   1.981  -1.579  1.00  0.00    -0.275 OA
BRANCH   9  12
ATOM     12  C   UNL     1      -0.089   3.260  -1.197  1.00  0.00     0.098 C 
ATOM     13  C   UNL     1       0.770   3.372   0.062  1.00  0.00     0.017 C 
ATOM     14  C   UNL     1      -1.018   4.502  -1.288  1.00  0.00     0.134 C 
ATOM     15  C   UNL     1      -0.101   3.522   1.294  1.00  0.00     0.022 C 
ATOM     16  N   UNL     1      -1.637   4.958  -0.024  1.00  0.00    -0.324 N 
ATOM     17  C   UNL     1      -0.866   4.826   1.208  1.00  0.00     0.121 C 
BRANCH  16  18
ATOM     18  C   UNL     1      -2.724   5.808   0.057  1.00  0.00     0.314 C 
ATOM     19  N   UNL     1      -3.347   6.135  -1.093  1.00  0.00    -0.351 N 
ATOM     20  O   UNL     1      -3.127   6.316   1.101  1.00  0.00    -0.249 OA
ATOM     21  H   UNL     1      -3.047   5.744  -1.945  1.00  0.00     0.161 HD
ATOM     22  H   UNL     1      -4.103   6.766  -1.081  1.00  0.00     0.161 HD
ENDBRANCH  16  18
ENDBRANCH   9  12
ENDBRANCH   6   8
ENDBRANCH   5   6
ENDBRANCH   3   5
ENDBRANCH   2   3
ENDBRANCH   1   2
BRANCH   1  23
ATOM     23  C   UNL     1      -1.172  -4.091  -1.160  1.00  0.00     0.275 C 
BRANCH  23  24
ATOM     24  O   UNL     1      -1.748  -3.597  -2.384  1.00  0.00    -0.458 OA
BRANCH  24  25
ATOM     25  C   UNL     1      -2.026  -2.272  -2.387  1.00  0.00     0.338 C 
ATOM     26  O   UNL     1      -1.869  -1.488  -1.467  1.00  0.00    -0.246 OA
BRANCH  25  27
ATOM     27  C   UNL     1      -2.376  -1.839  -3.746  1.00  0.00     0.060 A 
ATOM     28  C   UNL     1      -1.494  -0.981  -4.409  1.00  0.00     0.016 A 
ATOM     29  C   UNL     1      -3.575  -2.224  -4.343  1.00  0.00     0.016 A 
ATOM     30  C   UNL     1      -1.787  -0.525  -5.688  1.00  0.00     0.010 A 
ATOM     31  C   UNL     1      -3.871  -1.766  -5.630  1.00  0.00     0.010 A 
ATOM     32  C   UNL     1      -2.974  -0.923  -6.311  1.00  0.00    -0.014 A 
BRANCH  32  33
ATOM     33  C   UNL     1      -3.269  -0.466  -7.685  1.00  0.00     0.031 A 
ATOM     34  C   UNL     1      -4.309   0.586  -7.921  1.00  0.00     0.074 A 
ATOM     35  C   UNL     1      -2.593  -0.999  -8.718  1.00  0.00     0.049 A 
ATOM     36  N   UNL     1      -4.799   1.019  -9.053  1.00  0.00    -0.248 NA
ATOM     37  C   UNL     1      -4.869   1.237  -6.727  1.00  0.00     0.031 C 
ATOM     38  C   UNL     1      -1.507  -1.975  -8.606  1.00  0.00     0.029 A 
ATOM     39  N   UNL     1      -2.724  -0.796 -10.068  1.00  0.00    -0.354 N 
ATOM     40  C   UNL     1      -5.743   1.978  -8.711  1.00  0.00     0.074 A 
ATOM     41  C   UNL     1      -5.761   2.058  -7.265  1.00  0.00     0.031 C 
ATOM     42  C   UNL     1      -1.070  -2.285  -9.837  1.00  0.00     0.029 A 
ATOM     43  C   UNL     1      -1.884  -1.578 -10.821  1.00  0.00     0.049 A 
ATOM     44  H   UNL     1      -3.358  -0.152 -10.459  1.00  0.00     0.167 HD
ATOM     45  C   UNL     1      -6.526   2.717  -9.532  1.00  0.00     0.031 A 
ATOM     46  C   UNL     1      -1.807  -1.738 -12.155  1.00  0.00     0.031 A 
ATOM     47  C   UNL     1      -6.509   2.625 -10.968  1.00  0.00     0.049 A 
ATOM     48  C   UNL     1      -2.760  -0.985 -13.037  1.00  0.00     0.074 A 
ATOM     49  C   UNL     1      -7.269   3.327 -11.887  1.00  0.00     0.029 A 
ATOM     50  N   UNL     1      -5.689   1.774 -11.692  1.00  0.00    -0.354 N 
ATOM     51  N   UNL     1      -3.673  -0.105 -12.705  1.00  0.00    -0.248 NA
ATOM     52  C   UNL     1      -2.683  -1.260 -14.479  1.00  0.00     0.031 C 
ATOM     53  C   UNL     1      -6.940   2.867 -13.168  1.00  0.00     0.029 A 
ATOM     54  C   UNL     1      -5.941   1.913 -13.047  1.00  0.00     0.049 A 
ATOM     55  H   UNL     1      -5.026   1.160 -11.302  1.00  0.00     0.167 HD
ATOM     56  C   UNL     1      -4.267   0.291 -13.894  1.00  0.00     0.074 A 
ATOM     57  C   UNL     1      -3.603  -0.434 -14.958  1.00  0.00     0.031 C 
ATOM     58  C   UNL     1      -5.274   1.177 -14.088  1.00  0.00     0.031 A 
BRANCH  45  59
ATOM     59  C   UNL     1      -7.504   3.655  -8.886  1.00  0.00    -0.014 A 
ATOM     60  C   UNL     1      -7.082   4.853  -8.288  1.00  0.00     0.009 A 
ATOM     61  C   UNL     1      -8.872   3.344  -8.894  1.00  0.00     0.009 A 
ATOM     62  C   UNL     1      -8.009   5.705  -7.685  1.00  0.00     0.001 A 
ATOM     63  C   UNL     1      -9.800   4.208  -8.310  1.00  0.00     0.001 A 
ATOM     64  C   UNL     1      -9.367   5.383  -7.699  1.00  0.00     0.000 A 
ENDBRANCH  45  59
BRANCH  46  65
ATOM     65  C   UNL     1      -0.823  -2.689 -12.732  1.00  0.00    -0.014 A 
ATOM     66  C   UNL     1       0.289  -2.217 -13.443  1.00  0.00     0.009 A 
ATOM     67  C   UNL     1      -0.991  -4.073 -12.569  1.00  0.00     0.009 A 
ATOM     68  C   UNL     1       1.207  -3.115 -13.993  1.00  0.00     0.001 A 
ATOM     69  C   UNL     1      -0.059  -4.967 -13.098  1.00  0.00     0.001 A 
ATOM     70  C   UNL     1       1.036  -4.487 -13.815  1.00  0.00     0.000 A 
ENDBRANCH  46  65
BRANCH  58  71
ATOM     71  C   UNL     1      -5.695   1.428 -15.507  1.00  0.00    -0.014 A 
ATOM     72  C   UNL     1      -6.471   0.493 -16.209  1.00  0.00     0.009 A 
ATOM     73  C   UNL     1      -5.338   2.631 -16.136  1.00  0.00     0.009 A 
ATOM     74  C   UNL     1      -6.859   0.748 -17.526  1.00  0.00     0.001 A 
ATOM     75  C   UNL     1      -5.746   2.892 -17.444  1.00  0.00     0.001 A 
ATOM     76  C   UNL     1      -6.500   1.948 -18.140  1.00  0.00     0.000 A 
ENDBRANCH  58  71
ENDBRANCH  32  33
ENDBRANCH  25  27
ENDBRANCH  24  25
ENDBRANCH  23  24
ENDBRANCH   1  23
TORSDOF 15
