REMARK SMILES C=CCN1C(=O)/C(=C/c2ccccn2)S/C1=[NH+]\c1ccc(C(=O)OCCOC(=O)c2ccc(-c3c4nc(c(-c5ccccc5)c5ccc([nH]5)c(-c5ccccc5)c5nc(c(-c6ccccc6)c6ccc3[nH]6)C=C5)C=C4)cc2)cc1
REMARK SMILES IDX 25 1 24 2 22 3 23 4 21 5 18 6 19 7 79 8 20 9 78 10 17 11
REMARK SMILES IDX 4 12 5 13 16 14 6 15 7 16 15 17 8 18 3 20 2 21 1 22 9 23
REMARK SMILES IDX 10 24 14 25 11 26 13 27 12 28 26 29 27 30 28 31 29 32 30 33
REMARK SMILES IDX 31 34 77 35 32 36 76 37 33 38 34 39 35 40 70 41 36 42 75 43
REMARK SMILES IDX 69 44 71 45 37 46 74 47 68 48 67 49 38 51 60 52 45 53 59 54
REMARK SMILES IDX 46 55 49 56 58 57 72 58 47 59 48 60 57 62 73 63 50 64 39 65
REMARK SMILES IDX 40 66 44 67 41 68 43 69 42 70 61 71 62 72 66 73 63 74 65 75
REMARK SMILES IDX 64 76 51 77 52 78 56 79 53 80 55 81 54 82
REMARK H PARENT 17 19 71 50 49 61
REMARK Flexibility Score: inf
ROOT
ATOM      1  C   UNL     1      -3.977  -8.196   5.282  1.00  0.00     0.275 C 
ENDROOT
BRANCH   1   2
ATOM      2  O   UNL     1      -3.872  -6.933   4.594  1.00  0.00    -0.458 OA
BRANCH   2   3
ATOM      3  C   UNL     1      -2.661  -6.331   4.667  1.00  0.00     0.338 C 
ATOM      4  O   UNL     1      -1.681  -6.742   5.270  1.00  0.00    -0.246 OA
BRANCH   3   5
ATOM      5  C   UNL     1      -2.619  -5.107   3.830  1.00  0.00     0.060 A 
ATOM      6  C   UNL     1      -2.373  -2.726   2.373  1.00  0.00     0.125 A 
ATOM      7  C   UNL     1      -1.260  -3.539   2.575  1.00  0.00     0.052 A 
ATOM      8  C   UNL     1      -3.627  -3.143   2.841  1.00  0.00     0.052 A 
ATOM      9  C   UNL     1      -1.374  -4.702   3.328  1.00  0.00     0.020 A 
ATOM     10  C   UNL     1      -3.753  -4.332   3.571  1.00  0.00     0.020 A 
BRANCH   6  11
ATOM     11  N   UNL     1      -2.175  -1.473   1.778  1.00  0.00    -0.234 N 
ATOM     12  N   UNL     1      -1.761   0.816   2.089  1.00  0.00    -0.182 N 
ATOM     13  C   UNL     1      -1.816   1.845   3.008  1.00  0.00     0.349 C 
ATOM     14  C   UNL     1      -2.055  -0.440   2.550  1.00  0.00     0.324 C 
ATOM     15  O   UNL     1      -1.608   3.030   2.785  1.00  0.00    -0.240 OA
ATOM     16  C   UNL     1      -2.148   1.306   4.355  1.00  0.00     0.111 C 
ATOM     17  S   UNL     1      -2.224  -0.407   4.295  1.00  0.00     0.007 SA
ATOM     18  C   UNL     1      -2.381   2.086   5.418  1.00  0.00     0.052 C 
ATOM     19  H   UNL     1      -2.127  -1.381   0.799  1.00  0.00     0.313 HD
BRANCH  12  20
ATOM     20  C   UNL     1      -1.353   1.063   0.721  1.00  0.00     0.275 C 
BRANCH  20  21
ATOM     21  C   UNL     1       0.151   0.985   0.657  1.00  0.00     0.011 C 
ATOM     22  C   UNL     1       0.843   0.022   0.032  1.00  0.00     0.008 C 
ENDBRANCH  20  21
ENDBRANCH  12  20
BRANCH  18  23
ATOM     23  C   UNL     1      -2.718   1.595   6.753  1.00  0.00     0.064 A 
ATOM     24  C   UNL     1      -1.817   0.845   7.505  1.00  0.00     0.028 A 
ATOM     25  N   UNL     1      -3.948   1.930   7.199  1.00  0.00    -0.257 NA
ATOM     26  C   UNL     1      -2.209   0.389   8.760  1.00  0.00     0.004 A 
ATOM     27  C   UNL     1      -4.303   1.468   8.419  1.00  0.00     0.111 A 
ATOM     28  C   UNL     1      -3.480   0.701   9.227  1.00  0.00     0.020 A 
ENDBRANCH  18  23
ENDBRANCH   6  11
ENDBRANCH   3   5
ENDBRANCH   2   3
ENDBRANCH   1   2
BRANCH   1  29
ATOM     29  C   UNL     1      -3.842  -9.363   4.306  1.00  0.00     0.275 C 
BRANCH  29  30
ATOM     30  O   UNL     1      -2.518  -9.387   3.740  1.00  0.00    -0.458 OA
BRANCH  30  31
ATOM     31  C   UNL     1      -2.450  -9.225   2.399  1.00  0.00     0.338 C 
ATOM     32  O   UNL     1      -3.373  -9.114   1.612  1.00  0.00    -0.246 OA
BRANCH  31  33
ATOM     33  C   UNL     1      -1.041  -9.170   1.976  1.00  0.00     0.060 A 
ATOM     34  C   UNL     1      -0.266  -8.074   2.343  1.00  0.00     0.016 A 
ATOM     35  C   UNL     1      -0.533 -10.120   1.093  1.00  0.00     0.016 A 
ATOM     36  C   UNL     1       0.981  -7.867   1.758  1.00  0.00     0.010 A 
ATOM     37  C   UNL     1       0.762  -9.962   0.582  1.00  0.00     0.010 A 
ATOM     38  C   UNL     1       1.520  -8.812   0.874  1.00  0.00    -0.014 A 
BRANCH  38  39
ATOM     39  C   UNL     1       2.839  -8.575   0.218  1.00  0.00     0.031 A 
ATOM     40  C   UNL     1       2.945  -8.546  -1.287  1.00  0.00     0.074 A 
ATOM     41  C   UNL     1       3.950  -8.363   0.954  1.00  0.00     0.049 A 
ATOM     42  N   UNL     1       4.015  -8.531  -2.043  1.00  0.00    -0.248 NA
ATOM     43  C   UNL     1       1.681  -8.547  -2.041  1.00  0.00     0.031 C 
ATOM     44  C   UNL     1       4.005  -8.301   2.416  1.00  0.00     0.029 A 
ATOM     45  N   UNL     1       5.251  -8.147   0.567  1.00  0.00    -0.354 N 
ATOM     46  C   UNL     1       3.556  -8.586  -3.355  1.00  0.00     0.074 A 
ATOM     47  C   UNL     1       2.111  -8.635  -3.292  1.00  0.00     0.031 C 
ATOM     48  C   UNL     1       5.259  -8.016   2.798  1.00  0.00     0.029 A 
ATOM     49  C   UNL     1       6.116  -7.968   1.619  1.00  0.00     0.049 A 
ATOM     50  H   UNL     1       5.536  -8.123  -0.376  1.00  0.00     0.167 HD
ATOM     51  C   UNL     1       4.270  -8.598  -4.507  1.00  0.00     0.031 A 
ATOM     52  C   UNL     1       7.455  -7.824   1.645  1.00  0.00     0.031 A 
ATOM     53  C   UNL     1       5.704  -8.500  -4.578  1.00  0.00     0.049 A 
ATOM     54  C   UNL     1       8.229  -7.881   0.360  1.00  0.00     0.074 A 
ATOM     55  C   UNL     1       6.515  -8.497  -5.701  1.00  0.00     0.029 A 
ATOM     56  N   UNL     1       6.540  -8.366  -3.482  1.00  0.00    -0.354 N 
ATOM     57  N   UNL     1       7.785  -8.005  -0.866  1.00  0.00    -0.248 NA
ATOM     58  C   UNL     1       9.693  -7.801   0.468  1.00  0.00     0.031 C 
ATOM     59  C   UNL     1       7.846  -8.398  -5.281  1.00  0.00     0.029 A 
ATOM     60  C   UNL     1       7.859  -8.292  -3.900  1.00  0.00     0.049 A 
ATOM     61  H   UNL     1       6.242  -8.329  -2.544  1.00  0.00     0.167 HD
ATOM     62  C   UNL     1       8.912  -8.009  -1.677  1.00  0.00     0.074 A 
ATOM     63  C   UNL     1      10.058  -7.852  -0.806  1.00  0.00     0.031 C 
ATOM     64  C   UNL     1       8.989  -8.138  -3.023  1.00  0.00     0.031 A 
BRANCH  51  65
ATOM     65  C   UNL     1       3.508  -8.768  -5.792  1.00  0.00    -0.014 A 
ATOM     66  C   UNL     1       2.735  -7.730  -6.334  1.00  0.00     0.009 A 
ATOM     67  C   UNL     1       3.596  -9.984  -6.489  1.00  0.00     0.009 A 
ATOM     68  C   UNL     1       2.038  -7.919  -7.530  1.00  0.00     0.001 A 
ATOM     69  C   UNL     1       2.921 -10.161  -7.698  1.00  0.00     0.001 A 
ATOM     70  C   UNL     1       2.134  -9.132  -8.213  1.00  0.00     0.000 A 
ENDBRANCH  51  65
BRANCH  52  71
ATOM     71  C   UNL     1       8.158  -7.663   2.945  1.00  0.00    -0.014 A 
ATOM     72  C   UNL     1       8.756  -6.441   3.286  1.00  0.00     0.009 A 
ATOM     73  C   UNL     1       8.230  -8.731   3.853  1.00  0.00     0.009 A 
ATOM     74  C   UNL     1       9.423  -6.296   4.505  1.00  0.00     0.001 A 
ATOM     75  C   UNL     1       8.870  -8.575   5.084  1.00  0.00     0.001 A 
ATOM     76  C   UNL     1       9.473  -7.360   5.405  1.00  0.00     0.000 A 
ENDBRANCH  52  71
BRANCH  64  77
ATOM     77  C   UNL     1      10.359  -8.082  -3.636  1.00  0.00    -0.014 A 
ATOM     78  C   UNL     1      11.245  -9.165  -3.533  1.00  0.00     0.009 A 
ATOM     79  C   UNL     1      10.757  -6.939  -4.346  1.00  0.00     0.009 A 
ATOM     80  C   UNL     1      12.518  -9.091  -4.103  1.00  0.00     0.001 A 
ATOM     81  C   UNL     1      12.021  -6.877  -4.935  1.00  0.00     0.001 A 
ATOM     82  C   UNL     1      12.903  -7.949  -4.805  1.00  0.00     0.000 A 
ENDBRANCH  64  77
ENDBRANCH  38  39
ENDBRANCH  31  33
ENDBRANCH  30  31
ENDBRANCH  29  30
ENDBRANCH   1  29
TORSDOF 15
