REMARK SMILES CC[C@](C)(NC(=O)NC[C@H]1COCCO1)C(=O)OCCOC(=O)c1ccc(-c2c3nc(c(-c4ccccc4)c4ccc([nH]4)c(-c4ccccc4)c4nc(c(-c5ccccc5)c5ccc2[nH]5)C=C4)C=C3)cc1
REMARK SMILES IDX 19 1 18 2 16 3 17 4 3 5 4 6 2 7 1 8 5 9 6 10 7 12 8 13 9 15
REMARK SMILES IDX 10 16 11 17 15 18 12 19 14 20 13 21 20 22 21 23 22 24 23 25
REMARK SMILES IDX 24 26 25 27 71 28 26 29 70 30 27 31 28 32 29 33 64 34 30 35
REMARK SMILES IDX 69 36 63 37 65 38 31 39 68 40 62 41 61 42 32 44 54 45 39 46
REMARK SMILES IDX 53 47 40 48 43 49 52 50 66 51 41 52 42 53 51 55 67 56 44 57
REMARK SMILES IDX 33 58 34 59 38 60 35 61 37 62 36 63 55 64 56 65 60 66 57 67
REMARK SMILES IDX 59 68 58 69 45 70 46 71 50 72 47 73 49 74 48 75
REMARK H PARENT 5 11 8 14 65 43 43 54
REMARK Flexibility Score: inf
ROOT
ATOM      1  C   UNL     1       3.830  -1.677   0.427  1.00  0.00     0.274 C 
ENDROOT
BRANCH   1   2
ATOM      2  O   UNL     1       3.944  -2.613   1.524  1.00  0.00    -0.460 OA
BRANCH   2   3
ATOM      3  C   UNL     1       5.169  -2.683   2.115  1.00  0.00     0.331 C 
ATOM      4  O   UNL     1       6.072  -1.888   1.868  1.00  0.00    -0.249 OA
BRANCH   3   5
ATOM      5  C   UNL     1       5.297  -3.844   3.159  1.00  0.00     0.136 C 
ATOM      6  C   UNL     1       5.336  -3.118   4.537  1.00  0.00     0.047 C 
BRANCH   5   7
ATOM      7  C   UNL     1       6.705  -4.494   2.968  1.00  0.00     0.037 C 
ATOM      8  C   UNL     1       6.807  -5.999   3.127  1.00  0.00     0.007 C 
ENDBRANCH   5   7
BRANCH   5   9
ATOM      9  N   UNL     1       4.172  -4.825   3.284  1.00  0.00    -0.322 N 
ATOM     10  C   UNL     1       3.611  -5.832   2.605  1.00  0.00     0.315 C 
ATOM     11  H   UNL     1       3.696  -4.685   4.135  1.00  0.00     0.166 HD
ATOM     12  O   UNL     1       2.932  -6.633   3.254  1.00  0.00    -0.249 OA
ATOM     13  N   UNL     1       3.740  -6.037   1.291  1.00  0.00    -0.335 N 
ATOM     14  H   UNL     1       3.487  -6.936   0.978  1.00  0.00     0.165 HD
BRANCH  13  15
ATOM     15  C   UNL     1       4.192  -5.137   0.272  1.00  0.00     0.152 C 
BRANCH  15  16
ATOM     16  C   UNL     1       4.550  -5.703  -1.113  1.00  0.00     0.163 C 
ATOM     17  C   UNL     1       5.820  -4.999  -1.616  1.00  0.00     0.194 C 
ATOM     18  O   UNL     1       4.718  -7.126  -1.161  1.00  0.00    -0.372 OA
ATOM     19  O   UNL     1       6.931  -5.357  -0.781  1.00  0.00    -0.376 OA
ATOM     20  C   UNL     1       5.891  -7.571  -0.473  1.00  0.00     0.189 C 
ATOM     21  C   UNL     1       7.145  -6.773  -0.841  1.00  0.00     0.188 C 
ENDBRANCH  15  16
ENDBRANCH  13  15
ENDBRANCH   5   9
ENDBRANCH   3   5
ENDBRANCH   2   3
ENDBRANCH   1   2
BRANCH   1  22
ATOM     22  C   UNL     1       2.358  -1.525   0.024  1.00  0.00     0.275 C 
BRANCH  22  23
ATOM     23  O   UNL     1       1.712  -0.669   0.980  1.00  0.00    -0.458 OA
BRANCH  23  24
ATOM     24  C   UNL     1       1.250  -1.308   2.082  1.00  0.00     0.338 C 
ATOM     25  O   UNL     1       0.938  -2.475   2.202  1.00  0.00    -0.246 OA
BRANCH  24  26
ATOM     26  C   UNL     1       1.567  -0.412   3.200  1.00  0.00     0.060 A 
ATOM     27  C   UNL     1       2.791  -0.629   3.833  1.00  0.00     0.016 A 
ATOM     28  C   UNL     1       0.747   0.641   3.575  1.00  0.00     0.016 A 
ATOM     29  C   UNL     1       3.226   0.197   4.851  1.00  0.00     0.010 A 
ATOM     30  C   UNL     1       1.187   1.490   4.593  1.00  0.00     0.010 A 
ATOM     31  C   UNL     1       2.428   1.272   5.229  1.00  0.00    -0.014 A 
BRANCH  31  32
ATOM     32  C   UNL     1       2.846   2.126   6.356  1.00  0.00     0.031 A 
ATOM     33  C   UNL     1       2.038   2.079   7.612  1.00  0.00     0.074 A 
ATOM     34  C   UNL     1       3.925   2.922   6.250  1.00  0.00     0.049 A 
ATOM     35  N   UNL     1       1.997   2.930   8.599  1.00  0.00    -0.248 NA
ATOM     36  C   UNL     1       1.134   0.926   7.762  1.00  0.00     0.031 C 
ATOM     37  C   UNL     1       4.853   2.958   5.116  1.00  0.00     0.029 A 
ATOM     38  N   UNL     1       4.416   3.866   7.112  1.00  0.00    -0.354 N 
ATOM     39  C   UNL     1       1.004   2.461   9.448  1.00  0.00     0.074 A 
ATOM     40  C   UNL     1       0.488   1.237   8.876  1.00  0.00     0.031 C 
ATOM     41  C   UNL     1       5.798   3.882   5.353  1.00  0.00     0.029 A 
ATOM     42  C   UNL     1       5.488   4.560   6.605  1.00  0.00     0.049 A 
ATOM     43  H   UNL     1       4.038   4.032   8.006  1.00  0.00     0.167 HD
ATOM     44  C   UNL     1       0.554   3.030  10.588  1.00  0.00     0.031 A 
ATOM     45  C   UNL     1       6.102   5.662   7.072  1.00  0.00     0.031 A 
ATOM     46  C   UNL     1       1.115   4.232  11.142  1.00  0.00     0.049 A 
ATOM     47  C   UNL     1       5.565   6.298   8.324  1.00  0.00     0.074 A 
ATOM     48  C   UNL     1       0.738   4.923  12.278  1.00  0.00     0.029 A 
ATOM     49  N   UNL     1       2.198   4.909  10.597  1.00  0.00    -0.354 N 
ATOM     50  N   UNL     1       4.558   5.916   9.076  1.00  0.00    -0.248 NA
ATOM     51  C   UNL     1       6.228   7.526   8.779  1.00  0.00     0.031 C 
ATOM     52  C   UNL     1       1.578   6.036  12.405  1.00  0.00     0.029 A 
ATOM     53  C   UNL     1       2.503   6.012  11.372  1.00  0.00     0.049 A 
ATOM     54  H   UNL     1       2.677   4.642   9.780  1.00  0.00     0.167 HD
ATOM     55  C   UNL     1       4.471   6.852  10.096  1.00  0.00     0.074 A 
ATOM     56  C   UNL     1       5.543   7.805   9.879  1.00  0.00     0.031 C 
ATOM     57  C   UNL     1       3.582   6.930  11.116  1.00  0.00     0.031 A 
BRANCH  44  58
ATOM     58  C   UNL     1      -0.635   2.399  11.251  1.00  0.00    -0.014 A 
ATOM     59  C   UNL     1      -0.539   1.181  11.939  1.00  0.00     0.009 A 
ATOM     60  C   UNL     1      -1.881   3.041  11.177  1.00  0.00     0.009 A 
ATOM     61  C   UNL     1      -1.675   0.603  12.512  1.00  0.00     0.001 A 
ATOM     62  C   UNL     1      -3.010   2.475  11.772  1.00  0.00     0.001 A 
ATOM     63  C   UNL     1      -2.908   1.252  12.431  1.00  0.00     0.000 A 
ENDBRANCH  44  58
BRANCH  45  64
ATOM     64  C   UNL     1       7.226   6.273   6.315  1.00  0.00    -0.014 A 
ATOM     65  C   UNL     1       8.531   6.254   6.829  1.00  0.00     0.009 A 
ATOM     66  C   UNL     1       7.001   6.876   5.066  1.00  0.00     0.009 A 
ATOM     67  C   UNL     1       9.582   6.837   6.116  1.00  0.00     0.001 A 
ATOM     68  C   UNL     1       8.059   7.431   4.342  1.00  0.00     0.001 A 
ATOM     69  C   UNL     1       9.347   7.418   4.871  1.00  0.00     0.000 A 
ENDBRANCH  45  64
BRANCH  57  70
ATOM     70  C   UNL     1       3.766   8.063  12.081  1.00  0.00    -0.014 A 
ATOM     71  C   UNL     1       3.382   9.369  11.743  1.00  0.00     0.009 A 
ATOM     72  C   UNL     1       4.297   7.808  13.354  1.00  0.00     0.009 A 
ATOM     73  C   UNL     1       3.557  10.408  12.657  1.00  0.00     0.001 A 
ATOM     74  C   UNL     1       4.449   8.845  14.273  1.00  0.00     0.001 A 
ATOM     75  C   UNL     1       4.086  10.145  13.921  1.00  0.00     0.000 A 
ENDBRANCH  57  70
ENDBRANCH  31  32
ENDBRANCH  24  26
ENDBRANCH  23  24
ENDBRANCH  22  23
ENDBRANCH   1  22
TORSDOF 15
