REMARK SMILES O=C(CN1C(=O)N/C(=C/c2cc3c(cc2Cl)OCO3)C1=O)OCCOC(=O)c1ccc(-c2c3nc(c(-c4ccccc4)c4ccc([nH]4)c(-c4ccccc4)c4nc(c(-c5ccccc5)c5ccc2[nH]5)C=C4)C=C3)cc1
REMARK SMILES IDX 23 1 22 2 2 3 1 4 3 5 4 6 5 7 20 8 6 9 7 10 8 11 21 12 9 14
REMARK SMILES IDX 10 15 11 16 15 17 12 18 14 19 16 20 13 21 19 22 17 23 18 24
REMARK SMILES IDX 24 25 25 26 26 27 27 28 28 29 29 30 75 31 30 32 74 33 31 34
REMARK SMILES IDX 32 35 33 36 68 37 34 38 73 39 67 40 69 41 35 42 72 43 66 44
REMARK SMILES IDX 65 45 36 47 58 48 43 49 57 50 44 51 47 52 56 53 70 54 45 55
REMARK SMILES IDX 46 56 55 58 71 59 48 60 37 61 38 62 42 63 39 64 41 65 40 66
REMARK SMILES IDX 59 67 60 68 64 69 61 70 63 71 62 72 49 73 50 74 54 75 51 76
REMARK SMILES IDX 53 77 52 78
REMARK H PARENT 7 13 69 46 47 57
REMARK Flexibility Score: inf
ROOT
ATOM      1  C   UNL     1       4.178  -1.600   0.382  1.00  0.00     0.274 C 
ENDROOT
BRANCH   1   2
ATOM      2  O   UNL     1       2.962  -0.893   0.690  1.00  0.00    -0.461 OA
BRANCH   2   3
ATOM      3  C   UNL     1       2.913   0.464   0.695  1.00  0.00     0.326 C 
ATOM      4  O   UNL     1       2.117   1.054   1.423  1.00  0.00    -0.250 OA
BRANCH   3   5
ATOM      5  C   UNL     1       3.779   1.201  -0.317  1.00  0.00     0.253 C 
BRANCH   5   6
ATOM      6  N   UNL     1       4.384   2.349   0.294  1.00  0.00    -0.247 N 
ATOM      7  C   UNL     1       5.493   2.301   1.102  1.00  0.00     0.329 C 
ATOM      8  C   UNL     1       3.979   3.632   0.074  1.00  0.00     0.279 C 
ATOM      9  O   UNL     1       6.120   1.305   1.421  1.00  0.00    -0.248 OA
ATOM     10  N   UNL     1       5.788   3.598   1.488  1.00  0.00    -0.303 N 
ATOM     11  C   UNL     1       4.870   4.457   0.956  1.00  0.00     0.109 C 
ATOM     12  O   UNL     1       3.162   4.032  -0.742  1.00  0.00    -0.267 OA
ATOM     13  H   UNL     1       6.545   3.860   2.060  1.00  0.00     0.172 HD
ATOM     14  C   UNL     1       4.771   5.760   1.233  1.00  0.00     0.042 C 
BRANCH  14  15
ATOM     15  C   UNL     1       3.650   6.572   0.742  1.00  0.00    -0.001 A 
ATOM     16  C   UNL     1       3.925   7.572  -0.201  1.00  0.00     0.060 A 
ATOM     17  C   UNL     1       2.305   6.339   1.150  1.00  0.00     0.052 A 
ATOM     18  C   UNL     1       2.857   8.269  -0.721  1.00  0.00     0.166 A 
ATOM     19  C   UNL     1       1.247   7.053   0.589  1.00  0.00     0.071 A 
ATOM     20  Cl  UNL     1       1.907   5.173   2.368  1.00  0.00    -0.084 Cl
ATOM     21  C   UNL     1       1.559   8.012  -0.342  1.00  0.00     0.167 A 
ATOM     22  O   UNL     1       2.932   9.257  -1.649  1.00  0.00    -0.454 OA
ATOM     23  O   UNL     1       0.662   8.812  -0.975  1.00  0.00    -0.454 OA
ATOM     24  C   UNL     1       1.531   9.515  -1.880  1.00  0.00     0.468 C 
ENDBRANCH  14  15
ENDBRANCH   5   6
ENDBRANCH   3   5
ENDBRANCH   2   3
ENDBRANCH   1   2
BRANCH   1  25
ATOM     25  C   UNL     1       4.142  -2.240  -1.009  1.00  0.00     0.275 C 
BRANCH  25  26
ATOM     26  O   UNL     1       3.817  -1.280  -2.034  1.00  0.00    -0.458 OA
BRANCH  26  27
ATOM     27  C   UNL     1       2.507  -1.229  -2.394  1.00  0.00     0.338 C 
ATOM     28  O   UNL     1       1.614  -1.951  -1.988  1.00  0.00    -0.246 OA
BRANCH  27  29
ATOM     29  C   UNL     1       2.267  -0.038  -3.246  1.00  0.00     0.060 A 
ATOM     30  C   UNL     1       1.100   0.707  -3.028  1.00  0.00     0.016 A 
ATOM     31  C   UNL     1       3.176   0.365  -4.229  1.00  0.00     0.016 A 
ATOM     32  C   UNL     1       0.834   1.846  -3.797  1.00  0.00     0.010 A 
ATOM     33  C   UNL     1       2.899   1.497  -5.008  1.00  0.00     0.010 A 
ATOM     34  C   UNL     1       1.720   2.237  -4.809  1.00  0.00    -0.014 A 
BRANCH  34  35
ATOM     35  C   UNL     1       1.371   3.339  -5.745  1.00  0.00     0.031 A 
ATOM     36  C   UNL     1       0.690   3.002  -7.046  1.00  0.00     0.074 A 
ATOM     37  C   UNL     1       1.705   4.617  -5.481  1.00  0.00     0.049 A 
ATOM     38  N   UNL     1       0.346   3.793  -8.032  1.00  0.00    -0.248 NA
ATOM     39  C   UNL     1       0.361   1.584  -7.271  1.00  0.00     0.031 C 
ATOM     40  C   UNL     1       2.359   5.091  -4.263  1.00  0.00     0.029 A 
ATOM     41  N   UNL     1       1.560   5.752  -6.246  1.00  0.00    -0.354 N 
ATOM     42  C   UNL     1      -0.218   2.970  -8.998  1.00  0.00     0.074 A 
ATOM     43  C   UNL     1      -0.168   1.617  -8.486  1.00  0.00     0.031 C 
ATOM     44  C   UNL     1       2.590   6.412  -4.379  1.00  0.00     0.029 A 
ATOM     45  C   UNL     1       2.117   6.877  -5.682  1.00  0.00     0.049 A 
ATOM     46  H   UNL     1       1.100   5.758  -7.117  1.00  0.00     0.167 HD
ATOM     47  C   UNL     1      -0.728   3.306 -10.206  1.00  0.00     0.031 A 
ATOM     48  C   UNL     1       2.246   8.129  -6.173  1.00  0.00     0.031 A 
ATOM     49  C   UNL     1      -0.794   4.645 -10.726  1.00  0.00     0.049 A 
ATOM     50  C   UNL     1       1.696   8.452  -7.541  1.00  0.00     0.074 A 
ATOM     51  C   UNL     1      -1.368   5.080 -11.909  1.00  0.00     0.029 A 
ATOM     52  N   UNL     1      -0.250   5.757 -10.111  1.00  0.00    -0.354 N 
ATOM     53  N   UNL     1       1.019   7.694  -8.367  1.00  0.00    -0.248 NA
ATOM     54  C   UNL     1       1.920   9.821  -8.039  1.00  0.00     0.031 C 
ATOM     55  C   UNL     1      -1.115   6.449 -12.040  1.00  0.00     0.029 A 
ATOM     56  C   UNL     1      -0.423   6.869 -10.918  1.00  0.00     0.049 A 
ATOM     57  H   UNL     1       0.193   5.758  -9.232  1.00  0.00     0.167 HD
ATOM     58  C   UNL     1       0.712   8.501  -9.457  1.00  0.00     0.074 A 
ATOM     59  C   UNL     1       1.236   9.817  -9.171  1.00  0.00     0.031 C 
ATOM     60  C   UNL     1       0.075   8.179 -10.608  1.00  0.00     0.031 A 
BRANCH  47  61
ATOM     61  C   UNL     1      -1.234   2.201 -11.086  1.00  0.00    -0.014 A 
ATOM     62  C   UNL     1      -2.479   1.599 -10.856  1.00  0.00     0.009 A 
ATOM     63  C   UNL     1      -0.490   1.827 -12.216  1.00  0.00     0.009 A 
ATOM     64  C   UNL     1      -2.964   0.632 -11.738  1.00  0.00     0.001 A 
ATOM     65  C   UNL     1      -0.986   0.875 -13.106  1.00  0.00     0.001 A 
ATOM     66  C   UNL     1      -2.222   0.277 -12.865  1.00  0.00     0.000 A 
ENDBRANCH  47  61
BRANCH  48  67
ATOM     67  C   UNL     1       2.946   9.198  -5.403  1.00  0.00    -0.014 A 
ATOM     68  C   UNL     1       2.268  10.373  -5.033  1.00  0.00     0.009 A 
ATOM     69  C   UNL     1       4.314   9.096  -5.114  1.00  0.00     0.009 A 
ATOM     70  C   UNL     1       2.944  11.426  -4.412  1.00  0.00     0.001 A 
ATOM     71  C   UNL     1       4.983  10.137  -4.465  1.00  0.00     0.001 A 
ATOM     72  C   UNL     1       4.301  11.304  -4.123  1.00  0.00     0.000 A 
ENDBRANCH  48  67
BRANCH  60  73
ATOM     73  C   UNL     1      -0.111   9.274 -11.620  1.00  0.00    -0.014 A 
ATOM     74  C   UNL     1       0.979   9.768 -12.356  1.00  0.00     0.009 A 
ATOM     75  C   UNL     1      -1.387   9.809 -11.851  1.00  0.00     0.009 A 
ATOM     76  C   UNL     1       0.800  10.804 -13.274  1.00  0.00     0.001 A 
ATOM     77  C   UNL     1      -1.567  10.825 -12.792  1.00  0.00     0.001 A 
ATOM     78  C   UNL     1      -0.473  11.329 -13.494  1.00  0.00     0.000 A 
ENDBRANCH  60  73
ENDBRANCH  34  35
ENDBRANCH  27  29
ENDBRANCH  26  27
ENDBRANCH  25  26
ENDBRANCH   1  25
TORSDOF 13
