REMARK SMILES CC1=C(C(=O)Nc2ccccc2)[C@@H](c2ccc(C(=O)OCCOC(=O)c3ccc(-c4c5nc(c(-c6ccccc6)c6ccc([nH]6)c(-c6ccccc6)c6nc(c(-c7ccccc7)c7ccc4[nH]7)C=C6)C=C5)cc3)cc2)n2ncnc2N1
REMARK SMILES IDX 21 1 20 2 18 3 19 4 17 5 14 6 15 7 75 8 16 9 74 10 13 11
REMARK SMILES IDX 1 12 2 13 3 14 81 15 80 16 76 18 79 19 77 20 78 21 4 22 5 23
REMARK SMILES IDX 6 24 7 26 8 27 12 28 9 29 11 30 10 31 22 32 23 33 24 34
REMARK SMILES IDX 25 35 26 36 27 37 73 38 28 39 72 40 29 41 30 42 31 43 66 44
REMARK SMILES IDX 32 45 71 46 65 47 67 48 33 49 70 50 64 51 63 52 34 54 56 55
REMARK SMILES IDX 41 56 55 57 42 58 45 59 54 60 68 61 43 62 44 63 53 65 69 66
REMARK SMILES IDX 46 67 35 68 36 69 40 70 37 71 39 72 38 73 57 74 58 75 62 76
REMARK SMILES IDX 59 77 61 78 60 79 47 80 48 81 52 82 49 83 51 84 50 85
REMARK H PARENT 81 17 6 25 67 53 45 64
REMARK Flexibility Score: inf
ROOT
ATOM      1  C   UNL     1       3.637   0.519 -10.089  1.00  0.00     0.275 C 
ENDROOT
BRANCH   1   2
ATOM      2  O   UNL     1       2.829   0.072  -8.989  1.00  0.00    -0.458 OA
BRANCH   2   3
ATOM      3  C   UNL     1       3.491  -0.585  -7.994  1.00  0.00     0.338 C 
ATOM      4  O   UNL     1       4.639  -0.959  -8.022  1.00  0.00    -0.246 OA
BRANCH   3   5
ATOM      5  C   UNL     1       2.618  -0.691  -6.790  1.00  0.00     0.060 A 
ATOM      6  C   UNL     1       1.038  -1.034  -4.489  1.00  0.00    -0.019 A 
ATOM      7  C   UNL     1       2.431  -1.159  -4.408  1.00  0.00     0.007 A 
ATOM      8  C   UNL     1       0.458  -0.665  -5.720  1.00  0.00     0.007 A 
ATOM      9  C   UNL     1       3.214  -0.993  -5.556  1.00  0.00     0.016 A 
ATOM     10  C   UNL     1       1.239  -0.495  -6.861  1.00  0.00     0.016 A 
BRANCH   6  11
ATOM     11  C   UNL     1       0.108  -1.446  -3.353  1.00  0.00     0.179 C 
ATOM     12  C   UNL     1      -0.316  -0.801   0.488  1.00  0.00     0.065 C 
ATOM     13  C   UNL     1       0.080  -1.367  -0.854  1.00  0.00     0.026 C 
ATOM     14  C   UNL     1       0.198  -0.673  -2.021  1.00  0.00     0.065 C 
ATOM     15  N   UNL     1       0.183  -2.755  -0.844  1.00  0.00    -0.328 N 
ATOM     16  C   UNL     1       0.246  -3.511  -1.948  1.00  0.00     0.226 A 
ATOM     17  H   UNL     1       0.213  -3.209   0.029  1.00  0.00     0.169 HD
ATOM     18  N   UNL     1       0.198  -2.903  -3.167  1.00  0.00    -0.219 N 
ATOM     19  N   UNL     1       0.299  -4.809  -2.103  1.00  0.00    -0.200 NA
ATOM     20  N   UNL     1       0.134  -3.816  -4.163  1.00  0.00    -0.157 NA
ATOM     21  C   UNL     1       0.236  -4.951  -3.464  1.00  0.00     0.248 A 
BRANCH  14  22
ATOM     22  C   UNL     1       0.068   0.804  -2.213  1.00  0.00     0.255 C 
ATOM     23  O   UNL     1      -0.615   1.207  -3.161  1.00  0.00    -0.269 OA
ATOM     24  N   UNL     1       0.598   1.754  -1.392  1.00  0.00    -0.322 N 
ATOM     25  H   UNL     1       0.410   2.674  -1.687  1.00  0.00     0.170 HD
BRANCH  24  26
ATOM     26  C   UNL     1       1.355   1.691  -0.217  1.00  0.00     0.041 A 
ATOM     27  C   UNL     1       0.940   2.537   0.821  1.00  0.00     0.026 A 
ATOM     28  C   UNL     1       2.408   0.802  -0.004  1.00  0.00     0.026 A 
ATOM     29  C   UNL     1       1.472   2.396   2.102  1.00  0.00     0.002 A 
ATOM     30  C   UNL     1       2.975   0.699   1.272  1.00  0.00     0.002 A 
ATOM     31  C   UNL     1       2.483   1.467   2.330  1.00  0.00     0.000 A 
ENDBRANCH  24  26
ENDBRANCH  14  22
ENDBRANCH   6  11
ENDBRANCH   3   5
ENDBRANCH   2   3
ENDBRANCH   1   2
BRANCH   1  32
ATOM     32  C   UNL     1       4.174   1.921  -9.833  1.00  0.00     0.275 C 
BRANCH  32  33
ATOM     33  O   UNL     1       5.200   1.912  -8.839  1.00  0.00    -0.458 OA
BRANCH  33  34
ATOM     34  C   UNL     1       4.793   2.157  -7.574  1.00  0.00     0.338 C 
ATOM     35  O   UNL     1       3.643   2.215  -7.167  1.00  0.00    -0.246 OA
BRANCH  34  36
ATOM     36  C   UNL     1       5.950   2.562  -6.763  1.00  0.00     0.060 A 
ATOM     37  C   UNL     1       5.714   2.882  -5.422  1.00  0.00     0.016 A 
ATOM     38  C   UNL     1       7.169   2.869  -7.383  1.00  0.00     0.016 A 
ATOM     39  C   UNL     1       6.630   3.674  -4.756  1.00  0.00     0.010 A 
ATOM     40  C   UNL     1       8.081   3.662  -6.719  1.00  0.00     0.010 A 
ATOM     41  C   UNL     1       7.762   4.125  -5.444  1.00  0.00    -0.014 A 
BRANCH  41  42
ATOM     42  C   UNL     1       8.600   5.118  -4.798  1.00  0.00     0.031 A 
ATOM     43  C   UNL     1       9.408   4.636  -3.654  1.00  0.00     0.074 A 
ATOM     44  C   UNL     1       8.730   6.367  -5.282  1.00  0.00     0.049 A 
ATOM     45  N   UNL     1       9.427   5.085  -2.442  1.00  0.00    -0.248 NA
ATOM     46  C   UNL     1      10.261   3.461  -3.880  1.00  0.00     0.031 C 
ATOM     47  C   UNL     1       8.253   6.899  -6.563  1.00  0.00     0.029 A 
ATOM     48  N   UNL     1       9.446   7.401  -4.762  1.00  0.00    -0.354 N 
ATOM     49  C   UNL     1      10.389   4.335  -1.772  1.00  0.00     0.074 A 
ATOM     50  C   UNL     1      10.804   3.292  -2.676  1.00  0.00     0.031 C 
ATOM     51  C   UNL     1       8.891   8.063  -6.821  1.00  0.00     0.029 A 
ATOM     52  C   UNL     1       9.702   8.416  -5.668  1.00  0.00     0.049 A 
ATOM     53  H   UNL     1       9.753   7.424  -3.827  1.00  0.00     0.167 HD
ATOM     54  C   UNL     1      10.903   4.711  -0.571  1.00  0.00     0.031 A 
ATOM     55  C   UNL     1      10.584   9.431  -5.506  1.00  0.00     0.031 A 
ATOM     56  C   UNL     1      10.091   5.690   0.094  1.00  0.00     0.049 A 
ATOM     57  C   UNL     1      10.889   9.547  -4.062  1.00  0.00     0.074 A 
ATOM     58  C   UNL     1       8.810   5.703   0.607  1.00  0.00     0.029 A 
ATOM     59  N   UNL     1      10.479   7.005   0.013  1.00  0.00    -0.354 N 
ATOM     60  N   UNL     1      10.029   9.950  -3.171  1.00  0.00    -0.248 NA
ATOM     61  C   UNL     1      12.040   8.830  -3.535  1.00  0.00     0.031 C 
ATOM     62  C   UNL     1       8.328   7.022   0.364  1.00  0.00     0.029 A 
ATOM     63  C   UNL     1       9.352   7.739  -0.258  1.00  0.00     0.049 A 
ATOM     64  H   UNL     1      11.392   7.355   0.129  1.00  0.00     0.167 HD
ATOM     65  C   UNL     1      10.302   9.191  -2.042  1.00  0.00     0.074 A 
ATOM     66  C   UNL     1      11.619   8.611  -2.286  1.00  0.00     0.031 C 
ATOM     67  C   UNL     1       9.319   8.881  -1.145  1.00  0.00     0.031 A 
BRANCH  54  68
ATOM     68  C   UNL     1      12.313   4.412  -0.144  1.00  0.00    -0.014 A 
ATOM     69  C   UNL     1      12.710   4.708   1.171  1.00  0.00     0.009 A 
ATOM     70  C   UNL     1      13.334   4.094  -1.061  1.00  0.00     0.009 A 
ATOM     71  C   UNL     1      14.061   4.729   1.535  1.00  0.00     0.001 A 
ATOM     72  C   UNL     1      14.680   4.074  -0.691  1.00  0.00     0.001 A 
ATOM     73  C   UNL     1      15.046   4.415   0.603  1.00  0.00     0.000 A 
ENDBRANCH  54  68
BRANCH  55  74
ATOM     74  C   UNL     1      11.388  10.101  -6.546  1.00  0.00    -0.014 A 
ATOM     75  C   UNL     1      11.963  11.358  -6.315  1.00  0.00     0.009 A 
ATOM     76  C   UNL     1      11.801   9.387  -7.687  1.00  0.00     0.009 A 
ATOM     77  C   UNL     1      12.939  11.869  -7.182  1.00  0.00     0.001 A 
ATOM     78  C   UNL     1      12.770   9.898  -8.554  1.00  0.00     0.001 A 
ATOM     79  C   UNL     1      13.350  11.134  -8.293  1.00  0.00     0.000 A 
ENDBRANCH  55  74
BRANCH  67  80
ATOM     80  C   UNL     1       7.985   9.572  -1.297  1.00  0.00    -0.014 A 
ATOM     81  C   UNL     1       7.186   9.423  -2.445  1.00  0.00     0.009 A 
ATOM     82  C   UNL     1       7.445  10.251  -0.195  1.00  0.00     0.009 A 
ATOM     83  C   UNL     1       5.899   9.966  -2.500  1.00  0.00     0.001 A 
ATOM     84  C   UNL     1       6.150  10.775  -0.242  1.00  0.00     0.001 A 
ATOM     85  C   UNL     1       5.380  10.637  -1.396  1.00  0.00     0.000 A 
ENDBRANCH  67  80
ENDBRANCH  41  42
ENDBRANCH  34  36
ENDBRANCH  33  34
ENDBRANCH  32  33
ENDBRANCH   1  32
TORSDOF 14
