REMARK SMILES O=C(OCCOC(=O)c1coc(-c2csc(-c3ccc(Cl)cn3)n2)c1)c1ccc(-c2c3nc(c(-c4ccccc4)c4ccc([nH]4)c(-c4ccccc4)c4nc(c(-c5ccccc5)c5ccc2[nH]5)C=C4)C=C3)cc1
REMARK SMILES IDX 4 1 3 2 2 3 1 4 26 5 27 6 73 7 28 8 72 9 29 10 30 11 31 12
REMARK SMILES IDX 66 13 32 14 71 15 65 16 67 17 33 18 70 19 64 20 63 21 34 23
REMARK SMILES IDX 56 24 41 25 55 26 42 27 45 28 54 29 68 30 43 31 44 32 53 34
REMARK SMILES IDX 69 35 46 36 35 37 36 38 40 39 37 40 39 41 38 42 57 43 58 44
REMARK SMILES IDX 62 45 59 46 61 47 60 48 47 49 48 50 52 51 49 52 51 53 50 54
REMARK SMILES IDX 5 55 6 56 7 57 8 58 9 59 10 60 25 61 11 62 12 63 13 64 14 65
REMARK SMILES IDX 24 66 15 67 16 68 17 69 18 70 23 71 19 72 22 73 20 74 21 75
REMARK H PARENT 67 22 45 33
REMARK Flexibility Score: inf
ROOT
ATOM      1  C   UNL     1       4.187  -1.581   0.305  1.00  0.00     0.275 C 
ENDROOT
BRANCH   1   2
ATOM      2  O   UNL     1       3.135  -0.840   0.949  1.00  0.00    -0.458 OA
BRANCH   2   3
ATOM      3  C   UNL     1       2.946   0.494   1.060  1.00  0.00     0.338 C 
ATOM      4  O   UNL     1       2.176   0.915   1.921  1.00  0.00    -0.246 OA
BRANCH   3   5
ATOM      5  C   UNL     1       3.510   1.492   0.098  1.00  0.00     0.060 A 
ATOM      6  C   UNL     1       4.749   1.412  -0.542  1.00  0.00     0.016 A 
ATOM      7  C   UNL     1       2.720   2.635  -0.137  1.00  0.00     0.016 A 
ATOM      8  C   UNL     1       5.177   2.417  -1.415  1.00  0.00     0.010 A 
ATOM      9  C   UNL     1       3.139   3.642  -1.010  1.00  0.00     0.010 A 
ATOM     10  C   UNL     1       4.383   3.544  -1.638  1.00  0.00    -0.014 A 
BRANCH  10  11
ATOM     11  C   UNL     1       4.943   4.703  -2.361  1.00  0.00     0.031 A 
ATOM     12  C   UNL     1       5.521   5.825  -1.552  1.00  0.00     0.074 A 
ATOM     13  C   UNL     1       4.961   4.743  -3.704  1.00  0.00     0.049 A 
ATOM     14  N   UNL     1       6.052   6.949  -1.955  1.00  0.00    -0.248 NA
ATOM     15  C   UNL     1       5.502   5.651  -0.090  1.00  0.00     0.031 C 
ATOM     16  C   UNL     1       4.479   3.683  -4.585  1.00  0.00     0.029 A 
ATOM     17  N   UNL     1       5.396   5.721  -4.560  1.00  0.00    -0.354 N 
ATOM     18  C   UNL     1       6.437   7.611  -0.797  1.00  0.00     0.074 A 
ATOM     19  C   UNL     1       6.043   6.785   0.323  1.00  0.00     0.031 C 
ATOM     20  C   UNL     1       4.620   4.078  -5.862  1.00  0.00     0.029 A 
ATOM     21  C   UNL     1       5.181   5.426  -5.883  1.00  0.00     0.049 A 
ATOM     22  H   UNL     1       5.822   6.555  -4.255  1.00  0.00     0.167 HD
ATOM     23  C   UNL     1       7.070   8.800  -0.676  1.00  0.00     0.031 A 
ATOM     24  C   UNL     1       5.396   6.172  -6.983  1.00  0.00     0.031 A 
ATOM     25  C   UNL     1       7.417   9.636  -1.790  1.00  0.00     0.049 A 
ATOM     26  C   UNL     1       6.007   7.538  -6.824  1.00  0.00     0.074 A 
ATOM     27  C   UNL     1       8.035  10.872  -1.787  1.00  0.00     0.029 A 
ATOM     28  N   UNL     1       7.158   9.315  -3.115  1.00  0.00    -0.354 N 
ATOM     29  N   UNL     1       6.386   8.148  -5.725  1.00  0.00    -0.248 NA
ATOM     30  C   UNL     1       6.233   8.313  -8.052  1.00  0.00     0.031 C 
ATOM     31  C   UNL     1       8.108  11.321  -3.111  1.00  0.00     0.029 A 
ATOM     32  C   UNL     1       7.582  10.341  -3.939  1.00  0.00     0.049 A 
ATOM     33  H   UNL     1       6.734   8.481  -3.422  1.00  0.00     0.167 HD
ATOM     34  C   UNL     1       6.929   9.360  -6.130  1.00  0.00     0.074 A 
ATOM     35  C   UNL     1       6.826   9.401  -7.576  1.00  0.00     0.031 C 
ATOM     36  C   UNL     1       7.475  10.346  -5.376  1.00  0.00     0.031 A 
BRANCH  23  37
ATOM     37  C   UNL     1       7.362   9.263   0.722  1.00  0.00    -0.014 A 
ATOM     38  C   UNL     1       8.345   8.635   1.505  1.00  0.00     0.009 A 
ATOM     39  C   UNL     1       6.601  10.296   1.287  1.00  0.00     0.009 A 
ATOM     40  C   UNL     1       8.521   8.996   2.842  1.00  0.00     0.001 A 
ATOM     41  C   UNL     1       6.797  10.674   2.616  1.00  0.00     0.001 A 
ATOM     42  C   UNL     1       7.746  10.014   3.397  1.00  0.00     0.000 A 
ENDBRANCH  23  37
BRANCH  24  43
ATOM     43  C   UNL     1       5.020   5.645  -8.320  1.00  0.00    -0.014 A 
ATOM     44  C   UNL     1       6.001   5.252  -9.242  1.00  0.00     0.009 A 
ATOM     45  C   UNL     1       3.667   5.513  -8.673  1.00  0.00     0.009 A 
ATOM     46  C   UNL     1       5.635   4.752 -10.495  1.00  0.00     0.001 A 
ATOM     47  C   UNL     1       3.304   4.990  -9.916  1.00  0.00     0.001 A 
ATOM     48  C   UNL     1       4.288   4.616 -10.829  1.00  0.00     0.000 A 
ENDBRANCH  24  43
BRANCH  36  49
ATOM     49  C   UNL     1       8.050  11.529  -6.100  1.00  0.00    -0.014 A 
ATOM     50  C   UNL     1       7.225  12.525  -6.641  1.00  0.00     0.009 A 
ATOM     51  C   UNL     1       9.444  11.682  -6.166  1.00  0.00     0.009 A 
ATOM     52  C   UNL     1       7.788  13.647  -7.250  1.00  0.00     0.001 A 
ATOM     53  C   UNL     1      10.003  12.815  -6.755  1.00  0.00     0.001 A 
ATOM     54  C   UNL     1       9.175  13.795  -7.301  1.00  0.00     0.000 A 
ENDBRANCH  36  49
ENDBRANCH  10  11
ENDBRANCH   3   5
ENDBRANCH   2   3
ENDBRANCH   1   2
BRANCH   1  55
ATOM     55  C   UNL     1       3.861  -2.034  -1.120  1.00  0.00     0.275 C 
BRANCH  55  56
ATOM     56  O   UNL     1       3.392  -0.981  -1.976  1.00  0.00    -0.458 OA
BRANCH  56  57
ATOM     57  C   UNL     1       2.037  -0.781  -1.958  1.00  0.00     0.341 C 
ATOM     58  O   UNL     1       1.247  -1.433  -1.297  1.00  0.00    -0.246 OA
BRANCH  57  59
ATOM     59  C   UNL     1       1.639   0.357  -2.757  1.00  0.00     0.098 A 
ATOM     60  C   UNL     1       2.064   0.648  -4.034  1.00  0.00     0.211 A 
ATOM     61  C   UNL     1       0.739   1.406  -2.407  1.00  0.00     0.068 A 
ATOM     62  O   UNL     1       1.472   1.782  -4.489  1.00  0.00    -0.462 OA
ATOM     63  C   UNL     1       0.713   2.288  -3.467  1.00  0.00     0.154 A 
BRANCH  63  64
ATOM     64  C   UNL     1       0.020   3.608  -3.512  1.00  0.00     0.117 A 
ATOM     65  C   UNL     1      -0.266   4.225  -4.711  1.00  0.00     0.099 A 
ATOM     66  N   UNL     1      -0.320   4.326  -2.373  1.00  0.00    -0.231 NA
ATOM     67  S   UNL     1      -1.006   5.738  -4.427  1.00  0.00    -0.120 S 
ATOM     68  C   UNL     1      -0.816   5.500  -2.727  1.00  0.00     0.142 A 
BRANCH  68  69
ATOM     69  C   UNL     1      -1.127   6.631  -1.846  1.00  0.00     0.099 A 
ATOM     70  C   UNL     1      -0.209   7.668  -1.671  1.00  0.00     0.033 A 
ATOM     71  N   UNL     1      -2.370   6.648  -1.301  1.00  0.00    -0.252 NA
ATOM     72  C   UNL     1      -0.583   8.783  -0.919  1.00  0.00     0.024 A 
ATOM     73  C   UNL     1      -2.699   7.742  -0.565  1.00  0.00     0.132 A 
ATOM     74  C   UNL     1      -1.853   8.822  -0.357  1.00  0.00     0.059 A 
ATOM     75  Cl  UNL     1      -2.361  10.183   0.556  1.00  0.00    -0.083 Cl
ENDBRANCH  68  69
ENDBRANCH  63  64
ENDBRANCH  57  59
ENDBRANCH  56  57
ENDBRANCH  55  56
ENDBRANCH   1  55
TORSDOF 13
