REMARK SMILES CC[C@@H](C)[C@@H](C(=O)OCCOC(=O)c1ccc(-c2c3nc(c(-c4ccccc4)c4ccc([nH]4)c(-c4ccccc4)c4nc(c(-c5ccccc5)c5ccc2[nH]5)C=C4)C=C3)cc1)S(=O)(=O)c1ccc(OC)cc1
REMARK SMILES IDX 9 1 8 2 6 3 7 4 5 5 3 6 4 7 2 8 1 9 62 10 63 11 64 12 65 13
REMARK SMILES IDX 66 14 72 15 67 16 71 17 68 18 69 19 70 20 10 21 11 22 12 23
REMARK SMILES IDX 13 24 14 25 15 26 61 27 16 28 60 29 17 30 18 31 19 32 54 33
REMARK SMILES IDX 20 34 59 35 53 36 55 37 21 38 58 39 52 40 51 41 22 43 44 44
REMARK SMILES IDX 29 45 43 46 30 47 33 48 42 49 56 50 31 51 32 52 41 54 57 55
REMARK SMILES IDX 34 56 23 57 24 58 28 59 25 60 27 61 26 62 45 63 46 64 50 65
REMARK SMILES IDX 47 66 49 67 48 68 35 69 36 70 40 71 37 72 39 73 38 74
REMARK H PARENT 55 42 33 53
REMARK Flexibility Score: inf
ROOT
ATOM      1  C   UNL     1       1.013   4.186   2.186  1.00  0.00     0.274 C 
ENDROOT
BRANCH   1   2
ATOM      2  O   UNL     1       1.214   3.497   0.924  1.00  0.00    -0.461 OA
BRANCH   2   3
ATOM      3  C   UNL     1       0.406   3.886  -0.100  1.00  0.00     0.325 C 
ATOM      4  O   UNL     1      -0.271   4.908  -0.069  1.00  0.00    -0.251 OA
BRANCH   3   5
ATOM      5  C   UNL     1       0.317   2.881  -1.232  1.00  0.00     0.225 C 
BRANCH   5   6
ATOM      6  C   UNL     1       0.605   1.394  -0.893  1.00  0.00     0.015 C 
ATOM      7  C   UNL     1       0.290   0.482  -2.096  1.00  0.00     0.009 C 
BRANCH   6   8
ATOM      8  C   UNL     1      -0.193   0.868   0.327  1.00  0.00     0.002 C 
ATOM      9  C   UNL     1       0.307  -0.499   0.794  1.00  0.00     0.004 C 
ENDBRANCH   6   8
ENDBRANCH   5   6
BRANCH   5  10
ATOM     10  S   UNL     1       1.176   3.548  -2.654  1.00  0.00     0.192 S 
ATOM     11  O   UNL     1       0.800   2.794  -3.836  1.00  0.00    -0.223 OA
ATOM     12  O   UNL     1       0.961   4.986  -2.677  1.00  0.00    -0.223 OA
BRANCH  10  13
ATOM     13  C   UNL     1       2.938   3.314  -2.478  1.00  0.00     0.068 A 
ATOM     14  C   UNL     1       3.544   2.081  -2.254  1.00  0.00     0.024 A 
ATOM     15  C   UNL     1       3.752   4.424  -2.655  1.00  0.00     0.024 A 
ATOM     16  C   UNL     1       4.934   2.000  -2.064  1.00  0.00     0.048 A 
ATOM     17  C   UNL     1       5.131   4.341  -2.451  1.00  0.00     0.048 A 
ATOM     18  C   UNL     1       5.733   3.138  -2.129  1.00  0.00     0.118 A 
BRANCH  18  19
ATOM     19  O   UNL     1       7.069   2.968  -1.897  1.00  0.00    -0.497 OA
ATOM     20  C   UNL     1       7.845   4.160  -1.775  1.00  0.00     0.278 C 
ENDBRANCH  18  19
ENDBRANCH  10  13
ENDBRANCH   5  10
ENDBRANCH   3   5
ENDBRANCH   2   3
ENDBRANCH   1   2
BRANCH   1  21
ATOM     21  C   UNL     1       2.313   4.780   2.712  1.00  0.00     0.275 C 
BRANCH  21  22
ATOM     22  O   UNL     1       2.720   5.851   1.844  1.00  0.00    -0.458 OA
BRANCH  22  23
ATOM     23  C   UNL     1       3.701   5.526   0.982  1.00  0.00     0.338 C 
ATOM     24  O   UNL     1       4.328   4.470   0.939  1.00  0.00    -0.246 OA
BRANCH  23  25
ATOM     25  C   UNL     1       3.926   6.608   0.015  1.00  0.00     0.060 A 
ATOM     26  C   UNL     1       2.882   7.033  -0.809  1.00  0.00     0.016 A 
ATOM     27  C   UNL     1       5.239   7.010  -0.240  1.00  0.00     0.016 A 
ATOM     28  C   UNL     1       3.180   7.761  -1.967  1.00  0.00     0.010 A 
ATOM     29  C   UNL     1       5.522   7.782  -1.370  1.00  0.00     0.010 A 
ATOM     30  C   UNL     1       4.504   8.120  -2.277  1.00  0.00    -0.014 A 
BRANCH  30  31
ATOM     31  C   UNL     1       4.860   8.845  -3.525  1.00  0.00     0.031 A 
ATOM     32  C   UNL     1       5.840   8.274  -4.508  1.00  0.00     0.074 A 
ATOM     33  C   UNL     1       4.349  10.057  -3.784  1.00  0.00     0.049 A 
ATOM     34  N   UNL     1       6.764   8.866  -5.218  1.00  0.00    -0.248 NA
ATOM     35  C   UNL     1       5.775   6.829  -4.715  1.00  0.00     0.031 C 
ATOM     36  C   UNL     1       3.290  10.718  -3.027  1.00  0.00     0.029 A 
ATOM     37  N   UNL     1       4.693  10.956  -4.759  1.00  0.00    -0.354 N 
ATOM     38  C   UNL     1       7.479   7.840  -5.835  1.00  0.00     0.074 A 
ATOM     39  C   UNL     1       6.865   6.595  -5.434  1.00  0.00     0.031 C 
ATOM     40  C   UNL     1       3.074  11.929  -3.559  1.00  0.00     0.029 A 
ATOM     41  C   UNL     1       4.062  12.161  -4.606  1.00  0.00     0.049 A 
ATOM     42  H   UNL     1       5.325  10.757  -5.487  1.00  0.00     0.167 HD
ATOM     43  C   UNL     1       8.529   7.948  -6.685  1.00  0.00     0.031 A 
ATOM     44  C   UNL     1       4.318  13.352  -5.172  1.00  0.00     0.031 A 
ATOM     45  C   UNL     1       8.934   9.201  -7.269  1.00  0.00     0.049 A 
ATOM     46  C   UNL     1       5.460  13.476  -6.132  1.00  0.00     0.074 A 
ATOM     47  C   UNL     1       9.963   9.459  -8.158  1.00  0.00     0.029 A 
ATOM     48  N   UNL     1       8.242  10.391  -7.100  1.00  0.00    -0.354 N 
ATOM     49  N   UNL     1       6.341  12.572  -6.485  1.00  0.00    -0.248 NA
ATOM     50  C   UNL     1       5.648  14.788  -6.761  1.00  0.00     0.031 C 
ATOM     51  C   UNL     1       9.877  10.802  -8.545  1.00  0.00     0.029 A 
ATOM     52  C   UNL     1       8.783  11.370  -7.911  1.00  0.00     0.049 A 
ATOM     53  H   UNL     1       7.479  10.519  -6.492  1.00  0.00     0.167 HD
ATOM     54  C   UNL     1       7.183  13.200  -7.391  1.00  0.00     0.074 A 
ATOM     55  C   UNL     1       6.700  14.560  -7.536  1.00  0.00     0.031 C 
ATOM     56  C   UNL     1       8.261  12.703  -8.044  1.00  0.00     0.031 A 
BRANCH  43  57
ATOM     57  C   UNL     1       9.311   6.713  -7.045  1.00  0.00    -0.014 A 
ATOM     58  C   UNL     1       8.815   5.728  -7.909  1.00  0.00     0.009 A 
ATOM     59  C   UNL     1      10.627   6.584  -6.564  1.00  0.00     0.009 A 
ATOM     60  C   UNL     1       9.607   4.630  -8.263  1.00  0.00     0.001 A 
ATOM     61  C   UNL     1      11.428   5.504  -6.943  1.00  0.00     0.001 A 
ATOM     62  C   UNL     1      10.914   4.523  -7.788  1.00  0.00     0.000 A 
ENDBRANCH  43  57
BRANCH  44  63
ATOM     63  C   UNL     1       3.506  14.516  -4.750  1.00  0.00    -0.014 A 
ATOM     64  C   UNL     1       2.480  15.002  -5.570  1.00  0.00     0.009 A 
ATOM     65  C   UNL     1       3.675  15.059  -3.465  1.00  0.00     0.009 A 
ATOM     66  C   UNL     1       1.631  16.008  -5.106  1.00  0.00     0.001 A 
ATOM     67  C   UNL     1       2.807  16.044  -2.995  1.00  0.00     0.001 A 
ATOM     68  C   UNL     1       1.787  16.518  -3.817  1.00  0.00     0.000 A 
ENDBRANCH  44  63
BRANCH  56  69
ATOM     69  C   UNL     1       8.938  13.615  -9.019  1.00  0.00    -0.014 A 
ATOM     70  C   UNL     1       9.852  14.585  -8.584  1.00  0.00     0.009 A 
ATOM     71  C   UNL     1       8.679  13.475 -10.391  1.00  0.00     0.009 A 
ATOM     72  C   UNL     1      10.476  15.421  -9.510  1.00  0.00     0.001 A 
ATOM     73  C   UNL     1       9.317  14.303 -11.314  1.00  0.00     0.001 A 
ATOM     74  C   UNL     1      10.210  15.279 -10.872  1.00  0.00     0.000 A 
ENDBRANCH  56  69
ENDBRANCH  30  31
ENDBRANCH  23  25
ENDBRANCH  22  23
ENDBRANCH  21  22
ENDBRANCH   1  21
TORSDOF 16
