REMARK SMILES CC(C)C[C@H](CNC(=O)Nc1ccccc1Br)C(=O)OCCOC(=O)c1ccc(-c2c3nc(c(-c4ccccc4)c4ccc([nH]4)c(-c4ccccc4)c4nc(c(-c5ccccc5)c5ccc2[nH]5)C=C4)C=C3)cc1
REMARK SMILES IDX 21 1 20 2 18 3 19 4 5 5 4 6 2 7 1 8 3 9 6 10 7 11 8 12 9 14
REMARK SMILES IDX 10 15 11 17 12 18 16 19 13 20 15 21 17 22 14 23 22 24 23 25
REMARK SMILES IDX 24 26 25 27 26 28 27 29 73 30 28 31 72 32 29 33 30 34 31 35
REMARK SMILES IDX 66 36 32 37 71 38 65 39 67 40 33 41 70 42 64 43 63 44 34 46
REMARK SMILES IDX 56 47 41 48 55 49 42 50 45 51 54 52 68 53 43 54 44 55 53 57
REMARK SMILES IDX 69 58 46 59 35 60 36 61 40 62 37 63 39 64 38 65 57 66 58 67
REMARK SMILES IDX 62 68 59 69 61 70 60 71 47 72 48 73 52 74 49 75 51 76 50 77
REMARK H PARENT 7 13 10 16 67 45 45 56
REMARK Flexibility Score: inf
ROOT
ATOM      1  C   UNL     1      -5.260  -1.568  -1.278  1.00  0.00     0.274 C 
ENDROOT
BRANCH   1   2
ATOM      2  O   UNL     1      -3.844  -1.796  -1.419  1.00  0.00    -0.462 OA
BRANCH   2   3
ATOM      3  C   UNL     1      -3.099  -0.734  -1.824  1.00  0.00     0.310 C 
ATOM      4  O   UNL     1      -3.572   0.349  -2.147  1.00  0.00    -0.252 OA
BRANCH   3   5
ATOM      5  C   UNL     1      -1.602  -1.031  -1.868  1.00  0.00     0.119 C 
BRANCH   5   6
ATOM      6  C   UNL     1      -1.173  -1.551  -3.248  1.00  0.00     0.020 C 
BRANCH   6   7
ATOM      7  C   UNL     1      -1.652  -0.703  -4.454  1.00  0.00    -0.017 C 
ATOM      8  C   UNL     1      -1.268   0.778  -4.368  1.00  0.00     0.007 C 
ATOM      9  C   UNL     1      -1.094  -1.284  -5.756  1.00  0.00     0.007 C 
ENDBRANCH   6   7
ENDBRANCH   5   6
BRANCH   5  10
ATOM     10  C   UNL     1      -1.197  -1.900  -0.660  1.00  0.00     0.133 C 
BRANCH  10  11
ATOM     11  N   UNL     1      -0.001  -2.713  -0.816  1.00  0.00    -0.337 N 
ATOM     12  C   UNL     1       1.274  -2.631  -0.406  1.00  0.00     0.319 C 
ATOM     13  H   UNL     1      -0.167  -3.520  -1.355  1.00  0.00     0.165 HD
ATOM     14  O   UNL     1       2.062  -3.473  -0.846  1.00  0.00    -0.249 OA
ATOM     15  N   UNL     1       1.768  -1.625   0.335  1.00  0.00    -0.307 N 
ATOM     16  H   UNL     1       2.743  -1.520   0.239  1.00  0.00     0.171 HD
BRANCH  15  17
ATOM     17  C   UNL     1       1.200  -0.692   1.213  1.00  0.00     0.057 A 
ATOM     18  C   UNL     1       1.700   0.614   1.103  1.00  0.00     0.027 A 
ATOM     19  C   UNL     1       0.250  -0.973   2.207  1.00  0.00     0.041 A 
ATOM     20  C   UNL     1       1.173   1.648   1.876  1.00  0.00     0.002 A 
ATOM     21  C   UNL     1      -0.284   0.070   2.974  1.00  0.00     0.018 A 
ATOM     22  Br  UNL     1      -0.262  -2.741   2.687  1.00  0.00    -0.049 Br
ATOM     23  C   UNL     1       0.165   1.379   2.796  1.00  0.00     0.001 A 
ENDBRANCH  15  17
ENDBRANCH  10  11
ENDBRANCH   5  10
ENDBRANCH   3   5
ENDBRANCH   2   3
ENDBRANCH   1   2
BRANCH   1  24
ATOM     24  C   UNL     1      -5.639  -1.076   0.125  1.00  0.00     0.275 C 
BRANCH  24  25
ATOM     25  O   UNL     1      -5.227   0.286   0.358  1.00  0.00    -0.458 OA
BRANCH  25  26
ATOM     26  C   UNL     1      -4.009   0.425   0.932  1.00  0.00     0.338 C 
ATOM     27  O   UNL     1      -3.275  -0.472   1.313  1.00  0.00    -0.246 OA
BRANCH  26  28
ATOM     28  C   UNL     1      -3.586   1.837   0.915  1.00  0.00     0.060 A 
ATOM     29  C   UNL     1      -2.335   2.135   0.364  1.00  0.00     0.016 A 
ATOM     30  C   UNL     1      -4.356   2.844   1.499  1.00  0.00     0.016 A 
ATOM     31  C   UNL     1      -1.839   3.435   0.405  1.00  0.00     0.010 A 
ATOM     32  C   UNL     1      -3.853   4.150   1.548  1.00  0.00     0.010 A 
ATOM     33  C   UNL     1      -2.585   4.448   1.018  1.00  0.00    -0.014 A 
BRANCH  33  34
ATOM     34  C   UNL     1      -1.990   5.796   1.169  1.00  0.00     0.031 A 
ATOM     35  C   UNL     1      -1.425   6.218   2.495  1.00  0.00     0.074 A 
ATOM     36  C   UNL     1      -1.908   6.621   0.110  1.00  0.00     0.049 A 
ATOM     37  N   UNL     1      -0.866   7.351   2.833  1.00  0.00    -0.248 NA
ATOM     38  C   UNL     1      -1.489   5.228   3.581  1.00  0.00     0.031 C 
ATOM     39  C   UNL     1      -2.358   6.306  -1.246  1.00  0.00     0.029 A 
ATOM     40  N   UNL     1      -1.409   7.896   0.012  1.00  0.00    -0.354 N 
ATOM     41  C   UNL     1      -0.517   7.215   4.170  1.00  0.00     0.074 A 
ATOM     42  C   UNL     1      -0.940   5.895   4.586  1.00  0.00     0.031 C 
ATOM     43  C   UNL     1      -2.113   7.360  -2.042  1.00  0.00     0.029 A 
ATOM     44  C   UNL     1      -1.528   8.435  -1.244  1.00  0.00     0.049 A 
ATOM     45  H   UNL     1      -1.006   8.377   0.771  1.00  0.00     0.167 HD
ATOM     46  C   UNL     1       0.097   8.110   4.981  1.00  0.00     0.031 A 
ATOM     47  C   UNL     1      -1.221   9.665  -1.696  1.00  0.00     0.031 A 
ATOM     48  C   UNL     1       0.490   9.434   4.581  1.00  0.00     0.049 A 
ATOM     49  C   UNL     1      -0.636  10.676  -0.750  1.00  0.00     0.074 A 
ATOM     50  C   UNL     1       1.109  10.416   5.336  1.00  0.00     0.029 A 
ATOM     51  N   UNL     1       0.288   9.968   3.318  1.00  0.00    -0.354 N 
ATOM     52  N   UNL     1      -0.309  10.534   0.511  1.00  0.00    -0.248 NA
ATOM     53  C   UNL     1      -0.383  12.019  -1.292  1.00  0.00     0.031 C 
ATOM     54  C   UNL     1       1.236  11.562   4.542  1.00  0.00     0.029 A 
ATOM     55  C   UNL     1       0.743  11.275   3.279  1.00  0.00     0.049 A 
ATOM     56  H   UNL     1      -0.118   9.488   2.561  1.00  0.00     0.167 HD
ATOM     57  C   UNL     1       0.208  11.761   0.909  1.00  0.00     0.074 A 
ATOM     58  C   UNL     1       0.162  12.631  -0.249  1.00  0.00     0.031 C 
ATOM     59  C   UNL     1       0.683  12.131   2.123  1.00  0.00     0.031 A 
BRANCH  46  60
ATOM     60  C   UNL     1       0.329   7.692   6.405  1.00  0.00    -0.014 A 
ATOM     61  C   UNL     1       1.328   6.764   6.739  1.00  0.00     0.009 A 
ATOM     62  C   UNL     1      -0.460   8.241   7.427  1.00  0.00     0.009 A 
ATOM     63  C   UNL     1       1.508   6.370   8.067  1.00  0.00     0.001 A 
ATOM     64  C   UNL     1      -0.263   7.862   8.755  1.00  0.00     0.001 A 
ATOM     65  C   UNL     1       0.714   6.920   9.073  1.00  0.00     0.000 A 
ENDBRANCH  46  60
BRANCH  47  66
ATOM     66  C   UNL     1      -1.489  10.020  -3.113  1.00  0.00    -0.014 A 
ATOM     67  C   UNL     1      -0.432  10.195  -4.019  1.00  0.00     0.009 A 
ATOM     68  C   UNL     1      -2.808  10.185  -3.565  1.00  0.00     0.009 A 
ATOM     69  C   UNL     1      -0.692  10.543  -5.346  1.00  0.00     0.001 A 
ATOM     70  C   UNL     1      -3.064  10.508  -4.899  1.00  0.00     0.001 A 
ATOM     71  C   UNL     1      -2.006  10.694  -5.786  1.00  0.00     0.000 A 
ENDBRANCH  47  66
BRANCH  59  72
ATOM     72  C   UNL     1       1.214  13.530   2.254  1.00  0.00    -0.014 A 
ATOM     73  C   UNL     1       0.350  14.634   2.310  1.00  0.00     0.009 A 
ATOM     74  C   UNL     1       2.598  13.740   2.358  1.00  0.00     0.009 A 
ATOM     75  C   UNL     1       0.865  15.926   2.439  1.00  0.00     0.001 A 
ATOM     76  C   UNL     1       3.108  15.030   2.512  1.00  0.00     0.001 A 
ATOM     77  C   UNL     1       2.242  16.122   2.544  1.00  0.00     0.000 A 
ENDBRANCH  59  72
ENDBRANCH  33  34
ENDBRANCH  26  28
ENDBRANCH  25  26
ENDBRANCH  24  25
ENDBRANCH   1  24
TORSDOF 16
