REMARK SMILES O=C(OCCOC(=O)c1ccc(-c2c3nc(c(-c4ccccc4)c4ccc([nH]4)c(-c4ccccc4)c4nc(c(-c5ccccc5)c5ccc2[nH]5)C=C4)C=C3)cc1)C1=Cc2cc(Cl)cc(-c3ccc(CO)cc3)c2O[C@@H]1C(F)(F)F
REMARK SMILES IDX 4 1 3 2 2 3 1 4 57 5 58 6 75 7 59 8 74 9 60 10 73 11 61 12
REMARK SMILES IDX 64 13 62 14 63 15 76 16 77 17 78 18 79 19 65 20 66 21 72 22
REMARK SMILES IDX 67 23 71 24 68 25 69 26 70 27 5 29 6 30 7 31 8 32 9 33 10 34
REMARK SMILES IDX 56 35 11 36 55 37 12 38 13 39 14 40 49 41 15 42 54 43 48 44
REMARK SMILES IDX 50 45 16 46 53 47 47 48 46 49 17 51 39 52 24 53 38 54 25 55
REMARK SMILES IDX 28 56 37 57 51 58 26 59 27 60 36 62 52 63 29 64 18 65 19 66
REMARK SMILES IDX 23 67 20 68 22 69 21 70 40 71 41 72 45 73 42 74 44 75 43 76
REMARK SMILES IDX 30 77 31 78 35 79 32 80 34 81 33 82
REMARK H PARENT 70 28 50 50 28 61
REMARK Flexibility Score: inf
ROOT
ATOM      1  C   UNL     1       3.942  -0.719  -1.010  1.00  0.00     0.275 C 
ENDROOT
BRANCH   1   2
ATOM      2  O   UNL     1       3.148  -2.051  -1.256  1.00  0.00    -0.459 OA
BRANCH   2   3
ATOM      3  C   UNL     1       3.322  -2.961  -0.292  1.00  0.00     0.338 C 
ATOM      4  O   UNL     1       2.800  -4.031  -0.109  1.00  0.00    -0.246 OA
BRANCH   3   5
ATOM      5  C   UNL     1       4.072  -2.086   0.567  1.00  0.00     0.087 C 
ATOM      6  C   UNL     1       5.462  -1.959   0.080  1.00  0.00     0.027 C 
ATOM      7  C   UNL     1       2.782  -0.648   0.631  1.00  0.00     0.316 C 
ATOM      8  C   UNL     1       6.114  -0.442  -0.665  1.00  0.00     0.019 A 
ATOM      9  O   UNL     1       3.450   0.963  -0.188  1.00  0.00    -0.475 OA
ATOM     10  C   UNL     1       7.334  -0.543  -1.279  1.00  0.00     0.032 A 
ATOM     11  C   UNL     1       5.127   0.982  -0.907  1.00  0.00     0.135 A 
ATOM     12  C   UNL     1       7.677   0.547  -2.078  1.00  0.00     0.042 A 
ATOM     13  C   UNL     1       5.541   1.989  -1.751  1.00  0.00     0.026 A 
ATOM     14  Cl  UNL     1       9.171   0.446  -2.953  1.00  0.00    -0.084 Cl
ATOM     15  C   UNL     1       6.847   1.716  -2.292  1.00  0.00     0.033 A 
BRANCH   7  16
ATOM     16  C   UNL     1       2.138  -0.959   2.027  1.00  0.00     0.430 C 
ATOM     17  F   UNL     1       0.926  -0.404   2.162  1.00  0.00    -0.167 F 
ATOM     18  F   UNL     1       1.902  -2.306   2.092  1.00  0.00    -0.167 F 
ATOM     19  F   UNL     1       2.900  -0.741   3.114  1.00  0.00    -0.167 F 
ENDBRANCH   7  16
BRANCH  13  20
ATOM     20  C   UNL     1       4.844   3.148  -2.288  1.00  0.00    -0.015 A 
ATOM     21  C   UNL     1       4.471   3.140  -3.648  1.00  0.00     0.009 A 
ATOM     22  C   UNL     1       4.781   4.360  -1.596  1.00  0.00     0.009 A 
ATOM     23  C   UNL     1       4.068   4.306  -4.299  1.00  0.00     0.007 A 
ATOM     24  C   UNL     1       4.375   5.534  -2.248  1.00  0.00     0.007 A 
ATOM     25  C   UNL     1       4.021   5.518  -3.605  1.00  0.00    -0.023 A 
BRANCH  25  26
ATOM     26  C   UNL     1       3.611   6.775  -4.325  1.00  0.00     0.191 C 
BRANCH  26  27
ATOM     27  O   UNL     1       4.558   7.119  -5.330  1.00  0.00    -0.392 OA
ATOM     28  H   UNL     1       5.423   7.274  -4.920  1.00  0.00     0.211 HD
ENDBRANCH  26  27
ENDBRANCH  25  26
ENDBRANCH  13  20
ENDBRANCH   3   5
ENDBRANCH   2   3
ENDBRANCH   1   2
BRANCH   1  29
ATOM     29  C   UNL     1       4.667  -0.001   0.891  1.00  0.00     0.275 C 
BRANCH  29  30
ATOM     30  O   UNL     1       3.829   0.971   1.994  1.00  0.00    -0.458 OA
BRANCH  30  31
ATOM     31  C   UNL     1       3.092   2.114   2.117  1.00  0.00     0.338 C 
ATOM     32  O   UNL     1       2.817   2.960   1.292  1.00  0.00    -0.246 OA
BRANCH  31  33
ATOM     33  C   UNL     1       2.392   1.962   3.433  1.00  0.00     0.060 A 
ATOM     34  C   UNL     1       1.006   1.735   3.442  1.00  0.00     0.016 A 
ATOM     35  C   UNL     1       3.148   1.665   4.569  1.00  0.00     0.016 A 
ATOM     36  C   UNL     1       0.425   1.004   4.495  1.00  0.00     0.010 A 
ATOM     37  C   UNL     1       2.562   0.961   5.626  1.00  0.00     0.010 A 
ATOM     38  C   UNL     1       1.213   0.566   5.570  1.00  0.00    -0.014 A 
BRANCH  38  39
ATOM     39  C   UNL     1       0.596  -0.065   6.768  1.00  0.00     0.031 A 
ATOM     40  C   UNL     1       0.127   0.884   7.830  1.00  0.00     0.074 A 
ATOM     41  C   UNL     1       0.510  -1.397   6.965  1.00  0.00     0.049 A 
ATOM     42  N   UNL     1      -0.406   0.641   8.997  1.00  0.00    -0.248 NA
ATOM     43  C   UNL     1       0.318   2.315   7.532  1.00  0.00     0.031 C 
ATOM     44  C   UNL     1       0.928  -2.441   6.029  1.00  0.00     0.029 A 
ATOM     45  N   UNL     1       0.038  -2.103   8.052  1.00  0.00    -0.354 N 
ATOM     46  C   UNL     1      -0.618   1.889   9.565  1.00  0.00     0.074 A 
ATOM     47  C   UNL     1      -0.095   2.877   8.651  1.00  0.00     0.031 C 
ATOM     48  C   UNL     1       0.696  -3.650   6.582  1.00  0.00     0.029 A 
ATOM     49  C   UNL     1       0.124  -3.472   7.917  1.00  0.00     0.049 A 
ATOM     50  H   UNL     1      -0.328  -1.667   8.855  1.00  0.00     0.167 HD
ATOM     51  C   UNL     1      -1.214   2.202  10.737  1.00  0.00     0.031 A 
ATOM     52  C   UNL     1      -0.225  -4.456   8.775  1.00  0.00     0.031 A 
ATOM     53  C   UNL     1      -1.688   1.231  11.676  1.00  0.00     0.049 A 
ATOM     54  C   UNL     1      -0.820  -4.086  10.118  1.00  0.00     0.074 A 
ATOM     55  C   UNL     1      -2.301   1.437  12.896  1.00  0.00     0.029 A 
ATOM     56  N   UNL     1      -1.579  -0.139  11.499  1.00  0.00    -0.354 N 
ATOM     57  N   UNL     1      -1.095  -2.900  10.608  1.00  0.00    -0.248 NA
ATOM     58  C   UNL     1      -1.169  -5.197  11.020  1.00  0.00     0.031 C 
ATOM     59  C   UNL     1      -2.523   0.185  13.481  1.00  0.00     0.029 A 
ATOM     60  C   UNL     1      -2.100  -0.796  12.598  1.00  0.00     0.049 A 
ATOM     61  H   UNL     1      -1.189  -0.579  10.709  1.00  0.00     0.167 HD
ATOM     62  C   UNL     1      -1.691  -3.125  11.845  1.00  0.00     0.074 A 
ATOM     63  C   UNL     1      -1.743  -4.559  12.031  1.00  0.00     0.031 C 
ATOM     64  C   UNL     1      -2.162  -2.227  12.746  1.00  0.00     0.031 A 
BRANCH  51  65
ATOM     65  C   UNL     1      -1.332   3.666  11.040  1.00  0.00    -0.014 A 
ATOM     66  C   UNL     1      -2.183   4.490  10.281  1.00  0.00     0.009 A 
ATOM     67  C   UNL     1      -0.511   4.246  12.016  1.00  0.00     0.009 A 
ATOM     68  C   UNL     1      -2.156   5.874  10.447  1.00  0.00     0.001 A 
ATOM     69  C   UNL     1      -0.513   5.629  12.203  1.00  0.00     0.001 A 
ATOM     70  C   UNL     1      -1.320   6.442  11.407  1.00  0.00     0.000 A 
ENDBRANCH  51  65
BRANCH  52  71
ATOM     71  C   UNL     1      -0.066  -5.899   8.422  1.00  0.00    -0.014 A 
ATOM     72  C   UNL     1      -1.197  -6.712   8.229  1.00  0.00     0.009 A 
ATOM     73  C   UNL     1       1.202  -6.498   8.369  1.00  0.00     0.009 A 
ATOM     74  C   UNL     1      -1.066  -8.091   8.033  1.00  0.00     0.001 A 
ATOM     75  C   UNL     1       1.333  -7.874   8.145  1.00  0.00     0.001 A 
ATOM     76  C   UNL     1       0.199  -8.671   7.990  1.00  0.00     0.000 A 
ENDBRANCH  52  71
BRANCH  64  77
ATOM     77  C   UNL     1      -2.833  -2.759  13.982  1.00  0.00    -0.014 A 
ATOM     78  C   UNL     1      -2.102  -3.360  15.017  1.00  0.00     0.009 A 
ATOM     79  C   UNL     1      -4.217  -2.576  14.142  1.00  0.00     0.009 A 
ATOM     80  C   UNL     1      -2.749  -3.790  16.178  1.00  0.00     0.001 A 
ATOM     81  C   UNL     1      -4.855  -2.979  15.316  1.00  0.00     0.001 A 
ATOM     82  C   UNL     1      -4.122  -3.592  16.329  1.00  0.00     0.000 A 
ENDBRANCH  64  77
ENDBRANCH  38  39
ENDBRANCH  31  33
ENDBRANCH  30  31
ENDBRANCH  29  30
ENDBRANCH   1  29
TORSDOF 15
