REMARK SMILES O=C(OCCOC(=O)[C@H]1Cc2[nH]cnc2CN1S(=O)(=O)c1cccs1)c1ccc(-c2c3nc(c(-c4ccccc4)c4ccc([nH]4)c(-c4ccccc4)c4nc(c(-c5ccccc5)c5ccc2[nH]5)C=C4)C=C3)cc1
REMARK SMILES IDX 4 1 3 2 2 3 1 4 26 5 27 6 73 7 28 8 72 9 29 10 30 11 31 12
REMARK SMILES IDX 66 13 32 14 71 15 65 16 67 17 33 18 70 19 64 20 63 21 34 23
REMARK SMILES IDX 56 24 41 25 55 26 42 27 45 28 54 29 68 30 43 31 44 32 53 34
REMARK SMILES IDX 69 35 46 36 35 37 36 38 40 39 37 40 39 41 38 42 57 43 58 44
REMARK SMILES IDX 62 45 59 46 61 47 60 48 47 49 48 50 52 51 49 52 51 53 50 54
REMARK SMILES IDX 5 55 6 56 7 57 8 58 9 59 10 60 17 61 11 62 16 63 12 64 15 65
REMARK SMILES IDX 13 66 14 68 18 69 19 70 20 71 21 72 22 73 25 74 23 75 24 76
REMARK H PARENT 67 22 45 33 12 67
REMARK Flexibility Score: inf
ROOT
ATOM      1  C   UNL     1       5.340  -0.345  -0.977  1.00  0.00     0.275 C 
ENDROOT
BRANCH   1   2
ATOM      2  O   UNL     1       5.253  -0.556   0.434  1.00  0.00    -0.458 OA
BRANCH   2   3
ATOM      3  C   UNL     1       3.956  -0.723   0.759  1.00  0.00     0.338 C 
ATOM      4  O   UNL     1       3.019  -0.751  -0.018  1.00  0.00    -0.246 OA
BRANCH   3   5
ATOM      5  C   UNL     1       3.700  -0.768   2.185  1.00  0.00     0.060 A 
ATOM      6  C   UNL     1       4.460  -1.504   3.076  1.00  0.00     0.016 A 
ATOM      7  C   UNL     1       2.432  -0.291   2.502  1.00  0.00     0.016 A 
ATOM      8  C   UNL     1       3.826  -1.922   4.231  1.00  0.00     0.010 A 
ATOM      9  C   UNL     1       1.771  -0.762   3.589  1.00  0.00     0.010 A 
ATOM     10  C   UNL     1       2.463  -1.614   4.418  1.00  0.00    -0.014 A 
BRANCH  10  11
ATOM     11  C   UNL     1       1.823  -1.844   5.678  1.00  0.00     0.031 A 
ATOM     12  C   UNL     1       2.292  -0.836   6.649  1.00  0.00     0.074 A 
ATOM     13  C   UNL     1       0.818  -2.700   5.901  1.00  0.00     0.049 A 
ATOM     14  N   UNL     1       3.377  -0.951   7.335  1.00  0.00    -0.248 NA
ATOM     15  C   UNL     1       1.751   0.534   6.612  1.00  0.00     0.031 C 
ATOM     16  C   UNL     1      -0.002  -3.495   4.992  1.00  0.00     0.029 A 
ATOM     17  N   UNL     1       0.319  -3.007   7.115  1.00  0.00    -0.354 N 
ATOM     18  C   UNL     1       3.496   0.228   8.043  1.00  0.00     0.074 A 
ATOM     19  C   UNL     1       2.650   1.176   7.364  1.00  0.00     0.031 C 
ATOM     20  C   UNL     1      -1.014  -4.071   5.696  1.00  0.00     0.029 A 
ATOM     21  C   UNL     1      -0.802  -3.811   7.112  1.00  0.00     0.049 A 
ATOM     22  H   UNL     1       0.728  -2.679   7.949  1.00  0.00     0.167 HD
ATOM     23  C   UNL     1       4.012   0.196   9.301  1.00  0.00     0.031 A 
ATOM     24  C   UNL     1      -1.477  -4.191   8.225  1.00  0.00     0.031 A 
ATOM     25  C   UNL     1       4.628  -1.092   9.567  1.00  0.00     0.049 A 
ATOM     26  C   UNL     1      -0.523  -4.077   9.367  1.00  0.00     0.074 A 
ATOM     27  C   UNL     1       5.653  -1.812   8.983  1.00  0.00     0.029 A 
ATOM     28  N   UNL     1       3.844  -2.017  10.227  1.00  0.00    -0.354 N 
ATOM     29  N   UNL     1       0.540  -4.828   9.471  1.00  0.00    -0.248 NA
ATOM     30  C   UNL     1      -0.452  -2.808  10.082  1.00  0.00     0.031 C 
ATOM     31  C   UNL     1       5.169  -3.156   8.920  1.00  0.00     0.029 A 
ATOM     32  C   UNL     1       3.926  -3.211   9.555  1.00  0.00     0.049 A 
ATOM     33  H   UNL     1       3.317  -1.849  11.041  1.00  0.00     0.167 HD
ATOM     34  C   UNL     1       1.556  -3.965   9.866  1.00  0.00     0.074 A 
ATOM     35  C   UNL     1       0.866  -2.752  10.313  1.00  0.00     0.031 C 
ATOM     36  C   UNL     1       2.860  -4.194   9.517  1.00  0.00     0.031 A 
BRANCH  23  37
ATOM     37  C   UNL     1       3.505   1.078  10.412  1.00  0.00    -0.014 A 
ATOM     38  C   UNL     1       4.028   0.868  11.699  1.00  0.00     0.009 A 
ATOM     39  C   UNL     1       2.349   1.876  10.320  1.00  0.00     0.009 A 
ATOM     40  C   UNL     1       3.354   1.319  12.838  1.00  0.00     0.001 A 
ATOM     41  C   UNL     1       1.690   2.354  11.453  1.00  0.00     0.001 A 
ATOM     42  C   UNL     1       2.173   2.044  12.714  1.00  0.00     0.000 A 
ENDBRANCH  23  37
BRANCH  24  43
ATOM     43  C   UNL     1      -2.938  -4.289   8.414  1.00  0.00    -0.014 A 
ATOM     44  C   UNL     1      -3.480  -4.959   9.523  1.00  0.00     0.009 A 
ATOM     45  C   UNL     1      -3.799  -3.472   7.658  1.00  0.00     0.009 A 
ATOM     46  C   UNL     1      -4.825  -4.786   9.882  1.00  0.00     0.001 A 
ATOM     47  C   UNL     1      -5.140  -3.297   8.018  1.00  0.00     0.001 A 
ATOM     48  C   UNL     1      -5.649  -3.943   9.139  1.00  0.00     0.000 A 
ENDBRANCH  24  43
BRANCH  36  49
ATOM     49  C   UNL     1       3.184  -5.512   8.846  1.00  0.00    -0.014 A 
ATOM     50  C   UNL     1       2.659  -5.903   7.599  1.00  0.00     0.009 A 
ATOM     51  C   UNL     1       4.168  -6.323   9.428  1.00  0.00     0.009 A 
ATOM     52  C   UNL     1       3.083  -7.084   6.976  1.00  0.00     0.001 A 
ATOM     53  C   UNL     1       4.605  -7.492   8.799  1.00  0.00     0.001 A 
ATOM     54  C   UNL     1       4.059  -7.876   7.577  1.00  0.00     0.000 A 
ENDBRANCH  36  49
ENDBRANCH  10  11
ENDBRANCH   3   5
ENDBRANCH   2   3
ENDBRANCH   1   2
BRANCH   1  55
ATOM     55  C   UNL     1       4.857   1.066  -1.395  1.00  0.00     0.274 C 
BRANCH  55  56
ATOM     56  O   UNL     1       4.083   1.720  -0.354  1.00  0.00    -0.461 OA
BRANCH  56  57
ATOM     57  C   UNL     1       2.867   2.268  -0.662  1.00  0.00     0.325 C 
ATOM     58  O   UNL     1       2.462   2.460  -1.800  1.00  0.00    -0.250 OA
BRANCH  57  59
ATOM     59  C   UNL     1       2.170   2.742   0.593  1.00  0.00     0.189 C 
ATOM     60  C   UNL     1       2.490   4.290   0.565  1.00  0.00     0.088 C 
ATOM     61  N   UNL     1       0.681   2.584   0.847  1.00  0.00    -0.176 NA
ATOM     62  C   UNL     1       1.954   4.915   1.792  1.00  0.00     0.041 A 
ATOM     63  C   UNL     1       0.317   3.061   2.275  1.00  0.00     0.161 C 
ATOM     64  N   UNL     1       2.267   6.109   2.368  1.00  0.00    -0.348 N 
ATOM     65  C   UNL     1       0.969   4.366   2.570  1.00  0.00     0.077 A 
ATOM     66  C   UNL     1       1.508   6.202   3.507  1.00  0.00     0.197 A 
ATOM     67  H   UNL     1       2.911   6.774   2.033  1.00  0.00     0.167 HD
ATOM     68  N   UNL     1       0.727   5.152   3.663  1.00  0.00    -0.240 NA
BRANCH  61  69
ATOM     69  S   UNL     1      -0.366   1.289   0.489  1.00  0.00     0.253 S 
ATOM     70  O   UNL     1      -0.343   0.425   1.656  1.00  0.00    -0.206 OA
ATOM     71  O   UNL     1      -1.624   1.933   0.156  1.00  0.00    -0.206 OA
BRANCH  69  72
ATOM     72  C   UNL     1      -0.105   0.146  -0.847  1.00  0.00     0.135 A 
ATOM     73  C   UNL     1       0.853  -0.151  -1.796  1.00  0.00     0.033 A 
ATOM     74  S   UNL     1      -1.402  -1.008  -0.979  1.00  0.00    -0.131 S 
ATOM     75  C   UNL     1       0.557  -1.302  -2.587  1.00  0.00     0.013 A 
ATOM     76  C   UNL     1      -0.649  -1.859  -2.249  1.00  0.00     0.066 A 
ENDBRANCH  69  72
ENDBRANCH  61  69
ENDBRANCH  57  59
ENDBRANCH  56  57
ENDBRANCH  55  56
ENDBRANCH   1  55
TORSDOF 13
