REMARK SMILES O=C(OCCOC(=O)c1ccc(OC[C@H]2C[C@H]3CC[C@@H]2C3)c(Cl)c1)c1ccc(-c2c3nc(c(-c4ccccc4)c4ccc([nH]4)c(-c4ccccc4)c4nc(c(-c5ccccc5)c5ccc2[nH]5)C=C4)C=C3)cc1
REMARK SMILES IDX 5 1 4 2 3 3 2 4 1 5 25 6 26 7 72 8 27 9 71 10 28 11 29 12
REMARK SMILES IDX 30 13 65 14 31 15 70 16 64 17 66 18 32 19 69 20 63 21 62 22
REMARK SMILES IDX 33 24 55 25 40 26 54 27 41 28 44 29 53 30 67 31 42 32 43 33
REMARK SMILES IDX 52 35 68 36 45 37 34 38 35 39 39 40 36 41 38 42 37 43 56 44
REMARK SMILES IDX 57 45 61 46 58 47 60 48 59 49 46 50 47 51 51 52 48 53 50 54
REMARK SMILES IDX 49 55 6 56 7 57 8 58 9 59 10 60 24 61 11 62 22 63 12 64
REMARK SMILES IDX 23 65 13 66 14 67 15 68 16 69 20 70 17 71 19 72 21 73 18 74
REMARK H PARENT 66 23 44 34
REMARK Flexibility Score: inf
ROOT
ATOM      1  C   UNL     1       2.083  13.693  -3.773  1.00  0.00     0.275 C 
ENDROOT
BRANCH   1   2
ATOM      2  C   UNL     1       3.254  13.704  -2.788  1.00  0.00     0.275 C 
BRANCH   2   3
ATOM      3  O   UNL     1       3.802  12.398  -2.548  1.00  0.00    -0.458 OA
BRANCH   3   4
ATOM      4  C   UNL     1       3.641  11.627  -1.447  1.00  0.00     0.338 C 
ATOM      5  O   UNL     1       4.525  10.831  -1.138  1.00  0.00    -0.246 OA
BRANCH   4   6
ATOM      6  C   UNL     1       2.336  11.531  -0.719  1.00  0.00     0.060 A 
ATOM      7  C   UNL     1       1.459  12.580  -0.437  1.00  0.00     0.016 A 
ATOM      8  C   UNL     1       1.993  10.250  -0.251  1.00  0.00     0.016 A 
ATOM      9  C   UNL     1       0.260  12.354   0.251  1.00  0.00     0.010 A 
ATOM     10  C   UNL     1       0.781  10.010   0.403  1.00  0.00     0.010 A 
ATOM     11  C   UNL     1      -0.087  11.070   0.675  1.00  0.00    -0.014 A 
BRANCH  11  12
ATOM     12  C   UNL     1      -1.273  10.860   1.537  1.00  0.00     0.031 A 
ATOM     13  C   UNL     1      -1.061  10.597   2.999  1.00  0.00     0.074 A 
ATOM     14  C   UNL     1      -2.518  10.918   1.032  1.00  0.00     0.049 A 
ATOM     15  N   UNL     1      -1.947  10.411   3.943  1.00  0.00    -0.248 NA
ATOM     16  C   UNL     1       0.336  10.550   3.463  1.00  0.00     0.031 C 
ATOM     17  C   UNL     1      -2.854  11.206  -0.361  1.00  0.00     0.029 A 
ATOM     18  N   UNL     1      -3.736  10.722   1.633  1.00  0.00    -0.354 N 
ATOM     19  C   UNL     1      -1.216  10.253   5.112  1.00  0.00     0.074 A 
ATOM     20  C   UNL     1       0.183  10.290   4.751  1.00  0.00     0.031 C 
ATOM     21  C   UNL     1      -4.186  11.120  -0.521  1.00  0.00     0.029 A 
ATOM     22  C   UNL     1      -4.795  10.779   0.761  1.00  0.00     0.049 A 
ATOM     23  H   UNL     1      -3.840  10.556   2.598  1.00  0.00     0.167 HD
ATOM     24  C   UNL     1      -1.666  10.125   6.381  1.00  0.00     0.031 A 
ATOM     25  C   UNL     1      -6.109  10.575   0.974  1.00  0.00     0.031 A 
ATOM     26  C   UNL     1      -3.054  10.056   6.736  1.00  0.00     0.049 A 
ATOM     27  C   UNL     1      -6.585  10.313   2.376  1.00  0.00     0.074 A 
ATOM     28  C   UNL     1      -3.623   9.937   7.990  1.00  0.00     0.029 A 
ATOM     29  N   UNL     1      -4.096  10.086   5.820  1.00  0.00    -0.354 N 
ATOM     30  N   UNL     1      -5.886  10.237   3.483  1.00  0.00    -0.248 NA
ATOM     31  C   UNL     1      -8.033  10.146   2.564  1.00  0.00     0.031 C 
ATOM     32  C   UNL     1      -5.011   9.854   7.829  1.00  0.00     0.029 A 
ATOM     33  C   UNL     1      -5.306   9.965   6.479  1.00  0.00     0.049 A 
ATOM     34  H   UNL     1      -3.989  10.179   4.846  1.00  0.00     0.167 HD
ATOM     35  C   UNL     1      -6.810  10.063   4.504  1.00  0.00     0.074 A 
ATOM     36  C   UNL     1      -8.120  10.036   3.883  1.00  0.00     0.031 C 
ATOM     37  C   UNL     1      -6.596   9.953   5.838  1.00  0.00     0.031 A 
BRANCH  24  38
ATOM     38  C   UNL     1      -0.620  10.045   7.454  1.00  0.00    -0.014 A 
ATOM     39  C   UNL     1       0.137  11.176   7.804  1.00  0.00     0.009 A 
ATOM     40  C   UNL     1      -0.350   8.822   8.084  1.00  0.00     0.009 A 
ATOM     41  C   UNL     1       1.180  11.071   8.726  1.00  0.00     0.001 A 
ATOM     42  C   UNL     1       0.678   8.726   9.023  1.00  0.00     0.001 A 
ATOM     43  C   UNL     1       1.451   9.846   9.333  1.00  0.00     0.000 A 
ENDBRANCH  24  38
BRANCH  25  44
ATOM     44  C   UNL     1      -7.066  10.628  -0.162  1.00  0.00    -0.014 A 
ATOM     45  C   UNL     1      -7.947  11.709  -0.311  1.00  0.00     0.009 A 
ATOM     46  C   UNL     1      -7.104   9.587  -1.104  1.00  0.00     0.009 A 
ATOM     47  C   UNL     1      -8.864  11.734  -1.366  1.00  0.00     0.001 A 
ATOM     48  C   UNL     1      -8.007   9.625  -2.168  1.00  0.00     0.001 A 
ATOM     49  C   UNL     1      -8.892  10.695  -2.294  1.00  0.00     0.000 A 
ENDBRANCH  25  44
BRANCH  37  50
ATOM     50  C   UNL     1      -7.805   9.853   6.720  1.00  0.00    -0.014 A 
ATOM     51  C   UNL     1      -8.543   8.664   6.815  1.00  0.00     0.009 A 
ATOM     52  C   UNL     1      -8.174  10.954   7.510  1.00  0.00     0.009 A 
ATOM     53  C   UNL     1      -9.644   8.588   7.669  1.00  0.00     0.001 A 
ATOM     54  C   UNL     1      -9.260  10.866   8.381  1.00  0.00     0.001 A 
ATOM     55  C   UNL     1      -9.998   9.686   8.455  1.00  0.00     0.000 A 
ENDBRANCH  37  50
ENDBRANCH  11  12
ENDBRANCH   4   6
ENDBRANCH   3   4
ENDBRANCH   2   3
ENDBRANCH   1   2
BRANCH   1  56
ATOM     56  O   UNL     1       1.163  12.619  -3.526  1.00  0.00    -0.458 OA
BRANCH  56  57
ATOM     57  C   UNL     1       1.369  11.509  -4.281  1.00  0.00     0.338 C 
ATOM     58  O   UNL     1       2.183  11.359  -5.176  1.00  0.00    -0.246 OA
BRANCH  57  59
ATOM     59  C   UNL     1       0.546  10.414  -3.747  1.00  0.00     0.061 A 
ATOM     60  C   UNL     1      -0.838  10.514  -3.670  1.00  0.00     0.019 A 
ATOM     61  C   UNL     1       1.200   9.277  -3.270  1.00  0.00     0.040 A 
ATOM     62  C   UNL     1      -1.558   9.460  -3.106  1.00  0.00     0.049 A 
ATOM     63  C   UNL     1       0.479   8.256  -2.633  1.00  0.00     0.083 A 
ATOM     64  C   UNL     1      -0.919   8.325  -2.571  1.00  0.00     0.137 A 
ATOM     65  Cl  UNL     1       1.460   7.059  -1.857  1.00  0.00    -0.080 Cl
BRANCH  64  66
ATOM     66  O   UNL     1      -1.827   7.462  -2.030  1.00  0.00    -0.492 OA
BRANCH  66  67
ATOM     67  C   UNL     1      -1.523   6.100  -1.752  1.00  0.00     0.233 C 
BRANCH  67  68
ATOM     68  C   UNL     1      -1.143   5.291  -2.990  1.00  0.00     0.030 C 
ATOM     69  C   UNL     1      -1.057   3.774  -2.737  1.00  0.00     0.011 C 
ATOM     70  C   UNL     1      -2.074   5.391  -4.218  1.00  0.00    -0.004 C 
ATOM     71  C   UNL     1      -1.834   3.194  -3.933  1.00  0.00    -0.010 C 
ATOM     72  C   UNL     1      -3.500   4.929  -3.889  1.00  0.00     0.004 C 
ATOM     73  C   UNL     1      -1.552   4.209  -5.042  1.00  0.00     0.007 C 
ATOM     74  C   UNL     1      -3.336   3.415  -3.689  1.00  0.00     0.004 C 
ENDBRANCH  67  68
ENDBRANCH  66  67
ENDBRANCH  64  66
ENDBRANCH  57  59
ENDBRANCH  56  57
ENDBRANCH   1  56
TORSDOF 14
