REMARK SMILES O=C(OCCOC(=O)c1ccccc1Nc1cccc(S(F)(F)(F)(F)F)c1)c1ccc(-c2c3nc(c(-c4ccccc4)c4ccc([nH]4)c(-c4ccccc4)c4nc(c(-c5ccccc5)c5ccc2[nH]5)C=C4)C=C3)cc1
REMARK SMILES IDX 5 1 4 2 3 3 2 4 1 5 28 6 29 7 75 8 30 9 74 10 31 11 32 12
REMARK SMILES IDX 33 13 68 14 34 15 73 16 67 17 69 18 35 19 72 20 66 21 65 22
REMARK SMILES IDX 36 24 58 25 43 26 57 27 44 28 47 29 56 30 70 31 45 32 46 33
REMARK SMILES IDX 55 35 71 36 48 37 37 38 38 39 42 40 39 41 41 42 40 43 59 44
REMARK SMILES IDX 60 45 64 46 61 47 63 48 62 49 49 50 50 51 54 52 51 53 53 54
REMARK SMILES IDX 52 55 6 56 7 57 8 58 9 59 10 60 14 61 11 62 13 63 12 64
REMARK SMILES IDX 15 65 16 67 17 68 27 69 18 70 20 71 19 72 21 73 22 74 23 75
REMARK SMILES IDX 24 76 25 77 26 78
REMARK H PARENT 69 23 47 34 15 66
REMARK Flexibility Score: inf
ROOT
ATOM      1  C   UNL     1       4.923   1.434  -0.028  1.00  0.00     0.275 C 
ENDROOT
BRANCH   1   2
ATOM      2  C   UNL     1       4.417   0.510  -1.123  1.00  0.00     0.275 C 
BRANCH   2   3
ATOM      3  O   UNL     1       2.997   0.510  -1.123  1.00  0.00    -0.458 OA
BRANCH   3   4
ATOM      4  C   UNL     1       2.287   0.093   0.034  1.00  0.00     0.338 C 
ATOM      5  O   UNL     1       1.016   0.093   0.034  1.00  0.00    -0.246 OA
BRANCH   4   6
ATOM      6  C   UNL     1       3.047  -0.354   1.272  1.00  0.00     0.060 A 
ATOM      7  C   UNL     1       4.167   0.363   1.659  1.00  0.00     0.016 A 
ATOM      8  C   UNL     1       2.674  -1.452   1.919  1.00  0.00     0.016 A 
ATOM      9  C   UNL     1       5.001  -0.325   2.572  1.00  0.00     0.010 A 
ATOM     10  C   UNL     1       3.475  -1.995   2.895  1.00  0.00     0.010 A 
ATOM     11  C   UNL     1       4.627  -1.371   3.287  1.00  0.00    -0.014 A 
BRANCH  11  12
ATOM     12  C   UNL     1       5.433  -1.854   4.481  1.00  0.00     0.031 A 
ATOM     13  C   UNL     1       5.949  -3.151   4.473  1.00  0.00     0.074 A 
ATOM     14  C   UNL     1       5.668  -0.935   5.489  1.00  0.00     0.049 A 
ATOM     15  N   UNL     1       6.755  -3.712   5.375  1.00  0.00    -0.248 NA
ATOM     16  C   UNL     1       5.673  -4.141   3.420  1.00  0.00     0.031 C 
ATOM     17  C   UNL     1       5.158   0.379   5.501  1.00  0.00     0.029 A 
ATOM     18  N   UNL     1       6.412  -1.108   6.635  1.00  0.00    -0.354 N 
ATOM     19  C   UNL     1       7.051  -4.963   5.015  1.00  0.00     0.074 A 
ATOM     20  C   UNL     1       6.354  -5.258   3.756  1.00  0.00     0.031 C 
ATOM     21  C   UNL     1       5.580   0.984   6.642  1.00  0.00     0.029 A 
ATOM     22  C   UNL     1       6.361   0.060   7.362  1.00  0.00     0.049 A 
ATOM     23  H   UNL     1       6.898  -1.926   6.889  1.00  0.00     0.167 HD
ATOM     24  C   UNL     1       7.875  -5.867   5.686  1.00  0.00     0.031 A 
ATOM     25  C   UNL     1       6.952   0.324   8.588  1.00  0.00     0.031 A 
ATOM     26  C   UNL     1       8.502  -5.589   6.890  1.00  0.00     0.049 A 
ATOM     27  C   UNL     1       7.730  -0.601   9.288  1.00  0.00     0.074 A 
ATOM     28  C   UNL     1       9.343  -6.487   7.575  1.00  0.00     0.029 A 
ATOM     29  N   UNL     1       8.430  -4.429   7.630  1.00  0.00    -0.354 N 
ATOM     30  N   UNL     1       8.057  -1.838   8.909  1.00  0.00    -0.248 NA
ATOM     31  C   UNL     1       8.334  -0.344  10.602  1.00  0.00     0.031 C 
ATOM     32  C   UNL     1       9.764  -5.881   8.717  1.00  0.00     0.029 A 
ATOM     33  C   UNL     1       9.193  -4.595   8.764  1.00  0.00     0.049 A 
ATOM     34  H   UNL     1       7.921  -3.622   7.389  1.00  0.00     0.167 HD
ATOM     35  C   UNL     1       8.830  -2.413   9.832  1.00  0.00     0.074 A 
ATOM     36  C   UNL     1       9.014  -1.463  10.938  1.00  0.00     0.031 C 
ATOM     37  C   UNL     1       9.393  -3.689   9.795  1.00  0.00     0.031 A 
BRANCH  24  38
ATOM     38  C   UNL     1       8.098  -7.235   5.060  1.00  0.00    -0.014 A 
ATOM     39  C   UNL     1       8.735  -7.231   3.830  1.00  0.00     0.009 A 
ATOM     40  C   UNL     1       7.771  -8.372   5.663  1.00  0.00     0.009 A 
ATOM     41  C   UNL     1       8.726  -8.486   3.176  1.00  0.00     0.001 A 
ATOM     42  C   UNL     1       7.915  -9.574   5.014  1.00  0.00     0.001 A 
ATOM     43  C   UNL     1       8.482  -9.639   3.772  1.00  0.00     0.000 A 
ENDBRANCH  24  38
BRANCH  25  44
ATOM     44  C   UNL     1       6.742   1.697   9.205  1.00  0.00    -0.014 A 
ATOM     45  C   UNL     1       7.824   2.481   9.569  1.00  0.00     0.009 A 
ATOM     46  C   UNL     1       5.497   2.074   9.470  1.00  0.00     0.009 A 
ATOM     47  C   UNL     1       7.500   3.519  10.475  1.00  0.00     0.001 A 
ATOM     48  C   UNL     1       5.252   3.179  10.250  1.00  0.00     0.001 A 
ATOM     49  C   UNL     1       6.277   3.967  10.695  1.00  0.00     0.000 A 
ENDBRANCH  25  44
BRANCH  37  50
ATOM     50  C   UNL     1      10.279  -4.113  10.955  1.00  0.00    -0.014 A 
ATOM     51  C   UNL     1       9.754  -4.092  12.237  1.00  0.00     0.009 A 
ATOM     52  C   UNL     1      11.546  -4.443  10.735  1.00  0.00     0.009 A 
ATOM     53  C   UNL     1      10.732  -4.157  13.258  1.00  0.00     0.001 A 
ATOM     54  C   UNL     1      12.414  -4.625  11.784  1.00  0.00     0.001 A 
ATOM     55  C   UNL     1      11.977  -4.560  13.078  1.00  0.00     0.000 A 
ENDBRANCH  37  50
ENDBRANCH  11  12
ENDBRANCH   4   6
ENDBRANCH   3   4
ENDBRANCH   2   3
ENDBRANCH   1   2
BRANCH   1  56
ATOM     56  O   UNL     1       4.450   0.980   1.232  1.00  0.00    -0.458 OA
BRANCH  56  57
ATOM     57  C   UNL     1       3.054   0.892   1.476  1.00  0.00     0.340 C 
ATOM     58  O   UNL     1       2.228   1.220   0.567  1.00  0.00    -0.246 OA
BRANCH  57  59
ATOM     59  C   UNL     1       2.547   0.405   2.824  1.00  0.00     0.083 A 
ATOM     60  C   UNL     1       1.448  -0.434   2.891  1.00  0.00     0.018 A 
ATOM     61  C   UNL     1       3.115   0.886   3.924  1.00  0.00     0.053 A 
ATOM     62  C   UNL     1       0.837  -0.479   4.166  1.00  0.00     0.001 A 
ATOM     63  C   UNL     1       2.535   0.688   5.154  1.00  0.00     0.027 A 
ATOM     64  C   UNL     1       1.413  -0.082   5.286  1.00  0.00     0.002 A 
BRANCH  61  65
ATOM     65  N   UNL     1       4.375   1.636   3.825  1.00  0.00    -0.355 N 
ATOM     66  H   UNL     1       4.795   1.780   2.946  1.00  0.00     0.167 HD
BRANCH  65  67
ATOM     67  C   UNL     1       5.009   2.171   5.039  1.00  0.00     0.040 A 
ATOM     68  C   UNL     1       5.319   3.518   5.134  1.00  0.00     0.026 A 
ATOM     69  C   UNL     1       5.367   1.313   5.987  1.00  0.00     0.050 A 
ATOM     70  C   UNL     1       6.268   3.818   6.139  1.00  0.00     0.004 A 
ATOM     71  C   UNL     1       6.188   1.709   7.015  1.00  0.00     0.109 A 
ATOM     72  C   UNL     1       6.581   3.013   7.138  1.00  0.00     0.024 A 
BRANCH  71  73
ATOM     73  S   UNL     1       6.756   0.488   8.224  1.00  0.00     0.310 S 
ATOM     74  F   UNL     1       5.376   0.765   8.954  1.00  0.00    -0.094 F 
ATOM     75  F   UNL     1       7.388   1.600   9.143  1.00  0.00    -0.094 F 
ATOM     76  F   UNL     1       7.036  -0.600   9.299  1.00  0.00    -0.094 F 
ATOM     77  F   UNL     1       5.995  -0.585   7.349  1.00  0.00    -0.094 F 
ATOM     78  F   UNL     1       6.365   1.601   7.172  1.00  0.00    -0.094 F 
ENDBRANCH  71  73
ENDBRANCH  65  67
ENDBRANCH  61  65
ENDBRANCH  57  59
ENDBRANCH  56  57
ENDBRANCH   1  56
TORSDOF 14
