REMARK SMILES CCc1c(C)nn(CC(=O)N[C@H](C(=O)OCCOC(=O)c2ccc(-c3c4nc(c(-c5ccccc5)c5ccc([nH]5)c(-c5ccccc5)c5nc(c(-c6ccccc6)c6ccc3[nH]6)C=C5)C=C4)cc2)c2c(C)n[nH]c2C)c1C
REMARK SMILES IDX 16 1 15 2 13 3 14 4 12 5 11 6 9 7 10 8 8 10 7 11 3 12 4 13
REMARK SMILES IDX 76 14 5 15 6 16 77 17 2 18 1 19 69 20 70 21 74 22 71 23
REMARK SMILES IDX 72 24 73 25 75 26 17 28 18 29 19 30 20 31 21 32 22 33 68 34
REMARK SMILES IDX 23 35 67 36 24 37 25 38 26 39 61 40 27 41 66 42 60 43 62 44
REMARK SMILES IDX 28 45 65 46 59 47 58 48 29 50 51 51 36 52 50 53 37 54 40 55
REMARK SMILES IDX 49 56 63 57 38 58 39 59 48 61 64 62 41 63 30 64 31 65 35 66
REMARK SMILES IDX 32 67 34 68 33 69 52 70 53 71 57 72 54 73 56 74 55 75 42 76
REMARK SMILES IDX 43 77 47 78 44 79 46 80 45 81
REMARK H PARENT 11 9 73 27 62 49 40 60
REMARK Flexibility Score: inf
ROOT
ATOM      1  C   UNL     1      -1.359  -4.076  -7.585  1.00  0.00     0.274 C 
ENDROOT
BRANCH   1   2
ATOM      2  O   UNL     1      -2.079  -3.820  -6.365  1.00  0.00    -0.460 OA
BRANCH   2   3
ATOM      3  C   UNL     1      -1.410  -3.187  -5.363  1.00  0.00     0.333 C 
ATOM      4  O   UNL     1      -0.234  -2.834  -5.446  1.00  0.00    -0.249 OA
BRANCH   3   5
ATOM      5  C   UNL     1      -2.285  -2.874  -4.128  1.00  0.00     0.227 C 
BRANCH   5   6
ATOM      6  N   UNL     1      -2.492  -1.431  -4.018  1.00  0.00    -0.337 N 
ATOM      7  C   UNL     1      -2.434  -0.546  -2.994  1.00  0.00     0.242 C 
ATOM      8  O   UNL     1      -2.534   0.647  -3.325  1.00  0.00    -0.273 OA
ATOM      9  H   UNL     1      -2.725  -1.010  -4.877  1.00  0.00     0.164 HD
BRANCH   7  10
ATOM     10  C   UNL     1      -2.317  -0.849  -1.513  1.00  0.00     0.244 C 
BRANCH  10  11
ATOM     11  N   UNL     1      -1.997  -2.200  -1.110  1.00  0.00    -0.260 N 
ATOM     12  C   UNL     1      -1.014  -4.142  -0.816  1.00  0.00    -0.004 A 
ATOM     13  C   UNL     1      -2.418  -4.209  -0.586  1.00  0.00     0.063 A 
ATOM     14  C   UNL     1      -0.761  -2.797  -1.054  1.00  0.00     0.039 A 
ATOM     15  C   UNL     1      -3.270  -5.386  -0.279  1.00  0.00     0.069 C 
ATOM     16  N   UNL     1      -2.994  -3.012  -0.726  1.00  0.00    -0.177 NA
ATOM     17  C   UNL     1       0.503  -2.065  -1.322  1.00  0.00     0.066 C 
BRANCH  12  18
ATOM     18  C   UNL     1      -0.039  -5.272  -0.856  1.00  0.00     0.036 C 
ATOM     19  C   UNL     1       0.890  -5.307   0.343  1.00  0.00     0.009 C 
ENDBRANCH  12  18
ENDBRANCH  10  11
ENDBRANCH   7  10
ENDBRANCH   5   6
BRANCH   5  20
ATOM     20  C   UNL     1      -3.573  -3.634  -4.044  1.00  0.00     0.029 A 
ATOM     21  C   UNL     1      -3.683  -5.061  -4.057  1.00  0.00     0.065 A 
ATOM     22  C   UNL     1      -4.877  -3.202  -3.841  1.00  0.00     0.038 A 
ATOM     23  C   UNL     1      -2.598  -6.070  -4.174  1.00  0.00     0.069 C 
ATOM     24  N   UNL     1      -4.949  -5.469  -3.931  1.00  0.00    -0.180 NA
ATOM     25  N   UNL     1      -5.640  -4.333  -3.776  1.00  0.00    -0.282 N 
ATOM     26  C   UNL     1      -5.485  -1.863  -3.643  1.00  0.00     0.066 C 
ATOM     27  H   UNL     1      -6.613  -4.315  -3.629  1.00  0.00     0.190 HD
ENDBRANCH   5  20
ENDBRANCH   3   5
ENDBRANCH   2   3
ENDBRANCH   1   2
BRANCH   1  28
ATOM     28  C   UNL     1      -1.684  -3.028  -8.654  1.00  0.00     0.275 C 
BRANCH  28  29
ATOM     29  O   UNL     1      -0.953  -1.806  -8.445  1.00  0.00    -0.458 OA
BRANCH  29  30
ATOM     30  C   UNL     1      -1.511  -0.940  -7.570  1.00  0.00     0.338 C 
ATOM     31  O   UNL     1      -2.572  -1.057  -6.977  1.00  0.00    -0.246 OA
BRANCH  30  32
ATOM     32  C   UNL     1      -0.570   0.151  -7.285  1.00  0.00     0.060 A 
ATOM     33  C   UNL     1      -0.229   0.376  -5.949  1.00  0.00     0.016 A 
ATOM     34  C   UNL     1      -0.108   0.999  -8.290  1.00  0.00     0.016 A 
ATOM     35  C   UNL     1       0.521   1.484  -5.594  1.00  0.00     0.010 A 
ATOM     36  C   UNL     1       0.674   2.101  -7.936  1.00  0.00     0.010 A 
ATOM     37  C   UNL     1       0.966   2.361  -6.585  1.00  0.00    -0.014 A 
BRANCH  37  38
ATOM     38  C   UNL     1       1.678   3.590  -6.186  1.00  0.00     0.031 A 
ATOM     39  C   UNL     1       0.973   4.910  -6.281  1.00  0.00     0.074 A 
ATOM     40  C   UNL     1       2.932   3.508  -5.709  1.00  0.00     0.049 A 
ATOM     41  N   UNL     1       1.447   6.113  -6.090  1.00  0.00    -0.248 NA
ATOM     42  C   UNL     1      -0.454   4.871  -6.642  1.00  0.00     0.031 C 
ATOM     43  C   UNL     1       3.683   2.267  -5.505  1.00  0.00     0.029 A 
ATOM     44  N   UNL     1       3.796   4.493  -5.309  1.00  0.00    -0.354 N 
ATOM     45  C   UNL     1       0.388   6.975  -6.344  1.00  0.00     0.074 A 
ATOM     46  C   UNL     1      -0.750   6.161  -6.708  1.00  0.00     0.031 C 
ATOM     47  C   UNL     1       4.896   2.567  -5.014  1.00  0.00     0.029 A 
ATOM     48  C   UNL     1       5.025   4.018  -4.925  1.00  0.00     0.049 A 
ATOM     49  H   UNL     1       3.558   5.448  -5.297  1.00  0.00     0.167 HD
ATOM     50  C   UNL     1       0.376   8.327  -6.282  1.00  0.00     0.031 A 
ATOM     51  C   UNL     1       6.139   4.685  -4.576  1.00  0.00     0.031 A 
ATOM     52  C   UNL     1       1.510   9.123  -5.898  1.00  0.00     0.049 A 
ATOM     53  C   UNL     1       6.113   6.187  -4.573  1.00  0.00     0.074 A 
ATOM     54  C   UNL     1       1.603  10.499  -5.795  1.00  0.00     0.029 A 
ATOM     55  N   UNL     1       2.748   8.607  -5.545  1.00  0.00    -0.354 N 
ATOM     56  N   UNL     1       5.117   6.996  -4.840  1.00  0.00    -0.248 NA
ATOM     57  C   UNL     1       7.368   6.867  -4.226  1.00  0.00     0.031 C 
ATOM     58  C   UNL     1       2.913  10.819  -5.419  1.00  0.00     0.029 A 
ATOM     59  C   UNL     1       3.618   9.639  -5.242  1.00  0.00     0.049 A 
ATOM     60  H   UNL     1       2.974   7.649  -5.516  1.00  0.00     0.167 HD
ATOM     61  C   UNL     1       5.615   8.280  -4.667  1.00  0.00     0.074 A 
ATOM     62  C   UNL     1       6.999   8.140  -4.260  1.00  0.00     0.031 C 
ATOM     63  C   UNL     1       4.987   9.469  -4.830  1.00  0.00     0.031 A 
BRANCH  50  64
ATOM     64  C   UNL     1      -0.890   9.029  -6.679  1.00  0.00    -0.014 A 
ATOM     65  C   UNL     1      -2.020   9.034  -5.848  1.00  0.00     0.009 A 
ATOM     66  C   UNL     1      -0.938   9.727  -7.897  1.00  0.00     0.009 A 
ATOM     67  C   UNL     1      -3.181   9.705  -6.239  1.00  0.00     0.001 A 
ATOM     68  C   UNL     1      -2.091  10.416  -8.274  1.00  0.00     0.001 A 
ATOM     69  C   UNL     1      -3.214  10.399  -7.449  1.00  0.00     0.000 A 
ENDBRANCH  50  64
BRANCH  51  70
ATOM     70  C   UNL     1       7.381   3.942  -4.241  1.00  0.00    -0.014 A 
ATOM     71  C   UNL     1       7.877   3.933  -2.929  1.00  0.00     0.009 A 
ATOM     72  C   UNL     1       8.087   3.251  -5.238  1.00  0.00     0.009 A 
ATOM     73  C   UNL     1       9.069   3.270  -2.628  1.00  0.00     0.001 A 
ATOM     74  C   UNL     1       9.263   2.566  -4.930  1.00  0.00     0.001 A 
ATOM     75  C   UNL     1       9.759   2.585  -3.628  1.00  0.00     0.000 A 
ENDBRANCH  51  70
BRANCH  63  76
ATOM     76  C   UNL     1       5.780  10.704  -4.521  1.00  0.00    -0.014 A 
ATOM     77  C   UNL     1       6.776  11.167  -5.394  1.00  0.00     0.009 A 
ATOM     78  C   UNL     1       5.500  11.433  -3.355  1.00  0.00     0.009 A 
ATOM     79  C   UNL     1       7.499  12.321  -5.087  1.00  0.00     0.001 A 
ATOM     80  C   UNL     1       6.206  12.600  -3.064  1.00  0.00     0.001 A 
ATOM     81  C   UNL     1       7.210  13.038  -3.926  1.00  0.00     0.000 A 
ENDBRANCH  63  76
ENDBRANCH  37  38
ENDBRANCH  30  32
ENDBRANCH  29  30
ENDBRANCH  28  29
ENDBRANCH   1  28
TORSDOF 16
