REMARK SMILES Cc1c(C(=O)OCCOC(=O)c2ccc(-c3c4nc(c(-c5ccccc5)c5ccc([nH]5)c(-c5ccccc5)c5nc(c(-c6ccccc6)c6ccc3[nH]6)C=C5)C=C4)cc2)cccc1-n1c(C)cc(/C=C2/C(=O)NC(=S)N=C2O)c1C
REMARK SMILES IDX 7 1 6 2 4 3 5 4 3 5 1 6 2 7 63 8 60 9 62 10 61 11 64 12
REMARK SMILES IDX 65 13 79 14 66 15 67 16 68 17 80 18 69 19 70 20 71 21 77 22
REMARK SMILES IDX 72 23 73 24 76 25 74 26 75 28 78 29 8 31 9 32 10 33 11 34
REMARK SMILES IDX 12 35 13 36 59 37 14 38 58 39 15 40 16 41 17 42 52 43 18 44
REMARK SMILES IDX 57 45 51 46 53 47 19 48 56 49 50 50 49 51 20 53 42 54 27 55
REMARK SMILES IDX 41 56 28 57 31 58 40 59 54 60 29 61 30 62 39 64 55 65 32 66
REMARK SMILES IDX 21 67 22 68 26 69 23 70 25 71 24 72 43 73 44 74 48 75 45 76
REMARK SMILES IDX 47 77 46 78 33 79 34 80 38 81 35 82 37 83 36 84
REMARK H PARENT 73 27 78 30 53 52 31 63
REMARK Flexibility Score: inf
ROOT
ATOM      1  C   UNL     1       3.076  -3.111   2.213  1.00  0.00     0.275 C 
ENDROOT
BRANCH   1   2
ATOM      2  O   UNL     1       1.981  -2.208   2.025  1.00  0.00    -0.458 OA
BRANCH   2   3
ATOM      3  C   UNL     1       2.079  -1.545   0.850  1.00  0.00     0.338 C 
ATOM      4  O   UNL     1       2.977  -1.673   0.030  1.00  0.00    -0.246 OA
BRANCH   3   5
ATOM      5  C   UNL     1       1.041  -0.519   0.669  1.00  0.00     0.065 A 
ATOM      6  C   UNL     1       2.961   1.081   0.350  1.00  0.00     0.047 C 
ATOM      7  C   UNL     1       1.488   0.743   0.264  1.00  0.00    -0.012 A 
ATOM      8  C   UNL     1       0.511   1.673  -0.119  1.00  0.00     0.049 A 
ATOM      9  C   UNL     1      -0.330  -0.789   0.812  1.00  0.00     0.016 A 
ATOM     10  C   UNL     1      -0.860   1.381  -0.087  1.00  0.00     0.027 A 
ATOM     11  C   UNL     1      -1.280   0.146   0.395  1.00  0.00     0.003 A 
BRANCH   8  12
ATOM     12  N   UNL     1       0.874   3.031  -0.123  1.00  0.00    -0.318 N 
ATOM     13  C   UNL     1       1.605   3.682  -1.097  1.00  0.00     0.020 A 
ATOM     14  C   UNL     1       0.905   3.768   1.057  1.00  0.00     0.027 A 
ATOM     15  C   UNL     1       1.966   3.058  -2.403  1.00  0.00     0.065 C 
ATOM     16  C   UNL     1       1.925   4.927  -0.588  1.00  0.00     0.031 A 
ATOM     17  C   UNL     1       1.442   5.003   0.749  1.00  0.00    -0.003 A 
ATOM     18  C   UNL     1       0.485   3.143   2.358  1.00  0.00     0.065 C 
BRANCH  17  19
ATOM     19  C   UNL     1       1.696   6.091   1.637  1.00  0.00     0.029 C 
ATOM     20  C   UNL     1       0.997   6.551   2.691  1.00  0.00     0.102 C 
ATOM     21  C   UNL     1       1.675   7.572   3.525  1.00  0.00     0.262 C 
ATOM     22  C   UNL     1      -0.294   6.119   3.232  1.00  0.00     0.226 C 
ATOM     23  O   UNL     1       2.636   8.238   3.159  1.00  0.00    -0.269 OA
ATOM     24  N   UNL     1       1.165   7.673   4.793  1.00  0.00    -0.297 N 
ATOM     25  N   UNL     1      -0.725   6.304   4.426  1.00  0.00    -0.184 NA
ATOM     26  C   UNL     1       0.066   7.016   5.288  1.00  0.00     0.203 C 
ATOM     27  H   UNL     1       1.635   8.279   5.411  1.00  0.00     0.172 HD
ATOM     28  S   UNL     1      -0.272   7.186   6.920  1.00  0.00    -0.038 S 
BRANCH  22  29
ATOM     29  O   UNL     1      -1.133   5.526   2.381  1.00  0.00    -0.493 OA
ATOM     30  H   UNL     1      -0.868   5.366   1.496  1.00  0.00     0.295 HD
ENDBRANCH  22  29
ENDBRANCH  17  19
ENDBRANCH   8  12
ENDBRANCH   3   5
ENDBRANCH   2   3
ENDBRANCH   1   2
BRANCH   1  31
ATOM     31  C   UNL     1       2.662  -4.421   2.880  1.00  0.00     0.275 C 
BRANCH  31  32
ATOM     32  O   UNL     1       1.265  -4.833   2.821  1.00  0.00    -0.458 OA
BRANCH  32  33
ATOM     33  C   UNL     1       0.350  -4.688   1.833  1.00  0.00     0.338 C 
ATOM     34  O   UNL     1      -0.855  -4.662   2.073  1.00  0.00    -0.246 OA
BRANCH  33  35
ATOM     35  C   UNL     1       0.818  -4.518   0.447  1.00  0.00     0.060 A 
ATOM     36  C   UNL     1       0.064  -3.728  -0.441  1.00  0.00     0.016 A 
ATOM     37  C   UNL     1       2.035  -5.056   0.054  1.00  0.00     0.016 A 
ATOM     38  C   UNL     1       0.592  -3.354  -1.669  1.00  0.00     0.010 A 
ATOM     39  C   UNL     1       2.616  -4.597  -1.100  1.00  0.00     0.010 A 
ATOM     40  C   UNL     1       1.880  -3.783  -1.974  1.00  0.00    -0.014 A 
BRANCH  40  41
ATOM     41  C   UNL     1       2.414  -3.761  -3.321  1.00  0.00     0.031 A 
ATOM     42  C   UNL     1       2.953  -2.538  -3.922  1.00  0.00     0.074 A 
ATOM     43  C   UNL     1       2.348  -4.980  -3.898  1.00  0.00     0.049 A 
ATOM     44  N   UNL     1       2.737  -2.180  -5.143  1.00  0.00    -0.248 NA
ATOM     45  C   UNL     1       3.740  -1.557  -3.171  1.00  0.00     0.031 C 
ATOM     46  C   UNL     1       2.928  -5.527  -5.104  1.00  0.00     0.029 A 
ATOM     47  N   UNL     1       1.514  -6.004  -3.456  1.00  0.00    -0.354 N 
ATOM     48  C   UNL     1       3.674  -1.203  -5.410  1.00  0.00     0.074 A 
ATOM     49  C   UNL     1       4.101  -0.695  -4.130  1.00  0.00     0.031 C 
ATOM     50  C   UNL     1       2.236  -6.642  -5.436  1.00  0.00     0.029 A 
ATOM     51  C   UNL     1       1.087  -6.746  -4.535  1.00  0.00     0.049 A 
ATOM     52  H   UNL     1       1.267  -6.171  -2.518  1.00  0.00     0.167 HD
ATOM     53  C   UNL     1       4.264  -1.151  -6.636  1.00  0.00     0.031 A 
ATOM     54  C   UNL     1      -0.231  -6.629  -4.888  1.00  0.00     0.031 A 
ATOM     55  C   UNL     1       3.833  -2.277  -7.456  1.00  0.00     0.049 A 
ATOM     56  C   UNL     1      -0.382  -5.930  -6.221  1.00  0.00     0.074 A 
ATOM     57  C   UNL     1       4.420  -3.507  -7.707  1.00  0.00     0.029 A 
ATOM     58  N   UNL     1       2.499  -2.405  -7.799  1.00  0.00    -0.354 N 
ATOM     59  N   UNL     1       0.499  -5.107  -6.721  1.00  0.00    -0.248 NA
ATOM     60  C   UNL     1      -1.558  -6.072  -7.070  1.00  0.00     0.031 C 
ATOM     61  C   UNL     1       3.426  -4.371  -8.237  1.00  0.00     0.029 A 
ATOM     62  C   UNL     1       2.239  -3.668  -8.294  1.00  0.00     0.049 A 
ATOM     63  H   UNL     1       1.827  -1.693  -7.704  1.00  0.00     0.167 HD
ATOM     64  C   UNL     1       0.099  -4.710  -7.967  1.00  0.00     0.074 A 
ATOM     65  C   UNL     1      -1.233  -5.276  -8.104  1.00  0.00     0.031 C 
ATOM     66  C   UNL     1       0.906  -3.971  -8.784  1.00  0.00     0.031 A 
BRANCH  53  67
ATOM     67  C   UNL     1       5.507  -0.348  -6.923  1.00  0.00    -0.014 A 
ATOM     68  C   UNL     1       6.491  -0.877  -7.780  1.00  0.00     0.009 A 
ATOM     69  C   UNL     1       5.763   0.926  -6.388  1.00  0.00     0.009 A 
ATOM     70  C   UNL     1       7.697  -0.217  -8.031  1.00  0.00     0.001 A 
ATOM     71  C   UNL     1       6.979   1.589  -6.626  1.00  0.00     0.001 A 
ATOM     72  C   UNL     1       7.950   1.011  -7.439  1.00  0.00     0.000 A 
ENDBRANCH  53  67
BRANCH  54  73
ATOM     73  C   UNL     1      -1.192  -6.446  -3.739  1.00  0.00    -0.014 A 
ATOM     74  C   UNL     1      -1.167  -7.362  -2.661  1.00  0.00     0.009 A 
ATOM     75  C   UNL     1      -1.938  -5.269  -3.568  1.00  0.00     0.009 A 
ATOM     76  C   UNL     1      -1.773  -7.067  -1.433  1.00  0.00     0.001 A 
ATOM     77  C   UNL     1      -2.572  -4.989  -2.346  1.00  0.00     0.001 A 
ATOM     78  C   UNL     1      -2.466  -5.873  -1.271  1.00  0.00     0.000 A 
ENDBRANCH  54  73
BRANCH  66  79
ATOM     79  C   UNL     1       0.550  -3.447 -10.150  1.00  0.00    -0.014 A 
ATOM     80  C   UNL     1      -0.389  -4.033 -11.000  1.00  0.00     0.009 A 
ATOM     81  C   UNL     1       1.253  -2.329 -10.662  1.00  0.00     0.009 A 
ATOM     82  C   UNL     1      -0.697  -3.459 -12.240  1.00  0.00     0.001 A 
ATOM     83  C   UNL     1       0.970  -1.768 -11.904  1.00  0.00     0.001 A 
ATOM     84  C   UNL     1      -0.029  -2.321 -12.685  1.00  0.00     0.000 A 
ENDBRANCH  66  79
ENDBRANCH  40  41
ENDBRANCH  33  35
ENDBRANCH  32  33
ENDBRANCH  31  32
ENDBRANCH   1  31
TORSDOF 14
