REMARK SMILES O=C(OCCOC(=O)c1cnc(OCC2CC2)c(Cl)c1)c1ccc(-c2c3nc(c(-c4ccccc4)c4ccc([nH]4)c(-c4ccccc4)c4nc(c(-c5ccccc5)c5ccc2[nH]5)C=C4)C=C3)cc1
REMARK SMILES IDX 5 1 4 2 3 3 2 4 1 5 21 6 22 7 68 8 23 9 67 10 24 11 25 12
REMARK SMILES IDX 26 13 61 14 27 15 66 16 60 17 62 18 28 19 65 20 59 21 58 22
REMARK SMILES IDX 29 24 51 25 36 26 50 27 37 28 40 29 49 30 63 31 38 32 39 33
REMARK SMILES IDX 48 35 64 36 41 37 30 38 31 39 35 40 32 41 34 42 33 43 52 44
REMARK SMILES IDX 53 45 57 46 54 47 56 48 55 49 42 50 43 51 47 52 44 53 46 54
REMARK SMILES IDX 45 55 6 56 7 57 8 58 9 59 10 60 20 61 11 62 18 63 12 64
REMARK SMILES IDX 19 65 13 66 14 67 15 68 16 69 17 70
REMARK H PARENT 62 23 40 34
REMARK Flexibility Score: inf
ROOT
ATOM      1  C   UNL     1       4.237  -1.880  -1.194  1.00  0.00     0.275 C 
ENDROOT
BRANCH   1   2
ATOM      2  C   UNL     1       4.369  -1.454   0.275  1.00  0.00     0.275 C 
BRANCH   2   3
ATOM      3  O   UNL     1       3.234  -0.739   0.793  1.00  0.00    -0.458 OA
BRANCH   3   4
ATOM      4  C   UNL     1       2.949   0.583   0.785  1.00  0.00     0.338 C 
ATOM      5  O   UNL     1       2.001   0.979   1.462  1.00  0.00    -0.246 OA
BRANCH   4   6
ATOM      6  C   UNL     1       3.623   1.584  -0.109  1.00  0.00     0.060 A 
ATOM      7  C   UNL     1       4.880   1.450  -0.705  1.00  0.00     0.016 A 
ATOM      8  C   UNL     1       2.895   2.756  -0.391  1.00  0.00     0.016 A 
ATOM      9  C   UNL     1       5.378   2.410  -1.588  1.00  0.00     0.010 A 
ATOM     10  C   UNL     1       3.381   3.719  -1.282  1.00  0.00     0.010 A 
ATOM     11  C   UNL     1       4.640   3.556  -1.873  1.00  0.00    -0.014 A 
BRANCH  11  12
ATOM     12  C   UNL     1       5.304   4.696  -2.542  1.00  0.00     0.031 A 
ATOM     13  C   UNL     1       5.734   5.832  -1.655  1.00  0.00     0.074 A 
ATOM     14  C   UNL     1       5.605   4.692  -3.856  1.00  0.00     0.049 A 
ATOM     15  N   UNL     1       6.226   6.996  -1.976  1.00  0.00    -0.248 NA
ATOM     16  C   UNL     1       5.624   5.604  -0.200  1.00  0.00     0.031 C 
ATOM     17  C   UNL     1       5.414   3.569  -4.776  1.00  0.00     0.029 A 
ATOM     18  N   UNL     1       6.113   5.688  -4.657  1.00  0.00    -0.354 N 
ATOM     19  C   UNL     1       6.521   7.617  -0.768  1.00  0.00     0.074 A 
ATOM     20  C   UNL     1       6.076   6.744   0.291  1.00  0.00     0.031 C 
ATOM     21  C   UNL     1       5.729   3.963  -6.025  1.00  0.00     0.029 A 
ATOM     22  C   UNL     1       6.071   5.381  -6.002  1.00  0.00     0.049 A 
ATOM     23  H   UNL     1       6.470   6.536  -4.306  1.00  0.00     0.167 HD
ATOM     24  C   UNL     1       7.147   8.797  -0.566  1.00  0.00     0.031 A 
ATOM     25  C   UNL     1       6.184   6.197  -7.073  1.00  0.00     0.031 A 
ATOM     26  C   UNL     1       7.528   9.665  -1.642  1.00  0.00     0.049 A 
ATOM     27  C   UNL     1       6.513   7.640  -6.819  1.00  0.00     0.074 A 
ATOM     28  C   UNL     1       8.167  10.888  -1.591  1.00  0.00     0.029 A 
ATOM     29  N   UNL     1       7.269   9.396  -2.980  1.00  0.00    -0.354 N 
ATOM     30  N   UNL     1       6.726   8.248  -5.678  1.00  0.00    -0.248 NA
ATOM     31  C   UNL     1       6.650   8.498  -8.002  1.00  0.00     0.031 C 
ATOM     32  C   UNL     1       8.229  11.392  -2.894  1.00  0.00     0.029 A 
ATOM     33  C   UNL     1       7.699  10.448  -3.763  1.00  0.00     0.049 A 
ATOM     34  H   UNL     1       6.841   8.577  -3.319  1.00  0.00     0.167 HD
ATOM     35  C   UNL     1       7.121   9.536  -6.008  1.00  0.00     0.074 A 
ATOM     36  C   UNL     1       7.032   9.642  -7.452  1.00  0.00     0.031 C 
ATOM     37  C   UNL     1       7.588  10.516  -5.198  1.00  0.00     0.031 A 
BRANCH  24  38
ATOM     38  C   UNL     1       7.402   9.201   0.859  1.00  0.00    -0.014 A 
ATOM     39  C   UNL     1       8.301   8.485   1.671  1.00  0.00     0.009 A 
ATOM     40  C   UNL     1       6.704  10.281   1.415  1.00  0.00     0.009 A 
ATOM     41  C   UNL     1       8.447   8.807   3.022  1.00  0.00     0.001 A 
ATOM     42  C   UNL     1       6.876  10.621   2.759  1.00  0.00     0.001 A 
ATOM     43  C   UNL     1       7.735   9.874   3.565  1.00  0.00     0.000 A 
ENDBRANCH  24  38
BRANCH  25  44
ATOM     44  C   UNL     1       5.863   5.744  -8.459  1.00  0.00    -0.014 A 
ATOM     45  C   UNL     1       6.793   5.086  -9.270  1.00  0.00     0.009 A 
ATOM     46  C   UNL     1       4.597   6.027  -9.003  1.00  0.00     0.009 A 
ATOM     47  C   UNL     1       6.438   4.679 -10.565  1.00  0.00     0.001 A 
ATOM     48  C   UNL     1       4.224   5.574 -10.270  1.00  0.00     0.001 A 
ATOM     49  C   UNL     1       5.149   4.897 -11.053  1.00  0.00     0.000 A 
ENDBRANCH  25  44
BRANCH  37  50
ATOM     50  C   UNL     1       8.164  11.725  -5.868  1.00  0.00    -0.014 A 
ATOM     51  C   UNL     1       7.360  12.715  -6.445  1.00  0.00     0.009 A 
ATOM     52  C   UNL     1       9.560  11.886  -5.861  1.00  0.00     0.009 A 
ATOM     53  C   UNL     1       7.950  13.841  -7.021  1.00  0.00     0.001 A 
ATOM     54  C   UNL     1      10.143  13.027  -6.405  1.00  0.00     0.001 A 
ATOM     55  C   UNL     1       9.337  14.000  -6.991  1.00  0.00     0.000 A 
ENDBRANCH  37  50
ENDBRANCH  11  12
ENDBRANCH   4   6
ENDBRANCH   3   4
ENDBRANCH   2   3
ENDBRANCH   1   2
BRANCH   1  56
ATOM     56  O   UNL     1       3.690  -0.862  -2.052  1.00  0.00    -0.458 OA
BRANCH  56  57
ATOM     57  C   UNL     1       2.340  -0.892  -2.180  1.00  0.00     0.339 C 
ATOM     58  O   UNL     1       1.578  -1.720  -1.704  1.00  0.00    -0.246 OA
BRANCH  57  59
ATOM     59  C   UNL     1       1.869   0.317  -2.860  1.00  0.00     0.080 A 
ATOM     60  C   UNL     1       0.886   1.069  -2.251  1.00  0.00     0.131 A 
ATOM     61  C   UNL     1       2.324   0.725  -4.106  1.00  0.00     0.043 A 
ATOM     62  N   UNL     1       0.418   2.230  -2.761  1.00  0.00    -0.220 NA
ATOM     63  C   UNL     1       1.773   1.874  -4.703  1.00  0.00     0.104 A 
ATOM     64  C   UNL     1       0.862   2.649  -3.974  1.00  0.00     0.232 A 
ATOM     65  Cl  UNL     1       2.226   2.104  -6.348  1.00  0.00    -0.078 Cl
BRANCH  64  66
ATOM     66  O   UNL     1       0.290   3.845  -4.242  1.00  0.00    -0.476 OA
BRANCH  66  67
ATOM     67  C   UNL     1       0.537   4.628  -5.396  1.00  0.00     0.235 C 
BRANCH  67  68
ATOM     68  C   UNL     1       1.921   5.191  -5.424  1.00  0.00     0.027 C 
ATOM     69  C   UNL     1       2.547   5.228  -6.784  1.00  0.00     0.007 C 
ATOM     70  C   UNL     1       2.302   6.512  -6.063  1.00  0.00     0.007 C 
ENDBRANCH  67  68
ENDBRANCH  66  67
ENDBRANCH  64  66
ENDBRANCH  57  59
ENDBRANCH  56  57
ENDBRANCH   1  56
TORSDOF 14
