REMARK SMILES CC[NH2+]C[C@@H](C)C(=O)N1CCO[C@@H](CC(=O)OCCOC(=O)c2ccc(-c3c4nc(c(-c5ccccc5)c5ccc([nH]5)c(-c5ccccc5)c5nc(c(-c6ccccc6)c6ccc3[nH]6)C=C5)C=C4)cc2)C1
REMARK SMILES IDX 15 1 16 2 14 3 13 4 9 5 10 6 71 7 11 8 12 9 7 10 8 11 5 12
REMARK SMILES IDX 6 13 4 14 3 15 2 18 1 19 17 20 18 21 19 22 20 23 21 24 22 25
REMARK SMILES IDX 23 26 24 27 70 28 25 29 69 30 26 31 27 32 28 33 63 34 29 35
REMARK SMILES IDX 68 36 62 37 64 38 30 39 67 40 61 41 60 42 31 44 53 45 38 46
REMARK SMILES IDX 52 47 39 48 42 49 51 50 65 51 40 52 41 53 50 55 66 56 43 57
REMARK SMILES IDX 32 58 33 59 37 60 34 61 36 62 35 63 54 64 55 65 59 66 56 67
REMARK SMILES IDX 58 68 57 69 44 70 45 71 49 72 46 73 48 74 47 75
REMARK H PARENT 3 16 3 17 64 43 42 54
REMARK Flexibility Score: inf
ROOT
ATOM      1  C   UNL     1       2.649 -10.136  -2.485  1.00  0.00     0.308 C 
ATOM      2  O   UNL     1       3.546 -10.911  -2.792  1.00  0.00    -0.252 OA
ENDROOT
BRANCH   1   3
ATOM      3  C   UNL     1       2.131  -9.997  -1.077  1.00  0.00     0.156 C 
BRANCH   3   4
ATOM      4  C   UNL     1       2.033  -8.559  -0.578  1.00  0.00     0.148 C 
ATOM      5  N   UNL     1       0.647  -6.522  -0.415  1.00  0.00    -0.337 N 
ATOM      6  C   UNL     1       0.718  -6.612   1.039  1.00  0.00     0.148 C 
ATOM      7  C   UNL     1       0.752  -7.835  -1.062  1.00  0.00     0.152 C 
ATOM      8  C   UNL     1       2.004  -7.316   1.461  1.00  0.00     0.182 C 
ATOM      9  O   UNL     1       2.065  -8.626   0.873  1.00  0.00    -0.374 OA
BRANCH   5  10
ATOM     10  C   UNL     1       0.387  -5.415  -1.196  1.00  0.00     0.231 C 
ATOM     11  O   UNL     1      -0.204  -5.542  -2.276  1.00  0.00    -0.274 OA
BRANCH  10  12
ATOM     12  C   UNL     1       1.007  -4.046  -0.868  1.00  0.00     0.130 C 
ATOM     13  C   UNL     1       2.529  -4.145  -0.981  1.00  0.00     0.024 C 
BRANCH  12  14
ATOM     14  C   UNL     1       0.539  -3.357   0.418  1.00  0.00     0.273 C 
BRANCH  14  15
ATOM     15  N   UNL     1       0.973  -1.967   0.611  1.00  0.00    -0.346 N 
ATOM     16  H   UNL     1       0.718  -1.680   1.556  1.00  0.00     0.346 HD
ATOM     17  H   UNL     1       1.981  -1.948   0.454  1.00  0.00     0.346 HD
BRANCH  15  18
ATOM     18  C   UNL     1       0.382  -1.024  -0.330  1.00  0.00     0.257 C 
ATOM     19  C   UNL     1       0.826   0.383   0.042  1.00  0.00     0.071 C 
ENDBRANCH  15  18
ENDBRANCH  14  15
ENDBRANCH  12  14
ENDBRANCH  10  12
ENDBRANCH   5  10
ENDBRANCH   3   4
ENDBRANCH   1   3
BRANCH   1  20
ATOM     20  O   UNL     1       1.965  -9.355  -3.356  1.00  0.00    -0.462 OA
BRANCH  20  21
ATOM     21  C   UNL     1       2.350  -9.426  -4.742  1.00  0.00     0.274 C 
BRANCH  21  22
ATOM     22  C   UNL     1       3.306  -8.293  -5.122  1.00  0.00     0.275 C 
BRANCH  22  23
ATOM     23  O   UNL     1       4.619  -8.511  -4.571  1.00  0.00    -0.458 OA
BRANCH  23  24
ATOM     24  C   UNL     1       4.859  -7.901  -3.388  1.00  0.00     0.338 C 
ATOM     25  O   UNL     1       4.121  -7.145  -2.781  1.00  0.00    -0.246 OA
BRANCH  24  26
ATOM     26  C   UNL     1       6.131  -8.389  -2.833  1.00  0.00     0.060 A 
ATOM     27  C   UNL     1       6.105  -9.038  -1.594  1.00  0.00     0.016 A 
ATOM     28  C   UNL     1       7.340  -8.159  -3.492  1.00  0.00     0.016 A 
ATOM     29  C   UNL     1       7.295  -9.459  -1.006  1.00  0.00     0.010 A 
ATOM     30  C   UNL     1       8.533  -8.582  -2.898  1.00  0.00     0.010 A 
ATOM     31  C   UNL     1       8.518  -9.225  -1.648  1.00  0.00    -0.014 A 
BRANCH  31  32
ATOM     32  C   UNL     1       9.784  -9.621  -0.990  1.00  0.00     0.031 A 
ATOM     33  C   UNL     1      10.654  -8.580  -0.349  1.00  0.00     0.074 A 
ATOM     34  C   UNL     1      10.149 -10.916  -0.962  1.00  0.00     0.049 A 
ATOM     35  N   UNL     1      11.817  -8.720   0.236  1.00  0.00    -0.248 NA
ATOM     36  C   UNL     1      10.150  -7.198  -0.371  1.00  0.00     0.031 C 
ATOM     37  C   UNL     1       9.376 -12.024  -1.524  1.00  0.00     0.029 A 
ATOM     38  N   UNL     1      11.268 -11.514  -0.443  1.00  0.00    -0.354 N 
ATOM     39  C   UNL     1      12.191  -7.445   0.640  1.00  0.00     0.074 A 
ATOM     40  C   UNL     1      11.142  -6.542   0.215  1.00  0.00     0.031 C 
ATOM     41  C   UNL     1      10.048 -13.169  -1.322  1.00  0.00     0.029 A 
ATOM     42  C   UNL     1      11.310 -12.870  -0.651  1.00  0.00     0.049 A 
ATOM     43  H   UNL     1      11.973 -11.019   0.034  1.00  0.00     0.167 HD
ATOM     44  C   UNL     1      13.306  -7.062   1.306  1.00  0.00     0.031 A 
ATOM     45  C   UNL     1      12.268 -13.768  -0.356  1.00  0.00     0.031 A 
ATOM     46  C   UNL     1      14.354  -7.957   1.720  1.00  0.00     0.049 A 
ATOM     47  C   UNL     1      13.523 -13.310   0.334  1.00  0.00     0.074 A 
ATOM     48  C   UNL     1      15.514  -7.665   2.416  1.00  0.00     0.029 A 
ATOM     49  N   UNL     1      14.372  -9.320   1.468  1.00  0.00    -0.354 N 
ATOM     50  N   UNL     1      13.854 -12.105   0.730  1.00  0.00    -0.248 NA
ATOM     51  C   UNL     1      14.533 -14.339   0.620  1.00  0.00     0.031 C 
ATOM     52  C   UNL     1      16.257  -8.844   2.544  1.00  0.00     0.029 A 
ATOM     53  C   UNL     1      15.535  -9.879   1.971  1.00  0.00     0.049 A 
ATOM     54  H   UNL     1      13.662  -9.817   1.000  1.00  0.00     0.167 HD
ATOM     55  C   UNL     1      15.102 -12.233   1.326  1.00  0.00     0.074 A 
ATOM     56  C   UNL     1      15.460 -13.635   1.255  1.00  0.00     0.031 C 
ATOM     57  C   UNL     1      15.881 -11.274   1.883  1.00  0.00     0.031 A 
BRANCH  44  58
ATOM     58  C   UNL     1      13.462  -5.596   1.595  1.00  0.00    -0.014 A 
ATOM     59  C   UNL     1      12.684  -4.958   2.573  1.00  0.00     0.009 A 
ATOM     60  C   UNL     1      14.415  -4.847   0.888  1.00  0.00     0.009 A 
ATOM     61  C   UNL     1      12.833  -3.590   2.812  1.00  0.00     0.001 A 
ATOM     62  C   UNL     1      14.579  -3.485   1.147  1.00  0.00     0.001 A 
ATOM     63  C   UNL     1      13.782  -2.856   2.101  1.00  0.00     0.000 A 
ENDBRANCH  44  58
BRANCH  45  64
ATOM     64  C   UNL     1      12.088 -15.191  -0.740  1.00  0.00    -0.014 A 
ATOM     65  C   UNL     1      11.845 -16.171   0.234  1.00  0.00     0.009 A 
ATOM     66  C   UNL     1      12.151 -15.573  -2.089  1.00  0.00     0.009 A 
ATOM     67  C   UNL     1      11.688 -17.509  -0.136  1.00  0.00     0.001 A 
ATOM     68  C   UNL     1      11.967 -16.907  -2.457  1.00  0.00     0.001 A 
ATOM     69  C   UNL     1      11.743 -17.875  -1.480  1.00  0.00     0.000 A 
ENDBRANCH  45  64
BRANCH  57  70
ATOM     70  C   UNL     1      17.188 -11.715   2.477  1.00  0.00    -0.014 A 
ATOM     71  C   UNL     1      18.275 -12.067   1.662  1.00  0.00     0.009 A 
ATOM     72  C   UNL     1      17.344 -11.747   3.872  1.00  0.00     0.009 A 
ATOM     73  C   UNL     1      19.483 -12.473   2.233  1.00  0.00     0.001 A 
ATOM     74  C   UNL     1      18.561 -12.129   4.439  1.00  0.00     0.001 A 
ATOM     75  C   UNL     1      19.626 -12.499   3.620  1.00  0.00     0.000 A 
ENDBRANCH  57  70
ENDBRANCH  31  32
ENDBRANCH  24  26
ENDBRANCH  23  24
ENDBRANCH  22  23
ENDBRANCH  21  22
ENDBRANCH  20  21
ENDBRANCH   1  20
TORSDOF 17
