REMARK SMILES O=C(OCCOC(=O)c1cccc2nc(Cl)c(Cl)nc12)c1ccc(-c2c3nc(c(-c4ccccc4)c4ccc([nH]4)c(-c4ccccc4)c4nc(c(-c5ccccc5)c5ccc2[nH]5)C=C4)C=C3)cc1
REMARK SMILES IDX 4 1 3 2 2 3 1 4 21 5 22 6 68 7 23 8 67 9 24 10 25 11 26 12
REMARK SMILES IDX 61 13 27 14 66 15 60 16 62 17 28 18 65 19 59 20 58 21 29 23
REMARK SMILES IDX 51 24 36 25 50 26 37 27 40 28 49 29 63 30 38 31 39 32 48 34
REMARK SMILES IDX 64 35 41 36 30 37 31 38 35 39 32 40 34 41 33 42 52 43 53 44
REMARK SMILES IDX 57 45 54 46 56 47 55 48 42 49 43 50 47 51 44 52 46 53 45 54
REMARK SMILES IDX 5 55 6 56 7 57 8 58 9 59 10 60 20 61 11 62 13 63 19 64 12 65
REMARK SMILES IDX 14 66 17 67 15 68 18 69 16 70
REMARK H PARENT 62 22 40 33
REMARK Flexibility Score: inf
ROOT
ATOM      1  C   UNL     1       4.231   0.115  -1.477  1.00  0.00     0.275 C 
ENDROOT
BRANCH   1   2
ATOM      2  O   UNL     1       3.230  -0.771  -0.948  1.00  0.00    -0.458 OA
BRANCH   2   3
ATOM      3  C   UNL     1       3.194  -1.331   0.286  1.00  0.00     0.338 C 
ATOM      4  O   UNL     1       2.564  -2.370   0.472  1.00  0.00    -0.246 OA
BRANCH   3   5
ATOM      5  C   UNL     1       3.725  -0.615   1.482  1.00  0.00     0.060 A 
ATOM      6  C   UNL     1       2.915  -0.640   2.627  1.00  0.00     0.016 A 
ATOM      7  C   UNL     1       4.955   0.042   1.562  1.00  0.00     0.016 A 
ATOM      8  C   UNL     1       3.257   0.090   3.768  1.00  0.00     0.010 A 
ATOM      9  C   UNL     1       5.317   0.752   2.713  1.00  0.00     0.010 A 
ATOM     10  C   UNL     1       4.464   0.802   3.818  1.00  0.00    -0.014 A 
BRANCH  10  11
ATOM     11  C   UNL     1       4.925   1.404   5.091  1.00  0.00     0.031 A 
ATOM     12  C   UNL     1       5.058   2.886   5.288  1.00  0.00     0.074 A 
ATOM     13  C   UNL     1       5.259   0.558   6.082  1.00  0.00     0.049 A 
ATOM     14  N   UNL     1       5.221   3.546   6.407  1.00  0.00    -0.248 NA
ATOM     15  C   UNL     1       4.984   3.746   4.098  1.00  0.00     0.031 C 
ATOM     16  C   UNL     1       5.217  -0.904   5.981  1.00  0.00     0.029 A 
ATOM     17  N   UNL     1       5.696   0.793   7.358  1.00  0.00    -0.354 N 
ATOM     18  C   UNL     1       5.181   4.893   6.068  1.00  0.00     0.074 A 
ATOM     19  C   UNL     1       5.038   4.963   4.631  1.00  0.00     0.031 C 
ATOM     20  C   UNL     1       5.579  -1.434   7.156  1.00  0.00     0.029 A 
ATOM     21  C   UNL     1       5.925  -0.356   8.074  1.00  0.00     0.049 A 
ATOM     22  H   UNL     1       5.832   1.696   7.725  1.00  0.00     0.167 HD
ATOM     23  C   UNL     1       5.259   5.965   6.889  1.00  0.00     0.031 A 
ATOM     24  C   UNL     1       6.366  -0.528   9.332  1.00  0.00     0.031 A 
ATOM     25  C   UNL     1       5.589   5.875   8.289  1.00  0.00     0.049 A 
ATOM     26  C   UNL     1       6.613   0.687  10.176  1.00  0.00     0.074 A 
ATOM     27  C   UNL     1       5.740   6.904   9.202  1.00  0.00     0.029 A 
ATOM     28  N   UNL     1       5.891   4.698   8.956  1.00  0.00    -0.354 N 
ATOM     29  N   UNL     1       6.414   1.949   9.879  1.00  0.00    -0.248 NA
ATOM     30  C   UNL     1       7.122   0.457  11.533  1.00  0.00     0.031 C 
ATOM     31  C   UNL     1       6.250   6.361  10.383  1.00  0.00     0.029 A 
ATOM     32  C   UNL     1       6.303   4.982  10.247  1.00  0.00     0.049 A 
ATOM     33  H   UNL     1       5.823   3.795   8.570  1.00  0.00     0.167 HD
ATOM     34  C   UNL     1       6.741   2.664  11.023  1.00  0.00     0.074 A 
ATOM     35  C   UNL     1       7.137   1.691  12.021  1.00  0.00     0.031 C 
ATOM     36  C   UNL     1       6.708   4.004  11.227  1.00  0.00     0.031 A 
BRANCH  23  37
ATOM     37  C   UNL     1       5.018   7.338   6.319  1.00  0.00    -0.014 A 
ATOM     38  C   UNL     1       6.065   8.270   6.248  1.00  0.00     0.009 A 
ATOM     39  C   UNL     1       3.714   7.761   6.015  1.00  0.00     0.009 A 
ATOM     40  C   UNL     1       5.809   9.604   5.919  1.00  0.00     0.001 A 
ATOM     41  C   UNL     1       3.463   9.092   5.666  1.00  0.00     0.001 A 
ATOM     42  C   UNL     1       4.508  10.015   5.632  1.00  0.00     0.000 A 
ENDBRANCH  23  37
BRANCH  24  43
ATOM     43  C   UNL     1       6.545  -1.909   9.853  1.00  0.00    -0.014 A 
ATOM     44  C   UNL     1       7.497  -2.771   9.280  1.00  0.00     0.009 A 
ATOM     45  C   UNL     1       5.704  -2.406  10.859  1.00  0.00     0.009 A 
ATOM     46  C   UNL     1       7.574  -4.108   9.673  1.00  0.00     0.001 A 
ATOM     47  C   UNL     1       5.811  -3.734  11.278  1.00  0.00     0.001 A 
ATOM     48  C   UNL     1       6.734  -4.587  10.675  1.00  0.00     0.000 A 
ENDBRANCH  24  43
BRANCH  36  49
ATOM     49  C   UNL     1       7.096   4.514  12.588  1.00  0.00    -0.014 A 
ATOM     50  C   UNL     1       6.140   5.172  13.379  1.00  0.00     0.009 A 
ATOM     51  C   UNL     1       8.418   4.433  13.050  1.00  0.00     0.009 A 
ATOM     52  C   UNL     1       6.501   5.753  14.594  1.00  0.00     0.001 A 
ATOM     53  C   UNL     1       8.768   4.978  14.287  1.00  0.00     0.001 A 
ATOM     54  C   UNL     1       7.813   5.648  15.051  1.00  0.00     0.000 A 
ENDBRANCH  36  49
ENDBRANCH  10  11
ENDBRANCH   3   5
ENDBRANCH   2   3
ENDBRANCH   1   2
BRANCH   1  55
ATOM     55  C   UNL     1       3.899   1.603  -1.348  1.00  0.00     0.275 C 
BRANCH  55  56
ATOM     56  O   UNL     1       3.328   1.953  -0.077  1.00  0.00    -0.458 OA
BRANCH  56  57
ATOM     57  C   UNL     1       1.974   2.082  -0.058  1.00  0.00     0.340 C 
ATOM     58  O   UNL     1       1.218   1.993  -1.011  1.00  0.00    -0.246 OA
BRANCH  57  59
ATOM     59  C   UNL     1       1.547   2.391   1.319  1.00  0.00     0.088 A 
ATOM     60  C   UNL     1       2.107   3.508   1.956  1.00  0.00     0.018 A 
ATOM     61  C   UNL     1       0.616   1.562   1.958  1.00  0.00     0.105 A 
ATOM     62  C   UNL     1       1.740   3.804   3.261  1.00  0.00     0.003 A 
ATOM     63  C   UNL     1       0.285   1.865   3.307  1.00  0.00     0.091 A 
ATOM     64  N   UNL     1       0.084   0.462   1.368  1.00  0.00    -0.230 NA
ATOM     65  C   UNL     1       0.846   2.972   3.927  1.00  0.00     0.031 A 
ATOM     66  N   UNL     1      -0.537   1.091   4.037  1.00  0.00    -0.231 NA
ATOM     67  C   UNL     1      -0.747  -0.308   2.111  1.00  0.00     0.167 A 
ATOM     68  C   UNL     1      -1.045  -0.002   3.424  1.00  0.00     0.167 A 
ATOM     69  Cl  UNL     1      -1.324  -1.700   1.294  1.00  0.00    -0.059 Cl
ATOM     70  Cl  UNL     1      -2.038  -0.961   4.443  1.00  0.00    -0.059 Cl
ENDBRANCH  57  59
ENDBRANCH  56  57
ENDBRANCH  55  56
ENDBRANCH   1  55
TORSDOF 11
