REMARK SMILES C=C1C(=O)O[C@H]2[C@@H]1[C@@H](OC(=O)[C@@]1(C)O[C@H]1C)[C@@H](OC(C)=O)/C(C(=O)OCCOC(=O)c1ccc(-c3c4nc(c(-c5ccccc5)c5ccc([nH]5)c(-c5ccccc5)c5nc(c(-c6ccccc6)c6ccc3[nH]6)C=C5)C=C4)cc1)=C/[C@@H]1O[C@@H]1[C@]1(C)O[C@H]21
REMARK SMILES IDX 25 1 23 2 24 3 22 4 79 5 17 6 8 7 7 8 1 9 2 10 3 11 5 12
REMARK SMILES IDX 4 13 6 14 86 15 83 16 85 17 84 18 9 20 10 21 11 22 12 23
REMARK SMILES IDX 14 24 15 25 13 26 16 27 18 28 19 29 20 30 21 31 80 32 81 33
REMARK SMILES IDX 82 34 26 36 27 37 28 38 29 39 30 40 31 41 32 42 78 43 33 44
REMARK SMILES IDX 77 45 34 46 35 47 36 48 71 49 37 50 76 51 70 52 72 53 38 54
REMARK SMILES IDX 75 55 69 56 68 57 39 59 61 60 46 61 60 62 47 63 50 64 59 65
REMARK SMILES IDX 73 66 48 67 49 68 58 70 74 71 51 72 40 73 41 74 45 75 42 76
REMARK SMILES IDX 44 77 43 78 62 79 63 80 67 81 64 82 66 83 65 84 52 85 53 86
REMARK SMILES IDX 57 87 54 88 56 89 55 90
REMARK H PARENT 72 58 50 69
REMARK Flexibility Score: 90.00
ROOT
ATOM      1  O   UNL     1      -6.851  -2.536  -6.143  1.00  0.00    -0.459 OA
ENDROOT
BRANCH   1   2
ATOM      2  C   UNL     1      -5.585  -2.418  -6.606  1.00  0.00     0.337 C 
ATOM      3  O   UNL     1      -5.034  -1.352  -6.824  1.00  0.00    -0.246 OA
BRANCH   2   4
ATOM      4  C   UNL     1      -4.889  -3.724  -6.768  1.00  0.00     0.080 C 
ATOM      5  C   UNL     1      -4.978  -4.651  -7.744  1.00  0.00     0.022 C 
BRANCH   4   6
ATOM      6  C   UNL     1      -3.654  -3.944  -5.931  1.00  0.00     0.255 C 
BRANCH   6   7
ATOM      7  C   UNL     1      -2.697  -2.777  -5.557  1.00  0.00     0.234 C 
BRANCH   7   8
ATOM      8  C   UNL     1      -2.178  -1.886  -6.893  1.00  0.00     0.115 C 
ATOM      9  C   UNL     1      -2.727   0.708  -7.317  1.00  0.00     0.021 C 
ATOM     10  C   UNL     1      -2.005  -0.428  -7.298  1.00  0.00     0.041 C 
ATOM     11  C   UNL     1      -1.005  -0.485  -8.408  1.00  0.00     0.334 C 
ATOM     12  O   UNL     1      -1.221  -1.693  -9.019  1.00  0.00    -0.455 OA
ATOM     13  O   UNL     1      -0.198   0.369  -8.716  1.00  0.00    -0.247 OA
ATOM     14  C   UNL     1      -2.373  -2.363  -8.395  1.00  0.00     0.220 C 
BRANCH  14  15
ATOM     15  C   UNL     1      -3.616  -1.834  -9.141  1.00  0.00     0.195 C 
ATOM     16  C   UNL     1      -4.795  -2.552  -9.850  1.00  0.00     0.125 CG0
ATOM     17  O   UNL     1      -3.626  -2.094 -10.550  1.00  0.00    -0.359 OA
ATOM     18  C   UNL     1      -5.997  -1.617  -9.980  1.00  0.00     0.048 C 
ATOM     19  G   UNL     1      -5.225  -3.933 -10.303  1.00  0.00     0.000 G0
ENDBRANCH  14  15
ENDBRANCH   7   8
BRANCH   7  20
ATOM     20  O   UNL     1      -2.909  -2.079  -4.274  1.00  0.00    -0.455 OA
BRANCH  20  21
ATOM     21  C   UNL     1      -3.292  -2.705  -3.099  1.00  0.00     0.341 C 
ATOM     22  O   UNL     1      -3.598  -3.870  -2.987  1.00  0.00    -0.249 OA
BRANCH  21  23
ATOM     23  C   UNL     1      -3.251  -1.867  -1.842  1.00  0.00     0.188 C 
ATOM     24  O   UNL     1      -2.477  -2.532  -0.794  1.00  0.00    -0.354 OA
ATOM     25  C   UNL     1      -1.924  -1.344  -1.335  1.00  0.00     0.160 C 
ATOM     26  C   UNL     1      -4.522  -1.342  -1.200  1.00  0.00     0.058 C 
ATOM     27  C   UNL     1      -0.623  -1.592  -2.010  1.00  0.00     0.042 C 
ENDBRANCH  21  23
ENDBRANCH  20  21
ENDBRANCH   7  20
ENDBRANCH   6   7
BRANCH   6  28
ATOM     28  O   UNL     1      -3.700  -5.117  -5.067  1.00  0.00    -0.453 OA
BRANCH  28  29
ATOM     29  C   UNL     1      -4.747  -5.700  -4.437  1.00  0.00     0.303 C 
ATOM     30  C   UNL     1      -6.044  -4.957  -4.348  1.00  0.00     0.139 C 
ATOM     31  O   UNL     1      -4.642  -6.839  -3.987  1.00  0.00    -0.253 OA
ENDBRANCH  28  29
ENDBRANCH   6  28
ENDBRANCH   4   6
BRANCH   5  32
ATOM     32  C   UNL     1      -5.532  -4.765  -9.082  1.00  0.00     0.174 C 
ATOM     33  O   UNL     1      -4.472  -5.089 -10.042  1.00  0.00    -0.362 OA
ATOM     34  C   UNL     1      -5.225  -3.933 -10.303  1.00  0.00     0.186 CG0
ATOM     35  G   UNL     1      -4.795  -2.552  -9.850  1.00  0.00     0.000 G0
ENDBRANCH   5  32
ENDBRANCH   2   4
ENDBRANCH   1   2
BRANCH   1  36
ATOM     36  C   UNL     1      -7.649  -1.315  -6.112  1.00  0.00     0.275 C 
BRANCH  36  37
ATOM     37  C   UNL     1      -7.731  -0.559  -4.762  1.00  0.00     0.275 C 
BRANCH  37  38
ATOM     38  O   UNL     1      -6.751   0.514  -4.589  1.00  0.00    -0.458 OA
BRANCH  38  39
ATOM     39  C   UNL     1      -5.622   0.072  -3.999  1.00  0.00     0.338 C 
ATOM     40  O   UNL     1      -5.447  -1.119  -3.766  1.00  0.00    -0.246 OA
BRANCH  39  41
ATOM     41  C   UNL     1      -4.474   1.017  -3.816  1.00  0.00     0.060 A 
ATOM     42  C   UNL     1      -3.334   0.538  -4.429  1.00  0.00     0.016 A 
ATOM     43  C   UNL     1      -4.290   2.077  -2.935  1.00  0.00     0.016 A 
ATOM     44  C   UNL     1      -2.042   0.995  -4.194  1.00  0.00     0.010 A 
ATOM     45  C   UNL     1      -2.976   2.623  -2.735  1.00  0.00     0.010 A 
ATOM     46  C   UNL     1      -1.836   2.084  -3.370  1.00  0.00    -0.014 A 
BRANCH  46  47
ATOM     47  C   UNL     1      -0.437   2.611  -3.305  1.00  0.00     0.031 A 
ATOM     48  C   UNL     1       0.474   2.337  -2.137  1.00  0.00     0.074 A 
ATOM     49  C   UNL     1       0.112   3.150  -4.415  1.00  0.00     0.049 A 
ATOM     50  N   UNL     1       1.756   2.571  -2.002  1.00  0.00    -0.248 NA
ATOM     51  C   UNL     1      -0.115   1.628  -1.001  1.00  0.00     0.031 C 
ATOM     52  C   UNL     1      -0.547   3.266  -5.719  1.00  0.00     0.029 A 
ATOM     53  N   UNL     1       1.356   3.688  -4.632  1.00  0.00    -0.354 N 
ATOM     54  C   UNL     1       2.132   1.965  -0.807  1.00  0.00     0.074 A 
ATOM     55  C   UNL     1       0.952   1.322  -0.274  1.00  0.00     0.031 C 
ATOM     56  C   UNL     1       0.288   3.853  -6.589  1.00  0.00     0.029 A 
ATOM     57  C   UNL     1       1.490   4.260  -5.875  1.00  0.00     0.049 A 
ATOM     58  H   UNL     1       2.079   3.666  -3.965  1.00  0.00     0.167 HD
ATOM     59  C   UNL     1       3.322   2.019  -0.158  1.00  0.00     0.031 A 
ATOM     60  C   UNL     1       2.425   5.105  -6.347  1.00  0.00     0.031 A 
ATOM     61  C   UNL     1       4.380   2.919  -0.534  1.00  0.00     0.049 A 
ATOM     62  C   UNL     1       3.555   5.491  -5.436  1.00  0.00     0.074 A 
ATOM     63  C   UNL     1       5.509   3.280   0.180  1.00  0.00     0.029 A 
ATOM     64  N   UNL     1       4.382   3.672  -1.698  1.00  0.00    -0.354 N 
ATOM     65  N   UNL     1       3.876   4.988  -4.268  1.00  0.00    -0.248 NA
ATOM     66  C   UNL     1       4.432   6.579  -5.886  1.00  0.00     0.031 C 
ATOM     67  C   UNL     1       6.123   4.341  -0.496  1.00  0.00     0.029 A 
ATOM     68  C   UNL     1       5.444   4.556  -1.686  1.00  0.00     0.049 A 
ATOM     69  H   UNL     1       3.724   3.590  -2.426  1.00  0.00     0.167 HD
ATOM     70  C   UNL     1       5.014   5.670  -3.861  1.00  0.00     0.074 A 
ATOM     71  C   UNL     1       5.323   6.628  -4.904  1.00  0.00     0.031 C 
ATOM     72  C   UNL     1       5.742   5.503  -2.731  1.00  0.00     0.031 A 
BRANCH  59  73
ATOM     73  C   UNL     1       3.429   1.261   1.137  1.00  0.00    -0.014 A 
ATOM     74  C   UNL     1       3.599  -0.132   1.166  1.00  0.00     0.009 A 
ATOM     75  C   UNL     1       3.312   1.955   2.352  1.00  0.00     0.009 A 
ATOM     76  C   UNL     1       3.612  -0.815   2.387  1.00  0.00     0.001 A 
ATOM     77  C   UNL     1       3.341   1.273   3.569  1.00  0.00     0.001 A 
ATOM     78  C   UNL     1       3.478  -0.114   3.586  1.00  0.00     0.000 A 
ENDBRANCH  59  73
BRANCH  60  79
ATOM     79  C   UNL     1       2.241   5.760  -7.672  1.00  0.00    -0.014 A 
ATOM     80  C   UNL     1       3.166   5.579  -8.709  1.00  0.00     0.009 A 
ATOM     81  C   UNL     1       1.136   6.602  -7.895  1.00  0.00     0.009 A 
ATOM     82  C   UNL     1       2.994   6.235  -9.932  1.00  0.00     0.001 A 
ATOM     83  C   UNL     1       0.947   7.228  -9.128  1.00  0.00     0.001 A 
ATOM     84  C   UNL     1       1.883   7.052 -10.143  1.00  0.00     0.000 A 
ENDBRANCH  60  79
BRANCH  72  85
ATOM     85  C   UNL     1       6.989   6.323  -2.578  1.00  0.00    -0.014 A 
ATOM     86  C   UNL     1       6.946   7.695  -2.296  1.00  0.00     0.009 A 
ATOM     87  C   UNL     1       8.234   5.674  -2.633  1.00  0.00     0.009 A 
ATOM     88  C   UNL     1       8.130   8.405  -2.086  1.00  0.00     0.001 A 
ATOM     89  C   UNL     1       9.412   6.378  -2.391  1.00  0.00     0.001 A 
ATOM     90  C   UNL     1       9.359   7.744  -2.123  1.00  0.00     0.000 A 
ENDBRANCH  72  85
ENDBRANCH  46  47
ENDBRANCH  39  41
ENDBRANCH  38  39
ENDBRANCH  37  38
ENDBRANCH  36  37
ENDBRANCH   1  36
TORSDOF 16
