REMARK SMILES C[C@@](NC(=O)CSCc1ccccc1)(C(=O)OCCOC(=O)c1ccc(-c2c3nc(c(-c4ccccc4)c4ccc([nH]4)c(-c4ccccc4)c4nc(c(-c5ccccc5)c5ccc2[nH]5)C=C4)C=C3)cc1)C1CC1
REMARK SMILES IDX 17 1 15 2 16 3 2 4 1 5 3 6 4 7 5 9 6 10 7 11 8 12 9 13 10 14
REMARK SMILES IDX 14 15 11 16 13 17 12 18 71 19 72 20 73 21 18 22 19 23 20 24
REMARK SMILES IDX 21 25 22 26 23 27 24 28 70 29 25 30 69 31 26 32 27 33 28 34
REMARK SMILES IDX 63 35 29 36 68 37 62 38 64 39 30 40 67 41 61 42 60 43 31 45
REMARK SMILES IDX 53 46 38 47 52 48 39 49 42 50 51 51 65 52 40 53 41 54 50 56
REMARK SMILES IDX 66 57 43 58 32 59 33 60 37 61 34 62 36 63 35 64 54 65 55 66
REMARK SMILES IDX 59 67 56 68 58 69 57 70 44 71 45 72 49 73 46 74 48 75 47 76
REMARK H PARENT 3 8 64 44 42 55
REMARK Flexibility Score: inf
ROOT
ATOM      1  O   UNL     1      -1.687   0.483   0.091  1.00  0.00    -0.460 OA
ENDROOT
BRANCH   1   2
ATOM      2  C   UNL     1      -0.931   1.608   0.257  1.00  0.00     0.331 C 
ATOM      3  O   UNL     1      -1.381   2.679   0.658  1.00  0.00    -0.249 OA
BRANCH   2   4
ATOM      4  C   UNL     1       0.571   1.416  -0.179  1.00  0.00     0.138 C 
ATOM      5  C   UNL     1       0.893  -0.013  -0.649  1.00  0.00     0.048 C 
BRANCH   4   6
ATOM      6  N   UNL     1       0.977   2.392  -1.224  1.00  0.00    -0.340 N 
ATOM      7  C   UNL     1       0.408   2.786  -2.394  1.00  0.00     0.230 C 
ATOM      8  H   UNL     1       1.829   2.845  -1.029  1.00  0.00     0.164 HD
ATOM      9  O   UNL     1       1.149   3.283  -3.248  1.00  0.00    -0.274 OA
BRANCH   7  10
ATOM     10  C   UNL     1      -1.084   2.702  -2.627  1.00  0.00     0.169 C 
BRANCH  10  11
ATOM     11  S   UNL     1      -1.586   1.023  -3.095  1.00  0.00    -0.147 SA
BRANCH  11  12
ATOM     12  C   UNL     1      -0.934   0.955  -4.788  1.00  0.00     0.105 C 
BRANCH  12  13
ATOM     13  C   UNL     1      -1.884   1.643  -5.728  1.00  0.00    -0.038 A 
ATOM     14  C   UNL     1      -1.647   2.960  -6.141  1.00  0.00     0.004 A 
ATOM     15  C   UNL     1      -3.072   1.006  -6.117  1.00  0.00     0.004 A 
ATOM     16  C   UNL     1      -2.595   3.636  -6.908  1.00  0.00     0.000 A 
ATOM     17  C   UNL     1      -4.014   1.680  -6.889  1.00  0.00     0.000 A 
ATOM     18  C   UNL     1      -3.778   2.997  -7.278  1.00  0.00     0.000 A 
ENDBRANCH  12  13
ENDBRANCH  11  12
ENDBRANCH  10  11
ENDBRANCH   7  10
ENDBRANCH   4   6
BRANCH   4  19
ATOM     19  C   UNL     1       1.451   1.671   1.070  1.00  0.00     0.026 C 
ATOM     20  C   UNL     1       2.872   2.203   1.069  1.00  0.00     0.007 C 
ATOM     21  C   UNL     1       1.747   3.078   1.547  1.00  0.00     0.007 C 
ENDBRANCH   4  19
ENDBRANCH   2   4
ENDBRANCH   1   2
BRANCH   1  22
ATOM     22  C   UNL     1      -3.127   0.641   0.096  1.00  0.00     0.274 C 
BRANCH  22  23
ATOM     23  C   UNL     1      -3.808  -0.312   1.075  1.00  0.00     0.275 C 
BRANCH  23  24
ATOM     24  O   UNL     1      -3.545   0.114   2.418  1.00  0.00    -0.458 OA
BRANCH  24  25
ATOM     25  C   UNL     1      -2.464  -0.470   2.973  1.00  0.00     0.338 C 
ATOM     26  O   UNL     1      -1.814  -1.411   2.553  1.00  0.00    -0.246 OA
BRANCH  25  27
ATOM     27  C   UNL     1      -2.005   0.371   4.077  1.00  0.00     0.060 A 
ATOM     28  C   UNL     1      -0.895   1.171   3.815  1.00  0.00     0.016 A 
ATOM     29  C   UNL     1      -2.540   0.282   5.357  1.00  0.00     0.016 A 
ATOM     30  C   UNL     1      -0.233   1.810   4.846  1.00  0.00     0.010 A 
ATOM     31  C   UNL     1      -1.899   0.962   6.395  1.00  0.00     0.010 A 
ATOM     32  C   UNL     1      -0.714   1.683   6.149  1.00  0.00    -0.014 A 
BRANCH  32  33
ATOM     33  C   UNL     1       0.133   2.149   7.266  1.00  0.00     0.031 A 
ATOM     34  C   UNL     1       0.782   1.120   8.145  1.00  0.00     0.074 A 
ATOM     35  C   UNL     1       0.389   3.457   7.439  1.00  0.00     0.049 A 
ATOM     36  N   UNL     1       1.408   1.277   9.281  1.00  0.00    -0.248 NA
ATOM     37  C   UNL     1       0.709  -0.277   7.683  1.00  0.00     0.031 C 
ATOM     38  C   UNL     1      -0.075   4.538   6.568  1.00  0.00     0.029 A 
ATOM     39  N   UNL     1       1.122   4.094   8.405  1.00  0.00    -0.354 N 
ATOM     40  C   UNL     1       1.735  -0.005   9.705  1.00  0.00     0.074 A 
ATOM     41  C   UNL     1       1.258  -0.926   8.698  1.00  0.00     0.031 C 
ATOM     42  C   UNL     1       0.404   5.705   7.030  1.00  0.00     0.029 A 
ATOM     43  C   UNL     1       1.138   5.459   8.266  1.00  0.00     0.049 A 
ATOM     44  H   UNL     1       1.591   3.619   9.128  1.00  0.00     0.167 HD
ATOM     45  C   UNL     1       2.361  -0.375  10.846  1.00  0.00     0.031 A 
ATOM     46  C   UNL     1       1.651   6.403   9.075  1.00  0.00     0.031 A 
ATOM     47  C   UNL     1       2.866   0.559  11.814  1.00  0.00     0.049 A 
ATOM     48  C   UNL     1       2.303   5.973  10.359  1.00  0.00     0.074 A 
ATOM     49  C   UNL     1       3.492   0.306  13.020  1.00  0.00     0.029 A 
ATOM     50  N   UNL     1       2.818   1.938  11.664  1.00  0.00    -0.354 N 
ATOM     51  N   UNL     1       2.509   4.760  10.815  1.00  0.00    -0.248 NA
ATOM     52  C   UNL     1       2.770   7.042  11.251  1.00  0.00     0.031 C 
ATOM     53  C   UNL     1       3.800   1.536  13.614  1.00  0.00     0.029 A 
ATOM     54  C   UNL     1       3.400   2.551  12.758  1.00  0.00     0.049 A 
ATOM     55  H   UNL     1       2.428   2.409  10.893  1.00  0.00     0.167 HD
ATOM     56  C   UNL     1       3.136   4.919  12.043  1.00  0.00     0.074 A 
ATOM     57  C   UNL     1       3.295   6.345  12.249  1.00  0.00     0.031 C 
ATOM     58  C   UNL     1       3.541   3.974  12.927  1.00  0.00     0.031 A 
BRANCH  45  59
ATOM     59  C   UNL     1       2.458  -1.846  11.126  1.00  0.00    -0.014 A 
ATOM     60  C   UNL     1       3.351  -2.676  10.432  1.00  0.00     0.009 A 
ATOM     61  C   UNL     1       1.616  -2.413  12.096  1.00  0.00     0.009 A 
ATOM     62  C   UNL     1       3.371  -4.051  10.678  1.00  0.00     0.001 A 
ATOM     63  C   UNL     1       1.655  -3.784  12.357  1.00  0.00     0.001 A 
ATOM     64  C   UNL     1       2.526  -4.603  11.641  1.00  0.00     0.000 A 
ENDBRANCH  45  59
BRANCH  46  65
ATOM     65  C   UNL     1       1.517   7.839   8.723  1.00  0.00    -0.014 A 
ATOM     66  C   UNL     1       2.641   8.589   8.346  1.00  0.00     0.009 A 
ATOM     67  C   UNL     1       0.261   8.466   8.751  1.00  0.00     0.009 A 
ATOM     68  C   UNL     1       2.510   9.940   8.016  1.00  0.00     0.001 A 
ATOM     69  C   UNL     1       0.130   9.809   8.396  1.00  0.00     0.001 A 
ATOM     70  C   UNL     1       1.255  10.547   8.035  1.00  0.00     0.000 A 
ENDBRANCH  46  65
BRANCH  58  71
ATOM     71  C   UNL     1       4.218   4.463  14.171  1.00  0.00    -0.014 A 
ATOM     72  C   UNL     1       3.478   5.018  15.226  1.00  0.00     0.009 A 
ATOM     73  C   UNL     1       5.609   4.340  14.297  1.00  0.00     0.009 A 
ATOM     74  C   UNL     1       4.127   5.471  16.375  1.00  0.00     0.001 A 
ATOM     75  C   UNL     1       6.252   4.774  15.456  1.00  0.00     0.001 A 
ATOM     76  C   UNL     1       5.512   5.347  16.490  1.00  0.00     0.000 A 
ENDBRANCH  58  71
ENDBRANCH  32  33
ENDBRANCH  25  27
ENDBRANCH  24  25
ENDBRANCH  23  24
ENDBRANCH  22  23
ENDBRANCH   1  22
TORSDOF 17
