REMARK SMILES O=C(Cc1csc(Sc2ncnc3c2CCCC3)n1)OCCOC(=O)c1ccc(-c2c3nc(c(-c4ccccc4)c4ccc([nH]4)c(-c4ccccc4)c4nc(c(-c5ccccc5)c5ccc2[nH]5)C=C4)C=C3)cc1
REMARK SMILES IDX 21 1 20 2 2 3 1 4 3 5 4 6 5 7 19 8 6 9 7 10 8 11 9 12 10 13
REMARK SMILES IDX 14 14 11 15 13 16 15 17 12 18 18 19 16 20 17 21 22 22 23 23
REMARK SMILES IDX 24 24 25 25 26 26 27 27 73 28 28 29 72 30 29 31 30 32 31 33
REMARK SMILES IDX 66 34 32 35 71 36 65 37 67 38 33 39 70 40 64 41 63 42 34 44
REMARK SMILES IDX 56 45 41 46 55 47 42 48 45 49 54 50 68 51 43 52 44 53 53 55
REMARK SMILES IDX 69 56 46 57 35 58 36 59 40 60 37 61 39 62 38 63 57 64 58 65
REMARK SMILES IDX 62 66 59 67 61 68 60 69 47 70 48 71 52 72 49 73 51 74 50 75
REMARK H PARENT 67 43 45 54
REMARK Flexibility Score: inf
ROOT
ATOM      1  C   UNL     1       4.473   0.344   0.795  1.00  0.00     0.274 C 
ENDROOT
BRANCH   1   2
ATOM      2  O   UNL     1       3.098   0.732   0.573  1.00  0.00    -0.462 OA
BRANCH   2   3
ATOM      3  C   UNL     1       2.381   0.521  -0.558  1.00  0.00     0.312 C 
ATOM      4  O   UNL     1       1.180   0.794  -0.577  1.00  0.00    -0.252 OA
BRANCH   3   5
ATOM      5  C   UNL     1       3.032  -0.143  -1.747  1.00  0.00     0.179 C 
BRANCH   5   6
ATOM      6  C   UNL     1       4.024   0.692  -2.470  1.00  0.00     0.064 A 
ATOM      7  C   UNL     1       5.107   0.221  -3.189  1.00  0.00     0.092 A 
ATOM      8  N   UNL     1       3.906   2.064  -2.448  1.00  0.00    -0.234 NA
ATOM      9  S   UNL     1       6.025   1.533  -3.794  1.00  0.00    -0.116 S 
ATOM     10  C   UNL     1       4.918   2.626  -3.068  1.00  0.00     0.156 A 
BRANCH  10  11
ATOM     11  S   UNL     1       5.134   4.356  -3.171  1.00  0.00    -0.039 SA
BRANCH  11  12
ATOM     12  C   UNL     1       3.755   4.868  -2.152  1.00  0.00     0.110 A 
ATOM     13  N   UNL     1       3.986   4.831  -0.822  1.00  0.00    -0.229 NA
ATOM     14  C   UNL     1       2.578   5.359  -2.711  1.00  0.00     0.006 A 
ATOM     15  C   UNL     1       2.997   5.281  -0.045  1.00  0.00     0.223 A 
ATOM     16  C   UNL     1       1.667   5.884  -1.802  1.00  0.00     0.048 A 
ATOM     17  C   UNL     1       2.322   5.388  -4.193  1.00  0.00     0.040 C 
ATOM     18  N   UNL     1       1.855   5.834  -0.467  1.00  0.00    -0.241 NA
ATOM     19  C   UNL     1       0.388   6.542  -2.255  1.00  0.00     0.056 C 
ATOM     20  C   UNL     1       0.892   5.777  -4.570  1.00  0.00     0.005 C 
ATOM     21  C   UNL     1       0.422   6.952  -3.725  1.00  0.00     0.007 C 
ENDBRANCH  11  12
ENDBRANCH  10  11
ENDBRANCH   5   6
ENDBRANCH   3   5
ENDBRANCH   2   3
ENDBRANCH   1   2
BRANCH   1  22
ATOM     22  C   UNL     1       4.550  -0.956   1.595  1.00  0.00     0.275 C 
BRANCH  22  23
ATOM     23  O   UNL     1       4.079  -2.045   0.779  1.00  0.00    -0.458 OA
BRANCH  23  24
ATOM     24  C   UNL     1       2.808  -2.451   1.021  1.00  0.00     0.338 C 
ATOM     25  O   UNL     1       2.092  -2.122   1.950  1.00  0.00    -0.246 OA
BRANCH  24  26
ATOM     26  C   UNL     1       2.333  -3.214  -0.153  1.00  0.00     0.060 A 
ATOM     27  C   UNL     1       1.049  -2.938  -0.638  1.00  0.00     0.016 A 
ATOM     28  C   UNL     1       3.143  -4.157  -0.794  1.00  0.00     0.016 A 
ATOM     29  C   UNL     1       0.555  -3.634  -1.742  1.00  0.00     0.010 A 
ATOM     30  C   UNL     1       2.644  -4.863  -1.892  1.00  0.00     0.010 A 
ATOM     31  C   UNL     1       1.335  -4.628  -2.348  1.00  0.00    -0.014 A 
BRANCH  31  32
ATOM     32  C   UNL     1       0.712  -5.571  -3.307  1.00  0.00     0.031 A 
ATOM     33  C   UNL     1       0.124  -6.845  -2.762  1.00  0.00     0.074 A 
ATOM     34  C   UNL     1       0.638  -5.302  -4.622  1.00  0.00     0.049 A 
ATOM     35  N   UNL     1      -0.447  -7.833  -3.400  1.00  0.00    -0.248 NA
ATOM     36  C   UNL     1       0.183  -7.022  -1.300  1.00  0.00     0.031 C 
ATOM     37  C   UNL     1       1.109  -4.081  -5.272  1.00  0.00     0.029 A 
ATOM     38  N   UNL     1       0.124  -6.054  -5.649  1.00  0.00    -0.354 N 
ATOM     39  C   UNL     1      -0.831  -8.738  -2.418  1.00  0.00     0.074 A 
ATOM     40  C   UNL     1      -0.397  -8.202  -1.147  1.00  0.00     0.031 C 
ATOM     41  C   UNL     1       0.859  -4.166  -6.592  1.00  0.00     0.029 A 
ATOM     42  C   UNL     1       0.236  -5.457  -6.881  1.00  0.00     0.049 A 
ATOM     43  H   UNL     1      -0.287  -6.939  -5.516  1.00  0.00     0.167 HD
ATOM     44  C   UNL     1      -1.497  -9.907  -2.556  1.00  0.00     0.031 A 
ATOM     45  C   UNL     1      -0.115  -5.910  -8.101  1.00  0.00     0.031 A 
ATOM     46  C   UNL     1      -1.904 -10.467  -3.813  1.00  0.00     0.049 A 
ATOM     47  C   UNL     1      -0.741  -7.275  -8.236  1.00  0.00     0.074 A 
ATOM     48  C   UNL     1      -2.551 -11.666  -4.052  1.00  0.00     0.029 A 
ATOM     49  N   UNL     1      -1.701  -9.866  -5.043  1.00  0.00    -0.354 N 
ATOM     50  N   UNL     1      -1.088  -8.125  -7.301  1.00  0.00    -0.248 NA
ATOM     51  C   UNL     1      -1.021  -7.741  -9.604  1.00  0.00     0.031 C 
ATOM     52  C   UNL     1      -2.703 -11.811  -5.434  1.00  0.00     0.029 A 
ATOM     53  C   UNL     1      -2.192 -10.679  -6.049  1.00  0.00     0.049 A 
ATOM     54  H   UNL     1      -1.271  -8.991  -5.181  1.00  0.00     0.167 HD
ATOM     55  C   UNL     1      -1.647  -9.212  -7.965  1.00  0.00     0.074 A 
ATOM     56  C   UNL     1      -1.609  -8.907  -9.380  1.00  0.00     0.031 C 
ATOM     57  C   UNL     1      -2.146 -10.362  -7.450  1.00  0.00     0.031 A 
BRANCH  44  58
ATOM     58  C   UNL     1      -1.814 -10.668  -1.304  1.00  0.00    -0.014 A 
ATOM     59  C   UNL     1      -2.859 -10.257  -0.462  1.00  0.00     0.009 A 
ATOM     60  C   UNL     1      -1.093 -11.828  -0.985  1.00  0.00     0.009 A 
ATOM     61  C   UNL     1      -3.167 -10.989   0.686  1.00  0.00     0.001 A 
ATOM     62  C   UNL     1      -1.416 -12.568   0.153  1.00  0.00     0.001 A 
ATOM     63  C   UNL     1      -2.450 -12.146   0.989  1.00  0.00     0.000 A 
ENDBRANCH  44  58
BRANCH  45  64
ATOM     64  C   UNL     1       0.130  -5.089  -9.315  1.00  0.00    -0.014 A 
ATOM     65  C   UNL     1      -0.947  -4.551 -10.038  1.00  0.00     0.009 A 
ATOM     66  C   UNL     1       1.434  -4.899  -9.798  1.00  0.00     0.009 A 
ATOM     67  C   UNL     1      -0.724  -3.869 -11.237  1.00  0.00     0.001 A 
ATOM     68  C   UNL     1       1.655  -4.195 -10.984  1.00  0.00     0.001 A 
ATOM     69  C   UNL     1       0.576  -3.691 -11.708  1.00  0.00     0.000 A 
ENDBRANCH  45  64
BRANCH  57  70
ATOM     70  C   UNL     1      -2.709 -11.366  -8.415  1.00  0.00    -0.014 A 
ATOM     71  C   UNL     1      -1.868 -12.141  -9.228  1.00  0.00     0.009 A 
ATOM     72  C   UNL     1      -4.096 -11.577  -8.471  1.00  0.00     0.009 A 
ATOM     73  C   UNL     1      -2.408 -13.088 -10.100  1.00  0.00     0.001 A 
ATOM     74  C   UNL     1      -4.630 -12.543  -9.325  1.00  0.00     0.001 A 
ATOM     75  C   UNL     1      -3.787 -13.292 -10.144  1.00  0.00     0.000 A 
ENDBRANCH  57  70
ENDBRANCH  31  32
ENDBRANCH  24  26
ENDBRANCH  23  24
ENDBRANCH  22  23
ENDBRANCH   1  22
TORSDOF 14
