REMARK SMILES CC(C)=CCc1cccc2c(C(=O)OCCOC(=O)c3ccc(-c4c5nc(c(-c6ccccc6)c6ccc([nH]6)c(-c6ccccc6)c6nc(c(-c7ccccc7)c7ccc4[nH]7)C=C6)C=C5)cc3)c[nH]c12
REMARK SMILES IDX 15 1 14 2 12 3 13 4 11 5 6 6 7 7 70 8 8 9 10 10 69 11 9 12
REMARK SMILES IDX 68 13 5 15 4 16 1 17 2 18 3 19 16 20 17 21 18 22 19 23 20 24
REMARK SMILES IDX 21 25 67 26 22 27 66 28 23 29 24 30 25 31 60 32 26 33 65 34
REMARK SMILES IDX 59 35 61 36 27 37 64 38 58 39 57 40 28 42 50 43 35 44 49 45
REMARK SMILES IDX 36 46 39 47 48 48 62 49 37 50 38 51 47 53 63 54 40 55 29 56
REMARK SMILES IDX 30 57 34 58 31 59 33 60 32 61 51 62 52 63 56 64 53 65 55 66
REMARK SMILES IDX 54 67 41 68 42 69 46 70 43 71 45 72 44 73
REMARK H PARENT 69 14 61 41 39 52
REMARK Flexibility Score: inf
ROOT
ATOM      1  C   UNL     1       7.834  -6.203   5.114  1.00  0.00     0.275 C 
ENDROOT
BRANCH   1   2
ATOM      2  O   UNL     1       6.801  -5.443   4.459  1.00  0.00    -0.458 OA
BRANCH   2   3
ATOM      3  C   UNL     1       6.287  -5.987   3.317  1.00  0.00     0.340 C 
ATOM      4  O   UNL     1       6.689  -7.029   2.813  1.00  0.00    -0.246 OA
BRANCH   3   5
ATOM      5  C   UNL     1       5.138  -5.255   2.793  1.00  0.00     0.085 A 
ATOM      6  C   UNL     1       3.001  -2.402   2.044  1.00  0.00    -0.020 A 
ATOM      7  C   UNL     1       3.728  -1.306   2.548  1.00  0.00     0.006 A 
ATOM      8  C   UNL     1       3.603  -3.661   2.220  1.00  0.00     0.050 A 
ATOM      9  C   UNL     1       4.926  -1.469   3.241  1.00  0.00     0.001 A 
ATOM     10  C   UNL     1       4.815  -3.862   2.889  1.00  0.00     0.014 A 
ATOM     11  N   UNL     1       3.179  -4.894   1.784  1.00  0.00    -0.360 N 
ATOM     12  C   UNL     1       5.469  -2.740   3.434  1.00  0.00     0.011 A 
ATOM     13  C   UNL     1       4.145  -5.827   2.013  1.00  0.00     0.099 A 
ATOM     14  H   UNL     1       2.306  -5.077   1.368  1.00  0.00     0.166 HD
BRANCH   6  15
ATOM     15  C   UNL     1       1.721  -2.214   1.263  1.00  0.00     0.065 C 
BRANCH  15  16
ATOM     16  C   UNL     1       0.794  -1.188   1.852  1.00  0.00    -0.024 C 
ATOM     17  C   UNL     1       0.878   0.377  -0.099  1.00  0.00     0.039 C 
ATOM     18  C   UNL     1       0.411  -0.036   1.268  1.00  0.00    -0.080 C 
ATOM     19  C   UNL     1      -0.497   0.906   2.005  1.00  0.00     0.039 C 
ENDBRANCH  15  16
ENDBRANCH   6  15
ENDBRANCH   3   5
ENDBRANCH   2   3
ENDBRANCH   1   2
BRANCH   1  20
ATOM     20  C   UNL     1       7.273  -7.061   6.251  1.00  0.00     0.275 C 
BRANCH  20  21
ATOM     21  O   UNL     1       6.487  -8.158   5.745  1.00  0.00    -0.458 OA
BRANCH  21  22
ATOM     22  C   UNL     1       5.149  -7.979   5.802  1.00  0.00     0.338 C 
ATOM     23  O   UNL     1       4.543  -7.022   6.254  1.00  0.00    -0.246 OA
BRANCH  22  24
ATOM     24  C   UNL     1       4.468  -9.094   5.131  1.00  0.00     0.060 A 
ATOM     25  C   UNL     1       4.116  -8.924   3.796  1.00  0.00     0.016 A 
ATOM     26  C   UNL     1       4.035 -10.214   5.832  1.00  0.00     0.016 A 
ATOM     27  C   UNL     1       3.268  -9.822   3.162  1.00  0.00     0.010 A 
ATOM     28  C   UNL     1       3.241 -11.162   5.173  1.00  0.00     0.010 A 
ATOM     29  C   UNL     1       2.822 -10.958   3.842  1.00  0.00    -0.014 A 
BRANCH  29  30
ATOM     30  C   UNL     1       1.875 -11.898   3.186  1.00  0.00     0.031 A 
ATOM     31  C   UNL     1       0.512 -12.119   3.784  1.00  0.00     0.074 A 
ATOM     32  C   UNL     1       2.223 -12.545   2.057  1.00  0.00     0.049 A 
ATOM     33  N   UNL     1      -0.384 -13.026   3.492  1.00  0.00    -0.248 NA
ATOM     34  C   UNL     1       0.111 -11.202   4.863  1.00  0.00     0.031 C 
ATOM     35  C   UNL     1       3.477 -12.365   1.322  1.00  0.00     0.029 A 
ATOM     36  N   UNL     1       1.547 -13.495   1.330  1.00  0.00    -0.354 N 
ATOM     37  C   UNL     1      -1.428 -12.826   4.387  1.00  0.00     0.074 A 
ATOM     38  C   UNL     1      -1.051 -11.718   5.237  1.00  0.00     0.031 C 
ATOM     39  C   UNL     1       3.475 -13.165   0.245  1.00  0.00     0.029 A 
ATOM     40  C   UNL     1       2.264 -13.977   0.261  1.00  0.00     0.049 A 
ATOM     41  H   UNL     1       0.638 -13.800   1.553  1.00  0.00     0.167 HD
ATOM     42  C   UNL     1      -2.593 -13.511   4.493  1.00  0.00     0.031 A 
ATOM     43  C   UNL     1       2.004 -14.995  -0.580  1.00  0.00     0.031 A 
ATOM     44  C   UNL     1      -2.969 -14.599   3.629  1.00  0.00     0.049 A 
ATOM     45  C   UNL     1       0.745 -15.793  -0.393  1.00  0.00     0.074 A 
ATOM     46  C   UNL     1      -4.128 -15.355   3.648  1.00  0.00     0.029 A 
ATOM     47  N   UNL     1      -2.193 -15.080   2.585  1.00  0.00    -0.354 N 
ATOM     48  N   UNL     1      -0.216 -15.627   0.484  1.00  0.00    -0.248 NA
ATOM     49  C   UNL     1       0.538 -16.925  -1.307  1.00  0.00     0.031 C 
ATOM     50  C   UNL     1      -4.028 -16.331   2.651  1.00  0.00     0.029 A 
ATOM     51  C   UNL     1      -2.839 -16.137   1.966  1.00  0.00     0.049 A 
ATOM     52  H   UNL     1      -1.314 -14.723   2.322  1.00  0.00     0.167 HD
ATOM     53  C   UNL     1      -1.155 -16.611   0.207  1.00  0.00     0.074 A 
ATOM     54  C   UNL     1      -0.654 -17.363  -0.925  1.00  0.00     0.031 C 
ATOM     55  C   UNL     1      -2.330 -16.868   0.834  1.00  0.00     0.031 A 
BRANCH  42  56
ATOM     56  C   UNL     1      -3.518 -13.137   5.620  1.00  0.00    -0.014 A 
ATOM     57  C   UNL     1      -4.216 -11.919   5.632  1.00  0.00     0.009 A 
ATOM     58  C   UNL     1      -3.707 -14.036   6.683  1.00  0.00     0.009 A 
ATOM     59  C   UNL     1      -5.050 -11.593   6.705  1.00  0.00     0.001 A 
ATOM     60  C   UNL     1      -4.566 -13.721   7.737  1.00  0.00     0.001 A 
ATOM     61  C   UNL     1      -5.227 -12.495   7.754  1.00  0.00     0.000 A 
ENDBRANCH  42  56
BRANCH  43  62
ATOM     62  C   UNL     1       2.981 -15.350  -1.644  1.00  0.00    -0.014 A 
ATOM     63  C   UNL     1       2.663 -15.162  -2.998  1.00  0.00     0.009 A 
ATOM     64  C   UNL     1       4.238 -15.880  -1.311  1.00  0.00     0.009 A 
ATOM     65  C   UNL     1       3.576 -15.518  -3.995  1.00  0.00     0.001 A 
ATOM     66  C   UNL     1       5.161 -16.202  -2.308  1.00  0.00     0.001 A 
ATOM     67  C   UNL     1       4.825 -16.030  -3.649  1.00  0.00     0.000 A 
ENDBRANCH  43  62
BRANCH  55  68
ATOM     68  C   UNL     1      -3.185 -17.968   0.270  1.00  0.00    -0.014 A 
ATOM     69  C   UNL     1      -2.836 -19.319   0.416  1.00  0.00     0.009 A 
ATOM     70  C   UNL     1      -4.386 -17.641  -0.379  1.00  0.00     0.009 A 
ATOM     71  C   UNL     1      -3.660 -20.319  -0.104  1.00  0.00     0.001 A 
ATOM     72  C   UNL     1      -5.223 -18.643  -0.869  1.00  0.00     0.001 A 
ATOM     73  C   UNL     1      -4.855 -19.981  -0.739  1.00  0.00     0.000 A 
ENDBRANCH  55  68
ENDBRANCH  29  30
ENDBRANCH  22  24
ENDBRANCH  21  22
ENDBRANCH  20  21
ENDBRANCH   1  20
TORSDOF 13
