REMARK SMILES CC[C@@H]1CCC[N@H+]([C@@H]2CC[C@]([NH2+]C3CC3)(C(=O)OCCOC(=O)c3ccc(-c4c5nc(c(-c6ccccc6)c6ccc([nH]6)c(-c6ccccc6)c6nc(c(-c7ccccc7)c7ccc4[nH]7)C=C6)C=C5)cc3)C2)CC1
REMARK SMILES IDX 18 1 16 2 17 3 11 4 8 5 9 6 72 7 10 8 7 9 73 11 74 12 3 13
REMARK SMILES IDX 2 15 1 16 6 17 5 18 4 19 12 21 13 24 14 25 15 26 19 27 20 28
REMARK SMILES IDX 21 29 22 30 23 31 24 32 25 33 71 34 26 35 70 36 27 37 28 38
REMARK SMILES IDX 29 39 64 40 30 41 69 42 63 43 65 44 31 45 68 46 62 47 61 48
REMARK SMILES IDX 32 50 54 51 39 52 53 53 40 54 43 55 52 56 66 57 41 58 42 59
REMARK SMILES IDX 51 61 67 62 44 63 33 64 34 65 38 66 35 67 37 68 36 69 55 70
REMARK SMILES IDX 56 71 60 72 57 73 59 74 58 75 45 76 46 77 50 78 47 79 49 80
REMARK SMILES IDX 48 81
REMARK H PARENT 7 10 12 22 12 23 65 49 43 60
REMARK Flexibility Score: 90.00
ROOT
ATOM      1  O   UNL     1       4.171   2.112   8.493  1.00  0.00    -0.457 OA
ENDROOT
BRANCH   1   2
ATOM      2  C   UNL     1       2.815   1.984   8.395  1.00  0.00     0.368 C 
ATOM      3  O   UNL     1       2.031   2.925   8.434  1.00  0.00    -0.245 OA
BRANCH   2   4
ATOM      4  C   UNL     1       2.401   0.492   8.236  1.00  0.00     0.200 C 
ATOM      5  C   UNL     1       1.646  -0.995   6.455  1.00  0.00     0.191 C 
ATOM      6  C   UNL     1       0.384  -0.421   7.107  1.00  0.00     0.072 C 
ATOM      7  C   UNL     1       2.720   0.046   6.786  1.00  0.00     0.146 C 
ATOM      8  C   UNL     1       0.861   0.328   8.354  1.00  0.00     0.087 C 
BRANCH   5   9
ATOM      9  N   UNL     1       1.509  -1.431   5.054  1.00  0.00    -0.332 N 
ATOM     10  H   UNL     1       2.429  -1.765   4.765  1.00  0.00     0.348 HD
BRANCH   9  11
ATOM     11  C   UNL     1       1.304  -0.358   4.079  1.00  0.00     0.262 C 
BRANCH  11  12
ATOM     12  C   UNL     1       0.550  -0.657   2.770  1.00  0.00     0.065 C 
BRANCH  12  13
ATOM     13  C   UNL     1       1.115  -1.813   1.925  1.00  0.00    -0.006 CG0
ATOM     14  G   UNL     1       0.614  -3.171   2.441  1.00  0.00     0.000 G0
BRANCH  13  15
ATOM     15  C   UNL     1       0.677  -1.686   0.445  1.00  0.00     0.000 C 
ATOM     16  C   UNL     1       1.456  -0.630  -0.322  1.00  0.00     0.004 C 
ENDBRANCH  13  15
ENDBRANCH  12  13
ENDBRANCH  11  12
ENDBRANCH   9  11
BRANCH   9  17
ATOM     17  C   UNL     1       0.618  -2.585   4.939  1.00  0.00     0.262 C 
BRANCH  17  18
ATOM     18  C   UNL     1       1.080  -3.539   3.840  1.00  0.00     0.062 C 
BRANCH  18  19
ATOM     19  C   UNL     1       0.614  -3.171   2.441  1.00  0.00     0.009 CG0
ATOM     20  G   UNL     1       1.115  -1.813   1.925  1.00  0.00     0.000 G0
ENDBRANCH  18  19
ENDBRANCH  17  18
ENDBRANCH   9  17
ENDBRANCH   5   9
BRANCH   4  21
ATOM     21  N   UNL     1       3.083  -0.250   9.328  1.00  0.00    -0.329 N 
ATOM     22  H   UNL     1       2.628   0.013  10.203  1.00  0.00     0.347 HD
ATOM     23  H   UNL     1       4.064   0.015   9.240  1.00  0.00     0.347 HD
BRANCH  21  24
ATOM     24  C   UNL     1       3.094  -1.706   9.268  1.00  0.00     0.183 C 
ATOM     25  C   UNL     1       4.261  -2.396   8.618  1.00  0.00     0.071 C 
ATOM     26  C   UNL     1       4.098  -2.445  10.107  1.00  0.00     0.071 C 
ENDBRANCH  21  24
ENDBRANCH   4  21
ENDBRANCH   2   4
ENDBRANCH   1   2
BRANCH   1  27
ATOM     27  C   UNL     1       4.690   3.437   8.698  1.00  0.00     0.274 C 
BRANCH  27  28
ATOM     28  C   UNL     1       5.251   3.992   7.394  1.00  0.00     0.275 C 
BRANCH  28  29
ATOM     29  O   UNL     1       4.178   4.235   6.468  1.00  0.00    -0.458 OA
BRANCH  29  30
ATOM     30  C   UNL     1       4.079   3.360   5.443  1.00  0.00     0.338 C 
ATOM     31  O   UNL     1       4.811   2.426   5.173  1.00  0.00    -0.246 OA
BRANCH  30  32
ATOM     32  C   UNL     1       2.909   3.726   4.638  1.00  0.00     0.060 A 
ATOM     33  C   UNL     1       1.625   3.376   5.062  1.00  0.00     0.016 A 
ATOM     34  C   UNL     1       3.107   4.378   3.423  1.00  0.00     0.016 A 
ATOM     35  C   UNL     1       0.527   3.655   4.252  1.00  0.00     0.010 A 
ATOM     36  C   UNL     1       2.002   4.711   2.642  1.00  0.00     0.010 A 
ATOM     37  C   UNL     1       0.706   4.343   3.044  1.00  0.00    -0.014 A 
BRANCH  37  38
ATOM     38  C   UNL     1      -0.453   4.713   2.199  1.00  0.00     0.031 A 
ATOM     39  C   UNL     1      -0.620   4.114   0.834  1.00  0.00     0.074 A 
ATOM     40  C   UNL     1      -1.320   5.645   2.636  1.00  0.00     0.049 A 
ATOM     41  N   UNL     1      -1.491   4.408  -0.098  1.00  0.00    -0.248 NA
ATOM     42  C   UNL     1       0.318   3.044   0.468  1.00  0.00     0.031 C 
ATOM     43  C   UNL     1      -1.283   6.293   3.948  1.00  0.00     0.029 A 
ATOM     44  N   UNL     1      -2.384   6.234   2.000  1.00  0.00    -0.354 N 
ATOM     45  C   UNL     1      -1.212   3.551  -1.155  1.00  0.00     0.074 A 
ATOM     46  C   UNL     1      -0.065   2.762  -0.770  1.00  0.00     0.031 C 
ATOM     47  C   UNL     1      -2.262   7.208   4.010  1.00  0.00     0.029 A 
ATOM     48  C   UNL     1      -2.954   7.249   2.726  1.00  0.00     0.049 A 
ATOM     49  H   UNL     1      -2.705   5.956   1.112  1.00  0.00     0.167 HD
ATOM     50  C   UNL     1      -1.858   3.424  -2.337  1.00  0.00     0.031 A 
ATOM     51  C   UNL     1      -3.890   8.151   2.378  1.00  0.00     0.031 A 
ATOM     52  C   UNL     1      -2.963   4.246  -2.746  1.00  0.00     0.049 A 
ATOM     53  C   UNL     1      -4.476   8.109   0.997  1.00  0.00     0.074 A 
ATOM     54  C   UNL     1      -3.699   4.187  -3.916  1.00  0.00     0.029 A 
ATOM     55  N   UNL     1      -3.469   5.300  -2.004  1.00  0.00    -0.354 N 
ATOM     56  N   UNL     1      -4.247   7.256   0.029  1.00  0.00    -0.248 NA
ATOM     57  C   UNL     1      -5.443   9.162   0.658  1.00  0.00     0.031 C 
ATOM     58  C   UNL     1      -4.608   5.251  -3.910  1.00  0.00     0.029 A 
ATOM     59  C   UNL     1      -4.471   5.937  -2.714  1.00  0.00     0.049 A 
ATOM     60  H   UNL     1      -3.162   5.557  -1.105  1.00  0.00     0.167 HD
ATOM     61  C   UNL     1      -5.054   7.656  -1.027  1.00  0.00     0.074 A 
ATOM     62  C   UNL     1      -5.785   8.823  -0.578  1.00  0.00     0.031 C 
ATOM     63  C   UNL     1      -5.180   7.103  -2.258  1.00  0.00     0.031 A 
BRANCH  50  64
ATOM     64  C   UNL     1      -1.362   2.369  -3.283  1.00  0.00    -0.014 A 
ATOM     65  C   UNL     1      -1.621   1.009  -3.046  1.00  0.00     0.009 A 
ATOM     66  C   UNL     1      -0.653   2.737  -4.436  1.00  0.00     0.009 A 
ATOM     67  C   UNL     1      -1.157   0.037  -3.935  1.00  0.00     0.001 A 
ATOM     68  C   UNL     1      -0.207   1.764  -5.332  1.00  0.00     0.001 A 
ATOM     69  C   UNL     1      -0.454   0.416  -5.078  1.00  0.00     0.000 A 
ENDBRANCH  50  64
BRANCH  51  70
ATOM     70  C   UNL     1      -4.279   9.212   3.341  1.00  0.00    -0.014 A 
ATOM     71  C   UNL     1      -5.538   9.192   3.955  1.00  0.00     0.009 A 
ATOM     72  C   UNL     1      -3.381  10.245   3.657  1.00  0.00     0.009 A 
ATOM     73  C   UNL     1      -5.895  10.195   4.859  1.00  0.00     0.001 A 
ATOM     74  C   UNL     1      -3.732  11.231   4.580  1.00  0.00     0.001 A 
ATOM     75  C   UNL     1      -4.991  11.209   5.175  1.00  0.00     0.000 A 
ENDBRANCH  51  70
BRANCH  63  76
ATOM     76  C   UNL     1      -6.156   7.742  -3.201  1.00  0.00    -0.014 A 
ATOM     77  C   UNL     1      -5.851   8.949  -3.848  1.00  0.00     0.009 A 
ATOM     78  C   UNL     1      -7.372   7.102  -3.485  1.00  0.00     0.009 A 
ATOM     79  C   UNL     1      -6.757   9.514  -4.747  1.00  0.00     0.001 A 
ATOM     80  C   UNL     1      -8.265   7.657  -4.402  1.00  0.00     0.001 A 
ATOM     81  C   UNL     1      -7.959   8.865  -5.028  1.00  0.00     0.000 A 
ENDBRANCH  63  76
ENDBRANCH  37  38
ENDBRANCH  30  32
ENDBRANCH  29  30
ENDBRANCH  28  29
ENDBRANCH  27  28
ENDBRANCH   1  27
TORSDOF 15
