REMARK SMILES COC(=O)Cc1nc(NC(=O)[C@H]2CC[C@@H]2C(=O)OCCOC(=O)c2ccc(-c3c4nc(c(-c5ccccc5)c5ccc([nH]5)c(-c5ccccc5)c5nc(c(-c6ccccc6)c6ccc3[nH]6)C=C5)C=C4)cc2)sc1C
REMARK SMILES IDX 18 1 16 2 17 3 15 4 12 5 13 6 14 7 10 8 9 9 11 11 8 12 6 13
REMARK SMILES IDX 7 14 73 15 72 16 74 17 5 18 3 19 4 20 2 21 1 22 19 23 20 24
REMARK SMILES IDX 21 25 22 26 23 27 24 28 25 29 71 30 26 31 70 32 27 33 28 34
REMARK SMILES IDX 29 35 64 36 30 37 69 38 63 39 65 40 31 41 68 42 62 43 61 44
REMARK SMILES IDX 32 46 54 47 39 48 53 49 40 50 43 51 52 52 66 53 41 54 42 55
REMARK SMILES IDX 51 57 67 58 44 59 33 60 34 61 38 62 35 63 37 64 36 65 55 66
REMARK SMILES IDX 56 67 60 68 57 69 59 70 58 71 45 72 46 73 50 74 47 75 49 76
REMARK SMILES IDX 48 77
REMARK H PARENT 9 10 65 45 43 56
REMARK Flexibility Score: inf
ROOT
ATOM      1  O   UNL     1       4.218  -2.882  -9.700  1.00  0.00    -0.462 OA
ENDROOT
BRANCH   1   2
ATOM      2  C   UNL     1       3.133  -2.062  -9.859  1.00  0.00     0.309 C 
ATOM      3  O   UNL     1       3.058  -1.213 -10.745  1.00  0.00    -0.252 OA
BRANCH   2   4
ATOM      4  C   UNL     1       2.003  -2.354  -8.839  1.00  0.00     0.111 C 
ATOM      5  C   UNL     1       2.190  -1.796  -7.399  1.00  0.00     0.093 C 
ATOM      6  C   UNL     1       2.565  -3.251  -6.974  1.00  0.00     0.015 C 
ATOM      7  C   UNL     1       1.878  -3.769  -8.231  1.00  0.00     0.017 C 
BRANCH   5   8
ATOM      8  C   UNL     1       0.962  -1.120  -6.717  1.00  0.00     0.230 C 
ATOM      9  N   UNL     1       0.899  -0.970  -5.345  1.00  0.00    -0.302 N 
ATOM     10  H   UNL     1       0.062  -0.586  -4.994  1.00  0.00     0.172 HD
ATOM     11  O   UNL     1      -0.037  -0.766  -7.361  1.00  0.00    -0.274 OA
BRANCH   9  12
ATOM     12  C   UNL     1       1.845  -1.284  -4.413  1.00  0.00     0.189 A 
ATOM     13  C   UNL     1       2.697  -2.288  -2.650  1.00  0.00     0.068 A 
ATOM     14  N   UNL     1       1.572  -1.656  -3.184  1.00  0.00    -0.224 NA
ATOM     15  C   UNL     1       3.758  -2.372  -3.543  1.00  0.00     0.027 A 
ATOM     16  S   UNL     1       3.512  -1.179  -4.744  1.00  0.00    -0.102 S 
ATOM     17  C   UNL     1       4.979  -3.212  -3.584  1.00  0.00     0.058 C 
BRANCH  13  18
ATOM     18  C   UNL     1       2.618  -2.867  -1.276  1.00  0.00     0.180 C 
BRANCH  18  19
ATOM     19  C   UNL     1       3.737  -2.311  -0.423  1.00  0.00     0.311 C 
ATOM     20  O   UNL     1       3.661  -1.304   0.268  1.00  0.00    -0.252 OA
BRANCH  19  21
ATOM     21  O   UNL     1       4.878  -3.032  -0.621  1.00  0.00    -0.469 OA
ATOM     22  C   UNL     1       6.080  -2.376  -0.217  1.00  0.00     0.282 C 
ENDBRANCH  19  21
ENDBRANCH  18  19
ENDBRANCH  13  18
ENDBRANCH   9  12
ENDBRANCH   5   8
ENDBRANCH   2   4
ENDBRANCH   1   2
BRANCH   1  23
ATOM     23  C   UNL     1       5.245  -2.799 -10.707  1.00  0.00     0.274 C 
BRANCH  23  24
ATOM     24  C   UNL     1       5.154  -3.985 -11.671  1.00  0.00     0.275 C 
BRANCH  24  25
ATOM     25  O   UNL     1       3.913  -3.964 -12.401  1.00  0.00    -0.458 OA
BRANCH  25  26
ATOM     26  C   UNL     1       2.944  -4.773 -11.912  1.00  0.00     0.338 C 
ATOM     27  O   UNL     1       3.026  -5.554 -10.981  1.00  0.00    -0.246 OA
BRANCH  26  28
ATOM     28  C   UNL     1       1.676  -4.483 -12.596  1.00  0.00     0.060 A 
ATOM     29  C   UNL     1       0.649  -3.896 -11.855  1.00  0.00     0.016 A 
ATOM     30  C   UNL     1       1.467  -4.859 -13.922  1.00  0.00     0.016 A 
ATOM     31  C   UNL     1      -0.594  -3.665 -12.434  1.00  0.00     0.010 A 
ATOM     32  C   UNL     1       0.214  -4.638 -14.503  1.00  0.00     0.010 A 
ATOM     33  C   UNL     1      -0.824  -4.046 -13.759  1.00  0.00    -0.014 A 
BRANCH  33  34
ATOM     34  C   UNL     1      -2.176  -3.888 -14.338  1.00  0.00     0.031 A 
ATOM     35  C   UNL     1      -3.061  -5.089 -14.494  1.00  0.00     0.074 A 
ATOM     36  C   UNL     1      -2.619  -2.667 -14.689  1.00  0.00     0.049 A 
ATOM     37  N   UNL     1      -4.239  -5.180 -15.055  1.00  0.00    -0.248 NA
ATOM     38  C   UNL     1      -2.553  -6.356 -13.944  1.00  0.00     0.031 C 
ATOM     39  C   UNL     1      -1.879  -1.416 -14.518  1.00  0.00     0.029 A 
ATOM     40  N   UNL     1      -3.804  -2.282 -15.261  1.00  0.00    -0.354 N 
ATOM     41  C   UNL     1      -4.603  -6.516 -14.950  1.00  0.00     0.074 A 
ATOM     42  C   UNL     1      -3.518  -7.200 -14.279  1.00  0.00     0.031 C 
ATOM     43  C   UNL     1      -2.630  -0.401 -14.975  1.00  0.00     0.029 A 
ATOM     44  C   UNL     1      -3.878  -0.935 -15.511  1.00  0.00     0.049 A 
ATOM     45  H   UNL     1      -4.532  -2.911 -15.472  1.00  0.00     0.167 HD
ATOM     46  C   UNL     1      -5.738  -7.117 -15.378  1.00  0.00     0.031 A 
ATOM     47  C   UNL     1      -4.833  -0.217 -16.132  1.00  0.00     0.031 A 
ATOM     48  C   UNL     1      -6.816  -6.433 -16.041  1.00  0.00     0.049 A 
ATOM     49  C   UNL     1      -6.051  -0.919 -16.661  1.00  0.00     0.074 A 
ATOM     50  C   UNL     1      -8.006  -6.954 -16.518  1.00  0.00     0.029 A 
ATOM     51  N   UNL     1      -6.833  -5.075 -16.319  1.00  0.00    -0.354 N 
ATOM     52  N   UNL     1      -6.373  -2.188 -16.582  1.00  0.00    -0.248 NA
ATOM     53  C   UNL     1      -7.035  -0.091 -17.372  1.00  0.00     0.031 C 
ATOM     54  C   UNL     1      -8.726  -5.917 -17.122  1.00  0.00     0.029 A 
ATOM     55  C   UNL     1      -8.004  -4.743 -16.978  1.00  0.00     0.049 A 
ATOM     56  H   UNL     1      -6.119  -4.441 -16.082  1.00  0.00     0.167 HD
ATOM     57  C   UNL     1      -7.602  -2.307 -17.217  1.00  0.00     0.074 A 
ATOM     58  C   UNL     1      -7.976  -0.980 -17.661  1.00  0.00     0.031 C 
ATOM     59  C   UNL     1      -8.354  -3.417 -17.416  1.00  0.00     0.031 A 
BRANCH  46  60
ATOM     60  C   UNL     1      -5.846  -8.601 -15.180  1.00  0.00    -0.014 A 
ATOM     61  C   UNL     1      -6.091  -9.155 -13.914  1.00  0.00     0.009 A 
ATOM     62  C   UNL     1      -5.721  -9.457 -16.285  1.00  0.00     0.009 A 
ATOM     63  C   UNL     1      -6.178 -10.540 -13.755  1.00  0.00     0.001 A 
ATOM     64  C   UNL     1      -5.832 -10.839 -16.128  1.00  0.00     0.001 A 
ATOM     65  C   UNL     1      -6.052 -11.380 -14.862  1.00  0.00     0.000 A 
ENDBRANCH  46  60
BRANCH  47  66
ATOM     66  C   UNL     1      -4.656   1.246 -16.321  1.00  0.00    -0.014 A 
ATOM     67  C   UNL     1      -5.445   2.160 -15.607  1.00  0.00     0.009 A 
ATOM     68  C   UNL     1      -3.697   1.734 -17.222  1.00  0.00     0.009 A 
ATOM     69  C   UNL     1      -5.287   3.534 -15.806  1.00  0.00     0.001 A 
ATOM     70  C   UNL     1      -3.523   3.107 -17.399  1.00  0.00     0.001 A 
ATOM     71  C   UNL     1      -4.324   4.006 -16.696  1.00  0.00     0.000 A 
ENDBRANCH  47  66
BRANCH  59  72
ATOM     72  C   UNL     1      -9.667  -3.234 -18.121  1.00  0.00    -0.014 A 
ATOM     73  C   UNL     1      -9.722  -3.019 -19.506  1.00  0.00     0.009 A 
ATOM     74  C   UNL     1     -10.864  -3.312 -17.393  1.00  0.00     0.009 A 
ATOM     75  C   UNL     1     -10.953  -2.858 -20.145  1.00  0.00     0.001 A 
ATOM     76  C   UNL     1     -12.093  -3.174 -18.038  1.00  0.00     0.001 A 
ATOM     77  C   UNL     1     -12.136  -2.939 -19.412  1.00  0.00     0.000 A 
ENDBRANCH  59  72
ENDBRANCH  33  34
ENDBRANCH  26  28
ENDBRANCH  25  26
ENDBRANCH  24  25
ENDBRANCH  23  24
ENDBRANCH   1  23
TORSDOF 16
