REMARK SMILES C=CCN(CC(=O)OCCOC(=O)c1ccc(-c2c3nc(c(-c4ccccc4)c4ccc([nH]4)c(-c4ccccc4)c4nc(c(-c5ccccc5)c5ccc2[nH]5)C=C4)C=C3)cc1)C(=O)CC1([NH2+]C)CCCCC1
REMARK SMILES IDX 8 1 6 2 7 3 5 4 4 5 3 6 2 7 1 8 62 9 63 10 64 11 65 12 68 13
REMARK SMILES IDX 72 14 69 15 71 16 70 17 66 18 67 19 9 22 10 23 11 24 12 25
REMARK SMILES IDX 13 26 14 27 15 28 61 29 16 30 60 31 17 32 18 33 19 34 54 35
REMARK SMILES IDX 20 36 59 37 53 38 55 39 21 40 58 41 52 42 51 43 22 45 44 46
REMARK SMILES IDX 29 47 43 48 30 49 33 50 42 51 56 52 31 53 32 54 41 56 57 57
REMARK SMILES IDX 34 58 23 59 24 60 28 61 25 62 27 63 26 64 45 65 46 66 50 67
REMARK SMILES IDX 47 68 49 69 48 70 35 71 36 72 40 73 37 74 39 75 38 76
REMARK H PARENT 66 20 66 21 55 44 33 55
REMARK Flexibility Score: inf
ROOT
ATOM      1  O   UNL     1      -4.396   2.020   0.139  1.00  0.00    -0.461 OA
ENDROOT
BRANCH   1   2
ATOM      2  C   UNL     1      -3.944   2.080  -1.142  1.00  0.00     0.325 C 
ATOM      3  O   UNL     1      -4.619   2.465  -2.094  1.00  0.00    -0.250 OA
BRANCH   2   4
ATOM      4  C   UNL     1      -2.533   1.514  -1.340  1.00  0.00     0.242 C 
BRANCH   4   5
ATOM      5  N   UNL     1      -1.642   1.204  -0.213  1.00  0.00    -0.328 N 
BRANCH   5   6
ATOM      6  C   UNL     1      -1.060  -0.136  -0.191  1.00  0.00     0.147 C 
BRANCH   6   7
ATOM      7  C   UNL     1       0.298  -0.088  -0.841  1.00  0.00    -0.014 C 
ATOM      8  C   UNL     1       1.430  -0.445  -0.216  1.00  0.00     0.006 C 
ENDBRANCH   6   7
ENDBRANCH   5   6
BRANCH   5   9
ATOM      9  C   UNL     1      -1.063   2.135   0.643  1.00  0.00     0.229 C 
ATOM     10  O   UNL     1      -0.292   1.789   1.546  1.00  0.00    -0.275 OA
BRANCH   9  11
ATOM     11  C   UNL     1      -1.384   3.613   0.513  1.00  0.00     0.168 C 
BRANCH  11  12
ATOM     12  C   UNL     1      -0.493   4.459  -0.450  1.00  0.00     0.105 C 
ATOM     13  C   UNL     1      -0.641   5.942  -0.020  1.00  0.00     0.069 C 
ATOM     14  C   UNL     1       1.019   4.120  -0.314  1.00  0.00     0.069 C 
ATOM     15  C   UNL     1       0.201   6.903  -0.850  1.00  0.00     0.006 C 
ATOM     16  C   UNL     1       1.944   5.093  -1.072  1.00  0.00     0.006 C 
ATOM     17  C   UNL     1       1.676   6.557  -0.734  1.00  0.00     0.000 C 
BRANCH  12  18
ATOM     18  N   UNL     1      -0.873   4.228  -1.864  1.00  0.00    -0.343 N 
ATOM     19  C   UNL     1      -2.132   4.794  -2.315  1.00  0.00     0.331 C 
ATOM     20  H   UNL     1      -0.921   3.219  -2.007  1.00  0.00     0.346 HD
ATOM     21  H   UNL     1      -0.158   4.709  -2.409  1.00  0.00     0.346 HD
ENDBRANCH  12  18
ENDBRANCH  11  12
ENDBRANCH   9  11
ENDBRANCH   5   9
ENDBRANCH   4   5
ENDBRANCH   2   4
ENDBRANCH   1   2
BRANCH   1  22
ATOM     22  C   UNL     1      -5.798   2.324   0.327  1.00  0.00     0.274 C 
BRANCH  22  23
ATOM     23  C   UNL     1      -5.993   3.470   1.316  1.00  0.00     0.275 C 
BRANCH  23  24
ATOM     24  O   UNL     1      -5.540   4.711   0.738  1.00  0.00    -0.458 OA
BRANCH  24  25
ATOM     25  C   UNL     1      -4.909   5.545   1.602  1.00  0.00     0.338 C 
ATOM     26  O   UNL     1      -4.669   5.320   2.777  1.00  0.00    -0.246 OA
BRANCH  25  27
ATOM     27  C   UNL     1      -4.487   6.808   0.945  1.00  0.00     0.060 A 
ATOM     28  C   UNL     1      -4.211   6.872  -0.416  1.00  0.00     0.016 A 
ATOM     29  C   UNL     1      -4.201   7.917   1.748  1.00  0.00     0.016 A 
ATOM     30  C   UNL     1      -3.466   7.949  -0.917  1.00  0.00     0.010 A 
ATOM     31  C   UNL     1      -3.565   9.046   1.210  1.00  0.00     0.010 A 
ATOM     32  C   UNL     1      -3.099   9.045  -0.113  1.00  0.00    -0.014 A 
BRANCH  32  33
ATOM     33  C   UNL     1      -2.172  10.121  -0.614  1.00  0.00     0.031 A 
ATOM     34  C   UNL     1      -0.935  10.534   0.175  1.00  0.00     0.074 A 
ATOM     35  C   UNL     1      -2.356  10.699  -1.822  1.00  0.00     0.049 A 
ATOM     36  N   UNL     1      -0.091  11.513  -0.062  1.00  0.00    -0.248 NA
ATOM     37  C   UNL     1      -0.581   9.731   1.359  1.00  0.00     0.031 C 
ATOM     38  C   UNL     1      -3.425  10.380  -2.770  1.00  0.00     0.029 A 
ATOM     39  N   UNL     1      -1.628  11.672  -2.470  1.00  0.00    -0.354 N 
ATOM     40  C   UNL     1       0.882  11.438   0.932  1.00  0.00     0.074 A 
ATOM     41  C   UNL     1       0.518  10.335   1.792  1.00  0.00     0.031 C 
ATOM     42  C   UNL     1      -3.244  11.084  -3.895  1.00  0.00     0.029 A 
ATOM     43  C   UNL     1      -2.139  12.015  -3.699  1.00  0.00     0.049 A 
ATOM     44  H   UNL     1      -0.818  12.083  -2.090  1.00  0.00     0.167 HD
ATOM     45  C   UNL     1       1.988  12.201   1.116  1.00  0.00     0.031 A 
ATOM     46  C   UNL     1      -1.833  13.012  -4.552  1.00  0.00     0.031 A 
ATOM     47  C   UNL     1       2.374  13.316   0.293  1.00  0.00     0.049 A 
ATOM     48  C   UNL     1      -0.768  14.004  -4.194  1.00  0.00     0.074 A 
ATOM     49  C   UNL     1       3.459  14.166   0.446  1.00  0.00     0.029 A 
ATOM     50  N   UNL     1       1.690  13.742  -0.829  1.00  0.00    -0.354 N 
ATOM     51  N   UNL     1       0.076  13.980  -3.195  1.00  0.00    -0.248 NA
ATOM     52  C   UNL     1      -0.649  15.188  -5.059  1.00  0.00     0.031 C 
ATOM     53  C   UNL     1       3.394  15.146  -0.552  1.00  0.00     0.029 A 
ATOM     54  C   UNL     1       2.299  14.872  -1.352  1.00  0.00     0.049 A 
ATOM     55  H   UNL     1       0.889  13.308  -1.202  1.00  0.00     0.167 HD
ATOM     56  C   UNL     1       0.824  15.145  -3.307  1.00  0.00     0.074 A 
ATOM     57  C   UNL     1       0.349  15.843  -4.482  1.00  0.00     0.031 C 
ATOM     58  C   UNL     1       1.814  15.591  -2.498  1.00  0.00     0.031 A 
BRANCH  45  59
ATOM     59  C   UNL     1       2.866  11.883   2.294  1.00  0.00    -0.014 A 
ATOM     60  C   UNL     1       3.804  10.842   2.237  1.00  0.00     0.009 A 
ATOM     61  C   UNL     1       2.809  12.691   3.441  1.00  0.00     0.009 A 
ATOM     62  C   UNL     1       4.663  10.609   3.314  1.00  0.00     0.001 A 
ATOM     63  C   UNL     1       3.679  12.465   4.509  1.00  0.00     0.001 A 
ATOM     64  C   UNL     1       4.604  11.423   4.446  1.00  0.00     0.000 A 
ENDBRANCH  45  59
BRANCH  46  65
ATOM     65  C   UNL     1      -2.658  13.202  -5.775  1.00  0.00    -0.014 A 
ATOM     66  C   UNL     1      -2.121  12.992  -7.051  1.00  0.00     0.009 A 
ATOM     67  C   UNL     1      -4.007  13.581  -5.656  1.00  0.00     0.009 A 
ATOM     68  C   UNL     1      -2.924  13.147  -8.184  1.00  0.00     0.001 A 
ATOM     69  C   UNL     1      -4.814  13.699  -6.786  1.00  0.00     0.001 A 
ATOM     70  C   UNL     1      -4.271  13.487  -8.050  1.00  0.00     0.000 A 
ENDBRANCH  46  65
BRANCH  58  71
ATOM     71  C   UNL     1       2.455  16.898  -2.855  1.00  0.00    -0.014 A 
ATOM     72  C   UNL     1       1.795  18.113  -2.612  1.00  0.00     0.009 A 
ATOM     73  C   UNL     1       3.736  16.921  -3.428  1.00  0.00     0.009 A 
ATOM     74  C   UNL     1       2.393  19.324  -2.964  1.00  0.00     0.001 A 
ATOM     75  C   UNL     1       4.340  18.135  -3.759  1.00  0.00     0.001 A 
ATOM     76  C   UNL     1       3.666  19.334  -3.535  1.00  0.00     0.000 A 
ENDBRANCH  58  71
ENDBRANCH  32  33
ENDBRANCH  25  27
ENDBRANCH  24  25
ENDBRANCH  23  24
ENDBRANCH  22  23
ENDBRANCH   1  22
TORSDOF 18
