REMARK SMILES O=C(OCCOC(=O)[C@@H]1[C@H](C(=O)Nc2ccccc2OC(F)F)[C@@H]2C=C[C@H]1C2)c1ccc(-c2c3nc(c(-c4ccccc4)c4ccc([nH]4)c(-c4ccccc4)c4nc(c(-c5ccccc5)c5ccc2[nH]5)C=C4)C=C3)cc1
REMARK SMILES IDX 5 1 4 2 3 3 2 4 1 5 29 6 30 7 76 8 31 9 75 10 32 11 33 12
REMARK SMILES IDX 34 13 69 14 35 15 74 16 68 17 70 18 36 19 73 20 67 21 66 22
REMARK SMILES IDX 37 24 59 25 44 26 58 27 45 28 48 29 57 30 71 31 46 32 47 33
REMARK SMILES IDX 56 35 72 36 49 37 38 38 39 39 43 40 40 41 42 42 41 43 60 44
REMARK SMILES IDX 61 45 65 46 62 47 64 48 63 49 50 50 51 51 55 52 52 53 54 54
REMARK SMILES IDX 53 55 6 56 7 57 8 58 9 59 10 60 27 61 24 62 26 63 28 64
REMARK SMILES IDX 25 65 11 66 12 67 13 68 14 70 15 71 19 72 16 73 18 74 17 75
REMARK SMILES IDX 20 76 21 77 22 78 23 79
REMARK H PARENT 70 23 48 34 13 69
REMARK Flexibility Score: inf
ROOT
ATOM      1  C   UNL     1       4.465   1.313  -0.716  1.00  0.00     0.274 C 
ENDROOT
BRANCH   1   2
ATOM      2  C   UNL     1       4.922  -0.099  -1.082  1.00  0.00     0.275 C 
BRANCH   2   3
ATOM      3  O   UNL     1       3.942  -1.147  -0.979  1.00  0.00    -0.458 OA
BRANCH   3   4
ATOM      4  C   UNL     1       3.705  -1.939   0.094  1.00  0.00     0.338 C 
ATOM      5  O   UNL     1       3.036  -2.964   0.005  1.00  0.00    -0.246 OA
BRANCH   4   6
ATOM      6  C   UNL     1       4.161  -1.497   1.427  1.00  0.00     0.060 A 
ATOM      7  C   UNL     1       5.496  -1.194   1.697  1.00  0.00     0.016 A 
ATOM      8  C   UNL     1       3.210  -1.436   2.456  1.00  0.00     0.016 A 
ATOM      9  C   UNL     1       5.864  -0.703   2.942  1.00  0.00     0.010 A 
ATOM     10  C   UNL     1       3.585  -1.000   3.728  1.00  0.00     0.010 A 
ATOM     11  C   UNL     1       4.917  -0.631   3.968  1.00  0.00    -0.014 A 
BRANCH  11  12
ATOM     12  C   UNL     1       5.429  -0.492   5.343  1.00  0.00     0.031 A 
ATOM     13  C   UNL     1       5.909  -1.743   5.995  1.00  0.00     0.074 A 
ATOM     14  C   UNL     1       5.611   0.702   5.929  1.00  0.00     0.049 A 
ATOM     15  N   UNL     1       6.667  -1.863   7.047  1.00  0.00    -0.248 NA
ATOM     16  C   UNL     1       5.588  -3.012   5.317  1.00  0.00     0.031 C 
ATOM     17  C   UNL     1       5.348   1.979   5.296  1.00  0.00     0.029 A 
ATOM     18  N   UNL     1       6.069   1.046   7.170  1.00  0.00    -0.354 N 
ATOM     19  C   UNL     1       7.002  -3.204   7.093  1.00  0.00     0.074 A 
ATOM     20  C   UNL     1       6.306  -3.872   6.017  1.00  0.00     0.031 C 
ATOM     21  C   UNL     1       5.523   2.976   6.175  1.00  0.00     0.029 A 
ATOM     22  C   UNL     1       6.006   2.398   7.419  1.00  0.00     0.049 A 
ATOM     23  H   UNL     1       6.410   0.392   7.821  1.00  0.00     0.167 HD
ATOM     24  C   UNL     1       7.857  -3.809   7.942  1.00  0.00     0.031 A 
ATOM     25  C   UNL     1       6.345   3.090   8.520  1.00  0.00     0.031 A 
ATOM     26  C   UNL     1       8.434  -3.145   9.073  1.00  0.00     0.049 A 
ATOM     27  C   UNL     1       7.074   2.342   9.595  1.00  0.00     0.074 A 
ATOM     28  C   UNL     1       9.231  -3.668  10.070  1.00  0.00     0.029 A 
ATOM     29  N   UNL     1       8.227  -1.804   9.377  1.00  0.00    -0.354 N 
ATOM     30  N   UNL     1       7.442   1.082   9.605  1.00  0.00    -0.248 NA
ATOM     31  C   UNL     1       7.499   3.109  10.770  1.00  0.00     0.031 C 
ATOM     32  C   UNL     1       9.448  -2.659  11.016  1.00  0.00     0.029 A 
ATOM     33  C   UNL     1       8.837  -1.492  10.577  1.00  0.00     0.049 A 
ATOM     34  H   UNL     1       7.719  -1.170   8.820  1.00  0.00     0.167 HD
ATOM     35  C   UNL     1       8.189   0.913  10.758  1.00  0.00     0.074 A 
ATOM     36  C   UNL     1       8.213   2.203  11.425  1.00  0.00     0.031 C 
ATOM     37  C   UNL     1       8.817  -0.199  11.214  1.00  0.00     0.031 A 
BRANCH  24  38
ATOM     38  C   UNL     1       8.122  -5.257   7.678  1.00  0.00    -0.014 A 
ATOM     39  C   UNL     1       8.928  -5.653   6.596  1.00  0.00     0.009 A 
ATOM     40  C   UNL     1       7.479  -6.235   8.446  1.00  0.00     0.009 A 
ATOM     41  C   UNL     1       9.053  -7.005   6.268  1.00  0.00     0.001 A 
ATOM     42  C   UNL     1       7.621  -7.586   8.127  1.00  0.00     0.001 A 
ATOM     43  C   UNL     1       8.398  -7.969   7.033  1.00  0.00     0.000 A 
ENDBRANCH  24  38
BRANCH  25  44
ATOM     44  C   UNL     1       6.058   4.545   8.617  1.00  0.00    -0.014 A 
ATOM     45  C   UNL     1       7.084   5.499   8.568  1.00  0.00     0.009 A 
ATOM     46  C   UNL     1       4.731   4.988   8.755  1.00  0.00     0.009 A 
ATOM     47  C   UNL     1       6.791   6.862   8.683  1.00  0.00     0.001 A 
ATOM     48  C   UNL     1       4.439   6.351   8.851  1.00  0.00     0.001 A 
ATOM     49  C   UNL     1       5.470   7.287   8.824  1.00  0.00     0.000 A 
ENDBRANCH  25  44
BRANCH  37  50
ATOM     50  C   UNL     1       9.588  -0.052  12.490  1.00  0.00    -0.014 A 
ATOM     51  C   UNL     1       8.928   0.067  13.722  1.00  0.00     0.009 A 
ATOM     52  C   UNL     1      10.990  -0.082  12.458  1.00  0.00     0.009 A 
ATOM     53  C   UNL     1       9.664   0.183  14.901  1.00  0.00     0.001 A 
ATOM     54  C   UNL     1      11.721   0.004  13.641  1.00  0.00     0.001 A 
ATOM     55  C   UNL     1      11.058   0.144  14.860  1.00  0.00     0.000 A 
ENDBRANCH  37  50
ENDBRANCH  11  12
ENDBRANCH   4   6
ENDBRANCH   3   4
ENDBRANCH   2   3
ENDBRANCH   1   2
BRANCH   1  56
ATOM     56  O   UNL     1       3.978   1.594   0.613  1.00  0.00    -0.462 OA
BRANCH  56  57
ATOM     57  C   UNL     1       2.645   1.397   0.831  1.00  0.00     0.310 C 
ATOM     58  O   UNL     1       1.960   0.645   0.149  1.00  0.00    -0.252 OA
BRANCH  57  59
ATOM     59  C   UNL     1       2.151   1.996   2.126  1.00  0.00     0.119 C 
ATOM     60  C   UNL     1       0.698   2.430   2.432  1.00  0.00     0.100 C 
ATOM     61  C   UNL     1       2.992   2.996   2.939  1.00  0.00     0.027 C 
ATOM     62  C   UNL     1       0.913   3.374   3.672  1.00  0.00     0.025 C 
ATOM     63  C   UNL     1       2.681   4.451   2.707  1.00  0.00    -0.027 C 
ATOM     64  C   UNL     1       2.232   2.863   4.279  1.00  0.00     0.017 C 
ATOM     65  C   UNL     1       1.456   4.692   3.195  1.00  0.00    -0.027 C 
BRANCH  60  66
ATOM     66  C   UNL     1      -0.383   3.016   1.510  1.00  0.00     0.229 C 
ATOM     67  O   UNL     1      -1.563   2.728   1.785  1.00  0.00    -0.274 OA
ATOM     68  N   UNL     1      -0.247   3.990   0.567  1.00  0.00    -0.323 N 
ATOM     69  H   UNL     1      -1.105   4.336   0.229  1.00  0.00     0.170 HD
BRANCH  68  70
ATOM     70  C   UNL     1       0.868   4.594  -0.013  1.00  0.00     0.084 A 
ATOM     71  C   UNL     1       1.017   5.973   0.200  1.00  0.00     0.030 A 
ATOM     72  C   UNL     1       1.814   3.932  -0.785  1.00  0.00     0.149 A 
ATOM     73  C   UNL     1       2.213   6.620  -0.123  1.00  0.00     0.002 A 
ATOM     74  C   UNL     1       3.034   4.572  -1.058  1.00  0.00     0.049 A 
ATOM     75  C   UNL     1       3.249   5.900  -0.700  1.00  0.00     0.004 A 
BRANCH  72  76
ATOM     76  O   UNL     1       1.711   2.709  -1.365  1.00  0.00    -0.433 OA
BRANCH  76  77
ATOM     77  C   UNL     1       0.455   2.158  -1.753  1.00  0.00     0.542 C 
ATOM     78  F   UNL     1      -0.237   1.709  -0.687  1.00  0.00    -0.167 F 
ATOM     79  F   UNL     1      -0.286   3.095  -2.387  1.00  0.00    -0.167 F 
ENDBRANCH  76  77
ENDBRANCH  72  76
ENDBRANCH  68  70
ENDBRANCH  60  66
ENDBRANCH  57  59
ENDBRANCH  56  57
ENDBRANCH   1  56
TORSDOF 15
