REMARK SMILES O=C(OCCOC(=O)[C@@H](Cc1ccc(F)cc1)NC(=O)c1ccn(C2CCCC2)n1)c1ccc(-c2c3nc(c(-c4ccccc4)c4ccc([nH]4)c(-c4ccccc4)c4nc(c(-c5ccccc5)c5ccc2[nH]5)C=C4)C=C3)cc1
REMARK SMILES IDX 5 1 4 2 3 3 2 4 1 5 31 6 32 7 78 8 33 9 77 10 34 11 35 12
REMARK SMILES IDX 36 13 71 14 37 15 76 16 70 17 72 18 38 19 75 20 69 21 68 22
REMARK SMILES IDX 39 24 61 25 46 26 60 27 47 28 50 29 59 30 73 31 48 32 49 33
REMARK SMILES IDX 58 35 74 36 51 37 40 38 41 39 45 40 42 41 44 42 43 43 62 44
REMARK SMILES IDX 63 45 67 46 64 47 66 48 65 49 52 50 53 51 57 52 54 53 56 54
REMARK SMILES IDX 55 55 6 56 7 57 8 58 9 59 10 60 11 61 12 62 17 63 13 64
REMARK SMILES IDX 16 65 14 66 15 67 18 68 19 69 20 71 21 72 22 73 30 74 23 75
REMARK SMILES IDX 24 76 25 77 26 78 29 79 27 80 28 81
REMARK H PARENT 72 23 50 34 18 70
REMARK Flexibility Score: inf
ROOT
ATOM      1  C   UNL     1       4.148   1.589   0.406  1.00  0.00     0.274 C 
ENDROOT
BRANCH   1   2
ATOM      2  C   UNL     1       4.235   1.151  -1.056  1.00  0.00     0.275 C 
BRANCH   2   3
ATOM      3  O   UNL     1       3.015   0.685  -1.676  1.00  0.00    -0.458 OA
BRANCH   3   4
ATOM      4  C   UNL     1       2.043   0.178  -0.893  1.00  0.00     0.338 C 
ATOM      5  O   UNL     1       1.275   0.835  -0.198  1.00  0.00    -0.246 OA
BRANCH   4   6
ATOM      6  C   UNL     1       1.959  -1.292  -1.012  1.00  0.00     0.060 A 
ATOM      7  C   UNL     1       3.054  -2.059  -1.435  1.00  0.00     0.016 A 
ATOM      8  C   UNL     1       0.768  -1.920  -0.623  1.00  0.00     0.016 A 
ATOM      9  C   UNL     1       2.948  -3.441  -1.498  1.00  0.00     0.010 A 
ATOM     10  C   UNL     1       0.654  -3.301  -0.707  1.00  0.00     0.010 A 
ATOM     11  C   UNL     1       1.740  -4.056  -1.161  1.00  0.00    -0.014 A 
BRANCH  11  12
ATOM     12  C   UNL     1       1.660  -5.508  -1.257  1.00  0.00     0.031 A 
ATOM     13  C   UNL     1       2.393  -6.289  -0.218  1.00  0.00     0.074 A 
ATOM     14  C   UNL     1       0.859  -6.120  -2.151  1.00  0.00     0.049 A 
ATOM     15  N   UNL     1       3.329  -7.167  -0.385  1.00  0.00    -0.248 NA
ATOM     16  C   UNL     1       2.075  -6.021   1.193  1.00  0.00     0.031 C 
ATOM     17  C   UNL     1      -0.144  -5.510  -3.027  1.00  0.00     0.029 A 
ATOM     18  N   UNL     1       0.696  -7.454  -2.375  1.00  0.00    -0.354 N 
ATOM     19  C   UNL     1       3.613  -7.687   0.880  1.00  0.00     0.074 A 
ATOM     20  C   UNL     1       2.888  -6.871   1.821  1.00  0.00     0.031 C 
ATOM     21  C   UNL     1      -0.962  -6.475  -3.503  1.00  0.00     0.029 A 
ATOM     22  C   UNL     1      -0.455  -7.770  -3.082  1.00  0.00     0.049 A 
ATOM     23  H   UNL     1       1.337  -8.132  -2.062  1.00  0.00     0.167 HD
ATOM     24  C   UNL     1       4.268  -8.873   1.046  1.00  0.00     0.031 A 
ATOM     25  C   UNL     1      -0.991  -9.004  -3.252  1.00  0.00     0.031 A 
ATOM     26  C   UNL     1       4.978  -9.265  -0.141  1.00  0.00     0.049 A 
ATOM     27  C   UNL     1       0.068 -10.002  -2.981  1.00  0.00     0.074 A 
ATOM     28  C   UNL     1       5.992  -8.718  -0.903  1.00  0.00     0.029 A 
ATOM     29  N   UNL     1       4.425 -10.252  -0.920  1.00  0.00    -0.354 N 
ATOM     30  N   UNL     1       1.110 -10.164  -3.743  1.00  0.00    -0.248 NA
ATOM     31  C   UNL     1       0.196 -10.518  -1.628  1.00  0.00     0.031 C 
ATOM     32  C   UNL     1       5.646  -9.039  -2.249  1.00  0.00     0.029 A 
ATOM     33  C   UNL     1       4.481  -9.808  -2.212  1.00  0.00     0.049 A 
ATOM     34  H   UNL     1       4.059 -11.111  -0.609  1.00  0.00     0.167 HD
ATOM     35  C   UNL     1       2.157 -10.395  -2.864  1.00  0.00     0.074 A 
ATOM     36  C   UNL     1       1.518 -10.703  -1.585  1.00  0.00     0.031 C 
ATOM     37  C   UNL     1       3.438 -10.040  -3.182  1.00  0.00     0.031 A 
BRANCH  24  38
ATOM     38  C   UNL     1       3.932  -9.879   2.128  1.00  0.00    -0.014 A 
ATOM     39  C   UNL     1       4.608 -11.117   2.127  1.00  0.00     0.009 A 
ATOM     40  C   UNL     1       2.783  -9.796   2.936  1.00  0.00     0.009 A 
ATOM     41  C   UNL     1       4.088 -12.239   2.782  1.00  0.00     0.001 A 
ATOM     42  C   UNL     1       2.285 -10.904   3.629  1.00  0.00     0.001 A 
ATOM     43  C   UNL     1       2.914 -12.136   3.519  1.00  0.00     0.000 A 
ENDBRANCH  24  38
BRANCH  25  44
ATOM     44  C   UNL     1      -2.421  -9.364  -3.340  1.00  0.00    -0.014 A 
ATOM     45  C   UNL     1      -2.832 -10.595  -3.873  1.00  0.00     0.009 A 
ATOM     46  C   UNL     1      -3.379  -8.594  -2.654  1.00  0.00     0.009 A 
ATOM     47  C   UNL     1      -4.149 -11.047  -3.703  1.00  0.00     0.001 A 
ATOM     48  C   UNL     1      -4.692  -9.043  -2.487  1.00  0.00     0.001 A 
ATOM     49  C   UNL     1      -5.074 -10.276  -3.001  1.00  0.00     0.000 A 
ENDBRANCH  25  44
BRANCH  37  50
ATOM     50  C   UNL     1       3.719  -9.572  -4.586  1.00  0.00    -0.014 A 
ATOM     51  C   UNL     1       3.117  -8.427  -5.138  1.00  0.00     0.009 A 
ATOM     52  C   UNL     1       4.746 -10.198  -5.307  1.00  0.00     0.009 A 
ATOM     53  C   UNL     1       3.513  -7.941  -6.388  1.00  0.00     0.001 A 
ATOM     54  C   UNL     1       5.155  -9.701  -6.546  1.00  0.00     0.001 A 
ATOM     55  C   UNL     1       4.536  -8.576  -7.088  1.00  0.00     0.000 A 
ENDBRANCH  37  50
ENDBRANCH  11  12
ENDBRANCH   4   6
ENDBRANCH   3   4
ENDBRANCH   2   3
ENDBRANCH   1   2
BRANCH   1  56
ATOM     56  O   UNL     1       3.874   0.411   1.186  1.00  0.00    -0.461 OA
BRANCH  56  57
ATOM     57  C   UNL     1       3.162   0.564   2.326  1.00  0.00     0.329 C 
ATOM     58  O   UNL     1       2.788   1.645   2.764  1.00  0.00    -0.250 OA
BRANCH  57  59
ATOM     59  C   UNL     1       2.809  -0.794   2.961  1.00  0.00     0.197 C 
BRANCH  59  60
ATOM     60  C   UNL     1       3.468  -2.084   2.420  1.00  0.00     0.072 C 
BRANCH  60  61
ATOM     61  C   UNL     1       4.967  -2.299   2.488  1.00  0.00    -0.045 A 
ATOM     62  C   UNL     1       5.827  -1.743   1.527  1.00  0.00     0.007 A 
ATOM     63  C   UNL     1       5.521  -3.181   3.430  1.00  0.00     0.007 A 
ATOM     64  C   UNL     1       7.198  -2.001   1.535  1.00  0.00     0.039 A 
ATOM     65  C   UNL     1       6.890  -3.475   3.414  1.00  0.00     0.039 A 
ATOM     66  C   UNL     1       7.718  -2.872   2.477  1.00  0.00     0.123 A 
ATOM     67  F   UNL     1       9.027  -3.151   2.463  1.00  0.00    -0.207 F 
ENDBRANCH  60  61
ENDBRANCH  59  60
BRANCH  59  68
ATOM     68  N   UNL     1       2.933  -0.713   4.416  1.00  0.00    -0.337 N 
ATOM     69  C   UNL     1       1.942  -0.519   5.354  1.00  0.00     0.272 C 
ATOM     70  H   UNL     1       3.845  -0.811   4.773  1.00  0.00     0.164 HD
ATOM     71  O   UNL     1       2.294  -0.253   6.504  1.00  0.00    -0.267 OA
BRANCH  69  72
ATOM     72  C   UNL     1       0.527  -0.664   4.968  1.00  0.00     0.150 A 
ATOM     73  C   UNL     1      -0.094  -1.696   4.208  1.00  0.00     0.056 A 
ATOM     74  N   UNL     1      -0.394   0.226   5.375  1.00  0.00    -0.167 NA
ATOM     75  C   UNL     1      -1.424  -1.354   4.131  1.00  0.00     0.110 A 
ATOM     76  N   UNL     1      -1.554  -0.202   4.852  1.00  0.00    -0.269 N 
BRANCH  76  77
ATOM     77  C   UNL     1      -2.776   0.534   5.101  1.00  0.00     0.107 C 
ATOM     78  C   UNL     1      -3.073   0.755   6.583  1.00  0.00     0.027 C 
ATOM     79  C   UNL     1      -2.776   1.951   4.526  1.00  0.00     0.027 C 
ATOM     80  C   UNL     1      -4.111   1.868   6.582  1.00  0.00     0.002 C 
ATOM     81  C   UNL     1      -3.815   2.715   5.346  1.00  0.00     0.002 C 
ENDBRANCH  76  77
ENDBRANCH  69  72
ENDBRANCH  59  68
ENDBRANCH  57  59
ENDBRANCH  56  57
ENDBRANCH   1  56
TORSDOF 16
