REMARK SMILES C[NH+]1CCC([NH+]2CCC(Oc3ccc4ccccc4c3)(C(=O)OCCOC(=O)c3ccc(-c4c5nc(c(-c6ccccc6)c6ccc([nH]6)c(-c6ccccc6)c6nc(c(-c7ccccc7)c7ccc4[nH]7)C=C6)C=C5)cc3)CC2)CC1
REMARK SMILES IDX 24 1 23 2 21 3 22 4 9 5 6 6 7 7 78 8 8 10 77 11 5 12 1 13
REMARK SMILES IDX 2 14 3 15 80 16 4 18 79 19 10 20 11 21 12 22 20 23 13 24
REMARK SMILES IDX 19 25 14 26 18 27 15 28 17 29 16 30 25 31 26 32 27 33 28 34
REMARK SMILES IDX 29 35 30 36 76 37 31 38 75 39 32 40 33 41 34 42 69 43 35 44
REMARK SMILES IDX 74 45 68 46 70 47 36 48 73 49 67 50 66 51 37 53 59 54 44 55
REMARK SMILES IDX 58 56 45 57 48 58 57 59 71 60 46 61 47 62 56 64 72 65 49 66
REMARK SMILES IDX 38 67 39 68 43 69 40 70 42 71 41 72 60 73 61 74 65 75 62 76
REMARK SMILES IDX 64 77 63 78 50 79 51 80 55 81 52 82 54 83 53 84
REMARK H PARENT 6 9 2 17 70 52 48 63
REMARK Flexibility Score: inf
ROOT
ATOM      1  C   UNL     1       4.793  -3.532   3.963  1.00  0.00     0.274 C 
ENDROOT
BRANCH   1   2
ATOM      2  O   UNL     1       4.776  -2.178   3.462  1.00  0.00    -0.459 OA
BRANCH   2   3
ATOM      3  C   UNL     1       5.489  -1.943   2.322  1.00  0.00     0.351 C 
ATOM      4  O   UNL     1       6.053  -2.824   1.677  1.00  0.00    -0.247 OA
BRANCH   3   5
ATOM      5  C   UNL     1       5.600  -0.444   1.979  1.00  0.00     0.216 C 
ATOM      6  N   UNL     1       3.113   0.473   0.682  1.00  0.00    -0.332 N 
ATOM      7  C   UNL     1       3.150   0.232   2.132  1.00  0.00     0.267 C 
ATOM      8  C   UNL     1       4.029  -0.435  -0.017  1.00  0.00     0.267 C 
ATOM      9  H   UNL     1       3.429   1.434   0.547  1.00  0.00     0.348 HD
ATOM     10  C   UNL     1       4.561   0.436   2.685  1.00  0.00     0.122 C 
ATOM     11  C   UNL     1       5.475  -0.268   0.452  1.00  0.00     0.122 C 
BRANCH   6  12
ATOM     12  C   UNL     1       1.744   0.426   0.095  1.00  0.00     0.195 C 
ATOM     13  C   UNL     1      -2.554   0.415  -0.276  1.00  0.00     0.332 C 
ATOM     14  N   UNL     1      -1.184   0.415   0.236  1.00  0.00    -0.337 N 
ATOM     15  C   UNL     1      -0.469   1.631  -0.169  1.00  0.00     0.268 C 
ATOM     16  C   UNL     1      -0.468  -0.784  -0.208  1.00  0.00     0.268 C 
ATOM     17  H   UNL     1      -1.227   0.403   1.255  1.00  0.00     0.347 HD
ATOM     18  C   UNL     1       0.928   1.677   0.461  1.00  0.00     0.126 C 
ATOM     19  C   UNL     1       0.929  -0.840   0.408  1.00  0.00     0.126 C 
ENDBRANCH   6  12
BRANCH   5  20
ATOM     20  O   UNL     1       6.920  -0.210   2.550  1.00  0.00    -0.475 OA
BRANCH  20  21
ATOM     21  C   UNL     1       7.703   0.722   1.942  1.00  0.00     0.121 A 
ATOM     22  C   UNL     1       7.574   2.064   2.270  1.00  0.00     0.047 A 
ATOM     23  C   UNL     1       8.716   0.294   1.083  1.00  0.00     0.055 A 
ATOM     24  C   UNL     1       8.421   3.003   1.684  1.00  0.00     0.012 A 
ATOM     25  C   UNL     1       9.585   1.227   0.493  1.00  0.00    -0.015 A 
ATOM     26  C   UNL     1       9.428   2.601   0.793  1.00  0.00    -0.018 A 
ATOM     27  C   UNL     1      10.612   0.831  -0.380  1.00  0.00     0.009 A 
ATOM     28  C   UNL     1      10.292   3.538   0.206  1.00  0.00     0.009 A 
ATOM     29  C   UNL     1      11.466   1.776  -0.952  1.00  0.00     0.001 A 
ATOM     30  C   UNL     1      11.305   3.128  -0.660  1.00  0.00     0.001 A 
ENDBRANCH  20  21
ENDBRANCH   5  20
ENDBRANCH   3   5
ENDBRANCH   2   3
ENDBRANCH   1   2
BRANCH   1  31
ATOM     31  C   UNL     1       3.538  -4.289   3.536  1.00  0.00     0.275 C 
BRANCH  31  32
ATOM     32  O   UNL     1       3.540  -4.429   2.107  1.00  0.00    -0.458 OA
BRANCH  32  33
ATOM     33  C   UNL     1       2.334  -4.402   1.503  1.00  0.00     0.338 C 
ATOM     34  O   UNL     1       1.242  -4.378   2.061  1.00  0.00    -0.246 OA
BRANCH  33  35
ATOM     35  C   UNL     1       2.494  -4.338   0.030  1.00  0.00     0.060 A 
ATOM     36  C   UNL     1       3.688  -3.911  -0.557  1.00  0.00     0.016 A 
ATOM     37  C   UNL     1       1.386  -4.591  -0.784  1.00  0.00     0.016 A 
ATOM     38  C   UNL     1       3.744  -3.635  -1.923  1.00  0.00     0.010 A 
ATOM     39  C   UNL     1       1.475  -4.411  -2.169  1.00  0.00     0.010 A 
ATOM     40  C   UNL     1       2.649  -3.908  -2.753  1.00  0.00    -0.014 A 
BRANCH  40  41
ATOM     41  C   UNL     1       2.730  -3.701  -4.225  1.00  0.00     0.031 A 
ATOM     42  C   UNL     1       1.742  -2.814  -4.936  1.00  0.00     0.074 A 
ATOM     43  C   UNL     1       3.676  -4.336  -4.945  1.00  0.00     0.049 A 
ATOM     44  N   UNL     1       1.487  -2.720  -6.217  1.00  0.00    -0.248 NA
ATOM     45  C   UNL     1       0.924  -1.927  -4.095  1.00  0.00     0.031 C 
ATOM     46  C   UNL     1       4.735  -5.187  -4.399  1.00  0.00     0.029 A 
ATOM     47  N   UNL     1       3.893  -4.366  -6.301  1.00  0.00    -0.354 N 
ATOM     48  C   UNL     1       0.440  -1.813  -6.330  1.00  0.00     0.074 A 
ATOM     49  C   UNL     1       0.115  -1.374  -4.989  1.00  0.00     0.031 C 
ATOM     50  C   UNL     1       5.508  -5.627  -5.402  1.00  0.00     0.029 A 
ATOM     51  C   UNL     1       4.940  -5.176  -6.666  1.00  0.00     0.049 A 
ATOM     52  H   UNL     1       3.352  -3.857  -6.946  1.00  0.00     0.167 HD
ATOM     53  C   UNL     1      -0.198  -1.398  -7.451  1.00  0.00     0.031 A 
ATOM     54  C   UNL     1       5.367  -5.571  -7.879  1.00  0.00     0.031 A 
ATOM     55  C   UNL     1       0.157  -1.799  -8.788  1.00  0.00     0.049 A 
ATOM     56  C   UNL     1       4.623  -5.132  -9.102  1.00  0.00     0.074 A 
ATOM     57  C   UNL     1      -0.428  -1.423  -9.986  1.00  0.00     0.029 A 
ATOM     58  N   UNL     1       1.202  -2.651  -9.104  1.00  0.00    -0.354 N 
ATOM     59  N   UNL     1       3.575  -4.352  -9.191  1.00  0.00    -0.248 NA
ATOM     60  C   UNL     1       5.104  -5.653 -10.388  1.00  0.00     0.031 C 
ATOM     61  C   UNL     1       0.247  -2.072 -11.027  1.00  0.00     0.029 A 
ATOM     62  C   UNL     1       1.274  -2.821 -10.477  1.00  0.00     0.049 A 
ATOM     63  H   UNL     1       1.804  -3.074  -8.450  1.00  0.00     0.167 HD
ATOM     64  C   UNL     1       3.265  -4.292 -10.541  1.00  0.00     0.074 A 
ATOM     65  C   UNL     1       4.251  -5.095 -11.236  1.00  0.00     0.031 C 
ATOM     66  C   UNL     1       2.248  -3.636 -11.150  1.00  0.00     0.031 A 
BRANCH  53  67
ATOM     67  C   UNL     1      -1.381  -0.487  -7.285  1.00  0.00    -0.014 A 
ATOM     68  C   UNL     1      -1.224   0.878  -7.009  1.00  0.00     0.009 A 
ATOM     69  C   UNL     1      -2.675  -0.999  -7.478  1.00  0.00     0.009 A 
ATOM     70  C   UNL     1      -2.343   1.710  -6.913  1.00  0.00     0.001 A 
ATOM     71  C   UNL     1      -3.789  -0.162  -7.401  1.00  0.00     0.001 A 
ATOM     72  C   UNL     1      -3.623   1.192  -7.114  1.00  0.00     0.000 A 
ENDBRANCH  53  67
BRANCH  54  73
ATOM     73  C   UNL     1       6.523  -6.496  -7.975  1.00  0.00    -0.014 A 
ATOM     74  C   UNL     1       7.772  -6.031  -8.406  1.00  0.00     0.009 A 
ATOM     75  C   UNL     1       6.390  -7.839  -7.585  1.00  0.00     0.009 A 
ATOM     76  C   UNL     1       8.869  -6.895  -8.444  1.00  0.00     0.001 A 
ATOM     77  C   UNL     1       7.493  -8.692  -7.599  1.00  0.00     0.001 A 
ATOM     78  C   UNL     1       8.731  -8.220  -8.032  1.00  0.00     0.000 A 
ENDBRANCH  54  73
BRANCH  66  79
ATOM     79  C   UNL     1       2.166  -3.758 -12.642  1.00  0.00    -0.014 A 
ATOM     80  C   UNL     1       1.649  -4.917 -13.241  1.00  0.00     0.009 A 
ATOM     81  C   UNL     1       2.599  -2.701 -13.454  1.00  0.00     0.009 A 
ATOM     82  C   UNL     1       1.596  -5.026 -14.631  1.00  0.00     0.001 A 
ATOM     83  C   UNL     1       2.528  -2.806 -14.844  1.00  0.00     0.001 A 
ATOM     84  C   UNL     1       2.035  -3.970 -15.431  1.00  0.00     0.000 A 
ENDBRANCH  66  79
ENDBRANCH  40  41
ENDBRANCH  33  35
ENDBRANCH  32  33
ENDBRANCH  31  32
ENDBRANCH   1  31
TORSDOF 14
