REMARK SMILES CC1(C)S[C@@H](c2ccsc2)[NH2+][C@@H]1C(=O)OCCOC(=O)c1ccc(-c2c3nc(c(-c4ccccc4)c4ccc([nH]4)c(-c4ccccc4)c4nc(c(-c5ccccc5)c5ccc2[nH]5)C=C4)C=C3)cc1
REMARK SMILES IDX 17 1 16 2 15 3 13 4 14 5 12 6 1 7 2 8 3 9 4 10 5 11 11 12
REMARK SMILES IDX 6 15 7 16 10 17 8 18 9 19 18 20 19 21 20 22 21 23 22 24
REMARK SMILES IDX 68 25 23 26 67 27 24 28 25 29 26 30 61 31 27 32 66 33 60 34
REMARK SMILES IDX 62 35 28 36 65 37 59 38 58 39 29 41 51 42 36 43 50 44 37 45
REMARK SMILES IDX 40 46 49 47 63 48 38 49 39 50 48 52 64 53 41 54 30 55 31 56
REMARK SMILES IDX 35 57 32 58 34 59 33 60 52 61 53 62 57 63 54 64 56 65 55 66
REMARK SMILES IDX 42 67 43 68 47 69 44 70 46 71 45 72
REMARK H PARENT 11 13 11 14 62 40 40 51
REMARK Flexibility Score: inf
ROOT
ATOM      1  C   UNL     1      -0.254   2.525  -4.730  1.00  0.00     0.275 C 
ENDROOT
BRANCH   1   2
ATOM      2  C   UNL     1      -1.188   1.480  -4.111  1.00  0.00     0.274 C 
BRANCH   2   3
ATOM      3  O   UNL     1      -1.113   1.486  -2.673  1.00  0.00    -0.458 OA
BRANCH   3   4
ATOM      4  C   UNL     1      -0.375   0.483  -2.103  1.00  0.00     0.366 C 
ATOM      5  O   UNL     1       0.170  -0.402  -2.747  1.00  0.00    -0.245 OA
BRANCH   4   6
ATOM      6  C   UNL     1      -0.266   0.686  -0.572  1.00  0.00     0.310 C 
ATOM      7  C   UNL     1       0.969   0.243   1.602  1.00  0.00     0.030 C 
ATOM      8  C   UNL     1       0.547  -0.359   0.243  1.00  0.00     0.079 C 
ATOM      9  C   UNL     1       1.797  -0.996  -0.370  1.00  0.00     0.030 C 
ATOM     10  S   UNL     1      -0.670  -1.680   0.532  1.00  0.00    -0.081 SA
ATOM     11  C   UNL     1      -2.098  -0.610   0.234  1.00  0.00     0.275 C 
ATOM     12  N   UNL     1      -1.633   0.767   0.041  1.00  0.00    -0.319 N 
ATOM     13  H   UNL     1      -1.587   1.250   0.938  1.00  0.00     0.348 HD
ATOM     14  H   UNL     1      -2.272   1.285  -0.562  1.00  0.00     0.348 HD
BRANCH  11  15
ATOM     15  C   UNL     1      -3.057  -0.683   1.392  1.00  0.00     0.031 A 
ATOM     16  C   UNL     1      -2.740  -0.442   2.780  1.00  0.00     0.022 A 
ATOM     17  C   UNL     1      -4.385  -1.061   1.274  1.00  0.00     0.075 A 
ATOM     18  C   UNL     1      -3.796  -0.688   3.627  1.00  0.00     0.065 A 
ATOM     19  S   UNL     1      -5.196  -1.162   2.776  1.00  0.00    -0.152 S 
ENDBRANCH  11  15
ENDBRANCH   4   6
ENDBRANCH   3   4
ENDBRANCH   2   3
ENDBRANCH   1   2
BRANCH   1  20
ATOM     20  O   UNL     1       1.129   2.280  -4.404  1.00  0.00    -0.458 OA
BRANCH  20  21
ATOM     21  C   UNL     1       1.580   2.934  -3.305  1.00  0.00     0.338 C 
ATOM     22  O   UNL     1       0.957   3.718  -2.611  1.00  0.00    -0.246 OA
BRANCH  21  23
ATOM     23  C   UNL     1       2.909   2.423  -2.914  1.00  0.00     0.060 A 
ATOM     24  C   UNL     1       3.092   2.113  -1.564  1.00  0.00     0.016 A 
ATOM     25  C   UNL     1       3.967   2.272  -3.814  1.00  0.00     0.016 A 
ATOM     26  C   UNL     1       4.301   1.591  -1.116  1.00  0.00     0.010 A 
ATOM     27  C   UNL     1       5.197   1.776  -3.356  1.00  0.00     0.010 A 
ATOM     28  C   UNL     1       5.360   1.413  -2.008  1.00  0.00    -0.014 A 
BRANCH  28  29
ATOM     29  C   UNL     1       6.657   0.939  -1.475  1.00  0.00     0.031 A 
ATOM     30  C   UNL     1       7.651   1.947  -0.982  1.00  0.00     0.074 A 
ATOM     31  C   UNL     1       6.907  -0.376  -1.339  1.00  0.00     0.049 A 
ATOM     32  N   UNL     1       8.849   1.758  -0.494  1.00  0.00    -0.248 NA
ATOM     33  C   UNL     1       7.228   3.355  -1.028  1.00  0.00     0.031 C 
ATOM     34  C   UNL     1       5.973  -1.455  -1.661  1.00  0.00     0.029 A 
ATOM     35  N   UNL     1       8.027  -1.025  -0.880  1.00  0.00    -0.354 N 
ATOM     36  C   UNL     1       9.328   3.022  -0.179  1.00  0.00     0.074 A 
ATOM     37  C   UNL     1       8.294   3.970  -0.537  1.00  0.00     0.031 C 
ATOM     38  C   UNL     1       6.566  -2.634  -1.401  1.00  0.00     0.029 A 
ATOM     39  C   UNL     1       7.932  -2.395  -0.940  1.00  0.00     0.049 A 
ATOM     40  H   UNL     1       8.822  -0.554  -0.541  1.00  0.00     0.167 HD
ATOM     41  C   UNL     1      10.525   3.364   0.351  1.00  0.00     0.031 A 
ATOM     42  C   UNL     1       8.856  -3.342  -0.685  1.00  0.00     0.031 A 
ATOM     43  C   UNL     1      11.566   2.425   0.672  1.00  0.00     0.049 A 
ATOM     44  C   UNL     1      10.235  -2.925  -0.237  1.00  0.00     0.074 A 
ATOM     45  C   UNL     1      12.830   2.680   1.177  1.00  0.00     0.029 A 
ATOM     46  N   UNL     1      11.470   1.053   0.505  1.00  0.00    -0.354 N 
ATOM     47  N   UNL     1      10.690  -1.726   0.034  1.00  0.00    -0.248 NA
ATOM     48  C   UNL     1      11.228  -3.996  -0.065  1.00  0.00     0.031 C 
ATOM     49  C   UNL     1      13.521   1.467   1.252  1.00  0.00     0.029 A 
ATOM     50  C   UNL     1      12.664   0.449   0.864  1.00  0.00     0.049 A 
ATOM     51  H   UNL     1      10.672   0.578   0.179  1.00  0.00     0.167 HD
ATOM     52  C   UNL     1      12.009  -1.902   0.438  1.00  0.00     0.074 A 
ATOM     53  C   UNL     1      12.276  -3.324   0.391  1.00  0.00     0.031 C 
ATOM     54  C   UNL     1      12.917  -0.968   0.817  1.00  0.00     0.031 A 
BRANCH  41  55
ATOM     55  C   UNL     1      10.794   4.829   0.541  1.00  0.00    -0.014 A 
ATOM     56  C   UNL     1      10.152   5.572   1.544  1.00  0.00     0.009 A 
ATOM     57  C   UNL     1      11.716   5.473  -0.299  1.00  0.00     0.009 A 
ATOM     58  C   UNL     1      10.402   6.940   1.676  1.00  0.00     0.001 A 
ATOM     59  C   UNL     1      11.986   6.833  -0.145  1.00  0.00     0.001 A 
ATOM     60  C   UNL     1      11.320   7.567   0.835  1.00  0.00     0.000 A 
ENDBRANCH  41  55
BRANCH  42  61
ATOM     61  C   UNL     1       8.544  -4.781  -0.907  1.00  0.00    -0.014 A 
ATOM     62  C   UNL     1       8.523  -5.690   0.162  1.00  0.00     0.009 A 
ATOM     63  C   UNL     1       8.319  -5.263  -2.207  1.00  0.00     0.009 A 
ATOM     64  C   UNL     1       8.316  -7.053  -0.070  1.00  0.00     0.001 A 
ATOM     65  C   UNL     1       8.080  -6.620  -2.432  1.00  0.00     0.001 A 
ATOM     66  C   UNL     1       8.091  -7.516  -1.366  1.00  0.00     0.000 A 
ENDBRANCH  42  61
BRANCH  54  67
ATOM     67  C   UNL     1      14.272  -1.452   1.257  1.00  0.00    -0.014 A 
ATOM     68  C   UNL     1      15.200  -1.973   0.342  1.00  0.00     0.009 A 
ATOM     69  C   UNL     1      14.645  -1.331   2.606  1.00  0.00     0.009 A 
ATOM     70  C   UNL     1      16.462  -2.389   0.774  1.00  0.00     0.001 A 
ATOM     71  C   UNL     1      15.918  -1.716   3.029  1.00  0.00     0.001 A 
ATOM     72  C   UNL     1      16.822  -2.253   2.115  1.00  0.00     0.000 A 
ENDBRANCH  54  67
ENDBRANCH  28  29
ENDBRANCH  21  23
ENDBRANCH  20  21
ENDBRANCH   1  20
TORSDOF 12
