REMARK SMILES CC1(C)CC[C@@]2(C(=O)OCCOC(=O)c3ccc(-c4c5nc(c(-c6ccccc6)c6ccc([nH]6)c(-c6ccccc6)c6nc(c(-c7ccccc7)c7ccc4[nH]7)C=C6)C=C5)cc3)CC[C@@]3(C)C(=CC[C@H]4[C@@]5(C)CC[C@H](O)C(C)(C)[C@@H]5CC[C@]43C)[C@@H]2C1
REMARK SMILES IDX 11 1 10 2 9 3 7 4 8 5 6 6 1 7 2 8 3 9 4 10 86 11 5 12 85 13
REMARK SMILES IDX 67 14 63 15 65 16 68 17 64 18 66 19 83 20 69 21 70 22 82 23
REMARK SMILES IDX 84 24 71 25 81 26 72 27 73 28 80 29 74 30 77 31 75 32 78 33
REMARK SMILES IDX 79 34 76 35 12 37 13 38 14 39 15 40 16 41 62 42 17 43 61 44
REMARK SMILES IDX 18 45 19 46 20 47 55 48 21 49 60 50 54 51 56 52 22 53 59 54
REMARK SMILES IDX 53 55 52 56 23 58 45 59 30 60 44 61 31 62 34 63 43 64 57 65
REMARK SMILES IDX 32 66 33 67 42 69 58 70 35 71 24 72 25 73 29 74 26 75 28 76
REMARK SMILES IDX 27 77 46 78 47 79 51 80 48 81 50 82 49 83 36 84 37 85 41 86
REMARK SMILES IDX 38 87 40 88 39 89
REMARK H PARENT 76 36 56 57 34 68
REMARK Flexibility Score: inf
ROOT
ATOM      1  C   UNL     1      -2.855  -3.865  -1.046  1.00  0.00     0.275 C 
ENDROOT
BRANCH   1   2
ATOM      2  C   UNL     1      -1.939  -2.724  -1.020  1.00  0.00     0.274 C 
BRANCH   2   3
ATOM      3  O   UNL     1      -0.771  -3.099  -0.406  1.00  0.00    -0.462 OA
BRANCH   3   4
ATOM      4  C   UNL     1      -1.039  -2.844   0.887  1.00  0.00     0.312 C 
ATOM      5  O   UNL     1      -1.101  -3.739   1.723  1.00  0.00    -0.252 OA
BRANCH   4   6
ATOM      6  C   UNL     1      -1.091  -1.331   1.192  1.00  0.00     0.075 C 
ATOM      7  C   UNL     1       2.274   0.722   0.341  1.00  0.00     0.011 C 
ATOM      8  C   UNL     1       1.450  -0.387  -0.329  1.00  0.00    -0.035 C 
ATOM      9  C   UNL     1       2.154  -0.762  -1.660  1.00  0.00     0.011 C 
ATOM     10  C   UNL     1       1.418  -1.550   0.669  1.00  0.00     0.007 C 
ATOM     11  C   UNL     1       0.048   0.090  -0.741  1.00  0.00     0.015 C 
ATOM     12  C   UNL     1       0.349  -1.333   1.808  1.00  0.00     0.020 C 
ATOM     13  C   UNL     1      -1.159  -0.090   0.203  1.00  0.00     0.033 C 
ATOM     14  C   UNL     1      -2.487   0.267  -0.583  1.00  0.00    -0.063 C 
ATOM     15  C   UNL     1      -2.409  -1.168   2.009  1.00  0.00     0.020 C 
ATOM     16  C   UNL     1      -3.883  -0.292  -0.224  1.00  0.00    -0.006 C 
ATOM     17  C   UNL     1      -2.423   1.045  -1.689  1.00  0.00    -0.027 C 
ATOM     18  C   UNL     1      -3.770  -1.198   1.122  1.00  0.00     0.013 C 
ATOM     19  C   UNL     1      -4.663   0.938   0.411  1.00  0.00     0.017 C 
ATOM     20  C   UNL     1      -4.610  -0.865  -1.837  1.00  0.00    -0.020 C 
ATOM     21  C   UNL     1      -2.623   0.425  -3.066  1.00  0.00     0.032 C 
ATOM     22  C   UNL     1      -3.576  -0.791  -3.152  1.00  0.00     0.006 C 
ATOM     23  C   UNL     1      -5.487  -2.199  -2.089  1.00  0.00     0.008 C 
ATOM     24  C   UNL     1      -5.703   0.275  -2.125  1.00  0.00     0.012 C 
ATOM     25  C   UNL     1      -2.989  -2.107  -4.108  1.00  0.00    -0.025 C 
ATOM     26  C   UNL     1      -5.266  -3.105  -3.463  1.00  0.00     0.005 C 
ATOM     27  C   UNL     1      -3.283  -1.696  -5.581  1.00  0.00     0.012 C 
ATOM     28  C   UNL     1      -1.413  -2.318  -4.164  1.00  0.00     0.010 C 
ATOM     29  C   UNL     1      -3.785  -3.438  -3.891  1.00  0.00     0.003 C 
ATOM     30  C   UNL     1      -0.871  -3.688  -4.594  1.00  0.00     0.033 C 
ATOM     31  C   UNL     1      -3.201  -4.835  -4.510  1.00  0.00    -0.006 C 
ATOM     32  C   UNL     1      -1.659  -4.913  -4.155  1.00  0.00     0.120 C 
ATOM     33  C   UNL     1      -3.338  -5.075  -6.018  1.00  0.00     0.014 C 
ATOM     34  C   UNL     1      -3.859  -6.087  -3.845  1.00  0.00     0.014 C 
BRANCH  32  35
ATOM     35  O   UNL     1      -1.060  -6.087  -4.718  1.00  0.00    -0.393 OA
ATOM     36  H   UNL     1      -1.105  -6.040  -5.686  1.00  0.00     0.210 HD
ENDBRANCH  32  35
ENDBRANCH   4   6
ENDBRANCH   3   4
ENDBRANCH   2   3
ENDBRANCH   1   2
BRANCH   1  37
ATOM     37  O   UNL     1      -3.273  -4.205   0.221  1.00  0.00    -0.458 OA
BRANCH  37  38
ATOM     38  C   UNL     1      -4.061  -5.293   0.195  1.00  0.00     0.338 C 
ATOM     39  O   UNL     1      -4.122  -6.219  -0.543  1.00  0.00    -0.246 OA
BRANCH  38  40
ATOM     40  C   UNL     1      -4.975  -4.866   1.223  1.00  0.00     0.060 A 
ATOM     41  C   UNL     1      -4.379  -4.723   2.474  1.00  0.00     0.016 A 
ATOM     42  C   UNL     1      -6.272  -4.449   0.899  1.00  0.00     0.016 A 
ATOM     43  C   UNL     1      -5.158  -4.290   3.494  1.00  0.00     0.010 A 
ATOM     44  C   UNL     1      -7.073  -4.032   1.937  1.00  0.00     0.010 A 
ATOM     45  C   UNL     1      -6.522  -4.099   3.224  1.00  0.00    -0.014 A 
BRANCH  45  46
ATOM     46  C   UNL     1      -7.360  -4.546   4.325  1.00  0.00     0.031 A 
ATOM     47  C   UNL     1      -7.646  -6.022   4.372  1.00  0.00     0.074 A 
ATOM     48  C   UNL     1      -7.535  -3.685   5.329  1.00  0.00     0.049 A 
ATOM     49  N   UNL     1      -8.133  -6.735   5.346  1.00  0.00    -0.248 NA
ATOM     50  C   UNL     1      -7.288  -6.824   3.181  1.00  0.00     0.031 C 
ATOM     51  C   UNL     1      -7.095  -2.286   5.332  1.00  0.00     0.029 A 
ATOM     52  N   UNL     1      -8.059  -3.890   6.561  1.00  0.00    -0.354 N 
ATOM     53  C   UNL     1      -8.128  -8.047   4.881  1.00  0.00     0.074 A 
ATOM     54  C   UNL     1      -7.614  -8.049   3.542  1.00  0.00     0.031 C 
ATOM     55  C   UNL     1      -7.359  -1.759   6.538  1.00  0.00     0.029 A 
ATOM     56  C   UNL     1      -8.014  -2.776   7.351  1.00  0.00     0.049 A 
ATOM     57  H   UNL     1      -8.433  -4.752   6.856  1.00  0.00     0.167 HD
ATOM     58  C   UNL     1      -8.532  -9.155   5.533  1.00  0.00     0.031 A 
ATOM     59  C   UNL     1      -8.485  -2.629   8.596  1.00  0.00     0.031 A 
ATOM     60  C   UNL     1      -9.088  -9.082   6.849  1.00  0.00     0.049 A 
ATOM     61  C   UNL     1      -9.069  -3.852   9.242  1.00  0.00     0.074 A 
ATOM     62  C   UNL     1      -9.636 -10.083   7.619  1.00  0.00     0.029 A 
ATOM     63  N   UNL     1      -9.173  -7.902   7.580  1.00  0.00    -0.354 N 
ATOM     64  N   UNL     1      -9.126  -5.085   8.784  1.00  0.00    -0.248 NA
ATOM     65  C   UNL     1      -9.644  -3.671  10.574  1.00  0.00     0.031 C 
ATOM     66  C   UNL     1     -10.122  -9.491   8.790  1.00  0.00     0.029 A 
ATOM     67  C   UNL     1      -9.794  -8.140   8.785  1.00  0.00     0.049 A 
ATOM     68  H   UNL     1      -8.838  -7.026   7.280  1.00  0.00     0.167 HD
ATOM     69  C   UNL     1      -9.719  -5.837   9.785  1.00  0.00     0.074 A 
ATOM     70  C   UNL     1      -9.979  -4.916  10.880  1.00  0.00     0.031 C 
ATOM     71  C   UNL     1     -10.026  -7.160   9.818  1.00  0.00     0.031 A 
BRANCH  58  72
ATOM     72  C   UNL     1      -8.489 -10.455   4.779  1.00  0.00    -0.014 A 
ATOM     73  C   UNL     1      -7.277 -11.077   4.430  1.00  0.00     0.009 A 
ATOM     74  C   UNL     1      -9.692 -11.039   4.355  1.00  0.00     0.009 A 
ATOM     75  C   UNL     1      -7.274 -12.237   3.649  1.00  0.00     0.001 A 
ATOM     76  C   UNL     1      -9.688 -12.214   3.602  1.00  0.00     0.001 A 
ATOM     77  C   UNL     1      -8.480 -12.808   3.242  1.00  0.00     0.000 A 
ENDBRANCH  58  72
BRANCH  59  78
ATOM     78  C   UNL     1      -8.458  -1.297   9.244  1.00  0.00    -0.014 A 
ATOM     79  C   UNL     1      -7.710  -1.064  10.405  1.00  0.00     0.009 A 
ATOM     80  C   UNL     1      -9.186  -0.233   8.682  1.00  0.00     0.009 A 
ATOM     81  C   UNL     1      -7.721   0.196  11.008  1.00  0.00     0.001 A 
ATOM     82  C   UNL     1      -9.168   1.033   9.267  1.00  0.00     0.001 A 
ATOM     83  C   UNL     1      -8.446   1.243  10.438  1.00  0.00     0.000 A 
ENDBRANCH  59  78
BRANCH  71  84
ATOM     84  C   UNL     1     -10.625  -7.665  11.095  1.00  0.00    -0.014 A 
ATOM     85  C   UNL     1     -11.923  -7.309  11.486  1.00  0.00     0.009 A 
ATOM     86  C   UNL     1      -9.876  -8.539  11.898  1.00  0.00     0.009 A 
ATOM     87  C   UNL     1     -12.438  -7.773  12.695  1.00  0.00     0.001 A 
ATOM     88  C   UNL     1     -10.412  -9.038  13.081  1.00  0.00     0.001 A 
ATOM     89  C   UNL     1     -11.685  -8.640  13.487  1.00  0.00     0.000 A 
ENDBRANCH  71  84
ENDBRANCH  45  46
ENDBRANCH  38  40
ENDBRANCH  37  38
ENDBRANCH   1  37
TORSDOF 12
