REMARK SMILES COc1cc2c(cc1OC)[C@H](C(=O)OCCOC(=O)c1ccc(-c3c4nc(c(-c5ccccc5)c5ccc([nH]5)c(-c5ccccc5)c5nc(c(-c6ccccc6)c6ccc3[nH]6)C=C5)C=C4)cc1)[C@H](c1cccc(Cl)c1)N(C)C2=O
REMARK SMILES IDX 16 1 15 2 14 3 12 4 13 5 11 6 3 7 4 8 8 9 5 10 7 11 6 12
REMARK SMILES IDX 78 13 76 14 79 15 68 16 77 17 2 18 1 19 9 20 10 21 69 22
REMARK SMILES IDX 70 23 75 24 71 25 73 26 72 27 74 28 17 29 18 30 19 31 20 32
REMARK SMILES IDX 21 33 67 34 22 35 66 36 23 37 24 38 25 39 60 40 26 41 65 42
REMARK SMILES IDX 59 43 61 44 27 45 64 46 58 47 57 48 28 50 50 51 35 52 49 53
REMARK SMILES IDX 36 54 39 55 48 56 62 57 37 58 38 59 47 61 63 62 40 63 29 64
REMARK SMILES IDX 30 65 34 66 31 67 33 68 32 69 51 70 52 71 56 72 53 73 55 74
REMARK SMILES IDX 54 75 41 76 42 77 46 78 43 79 45 80 44 81
REMARK H PARENT 61 49 39 60
REMARK Flexibility Score: inf
ROOT
ATOM      1  C   UNL     1      -1.860  -5.737  -5.760  1.00  0.00     0.275 C 
ENDROOT
BRANCH   1   2
ATOM      2  C   UNL     1      -0.937  -6.482  -4.784  1.00  0.00     0.274 C 
BRANCH   2   3
ATOM      3  O   UNL     1       0.055  -5.594  -4.236  1.00  0.00    -0.462 OA
BRANCH   3   4
ATOM      4  C   UNL     1       1.191  -5.417  -4.944  1.00  0.00     0.316 C 
ATOM      5  O   UNL     1       1.522  -6.155  -5.871  1.00  0.00    -0.251 OA
BRANCH   4   6
ATOM      6  C   UNL     1       2.004  -4.189  -4.569  1.00  0.00     0.157 C 
ATOM      7  C   UNL     1       0.895  -1.605  -1.254  1.00  0.00     0.161 A 
ATOM      8  C   UNL     1       2.204  -1.632  -1.754  1.00  0.00     0.064 A 
ATOM      9  C   UNL     1      -0.104  -2.321  -1.921  1.00  0.00     0.161 A 
ATOM     10  C   UNL     1       2.530  -2.428  -2.861  1.00  0.00     0.048 A 
ATOM     11  C   UNL     1       0.242  -3.098  -3.034  1.00  0.00     0.056 A 
ATOM     12  C   UNL     1       1.568  -3.262  -3.448  1.00  0.00    -0.015 A 
ATOM     13  C   UNL     1       3.908  -2.341  -3.438  1.00  0.00     0.254 C 
ATOM     14  N   UNL     1       4.303  -3.380  -4.279  1.00  0.00    -0.333 N 
ATOM     15  O   UNL     1       4.626  -1.386  -3.162  1.00  0.00    -0.269 OA
ATOM     16  C   UNL     1       3.493  -4.606  -4.388  1.00  0.00     0.134 C 
ATOM     17  C   UNL     1       5.614  -3.337  -4.903  1.00  0.00     0.147 C 
BRANCH   7  18
ATOM     18  O   UNL     1       0.592  -0.948  -0.093  1.00  0.00    -0.493 OA
ATOM     19  C   UNL     1       1.138   0.362   0.016  1.00  0.00     0.278 C 
ENDBRANCH   7  18
BRANCH   9  20
ATOM     20  O   UNL     1      -1.447  -2.383  -1.660  1.00  0.00    -0.493 OA
ATOM     21  C   UNL     1      -1.940  -1.794  -0.470  1.00  0.00     0.278 C 
ENDBRANCH   9  20
BRANCH  16  22
ATOM     22  C   UNL     1       3.747  -5.597  -3.240  1.00  0.00    -0.023 A 
ATOM     23  C   UNL     1       3.367  -6.945  -3.381  1.00  0.00     0.006 A 
ATOM     24  C   UNL     1       4.329  -5.218  -2.017  1.00  0.00     0.026 A 
ATOM     25  C   UNL     1       3.464  -7.846  -2.318  1.00  0.00     0.002 A 
ATOM     26  C   UNL     1       4.441  -6.124  -0.961  1.00  0.00     0.041 A 
ATOM     27  C   UNL     1       3.989  -7.430  -1.099  1.00  0.00     0.020 A 
ATOM     28  Cl  UNL     1       5.134  -5.612   0.529  1.00  0.00    -0.084 Cl
ENDBRANCH  16  22
ENDBRANCH   4   6
ENDBRANCH   3   4
ENDBRANCH   2   3
ENDBRANCH   1   2
BRANCH   1  29
ATOM     29  O   UNL     1      -1.240  -5.562  -7.051  1.00  0.00    -0.458 OA
BRANCH  29  30
ATOM     30  C   UNL     1      -0.581  -4.394  -7.239  1.00  0.00     0.338 C 
ATOM     31  O   UNL     1      -0.497  -3.462  -6.459  1.00  0.00    -0.246 OA
BRANCH  30  32
ATOM     32  C   UNL     1       0.203  -4.468  -8.484  1.00  0.00     0.060 A 
ATOM     33  C   UNL     1       1.594  -4.329  -8.405  1.00  0.00     0.016 A 
ATOM     34  C   UNL     1      -0.421  -4.626  -9.720  1.00  0.00     0.016 A 
ATOM     35  C   UNL     1       2.372  -4.356  -9.554  1.00  0.00     0.010 A 
ATOM     36  C   UNL     1       0.360  -4.644 -10.879  1.00  0.00     0.010 A 
ATOM     37  C   UNL     1       1.757  -4.505 -10.799  1.00  0.00    -0.014 A 
BRANCH  37  38
ATOM     38  C   UNL     1       2.580  -4.441 -12.023  1.00  0.00     0.031 A 
ATOM     39  C   UNL     1       2.587  -3.183 -12.836  1.00  0.00     0.074 A 
ATOM     40  C   UNL     1       3.332  -5.496 -12.380  1.00  0.00     0.049 A 
ATOM     41  N   UNL     1       3.158  -2.949 -13.988  1.00  0.00    -0.248 NA
ATOM     42  C   UNL     1       1.857  -2.035 -12.275  1.00  0.00     0.031 C 
ATOM     43  C   UNL     1       3.462  -6.741 -11.621  1.00  0.00     0.029 A 
ATOM     44  N   UNL     1       4.129  -5.687 -13.479  1.00  0.00    -0.354 N 
ATOM     45  C   UNL     1       2.838  -1.635 -14.303  1.00  0.00     0.074 A 
ATOM     46  C   UNL     1       2.014  -1.127 -13.227  1.00  0.00     0.031 C 
ATOM     47  C   UNL     1       4.284  -7.572 -12.284  1.00  0.00     0.029 A 
ATOM     48  C   UNL     1       4.696  -6.936 -13.532  1.00  0.00     0.049 A 
ATOM     49  H   UNL     1       4.280  -4.995 -14.163  1.00  0.00     0.167 HD
ATOM     50  C   UNL     1       3.197  -0.922 -15.395  1.00  0.00     0.031 A 
ATOM     51  C   UNL     1       5.436  -7.510 -14.498  1.00  0.00     0.031 A 
ATOM     52  C   UNL     1       4.008  -1.439 -16.464  1.00  0.00     0.049 A 
ATOM     53  C   UNL     1       5.745  -6.726 -15.743  1.00  0.00     0.074 A 
ATOM     54  C   UNL     1       4.422  -0.802 -17.620  1.00  0.00     0.029 A 
ATOM     55  N   UNL     1       4.527  -2.725 -16.505  1.00  0.00    -0.354 N 
ATOM     56  N   UNL     1       5.422  -5.491 -16.043  1.00  0.00    -0.248 NA
ATOM     57  C   UNL     1       6.518  -7.418 -16.784  1.00  0.00     0.031 C 
ATOM     58  C   UNL     1       5.154  -1.719 -18.383  1.00  0.00     0.029 A 
ATOM     59  C   UNL     1       5.239  -2.909 -17.677  1.00  0.00     0.049 A 
ATOM     60  H   UNL     1       4.406  -3.405 -15.804  1.00  0.00     0.167 HD
ATOM     61  C   UNL     1       5.973  -5.249 -17.294  1.00  0.00     0.074 A 
ATOM     62  C   UNL     1       6.661  -6.461 -17.690  1.00  0.00     0.031 C 
ATOM     63  C   UNL     1       5.917  -4.124 -18.048  1.00  0.00     0.031 A 
BRANCH  50  64
ATOM     64  C   UNL     1       2.668   0.479 -15.505  1.00  0.00    -0.014 A 
ATOM     65  C   UNL     1       3.166   1.514 -14.698  1.00  0.00     0.009 A 
ATOM     66  C   UNL     1       1.665   0.769 -16.442  1.00  0.00     0.009 A 
ATOM     67  C   UNL     1       2.646   2.806 -14.807  1.00  0.00     0.001 A 
ATOM     68  C   UNL     1       1.165   2.066 -16.567  1.00  0.00     0.001 A 
ATOM     69  C   UNL     1       1.649   3.082 -15.743  1.00  0.00     0.000 A 
ENDBRANCH  50  64
BRANCH  51  70
ATOM     70  C   UNL     1       5.902  -8.912 -14.345  1.00  0.00    -0.014 A 
ATOM     71  C   UNL     1       7.262  -9.198 -14.160  1.00  0.00     0.009 A 
ATOM     72  C   UNL     1       4.985  -9.975 -14.396  1.00  0.00     0.009 A 
ATOM     73  C   UNL     1       7.698 -10.521 -14.051  1.00  0.00     0.001 A 
ATOM     74  C   UNL     1       5.421 -11.295 -14.260  1.00  0.00     0.001 A 
ATOM     75  C   UNL     1       6.777 -11.567 -14.097  1.00  0.00     0.000 A 
ENDBRANCH  51  70
BRANCH  63  76
ATOM     76  C   UNL     1       6.652  -4.142 -19.357  1.00  0.00    -0.014 A 
ATOM     77  C   UNL     1       6.160  -4.855 -20.460  1.00  0.00     0.009 A 
ATOM     78  C   UNL     1       7.836  -3.400 -19.496  1.00  0.00     0.009 A 
ATOM     79  C   UNL     1       6.856  -4.848 -21.670  1.00  0.00     0.001 A 
ATOM     80  C   UNL     1       8.515  -3.374 -20.714  1.00  0.00     0.001 A 
ATOM     81  C   UNL     1       8.030  -4.105 -21.797  1.00  0.00     0.000 A 
ENDBRANCH  63  76
ENDBRANCH  37  38
ENDBRANCH  30  32
ENDBRANCH  29  30
ENDBRANCH   1  29
TORSDOF 14
