REMARK SMILES Cc1cccc(C(=O)[C@H](C)[C@@H](C)C(=O)OCCOC(=O)c2ccc(-c3c4nc(c(-c5ccccc5)c5ccc([nH]5)c(-c5ccccc5)c5nc(c(-c6ccccc6)c6ccc3[nH]6)C=C5)C=C4)cc2)c1C
REMARK SMILES IDX 16 1 15 2 13 3 14 4 11 5 12 6 9 7 10 8 7 9 8 10 6 11 1 12
REMARK SMILES IDX 2 13 3 14 69 15 4 16 70 17 5 18 17 19 18 20 19 21 20 22
REMARK SMILES IDX 21 23 22 24 68 25 23 26 67 27 24 28 25 29 26 30 61 31 27 32
REMARK SMILES IDX 66 33 60 34 62 35 28 36 65 37 59 38 58 39 29 41 51 42 36 43
REMARK SMILES IDX 50 44 37 45 40 46 49 47 63 48 38 49 39 50 48 52 64 53 41 54
REMARK SMILES IDX 30 55 31 56 35 57 32 58 34 59 33 60 52 61 53 62 57 63 54 64
REMARK SMILES IDX 56 65 55 66 42 67 43 68 47 69 44 70 46 71 45 72
REMARK H PARENT 62 40 40 51
REMARK Flexibility Score: inf
ROOT
ATOM      1  C   UNL     1      -5.042  -6.041  -1.488  1.00  0.00     0.274 C 
ENDROOT
BRANCH   1   2
ATOM      2  O   UNL     1      -3.818  -5.381  -1.103  1.00  0.00    -0.462 OA
BRANCH   2   3
ATOM      3  C   UNL     1      -3.535  -4.246  -1.794  1.00  0.00     0.309 C 
ATOM      4  O   UNL     1      -4.240  -3.784  -2.686  1.00  0.00    -0.252 OA
BRANCH   3   5
ATOM      5  C   UNL     1      -2.197  -3.622  -1.424  1.00  0.00     0.106 C 
ATOM      6  C   UNL     1      -1.280  -3.828  -2.632  1.00  0.00     0.021 C 
BRANCH   5   7
ATOM      7  C   UNL     1      -1.575  -4.123  -0.095  1.00  0.00     0.072 C 
ATOM      8  C   UNL     1      -0.167  -3.554   0.127  1.00  0.00     0.017 C 
BRANCH   7   9
ATOM      9  C   UNL     1      -2.434  -3.650   1.089  1.00  0.00     0.166 C 
ATOM     10  O   UNL     1      -2.683  -2.446   1.174  1.00  0.00    -0.294 OA
BRANCH   9  11
ATOM     11  C   UNL     1      -2.982  -4.621   2.121  1.00  0.00     0.021 A 
ATOM     12  C   UNL     1      -5.241  -4.693   5.247  1.00  0.00     0.044 C 
ATOM     13  C   UNL     1      -4.354  -5.110   4.101  1.00  0.00    -0.047 A 
ATOM     14  C   UNL     1      -4.228  -6.480   3.839  1.00  0.00     0.004 A 
ATOM     15  C   UNL     1      -3.687  -4.165   3.273  1.00  0.00    -0.037 A 
ATOM     16  C   UNL     1      -3.474  -6.925   2.764  1.00  0.00     0.001 A 
ATOM     17  C   UNL     1      -3.777  -2.694   3.612  1.00  0.00     0.045 C 
ATOM     18  C   UNL     1      -2.866  -6.006   1.910  1.00  0.00     0.012 A 
ENDBRANCH   9  11
ENDBRANCH   7   9
ENDBRANCH   5   7
ENDBRANCH   3   5
ENDBRANCH   2   3
ENDBRANCH   1   2
BRANCH   1  19
ATOM     19  C   UNL     1      -6.231  -5.564  -0.658  1.00  0.00     0.275 C 
BRANCH  19  20
ATOM     20  O   UNL     1      -6.342  -4.133  -0.735  1.00  0.00    -0.458 OA
BRANCH  20  21
ATOM     21  C   UNL     1      -6.365  -3.494   0.456  1.00  0.00     0.338 C 
ATOM     22  O   UNL     1      -6.407  -3.999   1.563  1.00  0.00    -0.246 OA
BRANCH  21  23
ATOM     23  C   UNL     1      -6.436  -2.040   0.252  1.00  0.00     0.060 A 
ATOM     24  C   UNL     1      -5.421  -1.338  -0.403  1.00  0.00     0.016 A 
ATOM     25  C   UNL     1      -7.505  -1.360   0.836  1.00  0.00     0.016 A 
ATOM     26  C   UNL     1      -5.459   0.056  -0.446  1.00  0.00     0.010 A 
ATOM     27  C   UNL     1      -7.564   0.029   0.757  1.00  0.00     0.010 A 
ATOM     28  C   UNL     1      -6.533   0.747   0.132  1.00  0.00    -0.014 A 
BRANCH  28  29
ATOM     29  C   UNL     1      -6.608   2.224   0.081  1.00  0.00     0.031 A 
ATOM     30  C   UNL     1      -6.423   3.035   1.329  1.00  0.00     0.074 A 
ATOM     31  C   UNL     1      -6.906   2.825  -1.084  1.00  0.00     0.049 A 
ATOM     32  N   UNL     1      -6.621   4.315   1.517  1.00  0.00    -0.248 NA
ATOM     33  C   UNL     1      -5.961   2.312   2.525  1.00  0.00     0.031 C 
ATOM     34  C   UNL     1      -7.081   2.141  -2.366  1.00  0.00     0.029 A 
ATOM     35  N   UNL     1      -7.132   4.146  -1.372  1.00  0.00    -0.354 N 
ATOM     36  C   UNL     1      -6.334   4.549   2.856  1.00  0.00     0.074 A 
ATOM     37  C   UNL     1      -5.953   3.277   3.435  1.00  0.00     0.031 C 
ATOM     38  C   UNL     1      -7.388   3.049  -3.306  1.00  0.00     0.029 A 
ATOM     39  C   UNL     1      -7.484   4.364  -2.680  1.00  0.00     0.049 A 
ATOM     40  H   UNL     1      -7.050   4.867  -0.707  1.00  0.00     0.167 HD
ATOM     41  C   UNL     1      -6.389   5.718   3.537  1.00  0.00     0.031 A 
ATOM     42  C   UNL     1      -7.877   5.491  -3.300  1.00  0.00     0.031 A 
ATOM     43  C   UNL     1      -6.766   6.979   2.954  1.00  0.00     0.049 A 
ATOM     44  C   UNL     1      -7.977   6.763  -2.513  1.00  0.00     0.074 A 
ATOM     45  C   UNL     1      -6.844   8.222   3.558  1.00  0.00     0.029 A 
ATOM     46  N   UNL     1      -7.127   7.156   1.627  1.00  0.00    -0.354 N 
ATOM     47  N   UNL     1      -7.721   6.969  -1.244  1.00  0.00    -0.248 NA
ATOM     48  C   UNL     1      -8.426   7.957  -3.242  1.00  0.00     0.031 C 
ATOM     49  C   UNL     1      -7.286   9.146   2.603  1.00  0.00     0.029 A 
ATOM     50  C   UNL     1      -7.444   8.484   1.396  1.00  0.00     0.049 A 
ATOM     51  H   UNL     1      -7.153   6.443   0.949  1.00  0.00     0.167 HD
ATOM     52  C   UNL     1      -7.965   8.316  -1.023  1.00  0.00     0.074 A 
ATOM     53  C   UNL     1      -8.376   8.882  -2.293  1.00  0.00     0.031 C 
ATOM     54  C   UNL     1      -7.858   9.023   0.128  1.00  0.00     0.031 A 
BRANCH  41  55
ATOM     55  C   UNL     1      -6.066   5.681   5.003  1.00  0.00    -0.014 A 
ATOM     56  C   UNL     1      -4.742   5.568   5.455  1.00  0.00     0.009 A 
ATOM     57  C   UNL     1      -7.099   5.801   5.945  1.00  0.00     0.009 A 
ATOM     58  C   UNL     1      -4.463   5.552   6.823  1.00  0.00     0.001 A 
ATOM     59  C   UNL     1      -6.815   5.805   7.312  1.00  0.00     0.001 A 
ATOM     60  C   UNL     1      -5.499   5.674   7.750  1.00  0.00     0.000 A 
ENDBRANCH  41  55
BRANCH  42  61
ATOM     61  C   UNL     1      -8.232   5.448  -4.739  1.00  0.00    -0.014 A 
ATOM     62  C   UNL     1      -7.367   5.990  -5.701  1.00  0.00     0.009 A 
ATOM     63  C   UNL     1      -9.422   4.833  -5.160  1.00  0.00     0.009 A 
ATOM     64  C   UNL     1      -7.692   5.924  -7.057  1.00  0.00     0.001 A 
ATOM     65  C   UNL     1      -9.732   4.749  -6.518  1.00  0.00     0.001 A 
ATOM     66  C   UNL     1      -8.870   5.298  -7.465  1.00  0.00     0.000 A 
ENDBRANCH  42  61
BRANCH  54  67
ATOM     67  C   UNL     1      -8.169  10.488   0.052  1.00  0.00    -0.014 A 
ATOM     68  C   UNL     1      -9.495  10.943   0.001  1.00  0.00     0.009 A 
ATOM     69  C   UNL     1      -7.123  11.422   0.056  1.00  0.00     0.009 A 
ATOM     70  C   UNL     1      -9.766  12.310  -0.074  1.00  0.00     0.001 A 
ATOM     71  C   UNL     1      -7.398  12.789  -0.000  1.00  0.00     0.001 A 
ATOM     72  C   UNL     1      -8.719  13.231  -0.073  1.00  0.00     0.000 A 
ENDBRANCH  54  67
ENDBRANCH  28  29
ENDBRANCH  21  23
ENDBRANCH  20  21
ENDBRANCH  19  20
ENDBRANCH   1  19
TORSDOF 14
