REMARK SMILES Cc1cccc(-c2ncc(C[NH+]3CCC4(CC3)NC(=O)C[C@H]4C(=O)OCCOC(=O)c3ccc(-c4c5nc(c(-c6ccccc6)c6ccc([nH]6)c(-c6ccccc6)c6nc(c(-c7ccccc7)c7ccc4[nH]7)C=C6)C=C5)cc3)cn2)c1
REMARK SMILES IDX 26 1 25 2 23 3 24 4 22 5 12 6 13 7 17 8 14 10 16 11 15 12
REMARK SMILES IDX 18 13 19 14 21 16 20 17 11 18 10 19 7 20 8 21 80 22 9 23
REMARK SMILES IDX 79 24 6 25 1 26 2 27 3 28 81 29 4 30 5 31 27 32 28 33 29 34
REMARK SMILES IDX 30 35 31 36 32 37 78 38 33 39 77 40 34 41 35 42 36 43 71 44
REMARK SMILES IDX 37 45 76 46 70 47 72 48 38 49 75 50 69 51 68 52 39 54 61 55
REMARK SMILES IDX 46 56 60 57 47 58 50 59 59 60 73 61 48 62 49 63 58 65 74 66
REMARK SMILES IDX 51 67 40 68 41 69 45 70 42 71 44 72 43 73 62 74 63 75 67 76
REMARK SMILES IDX 64 77 66 78 65 79 52 80 53 81 57 82 54 83 56 84 55 85
REMARK H PARENT 12 9 18 15 72 53 50 64
REMARK Flexibility Score: inf
ROOT
ATOM      1  C   UNL     1      -0.637   4.631  -4.337  1.00  0.00     0.274 C 
ENDROOT
BRANCH   1   2
ATOM      2  O   UNL     1       0.144   4.670  -3.083  1.00  0.00    -0.462 OA
BRANCH   2   3
ATOM      3  C   UNL     1      -0.279   5.537  -2.164  1.00  0.00     0.311 C 
ATOM      4  O   UNL     1      -1.302   6.163  -2.391  1.00  0.00    -0.252 OA
BRANCH   3   5
ATOM      5  C   UNL     1       0.355   5.731  -0.794  1.00  0.00     0.134 C 
ATOM      6  N   UNL     1      -3.442   6.203   0.760  1.00  0.00    -0.331 N 
ATOM      7  C   UNL     1      -2.385   6.624   1.682  1.00  0.00     0.264 C 
ATOM      8  C   UNL     1      -2.854   5.879  -0.508  1.00  0.00     0.264 C 
ATOM      9  H   UNL     1      -4.016   7.046   0.784  1.00  0.00     0.348 HD
ATOM     10  C   UNL     1      -0.923   6.041   1.546  1.00  0.00     0.091 C 
ATOM     11  C   UNL     1      -1.867   4.710  -0.303  1.00  0.00     0.091 C 
ATOM     12  C   UNL     1      -0.567   5.165   0.303  1.00  0.00     0.064 C 
ATOM     13  N   UNL     1       0.208   4.024   0.767  1.00  0.00    -0.349 N 
ATOM     14  C   UNL     1       1.486   3.970   0.297  1.00  0.00     0.221 C 
ATOM     15  H   UNL     1      -0.162   3.344   1.374  1.00  0.00     0.164 HD
ATOM     16  C   UNL     1       1.739   5.155  -0.560  1.00  0.00     0.117 C 
ATOM     17  O   UNL     1       2.314   3.102   0.586  1.00  0.00    -0.275 OA
BRANCH   6  18
ATOM     18  C   UNL     1      -4.584   5.338   1.113  1.00  0.00     0.302 C 
BRANCH  18  19
ATOM     19  C   UNL     1      -4.372   3.840   0.965  1.00  0.00     0.043 A 
ATOM     20  C   UNL     1      -3.003   1.522   0.477  1.00  0.00     0.159 A 
ATOM     21  N   UNL     1      -3.026   1.996   1.742  1.00  0.00    -0.236 NA
ATOM     22  N   UNL     1      -3.736   2.034  -0.535  1.00  0.00    -0.236 NA
ATOM     23  C   UNL     1      -3.740   3.126   1.964  1.00  0.00     0.124 A 
ATOM     24  C   UNL     1      -4.419   3.180  -0.263  1.00  0.00     0.124 A 
BRANCH  20  25
ATOM     25  C   UNL     1      -2.049   0.431   0.184  1.00  0.00     0.019 A 
ATOM     26  C   UNL     1       1.747  -0.301   0.139  1.00  0.00     0.044 C 
ATOM     27  C   UNL     1       0.254  -0.473   0.060  1.00  0.00    -0.050 A 
ATOM     28  C   UNL     1      -0.268  -1.746  -0.161  1.00  0.00     0.003 A 
ATOM     29  C   UNL     1      -0.643   0.603   0.219  1.00  0.00     0.015 A 
ATOM     30  C   UNL     1      -1.646  -1.934  -0.244  1.00  0.00     0.001 A 
ATOM     31  C   UNL     1      -2.524  -0.856  -0.084  1.00  0.00     0.012 A 
ENDBRANCH  20  25
ENDBRANCH  18  19
ENDBRANCH   6  18
ENDBRANCH   3   5
ENDBRANCH   2   3
ENDBRANCH   1   2
BRANCH   1  32
ATOM     32  C   UNL     1      -1.933   5.518  -4.691  1.00  0.00     0.275 C 
BRANCH  32  33
ATOM     33  O   UNL     1      -2.212   6.996  -4.588  1.00  0.00    -0.458 OA
BRANCH  33  34
ATOM     34  C   UNL     1      -1.634   8.059  -3.943  1.00  0.00     0.338 C 
ATOM     35  O   UNL     1      -2.253   9.000  -3.468  1.00  0.00    -0.246 OA
BRANCH  34  36
ATOM     36  C   UNL     1      -0.171   8.008  -3.895  1.00  0.00     0.060 A 
ATOM     37  C   UNL     1       0.587   8.372  -2.759  1.00  0.00     0.016 A 
ATOM     38  C   UNL     1       0.374   7.300  -4.941  1.00  0.00     0.016 A 
ATOM     39  C   UNL     1       1.902   7.912  -2.649  1.00  0.00     0.010 A 
ATOM     40  C   UNL     1       1.526   6.625  -4.697  1.00  0.00     0.010 A 
ATOM     41  C   UNL     1       2.334   7.002  -3.614  1.00  0.00    -0.014 A 
BRANCH  41  42
ATOM     42  C   UNL     1       3.709   6.752  -4.000  1.00  0.00     0.031 A 
ATOM     43  C   UNL     1       4.414   5.551  -3.516  1.00  0.00     0.074 A 
ATOM     44  C   UNL     1       3.957   7.527  -5.089  1.00  0.00     0.049 A 
ATOM     45  N   UNL     1       5.612   5.534  -3.033  1.00  0.00    -0.248 NA
ATOM     46  C   UNL     1       3.763   4.228  -3.454  1.00  0.00     0.031 C 
ATOM     47  C   UNL     1       4.887   7.439  -6.189  1.00  0.00     0.029 A 
ATOM     48  N   UNL     1       3.207   8.640  -5.488  1.00  0.00    -0.354 N 
ATOM     49  C   UNL     1       5.985   4.199  -3.073  1.00  0.00     0.074 A 
ATOM     50  C   UNL     1       4.758   3.441  -3.025  1.00  0.00     0.031 C 
ATOM     51  C   UNL     1       4.899   8.634  -6.831  1.00  0.00     0.029 A 
ATOM     52  C   UNL     1       4.005   9.552  -6.123  1.00  0.00     0.049 A 
ATOM     53  H   UNL     1       2.241   8.751  -5.333  1.00  0.00     0.167 HD
ATOM     54  C   UNL     1       7.138   3.831  -3.708  1.00  0.00     0.031 A 
ATOM     55  C   UNL     1       4.319  10.680  -5.414  1.00  0.00     0.031 A 
ATOM     56  C   UNL     1       7.652   4.956  -4.486  1.00  0.00     0.049 A 
ATOM     57  C   UNL     1       5.740  10.518  -4.928  1.00  0.00     0.074 A 
ATOM     58  C   UNL     1       7.585   5.227  -5.842  1.00  0.00     0.029 A 
ATOM     59  N   UNL     1       7.988   6.144  -3.857  1.00  0.00    -0.354 N 
ATOM     60  N   UNL     1       6.275   9.372  -4.598  1.00  0.00    -0.248 NA
ATOM     61  C   UNL     1       6.688  11.621  -4.892  1.00  0.00     0.031 C 
ATOM     62  C   UNL     1       7.879   6.603  -6.023  1.00  0.00     0.029 A 
ATOM     63  C   UNL     1       8.070   7.172  -4.775  1.00  0.00     0.049 A 
ATOM     64  H   UNL     1       8.146   6.242  -2.890  1.00  0.00     0.167 HD
ATOM     65  C   UNL     1       7.626   9.533  -4.482  1.00  0.00     0.074 A 
ATOM     66  C   UNL     1       7.830  10.967  -4.619  1.00  0.00     0.031 C 
ATOM     67  C   UNL     1       8.499   8.493  -4.346  1.00  0.00     0.031 A 
BRANCH  54  68
ATOM     68  C   UNL     1       7.580   2.406  -3.971  1.00  0.00    -0.014 A 
ATOM     69  C   UNL     1       8.499   2.143  -5.007  1.00  0.00     0.009 A 
ATOM     70  C   UNL     1       7.198   1.302  -3.187  1.00  0.00     0.009 A 
ATOM     71  C   UNL     1       8.969   0.855  -5.286  1.00  0.00     0.001 A 
ATOM     72  C   UNL     1       7.655   0.003  -3.472  1.00  0.00     0.001 A 
ATOM     73  C   UNL     1       8.539  -0.220  -4.523  1.00  0.00     0.000 A 
ENDBRANCH  54  68
BRANCH  55  74
ATOM     74  C   UNL     1       3.179  11.252  -4.594  1.00  0.00    -0.014 A 
ATOM     75  C   UNL     1       1.962  11.559  -5.253  1.00  0.00     0.009 A 
ATOM     76  C   UNL     1       3.157  11.248  -3.190  1.00  0.00     0.009 A 
ATOM     77  C   UNL     1       0.762  11.746  -4.551  1.00  0.00     0.001 A 
ATOM     78  C   UNL     1       1.956  11.471  -2.484  1.00  0.00     0.001 A 
ATOM     79  C   UNL     1       0.757  11.691  -3.163  1.00  0.00     0.000 A 
ENDBRANCH  55  74
BRANCH  67  80
ATOM     80  C   UNL     1       9.917   8.623  -3.867  1.00  0.00    -0.014 A 
ATOM     81  C   UNL     1      10.386   9.727  -3.151  1.00  0.00     0.009 A 
ATOM     82  C   UNL     1      10.788   7.514  -3.980  1.00  0.00     0.009 A 
ATOM     83  C   UNL     1      11.682   9.752  -2.632  1.00  0.00     0.001 A 
ATOM     84  C   UNL     1      12.053   7.506  -3.400  1.00  0.00     0.001 A 
ATOM     85  C   UNL     1      12.508   8.638  -2.743  1.00  0.00     0.000 A 
ENDBRANCH  67  80
ENDBRANCH  41  42
ENDBRANCH  34  36
ENDBRANCH  33  34
ENDBRANCH  32  33
ENDBRANCH   1  32
TORSDOF 14
