REMARK SMILES CC(C)[C@H](NS(=O)(=O)c1cccc(F)c1)C(=O)OCCOC(=O)c1ccc(-c2c3nc(c(-c4ccccc4)c4ccc([nH]4)c(-c4ccccc4)c4nc(c(-c5ccccc5)c5ccc2[nH]5)C=C4)C=C3)cc1
REMARK SMILES IDX 19 1 18 2 16 3 17 4 4 5 2 6 1 7 3 8 5 9 6 11 7 12 8 13 9 14
REMARK SMILES IDX 10 15 15 16 11 17 13 18 12 19 14 20 20 21 21 22 22 23 23 24
REMARK SMILES IDX 24 25 25 26 71 27 26 28 70 29 27 30 28 31 29 32 64 33 30 34
REMARK SMILES IDX 69 35 63 36 65 37 31 38 68 39 62 40 61 41 32 43 54 44 39 45
REMARK SMILES IDX 53 46 40 47 43 48 52 49 66 50 41 51 42 52 51 54 67 55 44 56
REMARK SMILES IDX 33 57 34 58 38 59 35 60 37 61 36 62 55 63 56 64 60 65 57 66
REMARK SMILES IDX 59 67 58 68 45 69 46 70 50 71 47 72 49 73 48 74
REMARK H PARENT 5 10 65 42 43 53
REMARK Flexibility Score: inf
ROOT
ATOM      1  C   UNL     1      -1.349  -4.293  -3.225  1.00  0.00     0.274 C 
ENDROOT
BRANCH   1   2
ATOM      2  O   UNL     1      -0.964  -2.983  -2.774  1.00  0.00    -0.461 OA
BRANCH   2   3
ATOM      3  C   UNL     1      -1.886  -2.320  -2.031  1.00  0.00     0.324 C 
ATOM      4  O   UNL     1      -3.010  -2.754  -1.789  1.00  0.00    -0.250 OA
BRANCH   3   5
ATOM      5  C   UNL     1      -1.349  -1.044  -1.385  1.00  0.00     0.182 C 
BRANCH   5   6
ATOM      6  C   UNL     1      -2.129   0.256  -1.690  1.00  0.00     0.012 C 
ATOM      7  C   UNL     1      -3.575   0.059  -2.147  1.00  0.00     0.009 C 
ATOM      8  C   UNL     1      -2.137   1.162  -0.447  1.00  0.00     0.009 C 
ENDBRANCH   5   6
BRANCH   5   9
ATOM      9  N   UNL     1       0.134  -0.874  -1.392  1.00  0.00    -0.197 NA
ATOM     10  H   UNL     1       0.526  -1.796  -1.199  1.00  0.00     0.142 HD
BRANCH   9  11
ATOM     11  S   UNL     1       0.971  -0.281  -2.724  1.00  0.00     0.241 S 
ATOM     12  O   UNL     1       2.358  -0.619  -2.533  1.00  0.00    -0.207 OA
ATOM     13  O   UNL     1       0.242  -0.654  -3.920  1.00  0.00    -0.207 OA
BRANCH  11  14
ATOM     14  C   UNL     1       0.848   1.483  -2.529  1.00  0.00     0.085 A 
ATOM     15  C   UNL     1       1.202   2.074  -1.310  1.00  0.00     0.022 A 
ATOM     16  C   UNL     1       0.263   2.239  -3.549  1.00  0.00     0.061 A 
ATOM     17  C   UNL     1       0.897   3.419  -1.087  1.00  0.00     0.004 A 
ATOM     18  C   UNL     1      -0.042   3.569  -3.304  1.00  0.00     0.124 A 
ATOM     19  C   UNL     1       0.255   4.162  -2.081  1.00  0.00     0.039 A 
ATOM     20  F   UNL     1      -0.675   4.282  -4.245  1.00  0.00    -0.207 F 
ENDBRANCH  11  14
ENDBRANCH   9  11
ENDBRANCH   5   9
ENDBRANCH   3   5
ENDBRANCH   2   3
ENDBRANCH   1   2
BRANCH   1  21
ATOM     21  C   UNL     1      -0.734  -5.385  -2.342  1.00  0.00     0.275 C 
BRANCH  21  22
ATOM     22  O   UNL     1      -1.268  -5.393  -1.001  1.00  0.00    -0.458 OA
BRANCH  22  23
ATOM     23  C   UNL     1      -0.665  -4.552  -0.126  1.00  0.00     0.338 C 
ATOM     24  O   UNL     1       0.255  -3.781  -0.361  1.00  0.00    -0.246 OA
BRANCH  23  25
ATOM     25  C   UNL     1      -1.366  -4.559   1.175  1.00  0.00     0.060 A 
ATOM     26  C   UNL     1      -1.538  -3.326   1.813  1.00  0.00     0.016 A 
ATOM     27  C   UNL     1      -1.792  -5.734   1.799  1.00  0.00     0.016 A 
ATOM     28  C   UNL     1      -2.142  -3.254   3.062  1.00  0.00     0.010 A 
ATOM     29  C   UNL     1      -2.381  -5.665   3.069  1.00  0.00     0.010 A 
ATOM     30  C   UNL     1      -2.552  -4.425   3.707  1.00  0.00    -0.014 A 
BRANCH  30  31
ATOM     31  C   UNL     1      -3.081  -4.325   5.085  1.00  0.00     0.031 A 
ATOM     32  C   UNL     1      -2.178  -4.611   6.249  1.00  0.00     0.074 A 
ATOM     33  C   UNL     1      -4.338  -3.893   5.292  1.00  0.00     0.049 A 
ATOM     34  N   UNL     1      -2.445  -4.576   7.529  1.00  0.00    -0.248 NA
ATOM     35  C   UNL     1      -0.788  -4.973   5.930  1.00  0.00     0.031 C 
ATOM     36  C   UNL     1      -5.282  -3.508   4.243  1.00  0.00     0.029 A 
ATOM     37  N   UNL     1      -5.027  -3.688   6.459  1.00  0.00    -0.354 N 
ATOM     38  C   UNL     1      -1.263  -4.924   8.169  1.00  0.00     0.074 A 
ATOM     39  C   UNL     1      -0.280  -5.176   7.137  1.00  0.00     0.031 C 
ATOM     40  C   UNL     1      -6.428  -3.104   4.816  1.00  0.00     0.029 A 
ATOM     41  C   UNL     1      -6.310  -3.239   6.266  1.00  0.00     0.049 A 
ATOM     42  H   UNL     1      -4.640  -3.847   7.350  1.00  0.00     0.167 HD
ATOM     43  C   UNL     1      -1.020  -5.027   9.497  1.00  0.00     0.031 A 
ATOM     44  C   UNL     1      -7.287  -2.987   7.157  1.00  0.00     0.031 A 
ATOM     45  C   UNL     1      -1.998  -4.783  10.522  1.00  0.00     0.049 A 
ATOM     46  C   UNL     1      -7.015  -3.189   8.621  1.00  0.00     0.074 A 
ATOM     47  C   UNL     1      -1.851  -4.875  11.896  1.00  0.00     0.029 A 
ATOM     48  N   UNL     1      -3.308  -4.399  10.284  1.00  0.00    -0.354 N 
ATOM     49  N   UNL     1      -5.900  -3.542   9.213  1.00  0.00    -0.248 NA
ATOM     50  C   UNL     1      -8.141  -2.963   9.540  1.00  0.00     0.031 C 
ATOM     51  C   UNL     1      -3.086  -4.585  12.487  1.00  0.00     0.029 A 
ATOM     52  C   UNL     1      -3.988  -4.271  11.483  1.00  0.00     0.049 A 
ATOM     53  H   UNL     1      -3.697  -4.241   9.393  1.00  0.00     0.167 HD
ATOM     54  C   UNL     1      -6.184  -3.568  10.572  1.00  0.00     0.074 A 
ATOM     55  C   UNL     1      -7.572  -3.178  10.718  1.00  0.00     0.031 C 
ATOM     56  C   UNL     1      -5.370  -3.888  11.606  1.00  0.00     0.031 A 
BRANCH  43  57
ATOM     57  C   UNL     1       0.354  -5.468   9.909  1.00  0.00    -0.014 A 
ATOM     58  C   UNL     1       1.451  -4.596   9.844  1.00  0.00     0.009 A 
ATOM     59  C   UNL     1       0.548  -6.774  10.384  1.00  0.00     0.009 A 
ATOM     60  C   UNL     1       2.723  -5.034  10.221  1.00  0.00     0.001 A 
ATOM     61  C   UNL     1       1.816  -7.203  10.780  1.00  0.00     0.001 A 
ATOM     62  C   UNL     1       2.904  -6.335  10.690  1.00  0.00     0.000 A 
ENDBRANCH  43  57
BRANCH  44  63
ATOM     63  C   UNL     1      -8.625  -2.550   6.687  1.00  0.00    -0.014 A 
ATOM     64  C   UNL     1      -9.070  -1.238   6.908  1.00  0.00     0.009 A 
ATOM     65  C   UNL     1      -9.469  -3.450   6.017  1.00  0.00     0.009 A 
ATOM     66  C   UNL     1     -10.341  -0.843   6.481  1.00  0.00     0.001 A 
ATOM     67  C   UNL     1     -10.727  -3.045   5.571  1.00  0.00     0.001 A 
ATOM     68  C   UNL     1     -11.165  -1.744   5.809  1.00  0.00     0.000 A 
ENDBRANCH  44  63
BRANCH  56  69
ATOM     69  C   UNL     1      -5.955  -3.806  12.986  1.00  0.00    -0.014 A 
ATOM     70  C   UNL     1      -6.832  -4.795  13.459  1.00  0.00     0.009 A 
ATOM     71  C   UNL     1      -5.597  -2.747  13.833  1.00  0.00     0.009 A 
ATOM     72  C   UNL     1      -7.362  -4.707  14.747  1.00  0.00     0.001 A 
ATOM     73  C   UNL     1      -6.111  -2.674  15.129  1.00  0.00     0.001 A 
ATOM     74  C   UNL     1      -6.998  -3.650  15.582  1.00  0.00     0.000 A 
ENDBRANCH  56  69
ENDBRANCH  30  31
ENDBRANCH  23  25
ENDBRANCH  22  23
ENDBRANCH  21  22
ENDBRANCH   1  21
TORSDOF 15
