REMARK SMILES COc1ccc2c(c1)C=C(C(=O)OCCOC(=O)c1ccc(-c3c4nc(c(-c5ccccc5)c5ccc([nH]5)c(-c5ccccc5)c5nc(c(-c6ccccc6)c6ccc3[nH]6)C=C5)C=C4)cc1)[C@H](C(F)(F)F)O2
REMARK SMILES IDX 15 1 14 2 13 3 11 4 12 5 10 6 3 7 4 8 8 9 5 10 7 11 6 12
REMARK SMILES IDX 9 13 72 14 67 15 2 16 1 17 68 18 69 19 70 20 71 21 16 22
REMARK SMILES IDX 17 23 18 24 19 25 20 26 66 27 21 28 65 29 22 30 23 31 24 32
REMARK SMILES IDX 59 33 25 34 64 35 58 36 60 37 26 38 63 39 57 40 56 41 27 43
REMARK SMILES IDX 49 44 34 45 48 46 35 47 38 48 47 49 61 50 36 51 37 52 46 54
REMARK SMILES IDX 62 55 39 56 28 57 29 58 33 59 30 60 32 61 31 62 50 63 51 64
REMARK SMILES IDX 55 65 52 66 54 67 53 68 40 69 41 70 45 71 42 72 44 73 43 74
REMARK H PARENT 60 42 38 53
REMARK Flexibility Score: inf
ROOT
ATOM      1  C   UNL     1      -3.610   8.728  -4.005  1.00  0.00     0.275 C 
ENDROOT
BRANCH   1   2
ATOM      2  C   UNL     1      -3.174   7.623  -4.971  1.00  0.00     0.275 C 
BRANCH   2   3
ATOM      3  O   UNL     1      -2.246   6.705  -4.355  1.00  0.00    -0.459 OA
BRANCH   3   4
ATOM      4  C   UNL     1      -0.960   6.775  -4.792  1.00  0.00     0.338 C 
ATOM      5  O   UNL     1      -0.545   7.552  -5.626  1.00  0.00    -0.246 OA
BRANCH   4   6
ATOM      6  C   UNL     1      -0.086   5.804  -4.087  1.00  0.00     0.087 C 
ATOM      7  C   UNL     1       0.712   1.730  -1.610  1.00  0.00     0.119 A 
ATOM      8  C   UNL     1       2.082   1.998  -1.625  1.00  0.00     0.050 A 
ATOM      9  C   UNL     1      -0.171   2.586  -2.282  1.00  0.00     0.058 A 
ATOM     10  C   UNL     1       2.566   3.111  -2.314  1.00  0.00     0.051 A 
ATOM     11  C   UNL     1       0.305   3.720  -2.947  1.00  0.00     0.021 A 
ATOM     12  C   UNL     1       1.679   3.964  -2.966  1.00  0.00     0.128 A 
ATOM     13  C   UNL     1      -0.589   4.633  -3.656  1.00  0.00     0.027 C 
ATOM     14  O   UNL     1       2.226   4.991  -3.681  1.00  0.00    -0.475 OA
ATOM     15  C   UNL     1       1.374   6.161  -3.845  1.00  0.00     0.316 C 
BRANCH   7  16
ATOM     16  O   UNL     1       0.131   0.636  -1.028  1.00  0.00    -0.497 OA
ATOM     17  C   UNL     1       0.823   0.072   0.081  1.00  0.00     0.278 C 
ENDBRANCH   7  16
BRANCH  15  18
ATOM     18  C   UNL     1       2.086   7.101  -4.837  1.00  0.00     0.430 C 
ATOM     19  F   UNL     1       1.634   8.373  -4.750  1.00  0.00    -0.167 F 
ATOM     20  F   UNL     1       3.413   7.173  -4.541  1.00  0.00    -0.167 F 
ATOM     21  F   UNL     1       1.992   6.684  -6.117  1.00  0.00    -0.167 F 
ENDBRANCH  15  18
ENDBRANCH   4   6
ENDBRANCH   3   4
ENDBRANCH   2   3
ENDBRANCH   1   2
BRANCH   1  22
ATOM     22  O   UNL     1      -2.493   9.542  -3.600  1.00  0.00    -0.458 OA
BRANCH  22  23
ATOM     23  C   UNL     1      -1.925   9.182  -2.425  1.00  0.00     0.338 C 
ATOM     24  O   UNL     1      -2.301   8.304  -1.665  1.00  0.00    -0.246 OA
BRANCH  23  25
ATOM     25  C   UNL     1      -0.634   9.877  -2.257  1.00  0.00     0.060 A 
ATOM     26  C   UNL     1       0.453   9.091  -1.861  1.00  0.00     0.016 A 
ATOM     27  C   UNL     1      -0.472  11.249  -2.457  1.00  0.00     0.016 A 
ATOM     28  C   UNL     1       1.720   9.654  -1.728  1.00  0.00     0.010 A 
ATOM     29  C   UNL     1       0.791  11.827  -2.271  1.00  0.00     0.010 A 
ATOM     30  C   UNL     1       1.894  11.030  -1.916  1.00  0.00    -0.014 A 
BRANCH  30  31
ATOM     31  C   UNL     1       3.212  11.635  -1.618  1.00  0.00     0.031 A 
ATOM     32  C   UNL     1       3.523  12.048  -0.208  1.00  0.00     0.074 A 
ATOM     33  C   UNL     1       4.145  11.765  -2.578  1.00  0.00     0.049 A 
ATOM     34  N   UNL     1       4.612  12.585   0.277  1.00  0.00    -0.248 NA
ATOM     35  C   UNL     1       2.468  11.808   0.789  1.00  0.00     0.031 C 
ATOM     36  C   UNL     1       4.003  11.325  -3.964  1.00  0.00     0.029 A 
ATOM     37  N   UNL     1       5.406  12.306  -2.521  1.00  0.00    -0.354 N 
ATOM     38  C   UNL     1       4.380  12.739   1.637  1.00  0.00     0.074 A 
ATOM     39  C   UNL     1       3.040  12.257   1.897  1.00  0.00     0.031 C 
ATOM     40  C   UNL     1       5.130  11.627  -4.633  1.00  0.00     0.029 A 
ATOM     41  C   UNL     1       6.058  12.308  -3.730  1.00  0.00     0.049 A 
ATOM     42  H   UNL     1       5.806  12.658  -1.693  1.00  0.00     0.167 HD
ATOM     43  C   UNL     1       5.205  13.241   2.586  1.00  0.00     0.031 A 
ATOM     44  C   UNL     1       7.256  12.822  -4.071  1.00  0.00     0.031 A 
ATOM     45  C   UNL     1       6.517  13.770   2.325  1.00  0.00     0.049 A 
ATOM     46  C   UNL     1       8.101  13.497  -3.021  1.00  0.00     0.074 A 
ATOM     47  C   UNL     1       7.416  14.325   3.220  1.00  0.00     0.029 A 
ATOM     48  N   UNL     1       7.110  13.826   1.074  1.00  0.00    -0.354 N 
ATOM     49  N   UNL     1       7.878  13.627  -1.735  1.00  0.00    -0.248 NA
ATOM     50  C   UNL     1       9.367  14.093  -3.472  1.00  0.00     0.031 C 
ATOM     51  C   UNL     1       8.528  14.773   2.499  1.00  0.00     0.029 A 
ATOM     52  C   UNL     1       8.350  14.436   1.167  1.00  0.00     0.049 A 
ATOM     53  H   UNL     1       6.710  13.483   0.243  1.00  0.00     0.167 HD
ATOM     54  C   UNL     1       8.988  14.287  -1.221  1.00  0.00     0.074 A 
ATOM     55  C   UNL     1       9.888  14.521  -2.330  1.00  0.00     0.031 C 
ATOM     56  C   UNL     1       9.241  14.661   0.058  1.00  0.00     0.031 A 
BRANCH  43  57
ATOM     57  C   UNL     1       4.677  13.294   3.991  1.00  0.00    -0.014 A 
ATOM     58  C   UNL     1       4.527  12.129   4.758  1.00  0.00     0.009 A 
ATOM     59  C   UNL     1       4.337  14.532   4.557  1.00  0.00     0.009 A 
ATOM     60  C   UNL     1       4.013  12.200   6.055  1.00  0.00     0.001 A 
ATOM     61  C   UNL     1       3.849  14.602   5.862  1.00  0.00     0.001 A 
ATOM     62  C   UNL     1       3.677  13.436   6.606  1.00  0.00     0.000 A 
ENDBRANCH  43  57
BRANCH  44  63
ATOM     63  C   UNL     1       7.726  12.761  -5.481  1.00  0.00    -0.014 A 
ATOM     64  C   UNL     1       8.840  11.986  -5.836  1.00  0.00     0.009 A 
ATOM     65  C   UNL     1       7.087  13.522  -6.474  1.00  0.00     0.009 A 
ATOM     66  C   UNL     1       9.323  11.999  -7.148  1.00  0.00     0.001 A 
ATOM     67  C   UNL     1       7.554  13.510  -7.790  1.00  0.00     0.001 A 
ATOM     68  C   UNL     1       8.679  12.758  -8.123  1.00  0.00     0.000 A 
ENDBRANCH  44  63
BRANCH  56  69
ATOM     69  C   UNL     1      10.562  15.323   0.341  1.00  0.00    -0.014 A 
ATOM     70  C   UNL     1      10.833  16.633  -0.081  1.00  0.00     0.009 A 
ATOM     71  C   UNL     1      11.533  14.637   1.089  1.00  0.00     0.009 A 
ATOM     72  C   UNL     1      12.061  17.231   0.213  1.00  0.00     0.001 A 
ATOM     73  C   UNL     1      12.747  15.247   1.408  1.00  0.00     0.001 A 
ATOM     74  C   UNL     1      13.014  16.540   0.962  1.00  0.00     0.000 A 
ENDBRANCH  56  69
ENDBRANCH  30  31
ENDBRANCH  23  25
ENDBRANCH  22  23
ENDBRANCH   1  22
TORSDOF 13
