REMARK SMILES O=C(OCCOC(=O)[C@H](CCSc1ccccc1)Cc1ccccc1Br)c1ccc(-c2c3nc(c(-c4ccccc4)c4ccc([nH]4)c(-c4ccccc4)c4nc(c(-c5ccccc5)c5ccc2[nH]5)C=C4)C=C3)cc1
REMARK SMILES IDX 5 1 4 2 3 3 2 4 1 5 27 6 28 7 74 8 29 9 73 10 30 11 31 12
REMARK SMILES IDX 32 13 67 14 33 15 72 16 66 17 68 18 34 19 71 20 65 21 64 22
REMARK SMILES IDX 35 24 57 25 42 26 56 27 43 28 46 29 55 30 69 31 44 32 45 33
REMARK SMILES IDX 54 35 70 36 47 37 36 38 37 39 41 40 38 41 40 42 39 43 58 44
REMARK SMILES IDX 59 45 63 46 60 47 62 48 61 49 48 50 49 51 53 52 50 53 52 54
REMARK SMILES IDX 51 55 6 56 7 57 8 58 9 59 19 60 20 61 21 62 25 63 22 64
REMARK SMILES IDX 24 65 26 66 23 67 10 68 11 69 12 70 13 71 14 72 18 73 15 74
REMARK SMILES IDX 17 75 16 76
REMARK H PARENT 68 23 46 34
REMARK Flexibility Score: inf
ROOT
ATOM      1  C   UNL     1       4.574  -3.931   2.272  1.00  0.00     0.274 C 
ENDROOT
BRANCH   1   2
ATOM      2  C   UNL     1       4.694  -4.328   0.801  1.00  0.00     0.275 C 
BRANCH   2   3
ATOM      3  O   UNL     1       4.831  -3.231  -0.113  1.00  0.00    -0.458 OA
BRANCH   3   4
ATOM      4  C   UNL     1       3.902  -2.406  -0.643  1.00  0.00     0.338 C 
ATOM      5  O   UNL     1       4.280  -1.537  -1.429  1.00  0.00    -0.246 OA
BRANCH   4   6
ATOM      6  C   UNL     1       2.446  -2.408  -0.279  1.00  0.00     0.060 A 
ATOM      7  C   UNL     1       1.723  -3.470   0.263  1.00  0.00     0.016 A 
ATOM      8  C   UNL     1       1.749  -1.207  -0.525  1.00  0.00     0.016 A 
ATOM      9  C   UNL     1       0.367  -3.330   0.585  1.00  0.00     0.010 A 
ATOM     10  C   UNL     1       0.407  -1.050  -0.162  1.00  0.00     0.010 A 
ATOM     11  C   UNL     1      -0.304  -2.120   0.387  1.00  0.00    -0.014 A 
BRANCH  11  12
ATOM     12  C   UNL     1      -1.766  -2.040   0.632  1.00  0.00     0.031 A 
ATOM     13  C   UNL     1      -2.692  -1.859  -0.540  1.00  0.00     0.074 A 
ATOM     14  C   UNL     1      -2.276  -2.231   1.867  1.00  0.00     0.049 A 
ATOM     15  N   UNL     1      -4.000  -1.865  -0.567  1.00  0.00    -0.248 NA
ATOM     16  C   UNL     1      -2.066  -1.662  -1.859  1.00  0.00     0.031 C 
ATOM     17  C   UNL     1      -1.496  -2.469   3.083  1.00  0.00     0.029 A 
ATOM     18  N   UNL     1      -3.579  -2.284   2.299  1.00  0.00    -0.354 N 
ATOM     19  C   UNL     1      -4.345  -1.713  -1.904  1.00  0.00     0.074 A 
ATOM     20  C   UNL     1      -3.120  -1.518  -2.643  1.00  0.00     0.031 C 
ATOM     21  C   UNL     1      -2.338  -2.665   4.112  1.00  0.00     0.029 A 
ATOM     22  C   UNL     1      -3.707  -2.507   3.650  1.00  0.00     0.049 A 
ATOM     23  H   UNL     1      -4.351  -2.173   1.697  1.00  0.00     0.167 HD
ATOM     24  C   UNL     1      -5.566  -1.789  -2.481  1.00  0.00     0.031 A 
ATOM     25  C   UNL     1      -4.802  -2.566   4.431  1.00  0.00     0.031 A 
ATOM     26  C   UNL     1      -6.790  -1.965  -1.754  1.00  0.00     0.049 A 
ATOM     27  C   UNL     1      -6.152  -2.497   3.785  1.00  0.00     0.074 A 
ATOM     28  C   UNL     1      -8.082  -2.036  -2.241  1.00  0.00     0.029 A 
ATOM     29  N   UNL     1      -6.869  -2.093  -0.376  1.00  0.00    -0.354 N 
ATOM     30  N   UNL     1      -6.453  -2.378   2.516  1.00  0.00    -0.248 NA
ATOM     31  C   UNL     1      -7.312  -2.618   4.679  1.00  0.00     0.031 C 
ATOM     32  C   UNL     1      -8.949  -2.167  -1.151  1.00  0.00     0.029 A 
ATOM     33  C   UNL     1      -8.191  -2.226   0.008  1.00  0.00     0.049 A 
ATOM     34  H   UNL     1      -6.099  -2.090   0.237  1.00  0.00     0.167 HD
ATOM     35  C   UNL     1      -7.836  -2.450   2.452  1.00  0.00     0.074 A 
ATOM     36  C   UNL     1      -8.312  -2.629   3.810  1.00  0.00     0.031 C 
ATOM     37  C   UNL     1      -8.640  -2.391   1.365  1.00  0.00     0.031 A 
BRANCH  24  38
ATOM     38  C   UNL     1      -5.604  -1.686  -3.978  1.00  0.00    -0.014 A 
ATOM     39  C   UNL     1      -5.118  -2.733  -4.780  1.00  0.00     0.009 A 
ATOM     40  C   UNL     1      -6.088  -0.525  -4.595  1.00  0.00     0.009 A 
ATOM     41  C   UNL     1      -5.072  -2.599  -6.169  1.00  0.00     0.001 A 
ATOM     42  C   UNL     1      -6.067  -0.405  -5.986  1.00  0.00     0.001 A 
ATOM     43  C   UNL     1      -5.548  -1.435  -6.770  1.00  0.00     0.000 A 
ENDBRANCH  24  38
BRANCH  25  44
ATOM     44  C   UNL     1      -4.697  -2.665   5.910  1.00  0.00    -0.014 A 
ATOM     45  C   UNL     1      -4.949  -3.867   6.588  1.00  0.00     0.009 A 
ATOM     46  C   UNL     1      -4.423  -1.512   6.661  1.00  0.00     0.009 A 
ATOM     47  C   UNL     1      -4.934  -3.908   7.986  1.00  0.00     0.001 A 
ATOM     48  C   UNL     1      -4.385  -1.561   8.058  1.00  0.00     0.001 A 
ATOM     49  C   UNL     1      -4.643  -2.758   8.720  1.00  0.00     0.000 A 
ENDBRANCH  25  44
BRANCH  37  50
ATOM     50  C   UNL     1     -10.110  -2.560   1.607  1.00  0.00    -0.014 A 
ATOM     51  C   UNL     1     -10.868  -1.552   2.219  1.00  0.00     0.009 A 
ATOM     52  C   UNL     1     -10.742  -3.747   1.206  1.00  0.00     0.009 A 
ATOM     53  C   UNL     1     -12.228  -1.746   2.461  1.00  0.00     0.001 A 
ATOM     54  C   UNL     1     -12.108  -3.925   1.420  1.00  0.00     0.001 A 
ATOM     55  C   UNL     1     -12.847  -2.929   2.057  1.00  0.00     0.000 A 
ENDBRANCH  37  50
ENDBRANCH  11  12
ENDBRANCH   4   6
ENDBRANCH   3   4
ENDBRANCH   2   3
ENDBRANCH   1   2
BRANCH   1  56
ATOM     56  O   UNL     1       3.974  -2.645   2.494  1.00  0.00    -0.462 OA
BRANCH  56  57
ATOM     57  C   UNL     1       4.834  -1.637   2.871  1.00  0.00     0.309 C 
ATOM     58  O   UNL     1       6.041  -1.725   2.881  1.00  0.00    -0.252 OA
BRANCH  57  59
ATOM     59  C   UNL     1       4.025  -0.440   3.393  1.00  0.00     0.104 C 
BRANCH  59  60
ATOM     60  C   UNL     1       4.928   0.475   4.288  1.00  0.00     0.052 C 
BRANCH  60  61
ATOM     61  C   UNL     1       4.378   1.841   4.682  1.00  0.00    -0.033 A 
ATOM     62  C   UNL     1       4.359   2.847   3.695  1.00  0.00     0.005 A 
ATOM     63  C   UNL     1       3.826   2.168   5.935  1.00  0.00     0.021 A 
ATOM     64  C   UNL     1       3.643   4.034   3.867  1.00  0.00     0.000 A 
ATOM     65  C   UNL     1       3.087   3.352   6.102  1.00  0.00     0.016 A 
ATOM     66  Br  UNL     1       4.081   1.116   7.498  1.00  0.00    -0.051 Br
ATOM     67  C   UNL     1       2.966   4.265   5.056  1.00  0.00     0.001 A 
ENDBRANCH  60  61
ENDBRANCH  59  60
BRANCH  59  68
ATOM     68  C   UNL     1       3.247   0.251   2.281  1.00  0.00     0.027 C 
BRANCH  68  69
ATOM     69  C   UNL     1       1.764   0.615   2.537  1.00  0.00     0.076 C 
BRANCH  69  70
ATOM     70  S   UNL     1       1.080   1.312   4.090  1.00  0.00    -0.126 SA
BRANCH  70  71
ATOM     71  C   UNL     1       0.712  -0.043   5.196  1.00  0.00     0.007 A 
ATOM     72  C   UNL     1      -0.589  -0.191   5.668  1.00  0.00     0.015 A 
ATOM     73  C   UNL     1       1.696  -0.797   5.837  1.00  0.00     0.015 A 
ATOM     74  C   UNL     1      -0.871  -1.087   6.711  1.00  0.00     0.001 A 
ATOM     75  C   UNL     1       1.415  -1.746   6.822  1.00  0.00     0.001 A 
ATOM     76  C   UNL     1       0.118  -1.891   7.266  1.00  0.00     0.000 A 
ENDBRANCH  70  71
ENDBRANCH  69  70
ENDBRANCH  68  69
ENDBRANCH  59  68
ENDBRANCH  57  59
ENDBRANCH  56  57
ENDBRANCH   1  56
TORSDOF 17
