REMARK SMILES Cc1ccc(N2C(=O)N[C@@H]3CCN(C(=O)CC4(CC(=O)OCCOC(=O)c5ccc(-c6c7nc(c(-c8ccccc8)c8ccc([nH]8)c(-c8ccccc8)c8nc(c(-c9ccccc9)c9ccc6[nH]9)C=C8)C=C7)cc5)CCCC4)[C@@H]3C2=O)cc1
REMARK SMILES IDX 21 1 19 2 20 3 18 4 17 5 75 6 78 7 76 8 77 9 16 10 14 11
REMARK SMILES IDX 15 12 13 13 6 14 7 15 80 16 8 17 9 18 79 19 81 20 10 21
REMARK SMILES IDX 11 23 12 24 5 25 1 26 2 27 3 28 83 29 4 30 82 31 22 32 23 33
REMARK SMILES IDX 24 34 25 35 26 36 27 37 28 38 74 39 29 40 73 41 30 42 31 43
REMARK SMILES IDX 32 44 67 45 33 46 72 47 66 48 68 49 34 50 71 51 65 52 64 53
REMARK SMILES IDX 35 55 57 56 42 57 56 58 43 59 46 60 55 61 69 62 44 63 45 64
REMARK SMILES IDX 54 66 70 67 47 68 36 69 37 70 41 71 38 72 40 73 39 74 58 75
REMARK SMILES IDX 59 76 63 77 60 78 62 79 61 80 48 81 49 82 53 83 50 84 52 85
REMARK SMILES IDX 51 86
REMARK H PARENT 9 22 68 54 46 65
REMARK Flexibility Score: inf
ROOT
ATOM      1  O   UNL     1      -9.547   1.208  -5.368  1.00  0.00    -0.462 OA
ENDROOT
BRANCH   1   2
ATOM      2  C   UNL     1      -9.102   0.094  -5.996  1.00  0.00     0.306 C 
ATOM      3  O   UNL     1      -9.815  -0.700  -6.592  1.00  0.00    -0.252 OA
BRANCH   2   4
ATOM      4  C   UNL     1      -7.610  -0.087  -5.774  1.00  0.00     0.130 C 
BRANCH   4   5
ATOM      5  C   UNL     1      -7.274  -0.223  -4.268  1.00  0.00    -0.011 C 
ATOM      6  C   UNL     1      -5.840  -0.762  -4.110  1.00  0.00     0.008 C 
ATOM      7  C   UNL     1      -8.172  -1.381  -3.749  1.00  0.00     0.008 C 
ATOM      8  C   UNL     1      -5.947  -2.262  -4.324  1.00  0.00     0.001 C 
ATOM      9  C   UNL     1      -7.332  -2.655  -3.827  1.00  0.00     0.001 C 
BRANCH   5  10
ATOM     10  C   UNL     1      -7.476   1.173  -3.581  1.00  0.00     0.107 C 
BRANCH  10  11
ATOM     11  C   UNL     1      -6.477   1.688  -2.541  1.00  0.00     0.223 C 
ATOM     12  O   UNL     1      -5.804   2.694  -2.762  1.00  0.00    -0.275 OA
BRANCH  11  13
ATOM     13  N   UNL     1      -6.408   1.025  -1.341  1.00  0.00    -0.328 N 
ATOM     14  N   UNL     1      -3.259   0.239   0.309  1.00  0.00    -0.230 N 
ATOM     15  C   UNL     1      -3.748  -0.200   1.533  1.00  0.00     0.329 C 
ATOM     16  C   UNL     1      -4.026   0.823  -0.702  1.00  0.00     0.260 C 
ATOM     17  O   UNL     1      -3.141  -0.875   2.363  1.00  0.00    -0.248 OA
ATOM     18  N   UNL     1      -5.007   0.190   1.865  1.00  0.00    -0.332 N 
ATOM     19  C   UNL     1      -5.415   1.351  -0.312  1.00  0.00     0.197 C 
ATOM     20  O   UNL     1      -3.614   0.924  -1.864  1.00  0.00    -0.271 OA
ATOM     21  C   UNL     1      -5.975   0.685   0.940  1.00  0.00     0.118 C 
ATOM     22  H   UNL     1      -5.271   0.125   2.811  1.00  0.00     0.165 HD
ATOM     23  C   UNL     1      -6.805  -0.480   0.427  1.00  0.00     0.049 C 
ATOM     24  C   UNL     1      -7.298  -0.017  -0.911  1.00  0.00     0.122 C 
BRANCH  14  25
ATOM     25  C   UNL     1      -1.858   0.098   0.070  1.00  0.00     0.054 A 
ATOM     26  C   UNL     1       2.442  -0.096  -0.080  1.00  0.00     0.044 C 
ATOM     27  C   UNL     1       0.944  -0.029  -0.072  1.00  0.00    -0.051 A 
ATOM     28  C   UNL     1       0.190  -1.192   0.128  1.00  0.00     0.005 A 
ATOM     29  C   UNL     1       0.285   1.188  -0.263  1.00  0.00     0.005 A 
ATOM     30  C   UNL     1      -1.202  -1.127   0.219  1.00  0.00     0.027 A 
ATOM     31  C   UNL     1      -1.108   1.249  -0.212  1.00  0.00     0.027 A 
ENDBRANCH  14  25
ENDBRANCH  11  13
ENDBRANCH  10  11
ENDBRANCH   5  10
ENDBRANCH   4   5
ENDBRANCH   2   4
ENDBRANCH   1   2
BRANCH   1  32
ATOM     32  C   UNL     1     -10.931   1.505  -5.500  1.00  0.00     0.274 C 
BRANCH  32  33
ATOM     33  C   UNL     1     -11.158   3.018  -5.375  1.00  0.00     0.275 C 
BRANCH  33  34
ATOM     34  O   UNL     1     -10.009   3.924  -5.475  1.00  0.00    -0.458 OA
BRANCH  34  35
ATOM     35  C   UNL     1      -8.959   4.019  -6.347  1.00  0.00     0.338 C 
ATOM     36  O   UNL     1      -8.043   4.784  -6.169  1.00  0.00    -0.246 OA
BRANCH  35  37
ATOM     37  C   UNL     1      -8.932   3.100  -7.502  1.00  0.00     0.060 A 
ATOM     38  C   UNL     1      -7.728   2.492  -7.905  1.00  0.00     0.016 A 
ATOM     39  C   UNL     1     -10.127   2.747  -8.093  1.00  0.00     0.016 A 
ATOM     40  C   UNL     1      -7.752   1.426  -8.813  1.00  0.00     0.010 A 
ATOM     41  C   UNL     1     -10.176   1.574  -8.799  1.00  0.00     0.010 A 
ATOM     42  C   UNL     1      -8.992   0.943  -9.223  1.00  0.00    -0.014 A 
BRANCH  42  43
ATOM     43  C   UNL     1      -9.221   0.021 -10.330  1.00  0.00     0.031 A 
ATOM     44  C   UNL     1      -8.966  -1.429 -10.311  1.00  0.00     0.074 A 
ATOM     45  C   UNL     1      -9.827   0.645 -11.368  1.00  0.00     0.049 A 
ATOM     46  N   UNL     1      -8.890  -2.127 -11.392  1.00  0.00    -0.248 NA
ATOM     47  C   UNL     1      -8.766  -2.243  -9.118  1.00  0.00     0.031 C 
ATOM     48  C   UNL     1     -10.489   0.146 -12.556  1.00  0.00     0.029 A 
ATOM     49  N   UNL     1      -9.817   2.031 -11.558  1.00  0.00    -0.354 N 
ATOM     50  C   UNL     1      -8.954  -3.459 -11.048  1.00  0.00     0.074 A 
ATOM     51  C   UNL     1      -8.783  -3.487  -9.618  1.00  0.00     0.031 C 
ATOM     52  C   UNL     1     -10.548   1.154 -13.454  1.00  0.00     0.029 A 
ATOM     53  C   UNL     1      -9.775   2.275 -12.920  1.00  0.00     0.049 A 
ATOM     54  H   UNL     1      -9.836   2.713 -10.848  1.00  0.00     0.167 HD
ATOM     55  C   UNL     1      -9.283  -4.360 -12.017  1.00  0.00     0.031 A 
ATOM     56  C   UNL     1      -8.591   2.766 -13.399  1.00  0.00     0.031 A 
ATOM     57  C   UNL     1      -9.383  -3.698 -13.317  1.00  0.00     0.049 A 
ATOM     58  C   UNL     1      -7.876   1.754 -14.270  1.00  0.00     0.074 A 
ATOM     59  C   UNL     1     -10.444  -3.222 -14.068  1.00  0.00     0.029 A 
ATOM     60  N   UNL     1      -8.246  -3.100 -13.830  1.00  0.00    -0.354 N 
ATOM     61  N   UNL     1      -8.201   0.492 -14.348  1.00  0.00    -0.248 NA
ATOM     62  C   UNL     1      -6.692   2.072 -15.060  1.00  0.00     0.031 C 
ATOM     63  C   UNL     1      -9.924  -2.286 -15.012  1.00  0.00     0.029 A 
ATOM     64  C   UNL     1      -8.550  -2.227 -14.855  1.00  0.00     0.049 A 
ATOM     65  H   UNL     1      -7.333  -3.276 -13.505  1.00  0.00     0.167 HD
ATOM     66  C   UNL     1      -7.338  -0.158 -15.178  1.00  0.00     0.074 A 
ATOM     67  C   UNL     1      -6.383   0.866 -15.569  1.00  0.00     0.031 C 
ATOM     68  C   UNL     1      -7.464  -1.484 -15.474  1.00  0.00     0.031 A 
BRANCH  55  69
ATOM     69  C   UNL     1      -9.731  -5.783 -11.791  1.00  0.00    -0.014 A 
ATOM     70  C   UNL     1     -10.524  -6.406 -12.777  1.00  0.00     0.009 A 
ATOM     71  C   UNL     1      -9.448  -6.557 -10.653  1.00  0.00     0.009 A 
ATOM     72  C   UNL     1     -11.054  -7.692 -12.617  1.00  0.00     0.001 A 
ATOM     73  C   UNL     1      -9.987  -7.844 -10.479  1.00  0.00     0.001 A 
ATOM     74  C   UNL     1     -10.797  -8.408 -11.458  1.00  0.00     0.000 A 
ENDBRANCH  55  69
BRANCH  56  75
ATOM     75  C   UNL     1      -7.890   3.710 -12.445  1.00  0.00    -0.014 A 
ATOM     76  C   UNL     1      -8.604   4.816 -11.922  1.00  0.00     0.009 A 
ATOM     77  C   UNL     1      -6.675   3.376 -11.825  1.00  0.00     0.009 A 
ATOM     78  C   UNL     1      -8.177   5.486 -10.767  1.00  0.00     0.001 A 
ATOM     79  C   UNL     1      -6.231   4.074 -10.688  1.00  0.00     0.001 A 
ATOM     80  C   UNL     1      -6.996   5.104 -10.142  1.00  0.00     0.000 A 
ENDBRANCH  56  75
BRANCH  68  81
ATOM     81  C   UNL     1      -6.522  -2.208 -16.388  1.00  0.00    -0.014 A 
ATOM     82  C   UNL     1      -6.016  -1.624 -17.555  1.00  0.00     0.009 A 
ATOM     83  C   UNL     1      -6.193  -3.557 -16.148  1.00  0.00     0.009 A 
ATOM     84  C   UNL     1      -5.139  -2.325 -18.388  1.00  0.00     0.001 A 
ATOM     85  C   UNL     1      -5.347  -4.271 -16.994  1.00  0.00     0.001 A 
ATOM     86  C   UNL     1      -4.801  -3.646 -18.104  1.00  0.00     0.000 A 
ENDBRANCH  68  81
ENDBRANCH  42  43
ENDBRANCH  35  37
ENDBRANCH  34  35
ENDBRANCH  33  34
ENDBRANCH  32  33
ENDBRANCH   1  32
TORSDOF 16
