REMARK SMILES CCc1ccsc1-c1nnnn1C[C@H](CC(C)C)C(=O)OCCOC(=O)c1ccc(-c2c3nc(c(-c4ccccc4)c4ccc([nH]4)c(-c4ccccc4)c4nc(c(-c5ccccc5)c5ccc2[nH]5)C=C4)C=C3)cc1
REMARK SMILES IDX 22 1 21 2 19 3 20 4 14 5 13 6 12 7 8 8 9 9 10 10 11 11 7 12
REMARK SMILES IDX 3 13 4 14 5 15 6 16 2 17 1 18 15 19 16 20 17 21 18 22 23 23
REMARK SMILES IDX 24 24 25 25 26 26 27 27 28 28 74 29 29 30 73 31 30 32 31 33
REMARK SMILES IDX 32 34 67 35 33 36 72 37 66 38 68 39 34 40 71 41 65 42 64 43
REMARK SMILES IDX 35 45 57 46 42 47 56 48 43 49 46 50 55 51 69 52 44 53 45 54
REMARK SMILES IDX 54 56 70 57 47 58 36 59 37 60 41 61 38 62 40 63 39 64 58 65
REMARK SMILES IDX 59 66 63 67 60 68 62 69 61 70 48 71 49 72 53 73 50 74 52 75
REMARK SMILES IDX 51 76
REMARK H PARENT 68 44 46 55
REMARK Flexibility Score: inf
ROOT
ATOM      1  C   UNL     1      -4.080   2.299   2.929  1.00  0.00     0.274 C 
ENDROOT
BRANCH   1   2
ATOM      2  O   UNL     1      -2.655   2.219   2.735  1.00  0.00    -0.462 OA
BRANCH   2   3
ATOM      3  C   UNL     1      -1.940   1.641   3.720  1.00  0.00     0.310 C 
ATOM      4  O   UNL     1      -2.369   1.426   4.851  1.00  0.00    -0.252 OA
BRANCH   3   5
ATOM      5  C   UNL     1      -0.517   1.284   3.330  1.00  0.00     0.121 C 
BRANCH   5   6
ATOM      6  C   UNL     1       0.428   2.310   3.953  1.00  0.00     0.164 C 
BRANCH   6   7
ATOM      7  N   UNL     1       0.586   3.534   3.212  1.00  0.00    -0.224 N 
ATOM      8  C   UNL     1       0.396   4.828   3.605  1.00  0.00     0.192 A 
ATOM      9  N   UNL     1       0.658   5.607   2.575  1.00  0.00    -0.108 NA
ATOM     10  N   UNL     1       1.157   4.786   1.599  1.00  0.00    -0.023 NA
ATOM     11  N   UNL     1       1.204   3.531   2.019  1.00  0.00    -0.045 NA
BRANCH   8  12
ATOM     12  C   UNL     1       0.150   5.294   4.928  1.00  0.00     0.077 A 
ATOM     13  C   UNL     1       0.999   5.251   6.029  1.00  0.00    -0.026 A 
ATOM     14  C   UNL     1       0.378   5.918   7.149  1.00  0.00     0.016 A 
ATOM     15  C   UNL     1      -0.869   6.422   6.863  1.00  0.00     0.066 A 
ATOM     16  S   UNL     1      -1.332   6.086   5.260  1.00  0.00    -0.140 S 
BRANCH  13  17
ATOM     17  C   UNL     1       2.385   4.655   6.171  1.00  0.00     0.034 C 
ATOM     18  C   UNL     1       3.215   4.422   4.920  1.00  0.00     0.009 C 
ENDBRANCH  13  17
ENDBRANCH   8  12
ENDBRANCH   6   7
ENDBRANCH   5   6
BRANCH   5  19
ATOM     19  C   UNL     1      -0.120   0.786   1.911  1.00  0.00     0.020 C 
BRANCH  19  20
ATOM     20  C   UNL     1      -0.922   1.113   0.627  1.00  0.00    -0.017 C 
ATOM     21  C   UNL     1      -1.041   2.582   0.239  1.00  0.00     0.007 C 
ATOM     22  C   UNL     1      -0.295   0.344  -0.547  1.00  0.00     0.007 C 
ENDBRANCH  19  20
ENDBRANCH   5  19
ENDBRANCH   3   5
ENDBRANCH   2   3
ENDBRANCH   1   2
BRANCH   1  23
ATOM     23  C   UNL     1      -4.764   1.061   2.360  1.00  0.00     0.275 C 
BRANCH  23  24
ATOM     24  O   UNL     1      -4.658  -0.057   3.252  1.00  0.00    -0.458 OA
BRANCH  24  25
ATOM     25  C   UNL     1      -3.562  -0.819   3.061  1.00  0.00     0.338 C 
ATOM     26  O   UNL     1      -2.581  -0.544   2.398  1.00  0.00    -0.246 OA
BRANCH  25  27
ATOM     27  C   UNL     1      -3.759  -2.193   3.488  1.00  0.00     0.060 A 
ATOM     28  C   UNL     1      -2.697  -3.065   3.200  1.00  0.00     0.016 A 
ATOM     29  C   UNL     1      -5.062  -2.634   3.719  1.00  0.00     0.016 A 
ATOM     30  C   UNL     1      -2.990  -4.373   2.918  1.00  0.00     0.010 A 
ATOM     31  C   UNL     1      -5.354  -3.939   3.423  1.00  0.00     0.010 A 
ATOM     32  C   UNL     1      -4.329  -4.764   2.956  1.00  0.00    -0.014 A 
BRANCH  32  33
ATOM     33  C   UNL     1      -4.624  -6.132   2.610  1.00  0.00     0.031 A 
ATOM     34  C   UNL     1      -4.223  -7.088   3.662  1.00  0.00     0.074 A 
ATOM     35  C   UNL     1      -5.336  -6.453   1.518  1.00  0.00     0.049 A 
ATOM     36  N   UNL     1      -3.398  -8.075   3.574  1.00  0.00    -0.248 NA
ATOM     37  C   UNL     1      -4.697  -6.806   5.029  1.00  0.00     0.031 C 
ATOM     38  C   UNL     1      -6.038  -5.549   0.603  1.00  0.00     0.029 A 
ATOM     39  N   UNL     1      -5.711  -7.686   1.094  1.00  0.00    -0.354 N 
ATOM     40  C   UNL     1      -3.388  -8.654   4.837  1.00  0.00     0.074 A 
ATOM     41  C   UNL     1      -4.045  -7.732   5.725  1.00  0.00     0.031 C 
ATOM     42  C   UNL     1      -6.948  -6.262  -0.098  1.00  0.00     0.029 A 
ATOM     43  C   UNL     1      -6.801  -7.669   0.240  1.00  0.00     0.049 A 
ATOM     44  H   UNL     1      -5.252  -8.513   1.368  1.00  0.00     0.167 HD
ATOM     45  C   UNL     1      -3.099  -9.970   5.014  1.00  0.00     0.031 A 
ATOM     46  C   UNL     1      -7.584  -8.729  -0.070  1.00  0.00     0.031 A 
ATOM     47  C   UNL     1      -2.377 -10.519   3.898  1.00  0.00     0.049 A 
ATOM     48  C   UNL     1      -6.856  -9.963   0.313  1.00  0.00     0.074 A 
ATOM     49  C   UNL     1      -1.177 -10.227   3.281  1.00  0.00     0.029 A 
ATOM     50  N   UNL     1      -3.079 -11.299   3.010  1.00  0.00    -0.354 N 
ATOM     51  N   UNL     1      -5.786 -10.390  -0.292  1.00  0.00    -0.248 NA
ATOM     52  C   UNL     1      -7.075 -10.511   1.644  1.00  0.00     0.031 C 
ATOM     53  C   UNL     1      -1.407 -10.456   1.893  1.00  0.00     0.029 A 
ATOM     54  C   UNL     1      -2.719 -10.912   1.746  1.00  0.00     0.049 A 
ATOM     55  H   UNL     1      -3.724 -12.006   3.241  1.00  0.00     0.167 HD
ATOM     56  C   UNL     1      -4.986 -10.908   0.717  1.00  0.00     0.074 A 
ATOM     57  C   UNL     1      -5.879 -11.067   1.861  1.00  0.00     0.031 C 
ATOM     58  C   UNL     1      -3.624 -10.885   0.618  1.00  0.00     0.031 A 
BRANCH  45  59
ATOM     59  C   UNL     1      -3.867 -10.824   5.992  1.00  0.00    -0.014 A 
ATOM     60  C   UNL     1      -3.502 -12.171   6.140  1.00  0.00     0.009 A 
ATOM     61  C   UNL     1      -5.101 -10.438   6.557  1.00  0.00     0.009 A 
ATOM     62  C   UNL     1      -4.362 -13.092   6.752  1.00  0.00     0.001 A 
ATOM     63  C   UNL     1      -5.939 -11.342   7.210  1.00  0.00     0.001 A 
ATOM     64  C   UNL     1      -5.582 -12.678   7.279  1.00  0.00     0.000 A 
ENDBRANCH  45  59
BRANCH  46  65
ATOM     65  C   UNL     1      -9.023  -8.731  -0.401  1.00  0.00    -0.014 A 
ATOM     66  C   UNL     1      -9.610  -9.842  -1.022  1.00  0.00     0.009 A 
ATOM     67  C   UNL     1      -9.878  -7.737   0.112  1.00  0.00     0.009 A 
ATOM     68  C   UNL     1     -11.003  -9.969  -1.098  1.00  0.00     0.001 A 
ATOM     69  C   UNL     1     -11.268  -7.859   0.029  1.00  0.00     0.001 A 
ATOM     70  C   UNL     1     -11.831  -8.983  -0.564  1.00  0.00     0.000 A 
ENDBRANCH  46  65
BRANCH  58  71
ATOM     71  C   UNL     1      -3.023 -10.516  -0.717  1.00  0.00    -0.014 A 
ATOM     72  C   UNL     1      -3.250  -9.275  -1.337  1.00  0.00     0.009 A 
ATOM     73  C   UNL     1      -2.085 -11.385  -1.294  1.00  0.00     0.009 A 
ATOM     74  C   UNL     1      -2.587  -8.930  -2.519  1.00  0.00     0.001 A 
ATOM     75  C   UNL     1      -1.406 -11.032  -2.462  1.00  0.00     0.001 A 
ATOM     76  C   UNL     1      -1.662  -9.808  -3.078  1.00  0.00     0.000 A 
ENDBRANCH  58  71
ENDBRANCH  32  33
ENDBRANCH  25  27
ENDBRANCH  24  25
ENDBRANCH  23  24
ENDBRANCH   1  23
TORSDOF 17
