REMARK SMILES CC(C)C(=O)N1c2ccc(S(=O)(=O)N3CCOCC3)cc2C[C@H]1C(=O)OCCOC(=O)c1ccc(-c2c3nc(c(-c4ccccc4)c4ccc([nH]4)c(-c4ccccc4)c4nc(c(-c5ccccc5)c5ccc2[nH]5)C=C4)C=C3)cc1
REMARK SMILES IDX 27 1 26 2 24 3 25 4 23 5 6 6 7 7 8 8 21 9 22 10 9 11 20 12
REMARK SMILES IDX 10 13 4 14 5 15 2 16 1 17 3 18 11 19 12 20 13 21 14 22 15 23
REMARK SMILES IDX 19 24 16 25 18 26 17 27 28 28 29 29 30 30 31 31 32 32 33 33
REMARK SMILES IDX 79 34 34 35 78 36 35 37 36 38 37 39 72 40 38 41 77 42 71 43
REMARK SMILES IDX 73 44 39 45 76 46 70 47 69 48 40 50 62 51 47 52 61 53 48 54
REMARK SMILES IDX 51 55 60 56 74 57 49 58 50 59 59 61 75 62 52 63 41 64 42 65
REMARK SMILES IDX 46 66 43 67 45 68 44 69 63 70 64 71 68 72 65 73 67 74 66 75
REMARK SMILES IDX 53 76 54 77 58 78 55 79 57 80 56 81
REMARK H PARENT 73 49 51 60
REMARK Flexibility Score: inf
ROOT
ATOM      1  C   UNL     1      -5.401  -0.952   2.078  1.00  0.00     0.274 C 
ENDROOT
BRANCH   1   2
ATOM      2  O   UNL     1      -4.341  -0.337   1.326  1.00  0.00    -0.461 OA
BRANCH   2   3
ATOM      3  C   UNL     1      -4.329   1.015   1.264  1.00  0.00     0.329 C 
ATOM      4  O   UNL     1      -5.228   1.740   1.683  1.00  0.00    -0.250 OA
BRANCH   3   5
ATOM      5  C   UNL     1      -3.024   1.585   0.704  1.00  0.00     0.204 C 
ATOM      6  N   UNL     1      -2.035   0.625   0.189  1.00  0.00    -0.297 N 
ATOM      7  C   UNL     1      -1.705   0.977  -1.116  1.00  0.00     0.048 A 
ATOM      8  C   UNL     1      -0.847   0.310  -1.956  1.00  0.00     0.028 A 
ATOM      9  C   UNL     1      -2.369   2.140  -1.504  1.00  0.00    -0.020 A 
ATOM     10  C   UNL     1      -3.350   2.559  -0.455  1.00  0.00     0.075 C 
ATOM     11  C   UNL     1      -0.617   0.864  -3.205  1.00  0.00     0.024 A 
ATOM     12  C   UNL     1      -2.105   2.732  -2.732  1.00  0.00     0.027 A 
ATOM     13  C   UNL     1      -1.197   2.084  -3.579  1.00  0.00     0.083 A 
BRANCH   6  14
ATOM     14  C   UNL     1      -1.308  -0.257   0.954  1.00  0.00     0.230 C 
ATOM     15  O   UNL     1      -1.631  -1.447   1.026  1.00  0.00    -0.274 OA
BRANCH  14  16
ATOM     16  C   UNL     1       0.037   0.211   1.549  1.00  0.00     0.073 C 
ATOM     17  C   UNL     1       1.206  -0.194   0.648  1.00  0.00     0.018 C 
ATOM     18  C   UNL     1       0.149   1.687   1.914  1.00  0.00     0.018 C 
ENDBRANCH  14  16
ENDBRANCH   6  14
BRANCH  13  19
ATOM     19  S   UNL     1      -0.762   2.818  -5.143  1.00  0.00     0.243 S 
ATOM     20  O   UNL     1      -1.607   2.184  -6.135  1.00  0.00    -0.207 OA
ATOM     21  O   UNL     1      -0.763   4.248  -4.940  1.00  0.00    -0.207 OA
BRANCH  19  22
ATOM     22  N   UNL     1       0.826   2.342  -5.408  1.00  0.00    -0.193 NA
ATOM     23  C   UNL     1       1.179   1.089  -6.114  1.00  0.00     0.131 C 
ATOM     24  C   UNL     1       1.960   3.068  -4.806  1.00  0.00     0.131 C 
ATOM     25  C   UNL     1       2.238   0.262  -5.357  1.00  0.00     0.177 C 
ATOM     26  C   UNL     1       2.832   2.104  -4.004  1.00  0.00     0.177 C 
ATOM     27  O   UNL     1       3.318   1.052  -4.849  1.00  0.00    -0.379 OA
ENDBRANCH  19  22
ENDBRANCH  13  19
ENDBRANCH   3   5
ENDBRANCH   2   3
ENDBRANCH   1   2
BRANCH   1  28
ATOM     28  C   UNL     1      -4.942  -1.277   3.503  1.00  0.00     0.275 C 
BRANCH  28  29
ATOM     29  O   UNL     1      -4.757  -0.083   4.295  1.00  0.00    -0.458 OA
BRANCH  29  30
ATOM     30  C   UNL     1      -3.490   0.379   4.323  1.00  0.00     0.338 C 
ATOM     31  O   UNL     1      -2.510  -0.085   3.762  1.00  0.00    -0.246 OA
BRANCH  30  32
ATOM     32  C   UNL     1      -3.383   1.650   5.044  1.00  0.00     0.060 A 
ATOM     33  C   UNL     1      -3.168   2.797   4.280  1.00  0.00     0.016 A 
ATOM     34  C   UNL     1      -3.193   1.671   6.424  1.00  0.00     0.016 A 
ATOM     35  C   UNL     1      -2.633   3.933   4.865  1.00  0.00     0.010 A 
ATOM     36  C   UNL     1      -2.735   2.848   7.027  1.00  0.00     0.010 A 
ATOM     37  C   UNL     1      -2.397   3.966   6.244  1.00  0.00    -0.014 A 
BRANCH  37  38
ATOM     38  C   UNL     1      -1.730   5.154   6.831  1.00  0.00     0.031 A 
ATOM     39  C   UNL     1      -0.356   5.029   7.432  1.00  0.00     0.074 A 
ATOM     40  C   UNL     1      -2.330   6.357   6.761  1.00  0.00     0.049 A 
ATOM     41  N   UNL     1       0.359   5.933   8.052  1.00  0.00    -0.248 NA
ATOM     42  C   UNL     1       0.299   3.715   7.327  1.00  0.00     0.031 C 
ATOM     43  C   UNL     1      -3.632   6.620   6.142  1.00  0.00     0.029 A 
ATOM     44  N   UNL     1      -1.915   7.587   7.199  1.00  0.00    -0.354 N 
ATOM     45  C   UNL     1       1.525   5.288   8.448  1.00  0.00     0.074 A 
ATOM     46  C   UNL     1       1.419   3.914   8.008  1.00  0.00     0.031 C 
ATOM     47  C   UNL     1      -3.891   7.934   6.208  1.00  0.00     0.029 A 
ATOM     48  C   UNL     1      -2.813   8.592   6.936  1.00  0.00     0.049 A 
ATOM     49  H   UNL     1      -1.057   7.736   7.657  1.00  0.00     0.167 HD
ATOM     50  C   UNL     1       2.586   5.796   9.121  1.00  0.00     0.031 A 
ATOM     51  C   UNL     1      -2.786   9.895   7.270  1.00  0.00     0.031 A 
ATOM     52  C   UNL     1       2.695   7.168   9.540  1.00  0.00     0.049 A 
ATOM     53  C   UNL     1      -1.619  10.422   8.052  1.00  0.00     0.074 A 
ATOM     54  C   UNL     1       3.724   7.781  10.235  1.00  0.00     0.029 A 
ATOM     55  N   UNL     1       1.745   8.146   9.288  1.00  0.00    -0.354 N 
ATOM     56  N   UNL     1      -0.546   9.790   8.461  1.00  0.00    -0.248 NA
ATOM     57  C   UNL     1      -1.663  11.843   8.421  1.00  0.00     0.031 C 
ATOM     58  C   UNL     1       3.377   9.122  10.437  1.00  0.00     0.029 A 
ATOM     59  C   UNL     1       2.158   9.356   9.821  1.00  0.00     0.049 A 
ATOM     60  H   UNL     1       0.901   8.002   8.803  1.00  0.00     0.167 HD
ATOM     61  C   UNL     1       0.226  10.742   9.113  1.00  0.00     0.074 A 
ATOM     62  C   UNL     1      -0.496  11.995   9.031  1.00  0.00     0.031 C 
ATOM     63  C   UNL     1       1.426  10.592   9.724  1.00  0.00     0.031 A 
BRANCH  50  64
ATOM     64  C   UNL     1       3.693   4.845   9.484  1.00  0.00    -0.014 A 
ATOM     65  C   UNL     1       4.578   4.342   8.518  1.00  0.00     0.009 A 
ATOM     66  C   UNL     1       3.865   4.463  10.825  1.00  0.00     0.009 A 
ATOM     67  C   UNL     1       5.589   3.449   8.882  1.00  0.00     0.001 A 
ATOM     68  C   UNL     1       4.892   3.592  11.190  1.00  0.00     0.001 A 
ATOM     69  C   UNL     1       5.747   3.077  10.217  1.00  0.00     0.000 A 
ENDBRANCH  50  64
BRANCH  51  70
ATOM     70  C   UNL     1      -3.913  10.782   6.882  1.00  0.00    -0.014 A 
ATOM     71  C   UNL     1      -3.737  11.775   5.908  1.00  0.00     0.009 A 
ATOM     72  C   UNL     1      -5.174  10.631   7.480  1.00  0.00     0.009 A 
ATOM     73  C   UNL     1      -4.797  12.612   5.554  1.00  0.00     0.001 A 
ATOM     74  C   UNL     1      -6.240  11.449   7.102  1.00  0.00     0.001 A 
ATOM     75  C   UNL     1      -6.048  12.445   6.147  1.00  0.00     0.000 A 
ENDBRANCH  51  70
BRANCH  63  76
ATOM     76  C   UNL     1       2.050  11.828  10.304  1.00  0.00    -0.014 A 
ATOM     77  C   UNL     1       1.555  12.416  11.478  1.00  0.00     0.009 A 
ATOM     78  C   UNL     1       3.162  12.402   9.669  1.00  0.00     0.009 A 
ATOM     79  C   UNL     1       2.138  13.581  11.981  1.00  0.00     0.001 A 
ATOM     80  C   UNL     1       3.760  13.550  10.190  1.00  0.00     0.001 A 
ATOM     81  C   UNL     1       3.240  14.145  11.339  1.00  0.00     0.000 A 
ENDBRANCH  63  76
ENDBRANCH  37  38
ENDBRANCH  30  32
ENDBRANCH  29  30
ENDBRANCH  28  29
ENDBRANCH   1  28
TORSDOF 15
