REMARK SMILES Nc1ccc(O)c(C(=O)OCCOC(=O)c2ccc(-c3c4nc(c(-c5ccccc5)c5ccc([nH]5)c(-c5ccccc5)c5nc(c(-c6ccccc6)c6ccc3[nH]6)C=C5)C=C4)cc2)c1
REMARK SMILES IDX 12 1 11 2 10 3 8 4 9 5 7 6 2 7 3 8 64 9 4 10 5 11 1 12 6 15
REMARK SMILES IDX 13 17 14 18 15 19 16 20 17 21 63 22 18 23 62 24 19 25 20 26
REMARK SMILES IDX 21 27 56 28 22 29 61 30 55 31 57 32 23 33 60 34 54 35 53 36
REMARK SMILES IDX 24 38 46 39 31 40 45 41 32 42 35 43 44 44 58 45 33 46 34 47
REMARK SMILES IDX 43 49 59 50 36 51 25 52 26 53 30 54 27 55 29 56 28 57 47 58
REMARK SMILES IDX 48 59 52 60 49 61 51 62 50 63 37 64 38 65 42 66 39 67 41 68
REMARK SMILES IDX 40 69
REMARK H PARENT 1 13 1 14 6 16 57 37 35 48
REMARK Flexibility Score: inf
ROOT
ATOM      1  C   UNL     1       2.187  -4.900  -1.059  1.00  0.00     0.275 C 
ENDROOT
BRANCH   1   2
ATOM      2  C   UNL     1       1.135  -4.622   0.019  1.00  0.00     0.275 C 
BRANCH   2   3
ATOM      3  O   UNL     1       0.367  -3.431  -0.262  1.00  0.00    -0.458 OA
BRANCH   3   4
ATOM      4  C   UNL     1       0.716  -2.330   0.444  1.00  0.00     0.342 C 
ATOM      5  O   UNL     1       1.628  -2.254   1.254  1.00  0.00    -0.246 OA
BRANCH   4   6
ATOM      6  C   UNL     1      -0.161  -1.190   0.113  1.00  0.00     0.103 A 
ATOM      7  C   UNL     1      -2.373  -0.191   0.185  1.00  0.00     0.032 A 
ATOM      8  C   UNL     1      -1.799   1.061  -0.056  1.00  0.00     0.029 A 
ATOM      9  C   UNL     1      -1.540  -1.307   0.324  1.00  0.00     0.045 A 
ATOM     10  C   UNL     1      -0.432   1.183  -0.287  1.00  0.00     0.049 A 
ATOM     11  C   UNL     1       0.371   0.051  -0.248  1.00  0.00     0.130 A 
BRANCH   7  12
ATOM     12  N   UNL     1      -3.734  -0.291   0.431  1.00  0.00    -0.399 N 
ATOM     13  H   UNL     1      -4.312   0.499   0.331  1.00  0.00     0.156 HD
ATOM     14  H   UNL     1      -4.122  -1.153   0.707  1.00  0.00     0.156 HD
ENDBRANCH   7  12
BRANCH  11  15
ATOM     15  O   UNL     1       1.663   0.234  -0.635  1.00  0.00    -0.507 OA
ATOM     16  H   UNL     1       1.966   1.090  -0.867  1.00  0.00     0.293 HD
ENDBRANCH  11  15
ENDBRANCH   4   6
ENDBRANCH   3   4
ENDBRANCH   2   3
ENDBRANCH   1   2
BRANCH   1  17
ATOM     17  O   UNL     1       3.331  -4.032  -0.939  1.00  0.00    -0.458 OA
BRANCH  17  18
ATOM     18  C   UNL     1       3.278  -2.918  -1.697  1.00  0.00     0.338 C 
ATOM     19  O   UNL     1       2.376  -2.559  -2.437  1.00  0.00    -0.246 OA
BRANCH  18  20
ATOM     20  C   UNL     1       4.422  -2.036  -1.434  1.00  0.00     0.060 A 
ATOM     21  C   UNL     1       4.275  -1.112  -0.407  1.00  0.00     0.016 A 
ATOM     22  C   UNL     1       5.452  -1.896  -2.364  1.00  0.00     0.016 A 
ATOM     23  C   UNL     1       5.049   0.040  -0.402  1.00  0.00     0.010 A 
ATOM     24  C   UNL     1       6.325  -0.802  -2.265  1.00  0.00     0.010 A 
ATOM     25  C   UNL     1       6.101   0.210  -1.313  1.00  0.00    -0.014 A 
BRANCH  25  26
ATOM     26  C   UNL     1       6.918   1.458  -1.269  1.00  0.00     0.031 A 
ATOM     27  C   UNL     1       7.063   2.339  -2.486  1.00  0.00     0.074 A 
ATOM     28  C   UNL     1       7.492   1.846  -0.111  1.00  0.00     0.049 A 
ATOM     29  N   UNL     1       7.856   3.366  -2.670  1.00  0.00    -0.248 NA
ATOM     30  C   UNL     1       6.220   2.023  -3.651  1.00  0.00     0.031 C 
ATOM     31  C   UNL     1       7.394   1.135   1.167  1.00  0.00     0.029 A 
ATOM     32  N   UNL     1       8.246   2.954   0.189  1.00  0.00    -0.354 N 
ATOM     33  C   UNL     1       7.660   3.772  -3.985  1.00  0.00     0.074 A 
ATOM     34  C   UNL     1       6.664   2.889  -4.553  1.00  0.00     0.031 C 
ATOM     35  C   UNL     1       7.989   1.860   2.123  1.00  0.00     0.029 A 
ATOM     36  C   UNL     1       8.615   3.024   1.511  1.00  0.00     0.049 A 
ATOM     37  H   UNL     1       8.499   3.631  -0.479  1.00  0.00     0.167 HD
ATOM     38  C   UNL     1       8.263   4.781  -4.659  1.00  0.00     0.031 A 
ATOM     39  C   UNL     1       9.407   3.896   2.161  1.00  0.00     0.031 A 
ATOM     40  C   UNL     1       9.209   5.699  -4.079  1.00  0.00     0.049 A 
ATOM     41  C   UNL     1      10.077   4.991   1.390  1.00  0.00     0.074 A 
ATOM     42  C   UNL     1       9.880   6.747  -4.687  1.00  0.00     0.029 A 
ATOM     43  N   UNL     1       9.594   5.698  -2.748  1.00  0.00    -0.354 N 
ATOM     44  N   UNL     1       9.964   5.292   0.120  1.00  0.00    -0.248 NA
ATOM     45  C   UNL     1      11.011   5.846   2.136  1.00  0.00     0.031 C 
ATOM     46  C   UNL     1      10.695   7.361  -3.730  1.00  0.00     0.029 A 
ATOM     47  C   UNL     1      10.498   6.722  -2.518  1.00  0.00     0.049 A 
ATOM     48  H   UNL     1       9.273   5.064  -2.067  1.00  0.00     0.167 HD
ATOM     49  C   UNL     1      10.816   6.366  -0.088  1.00  0.00     0.074 A 
ATOM     50  C   UNL     1      11.414   6.685   1.193  1.00  0.00     0.031 C 
ATOM     51  C   UNL     1      11.091   7.019  -1.242  1.00  0.00     0.031 A 
BRANCH  38  52
ATOM     52  C   UNL     1       7.956   4.924  -6.124  1.00  0.00    -0.014 A 
ATOM     53  C   UNL     1       6.749   5.477  -6.576  1.00  0.00     0.009 A 
ATOM     54  C   UNL     1       8.928   4.551  -7.068  1.00  0.00     0.009 A 
ATOM     55  C   UNL     1       6.513   5.631  -7.945  1.00  0.00     0.001 A 
ATOM     56  C   UNL     1       8.699   4.728  -8.433  1.00  0.00     0.001 A 
ATOM     57  C   UNL     1       7.489   5.262  -8.871  1.00  0.00     0.000 A 
ENDBRANCH  38  52
BRANCH  39  58
ATOM     58  C   UNL     1       9.668   3.712   3.612  1.00  0.00    -0.014 A 
ATOM     59  C   UNL     1       9.150   4.614   4.553  1.00  0.00     0.009 A 
ATOM     60  C   UNL     1      10.422   2.616   4.064  1.00  0.00     0.009 A 
ATOM     61  C   UNL     1       9.389   4.425   5.916  1.00  0.00     0.001 A 
ATOM     62  C   UNL     1      10.631   2.412   5.428  1.00  0.00     0.001 A 
ATOM     63  C   UNL     1      10.120   3.321   6.353  1.00  0.00     0.000 A 
ENDBRANCH  39  58
BRANCH  51  64
ATOM     64  C   UNL     1      12.070   8.152  -1.159  1.00  0.00    -0.014 A 
ATOM     65  C   UNL     1      13.447   7.906  -1.047  1.00  0.00     0.009 A 
ATOM     66  C   UNL     1      11.611   9.476  -1.203  1.00  0.00     0.009 A 
ATOM     67  C   UNL     1      14.346   8.970  -0.948  1.00  0.00     0.001 A 
ATOM     68  C   UNL     1      12.514  10.537  -1.124  1.00  0.00     0.001 A 
ATOM     69  C   UNL     1      13.879  10.283  -0.989  1.00  0.00     0.000 A 
ENDBRANCH  51  64
ENDBRANCH  25  26
ENDBRANCH  18  20
ENDBRANCH  17  18
ENDBRANCH   1  17
TORSDOF 13
