REMARK SMILES COC(=O)c1ccc(C)c2c1[C@H]1C=CC[C@H]1[C@@H](c1ccc(C(=O)OCCOC(=O)c3ccc(-c4c5nc(c(-c6ccccc6)c6ccc([nH]6)c(-c6ccccc6)c6nc(c(-c7ccccc7)c7ccc4[nH]7)C=C6)C=C5)cc3)cc1)N2
REMARK SMILES IDX 25 1 24 2 22 3 23 4 21 5 18 6 19 7 79 8 20 9 78 10 17 11
REMARK SMILES IDX 5 12 6 13 11 14 7 15 10 16 12 17 8 18 80 19 13 20 16 21 9 22
REMARK SMILES IDX 14 24 15 25 3 26 4 27 2 28 1 29 26 30 27 31 28 32 29 33
REMARK SMILES IDX 30 34 31 35 77 36 32 37 76 38 33 39 34 40 35 41 70 42 36 43
REMARK SMILES IDX 75 44 69 45 71 46 37 47 74 48 68 49 67 50 38 52 60 53 45 54
REMARK SMILES IDX 59 55 46 56 49 57 58 58 72 59 47 60 48 61 57 63 73 64 50 65
REMARK SMILES IDX 39 66 40 67 44 68 41 69 43 70 42 71 61 72 62 73 66 74 63 75
REMARK SMILES IDX 65 76 64 77 51 78 52 79 56 80 53 81 55 82 54 83
REMARK H PARENT 80 23 71 51 49 62
REMARK Flexibility Score: inf
ROOT
ATOM      1  C   UNL     1       6.051  -4.720  -3.296  1.00  0.00     0.275 C 
ENDROOT
BRANCH   1   2
ATOM      2  O   UNL     1       5.739  -3.773  -4.334  1.00  0.00    -0.458 OA
BRANCH   2   3
ATOM      3  C   UNL     1       4.596  -3.998  -5.034  1.00  0.00     0.338 C 
ATOM      4  O   UNL     1       3.848  -4.947  -4.916  1.00  0.00    -0.246 OA
BRANCH   3   5
ATOM      5  C   UNL     1       4.284  -2.803  -5.859  1.00  0.00     0.060 A 
ATOM      6  C   UNL     1       3.550  -0.260  -6.831  1.00  0.00    -0.025 A 
ATOM      7  C   UNL     1       2.582  -1.242  -6.553  1.00  0.00     0.007 A 
ATOM      8  C   UNL     1       4.891  -0.680  -6.844  1.00  0.00     0.007 A 
ATOM      9  C   UNL     1       2.942  -2.506  -6.082  1.00  0.00     0.016 A 
ATOM     10  C   UNL     1       5.264  -1.923  -6.318  1.00  0.00     0.016 A 
BRANCH   6  11
ATOM     11  C   UNL     1       3.199   1.230  -7.018  1.00  0.00     0.114 C 
ATOM     12  C   UNL     1       0.568   1.562  -3.670  1.00  0.00     0.065 A 
ATOM     13  C   UNL     1      -0.785   1.267  -3.824  1.00  0.00     0.016 A 
ATOM     14  C   UNL     1       1.430   1.626  -4.788  1.00  0.00    -0.003 A 
ATOM     15  C   UNL     1      -1.299   1.053  -5.099  1.00  0.00     0.006 A 
ATOM     16  C   UNL     1       0.904   1.415  -6.087  1.00  0.00     0.042 A 
ATOM     17  C   UNL     1       2.872   2.040  -4.617  1.00  0.00     0.050 C 
ATOM     18  C   UNL     1      -0.478   1.152  -6.238  1.00  0.00    -0.028 A 
ATOM     19  N   UNL     1       1.757   1.418  -7.191  1.00  0.00    -0.377 N 
ATOM     20  C   UNL     1       3.806   1.098  -3.909  1.00  0.00    -0.023 C 
ATOM     21  C   UNL     1       3.644   2.258  -5.930  1.00  0.00     0.031 C 
ATOM     22  C   UNL     1      -1.147   0.920  -7.568  1.00  0.00     0.046 C 
ATOM     23  H   UNL     1       1.387   1.548  -8.094  1.00  0.00     0.161 HD
ATOM     24  C   UNL     1       5.062   1.239  -4.350  1.00  0.00    -0.030 C 
ATOM     25  C   UNL     1       5.114   2.212  -5.483  1.00  0.00     0.034 C 
BRANCH  12  26
ATOM     26  C   UNL     1       1.044   1.926  -2.319  1.00  0.00     0.338 C 
ATOM     27  O   UNL     1       0.920   3.039  -1.839  1.00  0.00    -0.246 OA
BRANCH  26  28
ATOM     28  O   UNL     1       1.641   0.850  -1.760  1.00  0.00    -0.465 OA
ATOM     29  C   UNL     1       2.386   1.078  -0.557  1.00  0.00     0.282 C 
ENDBRANCH  26  28
ENDBRANCH  12  26
ENDBRANCH   6  11
ENDBRANCH   3   5
ENDBRANCH   2   3
ENDBRANCH   1   2
BRANCH   1  30
ATOM     30  C   UNL     1       5.809  -4.114  -1.912  1.00  0.00     0.275 C 
BRANCH  30  31
ATOM     31  O   UNL     1       4.402  -3.936  -1.652  1.00  0.00    -0.458 OA
BRANCH  31  32
ATOM     32  C   UNL     1       3.957  -2.661  -1.732  1.00  0.00     0.338 C 
ATOM     33  O   UNL     1       4.614  -1.663  -1.974  1.00  0.00    -0.246 OA
BRANCH  32  34
ATOM     34  C   UNL     1       2.499  -2.615  -1.528  1.00  0.00     0.060 A 
ATOM     35  C   UNL     1       1.696  -2.239  -2.604  1.00  0.00     0.016 A 
ATOM     36  C   UNL     1       1.937  -2.794  -0.261  1.00  0.00     0.016 A 
ATOM     37  C   UNL     1       0.330  -2.026  -2.421  1.00  0.00     0.010 A 
ATOM     38  C   UNL     1       0.566  -2.563  -0.073  1.00  0.00     0.010 A 
ATOM     39  C   UNL     1      -0.241  -2.152  -1.147  1.00  0.00    -0.014 A 
BRANCH  39  40
ATOM     40  C   UNL     1      -1.682  -1.852  -0.968  1.00  0.00     0.031 A 
ATOM     41  C   UNL     1      -2.147  -0.488  -0.546  1.00  0.00     0.074 A 
ATOM     42  C   UNL     1      -2.593  -2.791  -1.269  1.00  0.00     0.049 A 
ATOM     43  N   UNL     1      -3.350   0.027  -0.599  1.00  0.00    -0.248 NA
ATOM     44  C   UNL     1      -1.126   0.438  -0.051  1.00  0.00     0.031 C 
ATOM     45  C   UNL     1      -2.291  -4.142  -1.734  1.00  0.00     0.029 A 
ATOM     46  N   UNL     1      -3.962  -2.743  -1.222  1.00  0.00    -0.354 N 
ATOM     47  C   UNL     1      -3.202   1.363  -0.248  1.00  0.00     0.074 A 
ATOM     48  C   UNL     1      -1.805   1.573   0.055  1.00  0.00     0.031 C 
ATOM     49  C   UNL     1      -3.444  -4.807  -1.907  1.00  0.00     0.029 A 
ATOM     50  C   UNL     1      -4.559  -3.931  -1.550  1.00  0.00     0.049 A 
ATOM     51  H   UNL     1      -4.467  -1.934  -0.977  1.00  0.00     0.167 HD
ATOM     52  C   UNL     1      -4.149   2.327  -0.181  1.00  0.00     0.031 A 
ATOM     53  C   UNL     1      -5.858  -4.283  -1.540  1.00  0.00     0.031 A 
ATOM     54  C   UNL     1      -5.560   2.078  -0.285  1.00  0.00     0.049 A 
ATOM     55  C   UNL     1      -6.901  -3.262  -1.187  1.00  0.00     0.074 A 
ATOM     56  C   UNL     1      -6.605   2.975  -0.150  1.00  0.00     0.029 A 
ATOM     57  N   UNL     1      -6.122   0.826  -0.465  1.00  0.00    -0.354 N 
ATOM     58  N   UNL     1      -6.751  -1.979  -0.965  1.00  0.00    -0.248 NA
ATOM     59  C   UNL     1      -8.289  -3.734  -1.080  1.00  0.00     0.031 C 
ATOM     60  C   UNL     1      -7.800   2.248  -0.156  1.00  0.00     0.029 A 
ATOM     61  C   UNL     1      -7.498   0.911  -0.362  1.00  0.00     0.049 A 
ATOM     62  H   UNL     1      -5.617  -0.001  -0.641  1.00  0.00     0.167 HD
ATOM     63  C   UNL     1      -8.023  -1.486  -0.708  1.00  0.00     0.074 A 
ATOM     64  C   UNL     1      -8.935  -2.608  -0.801  1.00  0.00     0.031 C 
ATOM     65  C   UNL     1      -8.396  -0.213  -0.431  1.00  0.00     0.031 A 
BRANCH  52  66
ATOM     66  C   UNL     1      -3.699   3.734   0.072  1.00  0.00    -0.014 A 
ATOM     67  C   UNL     1      -3.226   4.526  -0.986  1.00  0.00     0.009 A 
ATOM     68  C   UNL     1      -3.823   4.300   1.349  1.00  0.00     0.009 A 
ATOM     69  C   UNL     1      -2.885   5.862  -0.767  1.00  0.00     0.001 A 
ATOM     70  C   UNL     1      -3.487   5.638   1.562  1.00  0.00     0.001 A 
ATOM     71  C   UNL     1      -3.019   6.418   0.505  1.00  0.00     0.000 A 
ENDBRANCH  52  66
BRANCH  53  72
ATOM     72  C   UNL     1      -6.216  -5.689  -1.840  1.00  0.00    -0.014 A 
ATOM     73  C   UNL     1      -6.785  -6.040  -3.071  1.00  0.00     0.009 A 
ATOM     74  C   UNL     1      -5.915  -6.700  -0.912  1.00  0.00     0.009 A 
ATOM     75  C   UNL     1      -7.038  -7.381  -3.370  1.00  0.00     0.001 A 
ATOM     76  C   UNL     1      -6.152  -8.040  -1.221  1.00  0.00     0.001 A 
ATOM     77  C   UNL     1      -6.713  -8.379  -2.450  1.00  0.00     0.000 A 
ENDBRANCH  53  72
BRANCH  65  78
ATOM     78  C   UNL     1      -9.851   0.060  -0.192  1.00  0.00    -0.014 A 
ATOM     79  C   UNL     1     -10.446  -0.253   1.039  1.00  0.00     0.009 A 
ATOM     80  C   UNL     1     -10.599   0.752  -1.158  1.00  0.00     0.009 A 
ATOM     81  C   UNL     1     -11.766   0.123   1.297  1.00  0.00     0.001 A 
ATOM     82  C   UNL     1     -11.910   1.144  -0.888  1.00  0.00     0.001 A 
ATOM     83  C   UNL     1     -12.493   0.829   0.338  1.00  0.00     0.000 A 
ENDBRANCH  65  78
ENDBRANCH  39  40
ENDBRANCH  32  34
ENDBRANCH  31  32
ENDBRANCH  30  31
ENDBRANCH   1  30
TORSDOF 14
