REMARK SMILES CC[C@@](O)(C(=O)OCCOC(=O)c1ccc(-c2c3nc(c(-c4ccccc4)c4ccc([nH]4)c(-c4ccccc4)c4nc(c(-c5ccccc5)c5ccc2[nH]5)C=C4)C=C3)cc1)[C@@H](c1ccccc1)C(C)C
REMARK SMILES IDX 8 1 7 2 5 3 6 4 3 5 2 6 1 7 4 8 61 10 62 11 63 12 67 13
REMARK SMILES IDX 64 14 66 15 65 16 68 17 69 18 70 19 9 20 10 21 11 22 12 23
REMARK SMILES IDX 13 24 14 25 60 26 15 27 59 28 16 29 17 30 18 31 53 32 19 33
REMARK SMILES IDX 58 34 52 35 54 36 20 37 57 38 51 39 50 40 21 42 43 43 28 44
REMARK SMILES IDX 42 45 29 46 32 47 41 48 55 49 30 50 31 51 40 53 56 54 33 55
REMARK SMILES IDX 22 56 23 57 27 58 24 59 26 60 25 61 44 62 45 63 49 64 46 65
REMARK SMILES IDX 48 66 47 67 34 68 35 69 39 70 36 71 38 72 37 73
REMARK H PARENT 4 9 54 41 32 52
REMARK Flexibility Score: inf
ROOT
ATOM      1  C   UNL     1      -1.148  -2.751   4.245  1.00  0.00     0.274 C 
ENDROOT
BRANCH   1   2
ATOM      2  O   UNL     1      -0.641  -2.077   3.069  1.00  0.00    -0.460 OA
BRANCH   2   3
ATOM      3  C   UNL     1       0.407  -1.227   3.277  1.00  0.00     0.338 C 
ATOM      4  O   UNL     1       0.923  -1.044   4.376  1.00  0.00    -0.249 OA
BRANCH   3   5
ATOM      5  C   UNL     1       0.811  -0.427   1.999  1.00  0.00     0.168 C 
BRANCH   5   6
ATOM      6  C   UNL     1      -0.103  -0.683   0.780  1.00  0.00     0.044 C 
ATOM      7  C   UNL     1       0.249   0.131  -0.458  1.00  0.00     0.007 C 
ENDBRANCH   5   6
BRANCH   5   8
ATOM      8  O   UNL     1       0.507   0.920   2.435  1.00  0.00    -0.378 OA
ATOM      9  H   UNL     1      -0.450   1.006   2.573  1.00  0.00     0.212 HD
ENDBRANCH   5   8
BRANCH   5  10
ATOM     10  C   UNL     1       2.382  -0.621   1.756  1.00  0.00     0.065 C 
BRANCH  10  11
ATOM     11  C   UNL     1       2.768  -1.910   0.947  1.00  0.00    -0.041 A 
ATOM     12  C   UNL     1       2.036  -3.106   1.063  1.00  0.00     0.004 A 
ATOM     13  C   UNL     1       3.922  -1.982   0.139  1.00  0.00     0.004 A 
ATOM     14  C   UNL     1       2.417  -4.288   0.410  1.00  0.00     0.000 A 
ATOM     15  C   UNL     1       4.319  -3.165  -0.500  1.00  0.00     0.000 A 
ATOM     16  C   UNL     1       3.564  -4.319  -0.367  1.00  0.00     0.000 A 
ENDBRANCH  10  11
BRANCH  10  17
ATOM     17  C   UNL     1       3.242   0.653   1.324  1.00  0.00    -0.006 C 
ATOM     18  C   UNL     1       2.698   2.061   1.585  1.00  0.00     0.008 C 
ATOM     19  C   UNL     1       4.629   0.619   2.016  1.00  0.00     0.008 C 
ENDBRANCH  10  17
ENDBRANCH   5  10
ENDBRANCH   3   5
ENDBRANCH   2   3
ENDBRANCH   1   2
BRANCH   1  20
ATOM     20  C   UNL     1      -0.583  -4.167   4.353  1.00  0.00     0.275 C 
BRANCH  20  21
ATOM     21  O   UNL     1       0.845  -4.092   4.462  1.00  0.00    -0.458 OA
BRANCH  21  22
ATOM     22  C   UNL     1       1.530  -5.181   4.040  1.00  0.00     0.338 C 
ATOM     23  O   UNL     1       1.046  -6.246   3.697  1.00  0.00    -0.246 OA
BRANCH  22  24
ATOM     24  C   UNL     1       2.984  -4.874   3.976  1.00  0.00     0.060 A 
ATOM     25  C   UNL     1       3.450  -3.557   3.987  1.00  0.00     0.016 A 
ATOM     26  C   UNL     1       3.897  -5.918   3.797  1.00  0.00     0.016 A 
ATOM     27  C   UNL     1       4.791  -3.278   3.728  1.00  0.00     0.010 A 
ATOM     28  C   UNL     1       5.261  -5.639   3.641  1.00  0.00     0.010 A 
ATOM     29  C   UNL     1       5.722  -4.314   3.581  1.00  0.00    -0.014 A 
BRANCH  29  30
ATOM     30  C   UNL     1       7.170  -4.014   3.402  1.00  0.00     0.031 A 
ATOM     31  C   UNL     1       7.927  -4.513   2.199  1.00  0.00     0.074 A 
ATOM     32  C   UNL     1       7.828  -3.298   4.337  1.00  0.00     0.049 A 
ATOM     33  N   UNL     1       9.216  -4.482   1.961  1.00  0.00    -0.248 NA
ATOM     34  C   UNL     1       7.135  -5.123   1.120  1.00  0.00     0.031 C 
ATOM     35  C   UNL     1       7.228  -2.701   5.532  1.00  0.00     0.029 A 
ATOM     36  N   UNL     1       9.157  -2.963   4.434  1.00  0.00    -0.354 N 
ATOM     37  C   UNL     1       9.389  -5.076   0.717  1.00  0.00     0.074 A 
ATOM     38  C   UNL     1       8.077  -5.477   0.255  1.00  0.00     0.031 C 
ATOM     39  C   UNL     1       8.177  -2.064   6.232  1.00  0.00     0.029 A 
ATOM     40  C   UNL     1       9.466  -2.287   5.589  1.00  0.00     0.049 A 
ATOM     41  H   UNL     1       9.823  -3.185   3.743  1.00  0.00     0.167 HD
ATOM     42  C   UNL     1      10.535  -5.271   0.021  1.00  0.00     0.031 A 
ATOM     43  C   UNL     1      10.653  -1.938   6.119  1.00  0.00     0.031 A 
ATOM     44  C   UNL     1      11.847  -4.896   0.479  1.00  0.00     0.049 A 
ATOM     45  C   UNL     1      11.918  -2.301   5.404  1.00  0.00     0.074 A 
ATOM     46  C   UNL     1      13.064  -5.059  -0.162  1.00  0.00     0.029 A 
ATOM     47  N   UNL     1      12.115  -4.293   1.697  1.00  0.00    -0.354 N 
ATOM     48  N   UNL     1      12.069  -2.888   4.243  1.00  0.00    -0.248 NA
ATOM     49  C   UNL     1      13.178  -1.973   6.085  1.00  0.00     0.031 C 
ATOM     50  C   UNL     1      14.075  -4.605   0.694  1.00  0.00     0.029 A 
ATOM     51  C   UNL     1      13.481  -4.114   1.845  1.00  0.00     0.049 A 
ATOM     52  H   UNL     1      11.435  -4.031   2.359  1.00  0.00     0.167 HD
ATOM     53  C   UNL     1      13.439  -2.992   4.049  1.00  0.00     0.074 A 
ATOM     54  C   UNL     1      14.075  -2.393   5.204  1.00  0.00     0.031 C 
ATOM     55  C   UNL     1      14.108  -3.537   3.004  1.00  0.00     0.031 A 
BRANCH  42  56
ATOM     56  C   UNL     1      10.428  -5.960  -1.309  1.00  0.00    -0.014 A 
ATOM     57  C   UNL     1       9.962  -5.279  -2.444  1.00  0.00     0.009 A 
ATOM     58  C   UNL     1      10.854  -7.291  -1.440  1.00  0.00     0.009 A 
ATOM     59  C   UNL     1       9.905  -5.925  -3.681  1.00  0.00     0.001 A 
ATOM     60  C   UNL     1      10.814  -7.928  -2.681  1.00  0.00     0.001 A 
ATOM     61  C   UNL     1      10.335  -7.247  -3.799  1.00  0.00     0.000 A 
ENDBRANCH  42  56
BRANCH  43  62
ATOM     62  C   UNL     1      10.691  -1.278   7.449  1.00  0.00    -0.014 A 
ATOM     63  C   UNL     1      11.047   0.072   7.570  1.00  0.00     0.009 A 
ATOM     64  C   UNL     1      10.343  -2.000   8.603  1.00  0.00     0.009 A 
ATOM     65  C   UNL     1      11.058   0.685   8.825  1.00  0.00     0.001 A 
ATOM     66  C   UNL     1      10.328  -1.376   9.851  1.00  0.00     0.001 A 
ATOM     67  C   UNL     1      10.691  -0.036   9.961  1.00  0.00     0.000 A 
ENDBRANCH  43  62
BRANCH  55  68
ATOM     68  C   UNL     1      15.607  -3.494   3.059  1.00  0.00    -0.014 A 
ATOM     69  C   UNL     1      16.324  -4.357   3.902  1.00  0.00     0.009 A 
ATOM     70  C   UNL     1      16.309  -2.591   2.247  1.00  0.00     0.009 A 
ATOM     71  C   UNL     1      17.718  -4.293   3.952  1.00  0.00     0.001 A 
ATOM     72  C   UNL     1      17.704  -2.547   2.283  1.00  0.00     0.001 A 
ATOM     73  C   UNL     1      18.406  -3.391   3.141  1.00  0.00     0.000 A 
ENDBRANCH  55  68
ENDBRANCH  29  30
ENDBRANCH  22  24
ENDBRANCH  21  22
ENDBRANCH  20  21
ENDBRANCH   1  20
TORSDOF 16
