REMARK SMILES Cc1cc(/C=C2\C(=O)N(Cc3ccco3)C(=O)N=C2OCCOC(=O)c2ccc(-c3c4nc(c(-c5ccccc5)c5ccc([nH]5)c(-c5ccccc5)c5nc(c(-c6ccccc6)c6ccc3[nH]6)C=C5)C=C4)cc2)c(C)n1-c1ccc(Cl)c(C(=O)[O-])c1
REMARK SMILES IDX 21 1 20 2 19 3 5 4 6 5 7 6 8 7 9 8 18 9 16 10 17 11 4 12
REMARK SMILES IDX 1 13 2 14 3 15 76 16 74 17 75 18 77 19 78 20 86 21 79 22
REMARK SMILES IDX 82 23 80 24 81 25 83 26 84 27 85 28 10 29 11 30 12 31 15 32
REMARK SMILES IDX 13 33 14 34 22 35 23 36 24 37 25 38 26 39 27 40 73 41 28 42
REMARK SMILES IDX 72 43 29 44 30 45 31 46 66 47 32 48 71 49 65 50 67 51 33 52
REMARK SMILES IDX 70 53 64 54 63 55 34 57 56 58 41 59 55 60 42 61 45 62 54 63
REMARK SMILES IDX 68 64 43 65 44 66 53 68 69 69 46 70 35 71 36 72 40 73 37 74
REMARK SMILES IDX 39 75 38 76 57 77 58 78 62 79 59 80 61 81 60 82 47 83 48 84
REMARK SMILES IDX 52 85 49 86 51 87 50 88
REMARK H PARENT 67 56 45 67
REMARK Flexibility Score: inf
ROOT
ATOM      1  C   UNL     1      -0.401  -9.447  -0.411  1.00  0.00     0.273 C 
ENDROOT
BRANCH   1   2
ATOM      2  O   UNL     1       0.055  -8.027  -0.463  1.00  0.00    -0.473 OA
BRANCH   2   3
ATOM      3  C   UNL     1      -0.296  -7.402  -1.606  1.00  0.00     0.231 C 
ATOM      4  C   UNL     1       0.286  -5.014  -0.843  1.00  0.00     0.029 C 
ATOM      5  C   UNL     1      -0.085  -5.932  -1.775  1.00  0.00     0.103 C 
ATOM      6  C   UNL     1      -0.442  -5.539  -3.176  1.00  0.00     0.267 C 
ATOM      7  O   UNL     1       0.192  -4.709  -3.818  1.00  0.00    -0.268 OA
ATOM      8  N   UNL     1      -1.537  -6.234  -3.640  1.00  0.00    -0.250 N 
ATOM      9  N   UNL     1      -0.885  -8.139  -2.465  1.00  0.00    -0.156 NA
ATOM     10  C   UNL     1      -1.728  -7.570  -3.356  1.00  0.00     0.354 C 
ATOM     11  O   UNL     1      -2.641  -8.225  -3.803  1.00  0.00    -0.245 OA
BRANCH   4  12
ATOM     12  C   UNL     1       0.239  -3.544  -0.871  1.00  0.00    -0.003 A 
ATOM     13  C   UNL     1       1.225  -0.060   0.183  1.00  0.00     0.065 C 
ATOM     14  C   UNL     1       0.692  -1.331  -0.400  1.00  0.00     0.020 A 
ATOM     15  C   UNL     1       1.100  -2.644  -0.167  1.00  0.00     0.031 A 
ATOM     16  N   UNL     1      -0.423  -1.386  -1.216  1.00  0.00    -0.318 N 
ATOM     17  C   UNL     1      -0.721  -2.728  -1.468  1.00  0.00     0.027 A 
ATOM     18  C   UNL     1      -1.845  -3.090  -2.365  1.00  0.00     0.065 C 
BRANCH  16  19
ATOM     19  C   UNL     1      -1.156  -0.286  -1.761  1.00  0.00     0.046 A 
ATOM     20  C   UNL     1      -2.538  -0.223  -1.564  1.00  0.00     0.028 A 
ATOM     21  C   UNL     1      -0.540   0.590  -2.666  1.00  0.00     0.038 A 
ATOM     22  C   UNL     1      -3.318   0.619  -2.355  1.00  0.00     0.023 A 
ATOM     23  C   UNL     1      -1.322   1.475  -3.446  1.00  0.00     0.018 A 
ATOM     24  C   UNL     1      -2.721   1.453  -3.308  1.00  0.00     0.050 A 
ATOM     25  Cl  UNL     1      -3.815   2.374  -4.281  1.00  0.00    -0.084 Cl
BRANCH  23  26
ATOM     26  C   UNL     1      -0.656   2.380  -4.428  1.00  0.00     0.073 C 
ATOM     27  O   UNL     1      -1.169   3.173  -5.192  1.00  0.00    -0.545 OA
ATOM     28  O   UNL     1       0.686   2.264  -4.401  1.00  0.00    -0.545 OA
ENDBRANCH  23  26
ENDBRANCH  16  19
ENDBRANCH   4  12
BRANCH   8  29
ATOM     29  C   UNL     1      -2.551  -5.606  -4.454  1.00  0.00     0.206 C 
BRANCH  29  30
ATOM     30  C   UNL     1      -2.427  -6.001  -5.867  1.00  0.00     0.123 A 
ATOM     31  C   UNL     1      -2.732  -7.152  -6.560  1.00  0.00     0.047 A 
ATOM     32  O   UNL     1      -1.930  -5.059  -6.710  1.00  0.00    -0.467 OA
ATOM     33  C   UNL     1      -2.353  -6.916  -7.897  1.00  0.00     0.042 A 
ATOM     34  C   UNL     1      -1.883  -5.625  -7.939  1.00  0.00     0.195 A 
ENDBRANCH  29  30
ENDBRANCH   8  29
ENDBRANCH   2   3
ENDBRANCH   1   2
BRANCH   1  35
ATOM     35  C   UNL     1      -1.934  -9.665  -0.015  1.00  0.00     0.274 C 
BRANCH  35  36
ATOM     36  O   UNL     1      -2.987 -10.240  -0.943  1.00  0.00    -0.458 OA
BRANCH  36  37
ATOM     37  C   UNL     1      -4.196  -9.557  -1.100  1.00  0.00     0.338 C 
ATOM     38  O   UNL     1      -4.268  -8.357  -0.831  1.00  0.00    -0.246 OA
BRANCH  37  39
ATOM     39  C   UNL     1      -5.515 -10.294  -1.642  1.00  0.00     0.060 A 
ATOM     40  C   UNL     1      -6.304  -9.631  -2.571  1.00  0.00     0.016 A 
ATOM     41  C   UNL     1      -6.191 -11.456  -1.180  1.00  0.00     0.016 A 
ATOM     42  C   UNL     1      -7.612 -10.137  -3.034  1.00  0.00     0.010 A 
ATOM     43  C   UNL     1      -7.588 -11.950  -1.648  1.00  0.00     0.010 A 
ATOM     44  C   UNL     1      -8.385 -11.312  -2.622  1.00  0.00    -0.014 A 
BRANCH  44  45
ATOM     45  C   UNL     1      -9.988 -11.604  -3.312  1.00  0.00     0.031 A 
ATOM     46  C   UNL     1     -10.208 -10.336  -4.042  1.00  0.00     0.074 A 
ATOM     47  C   UNL     1     -11.252 -12.316  -3.323  1.00  0.00     0.049 A 
ATOM     48  N   UNL     1     -10.373  -9.320  -3.260  1.00  0.00    -0.248 NA
ATOM     49  C   UNL     1      -9.848  -9.994  -5.415  1.00  0.00     0.031 C 
ATOM     50  C   UNL     1     -11.741 -13.378  -2.408  1.00  0.00     0.029 A 
ATOM     51  N   UNL     1     -12.502 -12.210  -4.135  1.00  0.00    -0.354 N 
ATOM     52  C   UNL     1     -10.265  -8.180  -4.002  1.00  0.00     0.074 A 
ATOM     53  C   UNL     1      -9.876  -8.650  -5.332  1.00  0.00     0.031 C 
ATOM     54  C   UNL     1     -12.960 -13.908  -2.770  1.00  0.00     0.029 A 
ATOM     55  C   UNL     1     -13.541 -13.257  -3.955  1.00  0.00     0.049 A 
ATOM     56  H   UNL     1     -12.633 -11.469  -4.770  1.00  0.00     0.167 HD
ATOM     57  C   UNL     1     -11.102  -7.192  -3.585  1.00  0.00     0.031 A 
ATOM     58  C   UNL     1     -14.805 -13.518  -4.572  1.00  0.00     0.031 A 
ATOM     59  C   UNL     1     -12.355  -7.336  -4.281  1.00  0.00     0.049 A 
ATOM     60  C   UNL     1     -15.373 -12.193  -4.826  1.00  0.00     0.074 A 
ATOM     61  C   UNL     1     -12.639  -7.640  -5.601  1.00  0.00     0.029 A 
ATOM     62  N   UNL     1     -13.447  -7.718  -3.537  1.00  0.00    -0.354 N 
ATOM     63  N   UNL     1     -15.934 -11.520  -3.866  1.00  0.00    -0.248 NA
ATOM     64  C   UNL     1     -15.530 -11.628  -6.159  1.00  0.00     0.031 C 
ATOM     65  C   UNL     1     -13.625  -8.641  -5.527  1.00  0.00     0.029 A 
ATOM     66  C   UNL     1     -14.217  -8.590  -4.273  1.00  0.00     0.049 A 
ATOM     67  H   UNL     1     -13.647  -7.416  -2.621  1.00  0.00     0.167 HD
ATOM     68  C   UNL     1     -15.909 -10.255  -4.359  1.00  0.00     0.074 A 
ATOM     69  C   UNL     1     -15.930 -10.404  -5.805  1.00  0.00     0.031 C 
ATOM     70  C   UNL     1     -15.229  -9.360  -3.602  1.00  0.00     0.031 A 
BRANCH  57  71
ATOM     71  C   UNL     1     -10.973  -6.961  -2.076  1.00  0.00    -0.014 A 
ATOM     72  C   UNL     1     -10.386  -5.780  -1.615  1.00  0.00     0.009 A 
ATOM     73  C   UNL     1     -11.219  -7.980  -1.120  1.00  0.00     0.009 A 
ATOM     74  C   UNL     1      -9.983  -5.661  -0.274  1.00  0.00     0.001 A 
ATOM     75  C   UNL     1     -10.756  -7.890   0.193  1.00  0.00     0.001 A 
ATOM     76  C   UNL     1     -10.130  -6.728   0.615  1.00  0.00     0.000 A 
ENDBRANCH  57  71
BRANCH  58  77
ATOM     77  C   UNL     1     -16.065 -14.522  -4.836  1.00  0.00    -0.014 A 
ATOM     78  C   UNL     1     -17.428 -14.019  -4.908  1.00  0.00     0.009 A 
ATOM     79  C   UNL     1     -15.937 -15.775  -5.460  1.00  0.00     0.009 A 
ATOM     80  C   UNL     1     -18.500 -14.633  -5.617  1.00  0.00     0.001 A 
ATOM     81  C   UNL     1     -17.028 -16.414  -6.150  1.00  0.00     0.001 A 
ATOM     82  C   UNL     1     -18.292 -15.833  -6.263  1.00  0.00     0.000 A 
ENDBRANCH  58  77
BRANCH  70  83
ATOM     83  C   UNL     1     -15.409  -9.424  -2.097  1.00  0.00    -0.014 A 
ATOM     84  C   UNL     1     -15.302 -10.587  -1.303  1.00  0.00     0.009 A 
ATOM     85  C   UNL     1     -15.751  -8.234  -1.441  1.00  0.00     0.009 A 
ATOM     86  C   UNL     1     -15.573 -10.568   0.071  1.00  0.00     0.001 A 
ATOM     87  C   UNL     1     -15.975  -8.202  -0.061  1.00  0.00     0.001 A 
ATOM     88  C   UNL     1     -15.902  -9.370   0.692  1.00  0.00     0.000 A 
ENDBRANCH  70  83
ENDBRANCH  44  45
ENDBRANCH  37  39
ENDBRANCH  36  37
ENDBRANCH  35  36
ENDBRANCH   1  35
TORSDOF 15
