REMARK SMILES O=C(COc1ccccc1C[N@H+]1C[C@@H]2[C@H]3CC[C@H](C3)[C@@H]2C1)OCCOC(=O)c1ccc(-c2c3nc(c(-c4ccccc4)c4ccc([nH]4)c(-c4ccccc4)c4nc(c(-c5ccccc5)c5ccc2[nH]5)C=C4)C=C3)cc1
REMARK SMILES IDX 23 1 22 2 2 3 1 4 3 5 4 6 5 7 6 8 10 9 7 10 9 11 8 12 11 13
REMARK SMILES IDX 12 14 13 15 21 16 14 18 20 19 15 20 18 21 16 22 19 23 17 24
REMARK SMILES IDX 24 25 25 26 26 27 27 28 28 29 29 30 75 31 30 32 74 33 31 34
REMARK SMILES IDX 32 35 33 36 68 37 34 38 73 39 67 40 69 41 35 42 72 43 66 44
REMARK SMILES IDX 65 45 36 47 58 48 43 49 57 50 44 51 47 52 56 53 70 54 45 55
REMARK SMILES IDX 46 56 55 58 71 59 48 60 37 61 38 62 42 63 39 64 41 65 40 66
REMARK SMILES IDX 59 67 60 68 64 69 61 70 63 71 62 72 49 73 50 74 54 75 51 76
REMARK SMILES IDX 53 77 52 78
REMARK H PARENT 12 17 69 46 47 57
REMARK Flexibility Score: inf
ROOT
ATOM      1  C   UNL     1       4.641   0.160   0.943  1.00  0.00     0.274 C 
ENDROOT
BRANCH   1   2
ATOM      2  O   UNL     1       3.203   0.220   0.828  1.00  0.00    -0.460 OA
BRANCH   2   3
ATOM      3  C   UNL     1       2.468  -0.466  -0.077  1.00  0.00     0.344 C 
ATOM      4  O   UNL     1       1.250  -0.569   0.075  1.00  0.00    -0.248 OA
BRANCH   3   5
ATOM      5  C   UNL     1       3.159  -1.070  -1.283  1.00  0.00     0.351 C 
BRANCH   5   6
ATOM      6  O   UNL     1       3.743  -0.042  -2.078  1.00  0.00    -0.481 OA
BRANCH   6   7
ATOM      7  C   UNL     1       3.156   0.037  -3.314  1.00  0.00     0.129 A 
ATOM      8  C   UNL     1       3.694  -0.757  -4.333  1.00  0.00     0.047 A 
ATOM      9  C   UNL     1       2.096   0.924  -3.570  1.00  0.00     0.048 A 
ATOM     10  C   UNL     1       3.167  -0.690  -5.622  1.00  0.00     0.004 A 
ATOM     11  C   UNL     1       1.600   0.996  -4.883  1.00  0.00     0.013 A 
ATOM     12  C   UNL     1       2.126   0.192  -5.898  1.00  0.00     0.001 A 
BRANCH   9  13
ATOM     13  C   UNL     1       1.407   1.725  -2.488  1.00  0.00     0.302 C 
BRANCH  13  14
ATOM     14  N   UNL     1       2.175   2.872  -1.993  1.00  0.00    -0.331 N 
ATOM     15  C   UNL     1       1.700   4.145  -2.541  1.00  0.00     0.266 C 
ATOM     16  C   UNL     1       2.063   3.013  -0.538  1.00  0.00     0.266 C 
ATOM     17  H   UNL     1       3.134   2.681  -2.284  1.00  0.00     0.348 HD
ATOM     18  C   UNL     1       2.155   5.216  -1.546  1.00  0.00     0.056 C 
ATOM     19  C   UNL     1       2.401   4.463  -0.226  1.00  0.00     0.056 C 
ATOM     20  C   UNL     1       3.532   5.861  -1.824  1.00  0.00    -0.002 C 
ATOM     21  C   UNL     1       3.895   4.752   0.066  1.00  0.00    -0.002 C 
ATOM     22  C   UNL     1       3.737   6.992  -0.792  1.00  0.00     0.004 C 
ATOM     23  C   UNL     1       4.533   4.822  -1.321  1.00  0.00     0.008 C 
ATOM     24  C   UNL     1       4.008   6.222   0.512  1.00  0.00     0.004 C 
ENDBRANCH  13  14
ENDBRANCH   9  13
ENDBRANCH   6   7
ENDBRANCH   5   6
ENDBRANCH   3   5
ENDBRANCH   2   3
ENDBRANCH   1   2
BRANCH   1  25
ATOM     25  C   UNL     1       4.993  -0.688   2.163  1.00  0.00     0.275 C 
BRANCH  25  26
ATOM     26  O   UNL     1       4.543  -2.033   1.925  1.00  0.00    -0.458 OA
BRANCH  26  27
ATOM     27  C   UNL     1       3.304  -2.330   2.395  1.00  0.00     0.338 C 
ATOM     28  O   UNL     1       2.630  -1.681   3.173  1.00  0.00    -0.246 OA
BRANCH  27  29
ATOM     29  C   UNL     1       2.809  -3.485   1.621  1.00  0.00     0.060 A 
ATOM     30  C   UNL     1       1.494  -3.462   1.136  1.00  0.00     0.016 A 
ATOM     31  C   UNL     1       3.650  -4.565   1.341  1.00  0.00     0.016 A 
ATOM     32  C   UNL     1       1.013  -4.519   0.368  1.00  0.00     0.010 A 
ATOM     33  C   UNL     1       3.158  -5.640   0.607  1.00  0.00     0.010 A 
ATOM     34  C   UNL     1       1.831  -5.632   0.145  1.00  0.00    -0.014 A 
BRANCH  34  35
ATOM     35  C   UNL     1       1.247  -6.907  -0.314  1.00  0.00     0.031 A 
ATOM     36  C   UNL     1       0.715  -7.835   0.740  1.00  0.00     0.074 A 
ATOM     37  C   UNL     1       1.260  -7.261  -1.609  1.00  0.00     0.049 A 
ATOM     38  N   UNL     1       0.296  -9.067   0.626  1.00  0.00    -0.248 NA
ATOM     39  C   UNL     1       0.664  -7.301   2.112  1.00  0.00     0.031 C 
ATOM     40  C   UNL     1       1.713  -6.424  -2.717  1.00  0.00     0.029 A 
ATOM     41  N   UNL     1       0.900  -8.444  -2.200  1.00  0.00    -0.354 N 
ATOM     42  C   UNL     1      -0.057  -9.457   1.912  1.00  0.00     0.074 A 
ATOM     43  C   UNL     1       0.213  -8.342   2.791  1.00  0.00     0.031 C 
ATOM     44  C   UNL     1       1.628  -7.133  -3.857  1.00  0.00     0.029 A 
ATOM     45  C   UNL     1       1.150  -8.479  -3.549  1.00  0.00     0.049 A 
ATOM     46  H   UNL     1       0.500  -9.196  -1.705  1.00  0.00     0.167 HD
ATOM     47  C   UNL     1      -0.555 -10.643   2.327  1.00  0.00     0.031 A 
ATOM     48  C   UNL     1       1.034  -9.499  -4.421  1.00  0.00     0.031 A 
ATOM     49  C   UNL     1      -0.777 -11.762   1.457  1.00  0.00     0.049 A 
ATOM     50  C   UNL     1       0.554 -10.838  -3.924  1.00  0.00     0.074 A 
ATOM     51  C   UNL     1      -1.270 -13.015   1.770  1.00  0.00     0.029 A 
ATOM     52  N   UNL     1      -0.504 -11.761   0.098  1.00  0.00    -0.354 N 
ATOM     53  N   UNL     1       0.203 -11.194  -2.711  1.00  0.00    -0.248 NA
ATOM     54  C   UNL     1       0.455 -11.916  -4.918  1.00  0.00     0.031 C 
ATOM     55  C   UNL     1      -1.249 -13.790   0.605  1.00  0.00     0.029 A 
ATOM     56  C   UNL     1      -0.797 -13.000  -0.441  1.00  0.00     0.049 A 
ATOM     57  H   UNL     1      -0.154 -10.992  -0.408  1.00  0.00     0.167 HD
ATOM     58  C   UNL     1      -0.190 -12.524  -2.802  1.00  0.00     0.074 A 
ATOM     59  C   UNL     1      -0.038 -12.909  -4.191  1.00  0.00     0.031 C 
ATOM     60  C   UNL     1      -0.642 -13.352  -1.829  1.00  0.00     0.031 A 
BRANCH  47  61
ATOM     61  C   UNL     1      -0.834 -10.786   3.794  1.00  0.00    -0.014 A 
ATOM     62  C   UNL     1      -1.905 -10.108   4.401  1.00  0.00     0.009 A 
ATOM     63  C   UNL     1       0.000 -11.588   4.586  1.00  0.00     0.009 A 
ATOM     64  C   UNL     1      -2.109 -10.202   5.779  1.00  0.00     0.001 A 
ATOM     65  C   UNL     1      -0.224 -11.701   5.959  1.00  0.00     0.001 A 
ATOM     66  C   UNL     1      -1.270 -11.000   6.556  1.00  0.00     0.000 A 
ENDBRANCH  47  61
BRANCH  48  67
ATOM     67  C   UNL     1       1.394  -9.306  -5.850  1.00  0.00    -0.014 A 
ATOM     68  C   UNL     1       0.399  -9.288  -6.839  1.00  0.00     0.009 A 
ATOM     69  C   UNL     1       2.735  -9.156  -6.235  1.00  0.00     0.009 A 
ATOM     70  C   UNL     1       0.742  -9.148  -8.186  1.00  0.00     0.001 A 
ATOM     71  C   UNL     1       3.073  -8.990  -7.580  1.00  0.00     0.001 A 
ATOM     72  C   UNL     1       2.077  -8.995  -8.555  1.00  0.00     0.000 A 
ENDBRANCH  48  67
BRANCH  60  73
ATOM     73  C   UNL     1      -1.050 -14.739  -2.236  1.00  0.00    -0.014 A 
ATOM     74  C   UNL     1      -0.097 -15.720  -2.548  1.00  0.00     0.009 A 
ATOM     75  C   UNL     1      -2.411 -15.083  -2.240  1.00  0.00     0.009 A 
ATOM     76  C   UNL     1      -0.503 -17.013  -2.882  1.00  0.00     0.001 A 
ATOM     77  C   UNL     1      -2.812 -16.383  -2.547  1.00  0.00     0.001 A 
ATOM     78  C   UNL     1      -1.859 -17.345  -2.875  1.00  0.00     0.000 A 
ENDBRANCH  60  73
ENDBRANCH  34  35
ENDBRANCH  27  29
ENDBRANCH  26  27
ENDBRANCH  25  26
ENDBRANCH   1  25
TORSDOF 15
