REMARK SMILES COc1ccc(-c2ncn(CC(=O)OCCOC(=O)c3ccc(-c4c5nc(c(-c6ccccc6)c6ccc([nH]6)c(-c6ccccc6)c6nc(c(-c7ccccc7)c7ccc4[nH]7)C=C6)C=C5)cc3)c2-c2ccc(OC)cc2)cc1
REMARK SMILES IDX 15 1 14 2 12 3 13 4 11 5 10 6 7 7 8 8 68 9 9 10 6 11 3 12
REMARK SMILES IDX 4 13 78 14 5 15 77 16 2 17 1 18 69 19 70 20 76 21 71 22
REMARK SMILES IDX 75 23 72 24 73 25 74 26 16 27 17 28 18 29 19 30 20 31 21 32
REMARK SMILES IDX 67 33 22 34 66 35 23 36 24 37 25 38 60 39 26 40 65 41 59 42
REMARK SMILES IDX 61 43 27 44 64 45 58 46 57 47 28 49 50 50 35 51 49 52 36 53
REMARK SMILES IDX 39 54 48 55 62 56 37 57 38 58 47 60 63 61 40 62 29 63 30 64
REMARK SMILES IDX 34 65 31 66 33 67 32 68 51 69 52 70 56 71 53 72 55 73 54 74
REMARK SMILES IDX 41 75 42 76 46 77 43 78 45 79 44 80
REMARK H PARENT 61 48 39 59
REMARK Flexibility Score: inf
ROOT
ATOM      1  C   UNL     1      -1.168   3.424  10.690  1.00  0.00     0.274 C 
ENDROOT
BRANCH   1   2
ATOM      2  O   UNL     1      -0.190   3.222   9.668  1.00  0.00    -0.461 OA
BRANCH   2   3
ATOM      3  C   UNL     1       1.099   3.206  10.087  1.00  0.00     0.326 C 
ATOM      4  O   UNL     1       1.486   3.688  11.145  1.00  0.00    -0.250 OA
BRANCH   3   5
ATOM      5  C   UNL     1       1.967   2.395   9.168  1.00  0.00     0.246 C 
BRANCH   5   6
ATOM      6  N   UNL     1       2.121   2.894   7.809  1.00  0.00    -0.319 N 
ATOM      7  C   UNL     1       2.184   2.859   5.619  1.00  0.00     0.096 A 
ATOM      8  N   UNL     1       3.384   3.373   6.034  1.00  0.00    -0.236 NA
ATOM      9  C   UNL     1       1.348   2.607   6.703  1.00  0.00     0.076 A 
ATOM     10  C   UNL     1       3.296   3.432   7.344  1.00  0.00     0.201 A 
BRANCH   7  11
ATOM     11  C   UNL     1       1.859   2.523   4.237  1.00  0.00     0.003 A 
ATOM     12  C   UNL     1       1.043   1.482   1.747  1.00  0.00     0.118 A 
ATOM     13  C   UNL     1       0.227   2.374   2.441  1.00  0.00     0.047 A 
ATOM     14  C   UNL     1       2.294   1.154   2.272  1.00  0.00     0.047 A 
ATOM     15  C   UNL     1       0.635   2.902   3.668  1.00  0.00     0.014 A 
ATOM     16  C   UNL     1       2.700   1.672   3.512  1.00  0.00     0.014 A 
BRANCH  12  17
ATOM     17  O   UNL     1       0.512   1.019   0.575  1.00  0.00    -0.497 OA
ATOM     18  C   UNL     1       1.111  -0.147   0.022  1.00  0.00     0.278 C 
ENDBRANCH  12  17
ENDBRANCH   7  11
BRANCH   9  19
ATOM     19  C   UNL     1      -0.025   2.127   6.680  1.00  0.00     0.001 A 
ATOM     20  C   UNL     1      -1.071   2.997   7.006  1.00  0.00     0.014 A 
ATOM     21  C   UNL     1      -0.322   0.919   6.059  1.00  0.00     0.014 A 
ATOM     22  C   UNL     1      -2.397   2.645   6.777  1.00  0.00     0.047 A 
ATOM     23  C   UNL     1      -1.647   0.602   5.769  1.00  0.00     0.047 A 
ATOM     24  C   UNL     1      -2.689   1.437   6.174  1.00  0.00     0.118 A 
BRANCH  24  25
ATOM     25  O   UNL     1      -3.984   1.203   5.815  1.00  0.00    -0.497 OA
ATOM     26  C   UNL     1      -4.809   0.764   6.893  1.00  0.00     0.278 C 
ENDBRANCH  24  25
ENDBRANCH   9  19
ENDBRANCH   5   6
ENDBRANCH   3   5
ENDBRANCH   2   3
ENDBRANCH   1   2
BRANCH   1  27
ATOM     27  C   UNL     1      -2.447   2.688  10.315  1.00  0.00     0.275 C 
BRANCH  27  28
ATOM     28  O   UNL     1      -2.365   1.298   9.933  1.00  0.00    -0.458 OA
BRANCH  28  29
ATOM     29  C   UNL     1      -1.313   0.455  10.094  1.00  0.00     0.338 C 
ATOM     30  O   UNL     1      -0.267   0.640  10.662  1.00  0.00    -0.246 OA
BRANCH  29  31
ATOM     31  C   UNL     1      -1.676  -0.741   9.285  1.00  0.00     0.060 A 
ATOM     32  C   UNL     1      -0.790  -1.298   8.356  1.00  0.00     0.016 A 
ATOM     33  C   UNL     1      -3.003  -1.158   9.313  1.00  0.00     0.016 A 
ATOM     34  C   UNL     1      -1.292  -2.112   7.320  1.00  0.00     0.010 A 
ATOM     35  C   UNL     1      -3.495  -1.917   8.267  1.00  0.00     0.010 A 
ATOM     36  C   UNL     1      -2.672  -2.321   7.205  1.00  0.00    -0.014 A 
BRANCH  36  37
ATOM     37  C   UNL     1      -3.304  -3.128   6.140  1.00  0.00     0.031 A 
ATOM     38  C   UNL     1      -3.388  -4.559   6.488  1.00  0.00     0.074 A 
ATOM     39  C   UNL     1      -4.057  -2.714   5.088  1.00  0.00     0.049 A 
ATOM     40  N   UNL     1      -2.778  -5.524   5.885  1.00  0.00    -0.248 NA
ATOM     41  C   UNL     1      -4.135  -4.957   7.690  1.00  0.00     0.031 C 
ATOM     42  C   UNL     1      -4.281  -1.377   4.572  1.00  0.00     0.029 A 
ATOM     43  N   UNL     1      -4.948  -3.433   4.327  1.00  0.00    -0.354 N 
ATOM     44  C   UNL     1      -3.224  -6.669   6.519  1.00  0.00     0.074 A 
ATOM     45  C   UNL     1      -3.823  -6.249   7.760  1.00  0.00     0.031 C 
ATOM     46  C   UNL     1      -5.431  -1.297   3.876  1.00  0.00     0.029 A 
ATOM     47  C   UNL     1      -5.912  -2.643   3.698  1.00  0.00     0.049 A 
ATOM     48  H   UNL     1      -4.909  -4.413   4.234  1.00  0.00     0.167 HD
ATOM     49  C   UNL     1      -3.386  -7.842   5.856  1.00  0.00     0.031 A 
ATOM     50  C   UNL     1      -7.003  -3.013   2.991  1.00  0.00     0.031 A 
ATOM     51  C   UNL     1      -2.783  -7.838   4.549  1.00  0.00     0.049 A 
ATOM     52  C   UNL     1      -6.735  -4.364   2.481  1.00  0.00     0.074 A 
ATOM     53  C   UNL     1      -1.525  -7.553   4.053  1.00  0.00     0.029 A 
ATOM     54  N   UNL     1      -3.628  -7.797   3.466  1.00  0.00    -0.354 N 
ATOM     55  N   UNL     1      -5.854  -4.607   1.555  1.00  0.00    -0.248 NA
ATOM     56  C   UNL     1      -7.163  -5.512   3.260  1.00  0.00     0.031 C 
ATOM     57  C   UNL     1      -1.748  -6.920   2.795  1.00  0.00     0.029 A 
ATOM     58  C   UNL     1      -3.124  -6.888   2.570  1.00  0.00     0.049 A 
ATOM     59  H   UNL     1      -4.450  -8.327   3.353  1.00  0.00     0.167 HD
ATOM     60  C   UNL     1      -5.267  -5.793   1.957  1.00  0.00     0.074 A 
ATOM     61  C   UNL     1      -6.223  -6.385   2.889  1.00  0.00     0.031 C 
ATOM     62  C   UNL     1      -3.938  -6.021   1.743  1.00  0.00     0.031 A 
BRANCH  49  63
ATOM     63  C   UNL     1      -4.428  -8.838   6.275  1.00  0.00    -0.014 A 
ATOM     64  C   UNL     1      -4.315 -10.169   5.862  1.00  0.00     0.009 A 
ATOM     65  C   UNL     1      -5.626  -8.467   6.926  1.00  0.00     0.009 A 
ATOM     66  C   UNL     1      -5.337 -11.090   6.121  1.00  0.00     0.001 A 
ATOM     67  C   UNL     1      -6.618  -9.393   7.240  1.00  0.00     0.001 A 
ATOM     68  C   UNL     1      -6.476 -10.707   6.826  1.00  0.00     0.000 A 
ENDBRANCH  49  63
BRANCH  50  69
ATOM     69  C   UNL     1      -8.268  -2.297   2.741  1.00  0.00    -0.014 A 
ATOM     70  C   UNL     1      -9.074  -2.624   1.640  1.00  0.00     0.009 A 
ATOM     71  C   UNL     1      -8.820  -1.471   3.738  1.00  0.00     0.009 A 
ATOM     72  C   UNL     1     -10.404  -2.193   1.569  1.00  0.00     0.001 A 
ATOM     73  C   UNL     1     -10.150  -1.039   3.665  1.00  0.00     0.001 A 
ATOM     74  C   UNL     1     -10.948  -1.418   2.591  1.00  0.00     0.000 A 
ENDBRANCH  50  69
BRANCH  62  75
ATOM     75  C   UNL     1      -3.202  -5.092   0.797  1.00  0.00    -0.014 A 
ATOM     76  C   UNL     1      -3.085  -3.706   1.015  1.00  0.00     0.009 A 
ATOM     77  C   UNL     1      -2.485  -5.650  -0.271  1.00  0.00     0.009 A 
ATOM     78  C   UNL     1      -2.304  -2.903   0.175  1.00  0.00     0.001 A 
ATOM     79  C   UNL     1      -1.686  -4.853  -1.098  1.00  0.00     0.001 A 
ATOM     80  C   UNL     1      -1.600  -3.479  -0.879  1.00  0.00     0.000 A 
ENDBRANCH  62  75
ENDBRANCH  36  37
ENDBRANCH  29  31
ENDBRANCH  28  29
ENDBRANCH  27  28
ENDBRANCH   1  27
TORSDOF 16
