REMARK SMILES O=C(OCCOC(=O)c1ccc(C[NH2+][C@@H]2CCCc3sccc32)nc1)c1ccc(-c2c3nc(c(-c4ccccc4)c4ccc([nH]4)c(-c4ccccc4)c4nc(c(-c5ccccc5)c5ccc2[nH]5)C=C4)C=C3)cc1
REMARK SMILES IDX 5 1 4 2 3 3 2 4 1 5 26 6 27 7 73 8 28 9 72 10 29 11 30 12
REMARK SMILES IDX 31 13 66 14 32 15 71 16 65 17 67 18 33 19 70 20 64 21 63 22
REMARK SMILES IDX 34 24 56 25 41 26 55 27 42 28 45 29 54 30 68 31 43 32 44 33
REMARK SMILES IDX 53 35 69 36 46 37 35 38 36 39 40 40 37 41 39 42 38 43 57 44
REMARK SMILES IDX 58 45 62 46 59 47 61 48 60 49 47 50 48 51 52 52 49 53 51 54
REMARK SMILES IDX 50 55 6 56 7 57 8 58 9 59 10 60 25 61 11 62 24 63 12 64
REMARK SMILES IDX 13 65 14 66 15 69 16 70 23 71 17 72 19 73 22 74 18 75 20 76
REMARK SMILES IDX 21 77
REMARK H PARENT 67 23 45 34 14 67 14 68
REMARK Flexibility Score: inf
ROOT
ATOM      1  C   UNL     1       3.738  -1.630   1.611  1.00  0.00     0.275 C 
ENDROOT
BRANCH   1   2
ATOM      2  C   UNL     1       4.006  -0.123   1.623  1.00  0.00     0.275 C 
BRANCH   2   3
ATOM      3  O   UNL     1       2.994   0.668   0.978  1.00  0.00    -0.458 OA
BRANCH   3   4
ATOM      4  C   UNL     1       2.956   1.140  -0.290  1.00  0.00     0.338 C 
ATOM      5  O   UNL     1       2.201   2.072  -0.560  1.00  0.00    -0.246 OA
BRANCH   4   6
ATOM      6  C   UNL     1       3.651   0.465  -1.429  1.00  0.00     0.060 A 
ATOM      7  C   UNL     1       4.927  -0.101  -1.392  1.00  0.00     0.016 A 
ATOM      8  C   UNL     1       2.954   0.441  -2.650  1.00  0.00     0.016 A 
ATOM      9  C   UNL     1       5.463  -0.742  -2.515  1.00  0.00     0.010 A 
ATOM     10  C   UNL     1       3.483  -0.199  -3.774  1.00  0.00     0.010 A 
ATOM     11  C   UNL     1       4.744  -0.799  -3.710  1.00  0.00    -0.014 A 
BRANCH  11  12
ATOM     12  C   UNL     1       5.362  -1.364  -4.929  1.00  0.00     0.031 A 
ATOM     13  C   UNL     1       5.919  -0.421  -5.952  1.00  0.00     0.074 A 
ATOM     14  C   UNL     1       5.441  -2.695  -5.111  1.00  0.00     0.049 A 
ATOM     15  N   UNL     1       6.514  -0.694  -7.082  1.00  0.00    -0.248 NA
ATOM     16  C   UNL     1       5.828   1.016  -5.643  1.00  0.00     0.031 C 
ATOM     17  C   UNL     1       5.038  -3.705  -4.137  1.00  0.00     0.029 A 
ATOM     18  N   UNL     1       5.876  -3.428  -6.186  1.00  0.00    -0.354 N 
ATOM     19  C   UNL     1       6.909   0.533  -7.597  1.00  0.00     0.074 A 
ATOM     20  C   UNL     1       6.426   1.554  -6.695  1.00  0.00     0.031 C 
ATOM     21  C   UNL     1       5.177  -4.926  -4.681  1.00  0.00     0.029 A 
ATOM     22  C   UNL     1       5.686  -4.782  -6.041  1.00  0.00     0.049 A 
ATOM     23  H   UNL     1       6.285  -3.024  -6.984  1.00  0.00     0.167 HD
ATOM     24  C   UNL     1       7.641   0.782  -8.706  1.00  0.00     0.031 A 
ATOM     25  C   UNL     1       5.886  -5.787  -6.916  1.00  0.00     0.031 A 
ATOM     26  C   UNL     1       8.079  -0.236  -9.618  1.00  0.00     0.049 A 
ATOM     27  C   UNL     1       6.493  -5.458  -8.253  1.00  0.00     0.074 A 
ATOM     28  C   UNL     1       8.841  -0.103 -10.764  1.00  0.00     0.029 A 
ATOM     29  N   UNL     1       7.765  -1.582  -9.495  1.00  0.00    -0.354 N 
ATOM     30  N   UNL     1       6.927  -4.301  -8.695  1.00  0.00    -0.248 NA
ATOM     31  C   UNL     1       6.661  -6.567  -9.201  1.00  0.00     0.031 C 
ATOM     32  C   UNL     1       8.937  -1.363 -11.367  1.00  0.00     0.029 A 
ATOM     33  C   UNL     1       8.278  -2.286 -10.569  1.00  0.00     0.049 A 
ATOM     34  H   UNL     1       7.253  -1.977  -8.753  1.00  0.00     0.167 HD
ATOM     35  C   UNL     1       7.485  -4.556  -9.940  1.00  0.00     0.074 A 
ATOM     36  C   UNL     1       7.311  -5.972 -10.193  1.00  0.00     0.031 C 
ATOM     37  C   UNL     1       8.107  -3.700 -10.787  1.00  0.00     0.031 A 
BRANCH  24  38
ATOM     38  C   UNL     1       7.986   2.215  -8.982  1.00  0.00    -0.014 A 
ATOM     39  C   UNL     1       8.937   2.891  -8.199  1.00  0.00     0.009 A 
ATOM     40  C   UNL     1       7.343   2.905 -10.019  1.00  0.00     0.009 A 
ATOM     41  C   UNL     1       9.207   4.242  -8.424  1.00  0.00     0.001 A 
ATOM     42  C   UNL     1       7.631   4.250 -10.256  1.00  0.00     0.001 A 
ATOM     43  C   UNL     1       8.554   4.920  -9.453  1.00  0.00     0.000 A 
ENDBRANCH  24  38
BRANCH  25  44
ATOM     44  C   UNL     1       5.498  -7.182  -6.570  1.00  0.00    -0.014 A 
ATOM     45  C   UNL     1       6.455  -8.197  -6.430  1.00  0.00     0.009 A 
ATOM     46  C   UNL     1       4.144  -7.515  -6.406  1.00  0.00     0.009 A 
ATOM     47  C   UNL     1       6.062  -9.514  -6.167  1.00  0.00     0.001 A 
ATOM     48  C   UNL     1       3.754  -8.824  -6.113  1.00  0.00     0.001 A 
ATOM     49  C   UNL     1       4.713  -9.826  -6.008  1.00  0.00     0.000 A 
ENDBRANCH  25  44
BRANCH  37  50
ATOM     50  C   UNL     1       8.710  -4.285 -12.030  1.00  0.00    -0.014 A 
ATOM     51  C   UNL     1       7.914  -4.668 -13.118  1.00  0.00     0.009 A 
ATOM     52  C   UNL     1      10.107  -4.397 -12.128  1.00  0.00     0.009 A 
ATOM     53  C   UNL     1       8.507  -5.175 -14.276  1.00  0.00     0.001 A 
ATOM     54  C   UNL     1      10.697  -4.877 -13.296  1.00  0.00     0.001 A 
ATOM     55  C   UNL     1       9.896  -5.271 -14.367  1.00  0.00     0.000 A 
ENDBRANCH  37  50
ENDBRANCH  11  12
ENDBRANCH   4   6
ENDBRANCH   3   4
ENDBRANCH   2   3
ENDBRANCH   1   2
BRANCH   1  56
ATOM     56  O   UNL     1       3.261  -2.113   0.346  1.00  0.00    -0.458 OA
BRANCH  56  57
ATOM     57  C   UNL     1       1.908  -2.205   0.245  1.00  0.00     0.339 C 
ATOM     58  O   UNL     1       1.087  -1.964   1.112  1.00  0.00    -0.246 OA
BRANCH  57  59
ATOM     59  C   UNL     1       1.551  -2.514  -1.143  1.00  0.00     0.078 A 
ATOM     60  C   UNL     1       2.122  -3.564  -1.856  1.00  0.00     0.019 A 
ATOM     61  C   UNL     1       0.640  -1.694  -1.787  1.00  0.00     0.127 A 
ATOM     62  C   UNL     1       1.791  -3.721  -3.203  1.00  0.00     0.031 A 
ATOM     63  N   UNL     1       0.346  -1.796  -3.106  1.00  0.00    -0.254 NA
ATOM     64  C   UNL     1       0.944  -2.793  -3.809  1.00  0.00     0.094 A 
BRANCH  64  65
ATOM     65  C   UNL     1       0.677  -2.863  -5.303  1.00  0.00     0.318 C 
BRANCH  65  66
ATOM     66  N   UNL     1      -0.624  -3.454  -5.597  1.00  0.00    -0.335 N 
ATOM     67  H   UNL     1      -1.348  -2.836  -5.230  1.00  0.00     0.347 HD
ATOM     68  H   UNL     1      -0.639  -4.374  -5.158  1.00  0.00     0.347 HD
BRANCH  66  69
ATOM     69  C   UNL     1      -0.869  -3.656  -7.021  1.00  0.00     0.215 C 
ATOM     70  C   UNL     1      -2.336  -3.244  -7.291  1.00  0.00     0.071 C 
ATOM     71  C   UNL     1      -0.625  -5.103  -7.392  1.00  0.00     0.023 A 
ATOM     72  C   UNL     1      -2.852  -3.785  -8.631  1.00  0.00     0.012 C 
ATOM     73  C   UNL     1      -1.536  -5.832  -8.138  1.00  0.00     0.014 A 
ATOM     74  C   UNL     1       0.538  -5.892  -7.117  1.00  0.00     0.022 A 
ATOM     75  C   UNL     1      -2.849  -5.319  -8.640  1.00  0.00     0.047 C 
ATOM     76  S   UNL     1      -1.037  -7.430  -8.434  1.00  0.00    -0.148 S 
ATOM     77  C   UNL     1       0.441  -7.170  -7.621  1.00  0.00     0.065 A 
ENDBRANCH  66  69
ENDBRANCH  65  66
ENDBRANCH  64  65
ENDBRANCH  57  59
ENDBRANCH  56  57
ENDBRANCH   1  56
TORSDOF 14
