REMARK SMILES Cc1nc(-c2ccc(C(F)(F)F)cc2)nc(SCC(=O)OCCOC(=O)c2ccc(-c3c4nc(c(-c5ccccc5)c5ccc([nH]5)c(-c5ccccc5)c5nc(c(-c6ccccc6)c6ccc3[nH]6)C=C5)C=C4)cc2)c1C
REMARK SMILES IDX 22 1 21 2 19 3 20 4 18 5 17 6 16 7 1 8 2 9 3 10 75 11 4 12
REMARK SMILES IDX 76 13 15 14 5 15 6 16 14 17 7 18 13 19 8 20 9 21 10 22 11 23
REMARK SMILES IDX 12 24 23 25 24 26 25 27 26 28 27 29 28 30 74 31 29 32 73 33
REMARK SMILES IDX 30 34 31 35 32 36 67 37 33 38 72 39 66 40 68 41 34 42 71 43
REMARK SMILES IDX 65 44 64 45 35 47 57 48 42 49 56 50 43 51 46 52 55 53 69 54
REMARK SMILES IDX 44 55 45 56 54 58 70 59 47 60 36 61 37 62 41 63 38 64 40 65
REMARK SMILES IDX 39 66 58 67 59 68 63 69 60 70 62 71 61 72 48 73 49 74 53 75
REMARK SMILES IDX 50 76 52 77 51 78
REMARK H PARENT 68 46 46 57
REMARK Flexibility Score: inf
ROOT
ATOM      1  C   UNL     1      -3.323  -1.222   3.896  1.00  0.00     0.274 C 
ENDROOT
BRANCH   1   2
ATOM      2  O   UNL     1      -3.140  -2.176   2.825  1.00  0.00    -0.461 OA
BRANCH   2   3
ATOM      3  C   UNL     1      -3.865  -1.934   1.706  1.00  0.00     0.316 C 
ATOM      4  O   UNL     1      -4.527  -0.912   1.525  1.00  0.00    -0.251 OA
BRANCH   3   5
ATOM      5  C   UNL     1      -3.924  -3.059   0.705  1.00  0.00     0.199 C 
BRANCH   5   6
ATOM      6  S   UNL     1      -2.717  -4.400   0.791  1.00  0.00    -0.094 SA
BRANCH   6   7
ATOM      7  C   UNL     1      -1.093  -3.798   0.365  1.00  0.00     0.104 A 
ATOM      8  C   UNL     1       1.276  -1.000  -0.522  1.00  0.00     0.067 C 
ATOM      9  C   UNL     1       0.661  -2.327  -0.201  1.00  0.00     0.045 A 
ATOM     10  N   UNL     1       1.571  -3.249   0.155  1.00  0.00    -0.233 NA
ATOM     11  C   UNL     1      -0.708  -2.606  -0.239  1.00  0.00     0.003 A 
ATOM     12  C   UNL     1       1.110  -4.457   0.480  1.00  0.00     0.160 A 
ATOM     13  C   UNL     1      -1.657  -1.727  -0.977  1.00  0.00     0.049 C 
ATOM     14  N   UNL     1      -0.181  -4.750   0.655  1.00  0.00    -0.221 NA
BRANCH  12  15
ATOM     15  C   UNL     1       2.066  -5.555   0.349  1.00  0.00     0.019 A 
ATOM     16  C   UNL     1       3.264  -5.575   1.077  1.00  0.00     0.012 A 
ATOM     17  C   UNL     1       1.857  -6.553  -0.619  1.00  0.00     0.012 A 
ATOM     18  C   UNL     1       4.234  -6.552   0.830  1.00  0.00     0.014 A 
ATOM     19  C   UNL     1       2.831  -7.520  -0.881  1.00  0.00     0.014 A 
ATOM     20  C   UNL     1       4.036  -7.521  -0.166  1.00  0.00     0.056 A 
BRANCH  20  21
ATOM     21  C   UNL     1       5.113  -8.534  -0.462  1.00  0.00     0.416 C 
ATOM     22  F   UNL     1       6.333  -7.958  -0.657  1.00  0.00    -0.166 F 
ATOM     23  F   UNL     1       5.280  -9.428   0.551  1.00  0.00    -0.166 F 
ATOM     24  F   UNL     1       4.872  -9.275  -1.580  1.00  0.00    -0.166 F 
ENDBRANCH  20  21
ENDBRANCH  12  15
ENDBRANCH   6   7
ENDBRANCH   5   6
ENDBRANCH   3   5
ENDBRANCH   2   3
ENDBRANCH   1   2
BRANCH   1  25
ATOM     25  C   UNL     1      -2.267  -0.119   3.889  1.00  0.00     0.275 C 
BRANCH  25  26
ATOM     26  O   UNL     1      -2.320   0.627   2.659  1.00  0.00    -0.458 OA
BRANCH  26  27
ATOM     27  C   UNL     1      -1.126   0.863   2.073  1.00  0.00     0.338 C 
ATOM     28  O   UNL     1      -0.028   0.539   2.508  1.00  0.00    -0.246 OA
BRANCH  27  29
ATOM     29  C   UNL     1      -1.273   1.542   0.763  1.00  0.00     0.060 A 
ATOM     30  C   UNL     1      -2.421   1.412  -0.024  1.00  0.00     0.016 A 
ATOM     31  C   UNL     1      -0.155   2.205   0.243  1.00  0.00     0.016 A 
ATOM     32  C   UNL     1      -2.399   1.823  -1.361  1.00  0.00     0.010 A 
ATOM     33  C   UNL     1      -0.164   2.686  -1.068  1.00  0.00     0.010 A 
ATOM     34  C   UNL     1      -1.270   2.464  -1.900  1.00  0.00    -0.014 A 
BRANCH  34  35
ATOM     35  C   UNL     1      -1.230   2.925  -3.314  1.00  0.00     0.031 A 
ATOM     36  C   UNL     1      -0.191   2.406  -4.276  1.00  0.00     0.074 A 
ATOM     37  C   UNL     1      -2.109   3.851  -3.740  1.00  0.00     0.049 A 
ATOM     38  N   UNL     1       0.152   2.863  -5.455  1.00  0.00    -0.248 NA
ATOM     39  C   UNL     1       0.562   1.217  -3.857  1.00  0.00     0.031 C 
ATOM     40  C   UNL     1      -3.201   4.416  -2.947  1.00  0.00     0.029 A 
ATOM     41  N   UNL     1      -2.211   4.486  -4.952  1.00  0.00    -0.354 N 
ATOM     42  C   UNL     1       1.187   2.045  -5.896  1.00  0.00     0.074 A 
ATOM     43  C   UNL     1       1.415   1.059  -4.861  1.00  0.00     0.031 C 
ATOM     44  C   UNL     1      -3.878   5.295  -3.699  1.00  0.00     0.029 A 
ATOM     45  C   UNL     1      -3.216   5.419  -4.993  1.00  0.00     0.049 A 
ATOM     46  H   UNL     1      -1.622   4.292  -5.716  1.00  0.00     0.167 HD
ATOM     47  C   UNL     1       1.884   2.109  -7.055  1.00  0.00     0.031 A 
ATOM     48  C   UNL     1      -3.543   6.318  -5.938  1.00  0.00     0.031 A 
ATOM     49  C   UNL     1       1.642   3.068  -8.100  1.00  0.00     0.049 A 
ATOM     50  C   UNL     1      -2.716   6.423  -7.182  1.00  0.00     0.074 A 
ATOM     51  C   UNL     1       2.304   3.215  -9.308  1.00  0.00     0.029 A 
ATOM     52  N   UNL     1       0.649   4.031  -8.068  1.00  0.00    -0.354 N 
ATOM     53  N   UNL     1      -1.676   5.711  -7.540  1.00  0.00    -0.248 NA
ATOM     54  C   UNL     1      -3.092   7.474  -8.136  1.00  0.00     0.031 C 
ATOM     55  C   UNL     1       1.725   4.287  -9.997  1.00  0.00     0.029 A 
ATOM     56  C   UNL     1       0.682   4.782  -9.231  1.00  0.00     0.049 A 
ATOM     57  H   UNL     1       0.012   4.163  -7.329  1.00  0.00     0.167 HD
ATOM     58  C   UNL     1      -1.266   6.234  -8.758  1.00  0.00     0.074 A 
ATOM     59  C   UNL     1      -2.183   7.307  -9.087  1.00  0.00     0.031 C 
ATOM     60  C   UNL     1      -0.218   5.862  -9.530  1.00  0.00     0.031 A 
BRANCH  47  61
ATOM     61  C   UNL     1       3.004   1.128  -7.255  1.00  0.00    -0.014 A 
ATOM     62  C   UNL     1       2.750  -0.195  -7.647  1.00  0.00     0.009 A 
ATOM     63  C   UNL     1       4.335   1.557  -7.125  1.00  0.00     0.009 A 
ATOM     64  C   UNL     1       3.809  -1.073  -7.892  1.00  0.00     0.001 A 
ATOM     65  C   UNL     1       5.390   0.681  -7.386  1.00  0.00     0.001 A 
ATOM     66  C   UNL     1       5.127  -0.633  -7.767  1.00  0.00     0.000 A 
ENDBRANCH  47  61
BRANCH  48  67
ATOM     67  C   UNL     1      -4.682   7.233  -5.693  1.00  0.00    -0.014 A 
ATOM     68  C   UNL     1      -5.916   7.008  -6.318  1.00  0.00     0.009 A 
ATOM     69  C   UNL     1      -4.557   8.292  -4.780  1.00  0.00     0.009 A 
ATOM     70  C   UNL     1      -7.009   7.826  -6.026  1.00  0.00     0.001 A 
ATOM     71  C   UNL     1      -5.657   9.093  -4.475  1.00  0.00     0.001 A 
ATOM     72  C   UNL     1      -6.881   8.861  -5.099  1.00  0.00     0.000 A 
ENDBRANCH  48  67
BRANCH  60  73
ATOM     73  C   UNL     1      -0.011   6.625 -10.803  1.00  0.00    -0.014 A 
ATOM     74  C   UNL     1       0.597   7.889 -10.788  1.00  0.00     0.009 A 
ATOM     75  C   UNL     1      -0.410   6.069 -12.027  1.00  0.00     0.009 A 
ATOM     76  C   UNL     1       0.777   8.596 -11.978  1.00  0.00     0.001 A 
ATOM     77  C   UNL     1      -0.214   6.771 -13.216  1.00  0.00     0.001 A 
ATOM     78  C   UNL     1       0.372   8.036 -13.190  1.00  0.00     0.000 A 
ENDBRANCH  60  73
ENDBRANCH  34  35
ENDBRANCH  27  29
ENDBRANCH  26  27
ENDBRANCH  25  26
ENDBRANCH   1  25
TORSDOF 15
