REMARK SMILES CC(C)C[C@H](NC(=O)[C@H](Cc1ccccc1)NC(=O)CNC(=O)CNC(=O)OCc1ccccc1)C(=O)OCCOC(=O)c1ccc(-c2c3nc(c(-c4ccccc4)c4ccc([nH]4)c(-c4ccccc4)c4nc(c(-c5ccccc5)c5ccc2[nH]5)C=C4)C=C3)cc1
REMARK SMILES IDX 6 1 7 2 8 3 5 5 4 6 2 7 1 8 3 9 36 10 37 11 38 12 39 13
REMARK SMILES IDX 40 14 41 15 42 16 43 17 44 18 45 19 91 20 46 21 90 22 47 23
REMARK SMILES IDX 48 24 49 25 84 26 50 27 89 28 83 29 85 30 51 31 88 32 82 33
REMARK SMILES IDX 81 34 52 36 74 37 59 38 73 39 60 40 63 41 72 42 86 43 61 44
REMARK SMILES IDX 62 45 71 47 87 48 64 49 53 50 54 51 58 52 55 53 57 54 56 55
REMARK SMILES IDX 75 56 76 57 80 58 77 59 79 60 78 61 65 62 66 63 70 64 67 65
REMARK SMILES IDX 69 66 68 67 9 68 17 69 18 70 19 72 20 73 21 74 22 75 23 77
REMARK SMILES IDX 24 78 25 79 26 80 27 82 28 83 29 84 30 85 31 86 35 87 32 88
REMARK SMILES IDX 34 89 33 90 10 91 11 92 12 93 16 94 13 95 15 96 14 97
REMARK H PARENT 6 4 85 35 63 46 17 71 21 76 25 81
REMARK Flexibility Score: inf
ROOT
ATOM      1  N   UNL     1      -2.157   5.489  -1.822  1.00  0.00    -0.341 N 
ATOM      2  C   UNL     1      -1.591   6.726  -1.421  1.00  0.00     0.243 C 
ATOM      3  O   UNL     1      -0.875   7.289  -2.265  1.00  0.00    -0.273 OA
ATOM      4  H   UNL     1      -1.491   4.786  -1.998  1.00  0.00     0.164 HD
ENDROOT
BRANCH   1   5
ATOM      5  C   UNL     1      -3.608   5.037  -2.036  1.00  0.00     0.192 C 
BRANCH   5   6
ATOM      6  C   UNL     1      -3.793   3.591  -2.599  1.00  0.00     0.040 C 
BRANCH   6   7
ATOM      7  C   UNL     1      -4.213   3.413  -4.058  1.00  0.00    -0.015 C 
ATOM      8  C   UNL     1      -3.109   3.885  -4.985  1.00  0.00     0.007 C 
ATOM      9  C   UNL     1      -4.536   1.920  -4.254  1.00  0.00     0.007 C 
ENDBRANCH   6   7
ENDBRANCH   5   6
BRANCH   5  10
ATOM     10  C   UNL     1      -4.443   4.858  -0.786  1.00  0.00     0.328 C 
ATOM     11  O   UNL     1      -5.665   4.749  -0.787  1.00  0.00    -0.250 OA
BRANCH  10  12
ATOM     12  O   UNL     1      -3.656   4.737   0.307  1.00  0.00    -0.461 OA
BRANCH  12  13
ATOM     13  C   UNL     1      -4.372   5.044   1.487  1.00  0.00     0.274 C 
BRANCH  13  14
ATOM     14  C   UNL     1      -4.571   6.537   1.493  1.00  0.00     0.275 C 
BRANCH  14  15
ATOM     15  O   UNL     1      -5.276   7.087   0.338  1.00  0.00    -0.458 OA
BRANCH  15  16
ATOM     16  C   UNL     1      -4.730   7.690  -0.738  1.00  0.00     0.338 C 
ATOM     17  O   UNL     1      -3.591   7.867  -1.113  1.00  0.00    -0.246 OA
BRANCH  16  18
ATOM     18  C   UNL     1      -5.738   8.332  -1.497  1.00  0.00     0.060 A 
ATOM     19  C   UNL     1      -6.510   7.554  -2.334  1.00  0.00     0.016 A 
ATOM     20  C   UNL     1      -5.951   9.681  -1.230  1.00  0.00     0.016 A 
ATOM     21  C   UNL     1      -7.638   8.142  -2.807  1.00  0.00     0.010 A 
ATOM     22  C   UNL     1      -7.201  10.150  -1.446  1.00  0.00     0.010 A 
ATOM     23  C   UNL     1      -8.015   9.390  -2.276  1.00  0.00    -0.014 A 
BRANCH  23  24
ATOM     24  C   UNL     1      -9.278   9.944  -2.703  1.00  0.00     0.031 A 
ATOM     25  C   UNL     1      -9.230  11.155  -3.560  1.00  0.00     0.074 A 
ATOM     26  C   UNL     1     -10.357   9.210  -2.402  1.00  0.00     0.049 A 
ATOM     27  N   UNL     1     -10.204  11.702  -4.222  1.00  0.00    -0.248 NA
ATOM     28  C   UNL     1      -7.937  11.860  -3.693  1.00  0.00     0.031 C 
ATOM     29  C   UNL     1     -10.368   8.014  -1.542  1.00  0.00     0.029 A 
ATOM     30  N   UNL     1     -11.623   9.293  -2.880  1.00  0.00    -0.354 N 
ATOM     31  C   UNL     1      -9.640  12.805  -4.840  1.00  0.00     0.074 A 
ATOM     32  C   UNL     1      -8.271  12.913  -4.415  1.00  0.00     0.031 C 
ATOM     33  C   UNL     1     -11.556   7.406  -1.661  1.00  0.00     0.029 A 
ATOM     34  C   UNL     1     -12.395   8.215  -2.531  1.00  0.00     0.049 A 
ATOM     35  H   UNL     1     -11.953  10.047  -3.420  1.00  0.00     0.167 HD
ATOM     36  C   UNL     1     -10.229  13.625  -5.729  1.00  0.00     0.031 A 
ATOM     37  C   UNL     1     -13.650   7.933  -2.904  1.00  0.00     0.031 A 
ATOM     38  C   UNL     1     -11.595  13.451  -6.120  1.00  0.00     0.049 A 
ATOM     39  C   UNL     1     -14.285   8.893  -3.865  1.00  0.00     0.074 A 
ATOM     40  C   UNL     1     -12.356  14.221  -6.971  1.00  0.00     0.029 A 
ATOM     41  N   UNL     1     -12.401  12.407  -5.673  1.00  0.00    -0.354 N 
ATOM     42  N   UNL     1     -13.758   9.948  -4.447  1.00  0.00    -0.248 NA
ATOM     43  C   UNL     1     -15.676   8.628  -4.224  1.00  0.00     0.031 C 
ATOM     44  C   UNL     1     -13.643  13.673  -6.995  1.00  0.00     0.029 A 
ATOM     45  C   UNL     1     -13.662  12.521  -6.217  1.00  0.00     0.049 A 
ATOM     46  H   UNL     1     -12.112  11.693  -5.060  1.00  0.00     0.167 HD
ATOM     47  C   UNL     1     -14.756  10.481  -5.243  1.00  0.00     0.074 A 
ATOM     48  C   UNL     1     -15.899   9.593  -5.104  1.00  0.00     0.031 C 
ATOM     49  C   UNL     1     -14.755  11.603  -6.008  1.00  0.00     0.031 A 
BRANCH  36  50
ATOM     50  C   UNL     1      -9.404  14.757  -6.259  1.00  0.00    -0.014 A 
ATOM     51  C   UNL     1      -8.302  14.534  -7.104  1.00  0.00     0.009 A 
ATOM     52  C   UNL     1      -9.699  16.068  -5.862  1.00  0.00     0.009 A 
ATOM     53  C   UNL     1      -7.500  15.599  -7.517  1.00  0.00     0.001 A 
ATOM     54  C   UNL     1      -8.915  17.134  -6.302  1.00  0.00     0.001 A 
ATOM     55  C   UNL     1      -7.812  16.899  -7.122  1.00  0.00     0.000 A 
ENDBRANCH  36  50
BRANCH  37  56
ATOM     56  C   UNL     1     -14.351   6.753  -2.342  1.00  0.00    -0.014 A 
ATOM     57  C   UNL     1     -14.791   5.700  -3.155  1.00  0.00     0.009 A 
ATOM     58  C   UNL     1     -14.574   6.673  -0.955  1.00  0.00     0.009 A 
ATOM     59  C   UNL     1     -15.472   4.614  -2.597  1.00  0.00     0.001 A 
ATOM     60  C   UNL     1     -15.219   5.571  -0.396  1.00  0.00     0.001 A 
ATOM     61  C   UNL     1     -15.682   4.549  -1.219  1.00  0.00     0.000 A 
ENDBRANCH  37  56
BRANCH  49  62
ATOM     62  C   UNL     1     -16.030  11.889  -6.740  1.00  0.00    -0.014 A 
ATOM     63  C   UNL     1     -17.186  12.287  -6.051  1.00  0.00     0.009 A 
ATOM     64  C   UNL     1     -16.064  11.767  -8.136  1.00  0.00     0.009 A 
ATOM     65  C   UNL     1     -18.374  12.496  -6.746  1.00  0.00     0.001 A 
ATOM     66  C   UNL     1     -17.243  12.020  -8.831  1.00  0.00     0.001 A 
ATOM     67  C   UNL     1     -18.400  12.366  -8.134  1.00  0.00     0.000 A 
ENDBRANCH  49  62
ENDBRANCH  23  24
ENDBRANCH  16  18
ENDBRANCH  15  16
ENDBRANCH  14  15
ENDBRANCH  13  14
ENDBRANCH  12  13
ENDBRANCH  10  12
ENDBRANCH   5  10
ENDBRANCH   1   5
BRANCH   2  68
ATOM     68  C   UNL     1      -1.538   7.239   0.164  1.00  0.00     0.175 C 
BRANCH  68  69
ATOM     69  N   UNL     1      -0.089   7.138   0.452  1.00  0.00    -0.342 N 
ATOM     70  C   UNL     1       0.730   6.192   0.954  1.00  0.00     0.240 C 
ATOM     71  H   UNL     1       0.395   7.964   0.221  1.00  0.00     0.164 HD
ATOM     72  O   UNL     1       1.936   6.474   0.943  1.00  0.00    -0.273 OA
BRANCH  70  73
ATOM     73  C   UNL     1       0.318   4.766   1.350  1.00  0.00     0.216 C 
BRANCH  73  74
ATOM     74  N   UNL     1      -0.904   4.450   2.079  1.00  0.00    -0.346 N 
ATOM     75  C   UNL     1      -1.581   3.252   2.082  1.00  0.00     0.239 C 
ATOM     76  H   UNL     1      -1.286   5.171   2.630  1.00  0.00     0.164 HD
ATOM     77  O   UNL     1      -2.063   2.872   3.153  1.00  0.00    -0.273 OA
BRANCH  75  78
ATOM     78  C   UNL     1      -1.797   2.419   0.807  1.00  0.00     0.219 C 
BRANCH  78  79
ATOM     79  N   UNL     1      -1.429   3.134  -0.384  1.00  0.00    -0.312 N 
ATOM     80  C   UNL     1      -0.543   2.774  -1.341  1.00  0.00     0.407 C 
ATOM     81  H   UNL     1      -1.879   3.998  -0.521  1.00  0.00     0.167 HD
ATOM     82  O   UNL     1      -0.146   3.594  -2.159  1.00  0.00    -0.225 OA
BRANCH  80  83
ATOM     83  O   UNL     1      -0.182   1.478  -1.272  1.00  0.00    -0.445 OA
BRANCH  83  84
ATOM     84  C   UNL     1       0.745   1.097  -2.291  1.00  0.00     0.270 C 
BRANCH  84  85
ATOM     85  C   UNL     1       0.088   1.041  -3.648  1.00  0.00    -0.011 A 
ATOM     86  C   UNL     1      -0.967   0.155  -3.895  1.00  0.00     0.007 A 
ATOM     87  C   UNL     1       0.492   1.920  -4.664  1.00  0.00     0.007 A 
ATOM     88  C   UNL     1      -1.587   0.132  -5.145  1.00  0.00     0.000 A 
ATOM     89  C   UNL     1      -0.135   1.901  -5.909  1.00  0.00     0.000 A 
ATOM     90  C   UNL     1      -1.171   1.003  -6.151  1.00  0.00     0.000 A 
ENDBRANCH  84  85
ENDBRANCH  83  84
ENDBRANCH  80  83
ENDBRANCH  78  79
ENDBRANCH  75  78
ENDBRANCH  73  74
ENDBRANCH  70  73
ENDBRANCH  68  69
BRANCH  68  91
ATOM     91  C   UNL     1      -1.966   8.825   0.631  1.00  0.00     0.070 C 
BRANCH  91  92
ATOM     92  C   UNL     1      -2.920   9.179   1.845  1.00  0.00    -0.045 A 
ATOM     93  C   UNL     1      -2.460   9.280   3.155  1.00  0.00     0.004 A 
ATOM     94  C   UNL     1      -4.308   9.392   1.738  1.00  0.00     0.004 A 
ATOM     95  C   UNL     1      -3.355   9.304   4.257  1.00  0.00     0.000 A 
ATOM     96  C   UNL     1      -5.223   9.328   2.809  1.00  0.00     0.000 A 
ATOM     97  C   UNL     1      -4.735   9.222   4.088  1.00  0.00     0.000 A 
ENDBRANCH  91  92
ENDBRANCH  68  91
ENDBRANCH   2  68
TORSDOF 25
