REMARK SMILES CC(=O)NCCNC(=O)C[N@@H+]1CC[C@@H](C(=O)OCCOC(=O)c2ccc(-c3c4nc(c(-c5ccccc5)c5ccc([nH]5)c(-c5ccccc5)c5nc(c(-c6ccccc6)c6ccc3[nH]6)C=C5)C=C4)cc2)[C@H]1C
REMARK SMILES IDX 17 1 15 2 16 3 14 4 11 5 12 6 71 7 13 9 72 10 10 11 8 12
REMARK SMILES IDX 7 13 9 15 6 16 5 17 4 18 1 19 2 20 3 21 18 23 19 24 20 25
REMARK SMILES IDX 21 26 22 27 23 28 24 29 70 30 25 31 69 32 26 33 27 34 28 35
REMARK SMILES IDX 63 36 29 37 68 38 62 39 64 40 30 41 67 42 61 43 60 44 31 46
REMARK SMILES IDX 53 47 38 48 52 49 39 50 42 51 51 52 65 53 40 54 41 55 50 57
REMARK SMILES IDX 66 58 43 59 32 60 33 61 37 62 34 63 36 64 35 65 54 66 55 67
REMARK SMILES IDX 59 68 56 69 58 70 57 71 44 72 45 73 49 74 46 75 48 76 47 77
REMARK H PARENT 11 8 7 14 4 22 64 45 42 56
REMARK Flexibility Score: inf
ROOT
ATOM      1  O   UNL     1       4.582  -0.764  -3.094  1.00  0.00    -0.462 OA
ENDROOT
BRANCH   1   2
ATOM      2  C   UNL     1       3.330  -1.146  -3.448  1.00  0.00     0.315 C 
ATOM      3  O   UNL     1       2.331  -0.468  -3.234  1.00  0.00    -0.252 OA
BRANCH   2   4
ATOM      4  C   UNL     1       3.332  -2.403  -4.320  1.00  0.00     0.162 C 
ATOM      5  N   UNL     1       3.188  -4.292  -3.009  1.00  0.00    -0.324 N 
ATOM      6  C   UNL     1       1.977  -4.375  -3.831  1.00  0.00     0.264 C 
ATOM      7  C   UNL     1       4.160  -3.611  -3.870  1.00  0.00     0.195 C 
ATOM      8  H   UNL     1       3.049  -3.768  -2.146  1.00  0.00     0.348 HD
ATOM      9  C   UNL     1       1.899  -2.976  -4.428  1.00  0.00     0.083 C 
ATOM     10  C   UNL     1       5.526  -3.339  -3.255  1.00  0.00     0.076 C 
BRANCH   5  11
ATOM     11  C   UNL     1       3.615  -5.595  -2.488  1.00  0.00     0.363 C 
BRANCH  11  12
ATOM     12  C   UNL     1       2.669  -6.087  -1.381  1.00  0.00     0.275 C 
ATOM     13  N   UNL     1       2.410  -5.292  -0.294  1.00  0.00    -0.349 N 
ATOM     14  H   UNL     1       1.878  -5.704   0.425  1.00  0.00     0.163 HD
ATOM     15  O   UNL     1       2.180  -7.218  -1.415  1.00  0.00    -0.269 OA
BRANCH  13  16
ATOM     16  C   UNL     1       2.826  -3.914  -0.071  1.00  0.00     0.137 C 
BRANCH  16  17
ATOM     17  C   UNL     1       1.740  -2.905  -0.475  1.00  0.00     0.137 C 
BRANCH  17  18
ATOM     18  N   UNL     1       0.794  -2.666   0.605  1.00  0.00    -0.355 N 
ATOM     19  C   UNL     1       0.783  -0.211   0.361  1.00  0.00     0.114 C 
ATOM     20  C   UNL     1       0.311  -1.467   1.043  1.00  0.00     0.216 C 
ATOM     21  O   UNL     1      -0.490  -1.441   1.975  1.00  0.00    -0.275 OA
ATOM     22  H   UNL     1       0.462  -3.464   1.075  1.00  0.00     0.163 HD
ENDBRANCH  17  18
ENDBRANCH  16  17
ENDBRANCH  13  16
ENDBRANCH  11  12
ENDBRANCH   5  11
ENDBRANCH   2   4
ENDBRANCH   1   2
BRANCH   1  23
ATOM     23  C   UNL     1       4.752   0.576  -2.592  1.00  0.00     0.274 C 
BRANCH  23  24
ATOM     24  C   UNL     1       5.520   1.402  -3.623  1.00  0.00     0.275 C 
BRANCH  24  25
ATOM     25  O   UNL     1       4.748   1.540  -4.832  1.00  0.00    -0.458 OA
BRANCH  25  26
ATOM     26  C   UNL     1       5.031   0.638  -5.798  1.00  0.00     0.338 C 
ATOM     27  O   UNL     1       5.878  -0.242  -5.780  1.00  0.00    -0.246 OA
BRANCH  26  28
ATOM     28  C   UNL     1       4.093   0.798  -6.913  1.00  0.00     0.060 A 
ATOM     29  C   UNL     1       2.866   0.136  -6.867  1.00  0.00     0.016 A 
ATOM     30  C   UNL     1       4.494   1.474  -8.064  1.00  0.00     0.016 A 
ATOM     31  C   UNL     1       2.069   0.075  -8.004  1.00  0.00     0.010 A 
ATOM     32  C   UNL     1       3.651   1.483  -9.178  1.00  0.00     0.010 A 
ATOM     33  C   UNL     1       2.445   0.758  -9.168  1.00  0.00    -0.014 A 
BRANCH  33  34
ATOM     34  C   UNL     1       1.585   0.703 -10.375  1.00  0.00     0.031 A 
ATOM     35  C   UNL     1       2.097   0.077 -11.642  1.00  0.00     0.074 A 
ATOM     36  C   UNL     1       0.335   1.203 -10.330  1.00  0.00     0.049 A 
ATOM     37  N   UNL     1       1.561   0.074 -12.836  1.00  0.00    -0.248 NA
ATOM     38  C   UNL     1       3.383  -0.634 -11.559  1.00  0.00     0.031 C 
ATOM     39  C   UNL     1      -0.306   1.785  -9.148  1.00  0.00     0.029 A 
ATOM     40  N   UNL     1      -0.624   1.295 -11.306  1.00  0.00    -0.354 N 
ATOM     41  C   UNL     1       2.462  -0.596 -13.654  1.00  0.00     0.074 A 
ATOM     42  C   UNL     1       3.580  -0.987 -12.822  1.00  0.00     0.031 C 
ATOM     43  C   UNL     1      -1.561   2.142  -9.460  1.00  0.00     0.029 A 
ATOM     44  C   UNL     1      -1.785   1.890 -10.878  1.00  0.00     0.049 A 
ATOM     45  H   UNL     1      -0.492   0.967 -12.225  1.00  0.00     0.167 HD
ATOM     46  C   UNL     1       2.368  -0.854 -14.980  1.00  0.00     0.031 A 
ATOM     47  C   UNL     1      -2.894   2.232 -11.558  1.00  0.00     0.031 A 
ATOM     48  C   UNL     1       1.246  -0.485 -15.800  1.00  0.00     0.049 A 
ATOM     49  C   UNL     1      -2.953   1.979 -13.035  1.00  0.00     0.074 A 
ATOM     50  C   UNL     1       1.063  -0.688 -17.157  1.00  0.00     0.029 A 
ATOM     51  N   UNL     1       0.107   0.151 -15.333  1.00  0.00    -0.354 N 
ATOM     52  N   UNL     1      -2.064   1.406 -13.809  1.00  0.00    -0.248 NA
ATOM     53  C   UNL     1      -4.161   2.438 -13.735  1.00  0.00     0.031 C 
ATOM     54  C   UNL     1      -0.178  -0.149 -17.517  1.00  0.00     0.029 A 
ATOM     55  C   UNL     1      -0.780   0.356 -16.376  1.00  0.00     0.049 A 
ATOM     56  H   UNL     1      -0.048   0.418 -14.399  1.00  0.00     0.167 HD
ATOM     57  C   UNL     1      -2.606   1.430 -15.086  1.00  0.00     0.074 A 
ATOM     58  C   UNL     1      -3.909   2.054 -14.979  1.00  0.00     0.031 C 
ATOM     59  C   UNL     1      -2.069   0.981 -16.246  1.00  0.00     0.031 A 
BRANCH  46  60
ATOM     60  C   UNL     1       3.534  -1.537 -15.634  1.00  0.00    -0.014 A 
ATOM     61  C   UNL     1       3.763  -2.911 -15.470  1.00  0.00     0.009 A 
ATOM     62  C   UNL     1       4.399  -0.795 -16.454  1.00  0.00     0.009 A 
ATOM     63  C   UNL     1       4.853  -3.524 -16.094  1.00  0.00     0.001 A 
ATOM     64  C   UNL     1       5.475  -1.414 -17.093  1.00  0.00     0.001 A 
ATOM     65  C   UNL     1       5.705  -2.776 -16.907  1.00  0.00     0.000 A 
ENDBRANCH  46  60
BRANCH  47  66
ATOM     66  C   UNL     1      -4.018   2.898 -10.853  1.00  0.00    -0.014 A 
ATOM     67  C   UNL     1      -5.219   2.213 -10.622  1.00  0.00     0.009 A 
ATOM     68  C   UNL     1      -3.889   4.220 -10.399  1.00  0.00     0.009 A 
ATOM     69  C   UNL     1      -6.275   2.844  -9.961  1.00  0.00     0.001 A 
ATOM     70  C   UNL     1      -4.936   4.839  -9.715  1.00  0.00     0.001 A 
ATOM     71  C   UNL     1      -6.131   4.154  -9.503  1.00  0.00     0.000 A 
ENDBRANCH  47  66
BRANCH  59  72
ATOM     72  C   UNL     1      -2.907   1.130 -17.480  1.00  0.00    -0.014 A 
ATOM     73  C   UNL     1      -3.033   2.372 -18.121  1.00  0.00     0.009 A 
ATOM     74  C   UNL     1      -3.559   0.011 -18.019  1.00  0.00     0.009 A 
ATOM     75  C   UNL     1      -3.821   2.495 -19.266  1.00  0.00     0.001 A 
ATOM     76  C   UNL     1      -4.330   0.134 -19.174  1.00  0.00     0.001 A 
ATOM     77  C   UNL     1      -4.467   1.376 -19.793  1.00  0.00     0.000 A 
ENDBRANCH  59  72
ENDBRANCH  33  34
ENDBRANCH  26  28
ENDBRANCH  25  26
ENDBRANCH  24  25
ENDBRANCH  23  24
ENDBRANCH   1  23
TORSDOF 16
