REMARK SMILES Cc1ccc(OC2(C(=O)OCCOC(=O)c3ccc(-c4c5nc(c(-c6ccccc6)c6ccc([nH]6)c(-c6ccccc6)c6nc(c(-c7ccccc7)c7ccc4[nH]7)C=C6)C=C5)cc3)CC[NH+](C[C@@H]3CC=CCC3)CC2)cn1
REMARK SMILES IDX 11 1 10 2 8 3 9 4 7 5 64 6 75 7 65 8 74 9 66 10 6 12 5 13
REMARK SMILES IDX 1 14 2 15 3 16 77 17 4 18 76 19 67 20 68 21 69 22 73 23
REMARK SMILES IDX 70 24 72 25 71 26 12 27 13 28 14 29 15 30 16 31 17 32 63 33
REMARK SMILES IDX 18 34 62 35 19 36 20 37 21 38 56 39 22 40 61 41 55 42 57 43
REMARK SMILES IDX 23 44 60 45 54 46 53 47 24 49 46 50 31 51 45 52 32 53 35 54
REMARK SMILES IDX 44 55 58 56 33 57 34 58 43 60 59 61 36 62 25 63 26 64 30 65
REMARK SMILES IDX 27 66 29 67 28 68 47 69 48 70 52 71 49 72 51 73 50 74 37 75
REMARK SMILES IDX 38 76 42 77 39 78 41 79 40 80
REMARK H PARENT 66 11 57 48 35 59
REMARK Flexibility Score: inf
ROOT
ATOM      1  C   UNL     1       3.730  -4.668  -6.624  1.00  0.00     0.274 C 
ENDROOT
BRANCH   1   2
ATOM      2  O   UNL     1       2.563  -4.984  -5.842  1.00  0.00    -0.459 OA
BRANCH   2   3
ATOM      3  C   UNL     1       2.731  -5.226  -4.510  1.00  0.00     0.351 C 
ATOM      4  O   UNL     1       3.817  -5.419  -3.978  1.00  0.00    -0.247 OA
BRANCH   3   5
ATOM      5  C   UNL     1       1.385  -5.165  -3.754  1.00  0.00     0.216 C 
ATOM      6  C   UNL     1       0.212  -5.019  -4.727  1.00  0.00     0.122 C 
ATOM      7  C   UNL     1       1.155  -6.521  -3.050  1.00  0.00     0.122 C 
ATOM      8  C   UNL     1      -1.116  -5.014  -4.013  1.00  0.00     0.267 C 
ATOM      9  C   UNL     1      -0.201  -6.525  -2.314  1.00  0.00     0.267 C 
ATOM     10  N   UNL     1      -1.328  -6.195  -3.194  1.00  0.00    -0.334 N 
ATOM     11  H   UNL     1      -1.353  -6.982  -3.841  1.00  0.00     0.348 HD
BRANCH   5  12
ATOM     12  O   UNL     1       1.535  -4.250  -2.654  1.00  0.00    -0.473 OA
BRANCH  12  13
ATOM     13  C   UNL     1       1.123  -2.975  -2.500  1.00  0.00     0.139 A 
ATOM     14  C   UNL     1       0.184   1.034  -1.353  1.00  0.00     0.066 C 
ATOM     15  C   UNL     1       0.445  -0.389  -1.748  1.00  0.00     0.038 A 
ATOM     16  C   UNL     1       0.215  -0.812  -3.050  1.00  0.00     0.027 A 
ATOM     17  N   UNL     1       0.994  -1.200  -0.820  1.00  0.00    -0.258 NA
ATOM     18  C   UNL     1       0.573  -2.112  -3.429  1.00  0.00     0.050 A 
ATOM     19  C   UNL     1       1.306  -2.459  -1.217  1.00  0.00     0.157 A 
ENDBRANCH  12  13
ENDBRANCH   5  12
BRANCH  10  20
ATOM     20  C   UNL     1      -2.650  -6.194  -2.531  1.00  0.00     0.266 C 
BRANCH  20  21
ATOM     21  C   UNL     1      -3.215  -4.954  -1.763  1.00  0.00     0.048 C 
ATOM     22  C   UNL     1      -3.699  -3.782  -2.663  1.00  0.00     0.036 C 
ATOM     23  C   UNL     1      -2.311  -4.495  -0.609  1.00  0.00     0.014 C 
ATOM     24  C   UNL     1      -3.584  -2.409  -2.061  1.00  0.00    -0.031 C 
ATOM     25  C   UNL     1      -2.900  -3.306   0.148  1.00  0.00     0.027 C 
ATOM     26  C   UNL     1      -3.235  -2.188  -0.787  1.00  0.00    -0.031 C 
ENDBRANCH  20  21
ENDBRANCH  10  20
ENDBRANCH   3   5
ENDBRANCH   2   3
ENDBRANCH   1   2
BRANCH   1  27
ATOM     27  C   UNL     1       3.844  -3.149  -6.717  1.00  0.00     0.275 C 
BRANCH  27  28
ATOM     28  O   UNL     1       4.255  -2.653  -5.432  1.00  0.00    -0.458 OA
BRANCH  28  29
ATOM     29  C   UNL     1       3.621  -1.553  -4.975  1.00  0.00     0.338 C 
ATOM     30  O   UNL     1       2.777  -0.893  -5.568  1.00  0.00    -0.246 OA
BRANCH  29  31
ATOM     31  C   UNL     1       4.135  -1.218  -3.632  1.00  0.00     0.060 A 
ATOM     32  C   UNL     1       4.407  -2.213  -2.687  1.00  0.00     0.016 A 
ATOM     33  C   UNL     1       4.297   0.125  -3.293  1.00  0.00     0.016 A 
ATOM     34  C   UNL     1       4.797  -1.864  -1.394  1.00  0.00     0.010 A 
ATOM     35  C   UNL     1       4.770   0.467  -2.025  1.00  0.00     0.010 A 
ATOM     36  C   UNL     1       5.013  -0.522  -1.055  1.00  0.00    -0.014 A 
BRANCH  36  37
ATOM     37  C   UNL     1       5.505  -0.124   0.292  1.00  0.00     0.031 A 
ATOM     38  C   UNL     1       4.713   0.837   1.135  1.00  0.00     0.074 A 
ATOM     39  C   UNL     1       6.695  -0.568   0.740  1.00  0.00     0.049 A 
ATOM     40  N   UNL     1       5.085   1.536   2.177  1.00  0.00    -0.248 NA
ATOM     41  C   UNL     1       3.315   1.047   0.740  1.00  0.00     0.031 C 
ATOM     42  C   UNL     1       7.551  -1.547   0.069  1.00  0.00     0.029 A 
ATOM     43  N   UNL     1       7.401  -0.227   1.868  1.00  0.00    -0.354 N 
ATOM     44  C   UNL     1       3.980   2.304   2.529  1.00  0.00     0.074 A 
ATOM     45  C   UNL     1       2.928   1.988   1.588  1.00  0.00     0.031 C 
ATOM     46  C   UNL     1       8.662  -1.732   0.796  1.00  0.00     0.029 A 
ATOM     47  C   UNL     1       8.639  -0.817   1.932  1.00  0.00     0.049 A 
ATOM     48  H   UNL     1       7.054   0.381   2.561  1.00  0.00     0.167 HD
ATOM     49  C   UNL     1       3.857   3.193   3.544  1.00  0.00     0.031 A 
ATOM     50  C   UNL     1       9.671  -0.605   2.769  1.00  0.00     0.031 A 
ATOM     51  C   UNL     1       4.898   3.481   4.495  1.00  0.00     0.049 A 
ATOM     52  C   UNL     1       9.547   0.437   3.841  1.00  0.00     0.074 A 
ATOM     53  C   UNL     1       4.879   4.368   5.557  1.00  0.00     0.029 A 
ATOM     54  N   UNL     1       6.142   2.870   4.506  1.00  0.00    -0.354 N 
ATOM     55  N   UNL     1       8.530   1.214   4.121  1.00  0.00    -0.248 NA
ATOM     56  C   UNL     1      10.720   0.640   4.702  1.00  0.00     0.031 C 
ATOM     57  C   UNL     1       6.126   4.322   6.188  1.00  0.00     0.029 A 
ATOM     58  C   UNL     1       6.903   3.369   5.548  1.00  0.00     0.049 A 
ATOM     59  H   UNL     1       6.440   2.183   3.867  1.00  0.00     0.167 HD
ATOM     60  C   UNL     1       8.931   1.986   5.202  1.00  0.00     0.074 A 
ATOM     61  C   UNL     1      10.281   1.576   5.533  1.00  0.00     0.031 C 
ATOM     62  C   UNL     1       8.242   2.948   5.863  1.00  0.00     0.031 A 
BRANCH  49  63
ATOM     63  C   UNL     1       2.562   3.949   3.658  1.00  0.00    -0.014 A 
ATOM     64  C   UNL     1       1.388   3.333   4.116  1.00  0.00     0.009 A 
ATOM     65  C   UNL     1       2.532   5.318   3.344  1.00  0.00     0.009 A 
ATOM     66  C   UNL     1       0.204   4.066   4.233  1.00  0.00     0.001 A 
ATOM     67  C   UNL     1       1.354   6.054   3.486  1.00  0.00     0.001 A 
ATOM     68  C   UNL     1       0.189   5.426   3.924  1.00  0.00     0.000 A 
ENDBRANCH  49  63
BRANCH  50  69
ATOM     69  C   UNL     1      10.933  -1.365   2.575  1.00  0.00    -0.014 A 
ATOM     70  C   UNL     1      11.302  -2.374   3.475  1.00  0.00     0.009 A 
ATOM     71  C   UNL     1      11.750  -1.113   1.460  1.00  0.00     0.009 A 
ATOM     72  C   UNL     1      12.468  -3.114   3.263  1.00  0.00     0.001 A 
ATOM     73  C   UNL     1      12.898  -1.874   1.236  1.00  0.00     0.001 A 
ATOM     74  C   UNL     1      13.258  -2.871   2.140  1.00  0.00     0.000 A 
ENDBRANCH  50  69
BRANCH  62  75
ATOM     75  C   UNL     1       8.921   3.589   7.036  1.00  0.00    -0.014 A 
ATOM     76  C   UNL     1       9.929   4.548   6.858  1.00  0.00     0.009 A 
ATOM     77  C   UNL     1       8.516   3.254   8.338  1.00  0.00     0.009 A 
ATOM     78  C   UNL     1      10.539   5.140   7.966  1.00  0.00     0.001 A 
ATOM     79  C   UNL     1       9.112   3.864   9.442  1.00  0.00     0.001 A 
ATOM     80  C   UNL     1      10.127   4.801   9.255  1.00  0.00     0.000 A 
ENDBRANCH  62  75
ENDBRANCH  36  37
ENDBRANCH  29  31
ENDBRANCH  28  29
ENDBRANCH  27  28
ENDBRANCH   1  27
TORSDOF 15
