REMARK SMILES C[N@H+]1CCCN(C(=O)N[C@@H]2CCCCC[C@@H]2C(=O)OCCOC(=O)c2ccc(-c3c4nc(c(-c5ccccc5)c5ccc([nH]5)c(-c5ccccc5)c5nc(c(-c6ccccc6)c6ccc3[nH]6)C=C5)C=C4)cc2)CC1
REMARK SMILES IDX 17 1 18 2 16 3 10 5 9 6 7 7 8 8 6 10 73 11 74 12 2 13 1 14
REMARK SMILES IDX 3 16 5 18 4 19 11 21 12 22 13 23 14 24 15 25 19 27 20 28
REMARK SMILES IDX 21 29 22 30 23 31 24 32 25 33 26 34 72 35 27 36 71 37 28 38
REMARK SMILES IDX 29 39 30 40 65 41 31 42 70 43 64 44 66 45 32 46 69 47 63 48
REMARK SMILES IDX 62 49 33 51 55 52 40 53 54 54 41 55 44 56 53 57 67 58 42 59
REMARK SMILES IDX 43 60 52 62 68 63 45 64 34 65 35 66 39 67 36 68 38 69 37 70
REMARK SMILES IDX 56 71 57 72 61 73 58 74 60 75 59 76 46 77 47 78 51 79 48 80
REMARK SMILES IDX 50 81 49 82
REMARK H PARENT 9 9 2 15 66 50 44 61
REMARK Flexibility Score: 180.00
ROOT
ATOM      1  C   UNL     1      -5.663   2.958  -1.376  1.00  0.00     0.311 C 
ATOM      2  O   UNL     1      -4.702   2.684  -2.077  1.00  0.00    -0.252 OA
ENDROOT
BRANCH   1   3
ATOM      3  C   UNL     1      -5.750   2.711   0.138  1.00  0.00     0.121 CG1
ATOM      4  G   UNL     1      -6.740   1.560   0.433  1.00  0.00     0.000 G1
BRANCH   3   5
ATOM      5  C   UNL     1      -4.370   2.439   0.814  1.00  0.00     0.098 C 
BRANCH   5   6
ATOM      6  N   UNL     1      -3.548   3.666   0.922  1.00  0.00    -0.334 N 
ATOM      7  C   UNL     1      -2.364   4.107   1.389  1.00  0.00     0.317 C 
ATOM      8  O   UNL     1      -2.238   5.338   1.321  1.00  0.00    -0.249 OA
ATOM      9  H   UNL     1      -4.035   4.418   0.513  1.00  0.00     0.165 HD
BRANCH   7  10
ATOM     10  N   UNL     1      -1.334   3.328   1.838  1.00  0.00    -0.319 N 
BRANCH  10  11
ATOM     11  C   UNL     1      -1.373   1.935   2.257  1.00  0.00     0.182 C 
BRANCH  11  12
ATOM     12  C   UNL     1      -0.593   1.020   1.290  1.00  0.00     0.283 C 
BRANCH  12  13
ATOM     13  N   UNL     1       0.824   0.807   1.613  1.00  0.00    -0.336 N 
ATOM     14  C   UNL     1       1.366  -0.189   0.671  1.00  0.00     0.332 C 
ATOM     15  H   UNL     1       0.891   0.483   2.578  1.00  0.00     0.347 HD
BRANCH  13  16
ATOM     16  C   UNL     1       1.607   2.047   1.505  1.00  0.00     0.263 CG0
ATOM     17  G   UNL     1       1.179   3.190   2.428  1.00  0.00     0.000 G0
ENDBRANCH  13  16
ENDBRANCH  12  13
ENDBRANCH  11  12
ENDBRANCH  10  11
BRANCH  10  18
ATOM     18  C   UNL     1      -0.025   3.995   1.931  1.00  0.00     0.127 C 
BRANCH  18  19
ATOM     19  C   UNL     1       1.179   3.190   2.428  1.00  0.00     0.083 CG0
ATOM     20  G   UNL     1       1.607   2.047   1.505  1.00  0.00     0.000 G0
ENDBRANCH  18  19
ENDBRANCH  10  18
ENDBRANCH   7  10
ENDBRANCH   5   6
BRANCH   5  21
ATOM     21  C   UNL     1      -3.698   1.222   0.163  1.00  0.00     0.026 C 
BRANCH  21  22
ATOM     22  C   UNL     1      -4.087  -0.062   0.882  1.00  0.00     0.002 C 
BRANCH  22  23
ATOM     23  C   UNL     1      -5.389  -0.684   0.387  1.00  0.00     0.000 C 
BRANCH  23  24
ATOM     24  C   UNL     1      -6.441   0.224  -0.257  1.00  0.00     0.001 C 
BRANCH  24  25
ATOM     25  C   UNL     1      -6.740   1.560   0.433  1.00  0.00     0.017 CG1
ATOM     26  G   UNL     1      -5.750   2.711   0.138  1.00  0.00     0.000 G1
ENDBRANCH  24  25
ENDBRANCH  23  24
ENDBRANCH  22  23
ENDBRANCH  21  22
ENDBRANCH   5  21
ENDBRANCH   3   5
ENDBRANCH   1   3
BRANCH   1  27
ATOM     27  O   UNL     1      -6.824   3.459  -1.884  1.00  0.00    -0.462 OA
BRANCH  27  28
ATOM     28  C   UNL     1      -6.877   3.482  -3.330  1.00  0.00     0.274 C 
BRANCH  28  29
ATOM     29  C   UNL     1      -6.381   4.804  -3.923  1.00  0.00     0.275 C 
BRANCH  29  30
ATOM     30  O   UNL     1      -4.954   4.944  -3.767  1.00  0.00    -0.458 OA
BRANCH  30  31
ATOM     31  C   UNL     1      -4.529   6.031  -3.086  1.00  0.00     0.338 C 
ATOM     32  O   UNL     1      -5.221   6.931  -2.626  1.00  0.00    -0.246 OA
BRANCH  31  33
ATOM     33  C   UNL     1      -3.066   5.986  -2.901  1.00  0.00     0.060 A 
ATOM     34  C   UNL     1      -2.537   5.027  -2.049  1.00  0.00     0.016 A 
ATOM     35  C   UNL     1      -2.232   6.983  -3.414  1.00  0.00     0.016 A 
ATOM     36  C   UNL     1      -1.206   5.094  -1.654  1.00  0.00     0.010 A 
ATOM     37  C   UNL     1      -0.877   7.036  -3.027  1.00  0.00     0.010 A 
ATOM     38  C   UNL     1      -0.362   6.117  -2.098  1.00  0.00    -0.014 A 
BRANCH  38  39
ATOM     39  C   UNL     1       0.986   6.244  -1.466  1.00  0.00     0.031 A 
ATOM     40  C   UNL     1       1.278   7.381  -0.517  1.00  0.00     0.074 A 
ATOM     41  C   UNL     1       1.889   5.245  -1.563  1.00  0.00     0.049 A 
ATOM     42  N   UNL     1       2.390   7.659   0.121  1.00  0.00    -0.248 NA
ATOM     43  C   UNL     1       0.179   8.318  -0.237  1.00  0.00     0.031 C 
ATOM     44  C   UNL     1       1.686   3.998  -2.298  1.00  0.00     0.029 A 
ATOM     45  N   UNL     1       3.111   5.075  -0.953  1.00  0.00    -0.354 N 
ATOM     46  C   UNL     1       2.151   8.847   0.803  1.00  0.00     0.074 A 
ATOM     47  C   UNL     1       0.772   9.206   0.550  1.00  0.00     0.031 C 
ATOM     48  C   UNL     1       2.674   3.144  -1.987  1.00  0.00     0.029 A 
ATOM     49  C   UNL     1       3.630   3.809  -1.104  1.00  0.00     0.049 A 
ATOM     50  H   UNL     1       3.571   5.790  -0.456  1.00  0.00     0.167 HD
ATOM     51  C   UNL     1       3.013   9.591   1.538  1.00  0.00     0.031 A 
ATOM     52  C   UNL     1       4.733   3.243  -0.575  1.00  0.00     0.031 A 
ATOM     53  C   UNL     1       4.372   9.222   1.834  1.00  0.00     0.049 A 
ATOM     54  C   UNL     1       5.686   4.091   0.225  1.00  0.00     0.074 A 
ATOM     55  C   UNL     1       5.361   9.971   2.452  1.00  0.00     0.029 A 
ATOM     56  N   UNL     1       4.924   7.982   1.564  1.00  0.00    -0.354 N 
ATOM     57  N   UNL     1       5.520   5.294   0.712  1.00  0.00    -0.248 NA
ATOM     58  C   UNL     1       7.010   3.507   0.499  1.00  0.00     0.031 C 
ATOM     59  C   UNL     1       6.525   9.197   2.517  1.00  0.00     0.029 A 
ATOM     60  C   UNL     1       6.244   7.950   1.985  1.00  0.00     0.049 A 
ATOM     61  H   UNL     1       4.450   7.234   1.135  1.00  0.00     0.167 HD
ATOM     62  C   UNL     1       6.729   5.626   1.313  1.00  0.00     0.074 A 
ATOM     63  C   UNL     1       7.590   4.469   1.203  1.00  0.00     0.031 C 
ATOM     64  C   UNL     1       7.105   6.805   1.865  1.00  0.00     0.031 A 
BRANCH  51  65
ATOM     65  C   UNL     1       2.552  10.956   1.963  1.00  0.00    -0.014 A 
ATOM     66  C   UNL     1       1.707  11.157   3.062  1.00  0.00     0.009 A 
ATOM     67  C   UNL     1       3.017  12.072   1.245  1.00  0.00     0.009 A 
ATOM     68  C   UNL     1       1.317  12.452   3.418  1.00  0.00     0.001 A 
ATOM     69  C   UNL     1       2.645  13.363   1.616  1.00  0.00     0.001 A 
ATOM     70  C   UNL     1       1.789  13.552   2.698  1.00  0.00     0.000 A 
ENDBRANCH  51  65
BRANCH  52  71
ATOM     71  C   UNL     1       5.035   1.797  -0.773  1.00  0.00    -0.014 A 
ATOM     72  C   UNL     1       5.134   0.946   0.341  1.00  0.00     0.009 A 
ATOM     73  C   UNL     1       5.277   1.263  -2.047  1.00  0.00     0.009 A 
ATOM     74  C   UNL     1       5.474  -0.399   0.187  1.00  0.00     0.001 A 
ATOM     75  C   UNL     1       5.585  -0.091  -2.203  1.00  0.00     0.001 A 
ATOM     76  C   UNL     1       5.691  -0.919  -1.086  1.00  0.00     0.000 A 
ENDBRANCH  52  71
BRANCH  64  77
ATOM     77  C   UNL     1       8.524   6.922   2.348  1.00  0.00    -0.014 A 
ATOM     78  C   UNL     1       9.584   6.995   1.429  1.00  0.00     0.009 A 
ATOM     79  C   UNL     1       8.807   7.010   3.718  1.00  0.00     0.009 A 
ATOM     80  C   UNL     1      10.901   7.123   1.874  1.00  0.00     0.001 A 
ATOM     81  C   UNL     1      10.123   7.162   4.160  1.00  0.00     0.001 A 
ATOM     82  C   UNL     1      11.169   7.211   3.239  1.00  0.00     0.000 A 
ENDBRANCH  64  77
ENDBRANCH  38  39
ENDBRANCH  31  33
ENDBRANCH  30  31
ENDBRANCH  29  30
ENDBRANCH  28  29
ENDBRANCH  27  28
ENDBRANCH   1  27
TORSDOF 13
