REMARK SMILES Cc1cccc(N2CCN(C(=O)[C@@H]3CC=CC[C@@H]3C(=O)OCCOC(=O)c3ccc(-c4c5nc(c(-c6ccccc6)c6ccc([nH]6)c(-c6ccccc6)c6nc(c(-c7ccccc7)c7ccc4[nH]7)C=C6)C=C5)cc3)CC2)c1C
REMARK SMILES IDX 22 1 21 2 19 3 20 4 18 5 13 6 14 7 15 8 17 9 16 10 11 11
REMARK SMILES IDX 7 12 8 13 76 14 9 15 75 16 10 17 12 18 6 19 1 20 2 21 3 22
REMARK SMILES IDX 77 23 4 24 78 25 5 26 23 27 24 28 25 29 26 30 27 31 28 32
REMARK SMILES IDX 74 33 29 34 73 35 30 36 31 37 32 38 67 39 33 40 72 41 66 42
REMARK SMILES IDX 68 43 34 44 71 45 65 46 64 47 35 49 57 50 42 51 56 52 43 53
REMARK SMILES IDX 46 54 55 55 69 56 44 57 45 58 54 60 70 61 47 62 36 63 37 64
REMARK SMILES IDX 41 65 38 66 40 67 39 68 58 69 59 70 63 71 60 72 62 73 61 74
REMARK SMILES IDX 48 75 49 76 53 77 50 78 52 79 51 80
REMARK H PARENT 68 48 46 59
REMARK Flexibility Score: inf
ROOT
ATOM      1  C   UNL     1      -1.508  -9.776  -3.933  1.00  0.00     0.274 C 
ENDROOT
BRANCH   1   2
ATOM      2  O   UNL     1      -1.213  -8.894  -2.821  1.00  0.00    -0.462 OA
BRANCH   2   3
ATOM      3  C   UNL     1       0.001  -8.288  -2.886  1.00  0.00     0.310 C 
ATOM      4  O   UNL     1       0.740  -8.361  -3.862  1.00  0.00    -0.252 OA
BRANCH   3   5
ATOM      5  C   UNL     1       0.355  -7.456  -1.661  1.00  0.00     0.115 C 
ATOM      6  C   UNL     1       0.157  -8.132  -0.288  1.00  0.00     0.097 C 
ATOM      7  C   UNL     1      -1.253  -8.005   0.285  1.00  0.00     0.041 C 
ATOM      8  C   UNL     1      -1.936  -6.709  -0.033  1.00  0.00    -0.030 C 
ATOM      9  C   UNL     1      -0.226  -6.037  -1.724  1.00  0.00     0.043 C 
ATOM     10  C   UNL     1      -1.488  -5.836  -0.943  1.00  0.00    -0.030 C 
BRANCH   6  11
ATOM     11  C   UNL     1       0.899  -9.479  -0.281  1.00  0.00     0.227 C 
ATOM     12  N   UNL     1      -0.539 -13.313  -1.365  1.00  0.00    -0.368 N 
ATOM     13  C   UNL     1       0.897 -13.019  -1.337  1.00  0.00     0.138 C 
ATOM     14  C   UNL     1      -1.331 -12.576  -0.379  1.00  0.00     0.138 C 
ATOM     15  C   UNL     1       1.119 -11.525  -1.578  1.00  0.00     0.141 C 
ATOM     16  C   UNL     1      -1.086 -11.058  -0.492  1.00  0.00     0.141 C 
ATOM     17  N   UNL     1       0.310 -10.651  -0.708  1.00  0.00    -0.339 N 
ATOM     18  O   UNL     1       2.121  -9.444  -0.086  1.00  0.00    -0.275 OA
BRANCH  12  19
ATOM     19  C   UNL     1      -0.993 -14.583  -1.705  1.00  0.00     0.040 A 
ATOM     20  C   UNL     1      -0.409 -18.347  -1.183  1.00  0.00     0.044 C 
ATOM     21  C   UNL     1      -0.966 -17.033  -1.663  1.00  0.00    -0.046 A 
ATOM     22  C   UNL     1      -1.983 -17.055  -2.629  1.00  0.00     0.004 A 
ATOM     23  C   UNL     1      -0.500 -15.791  -1.157  1.00  0.00    -0.025 A 
ATOM     24  C   UNL     1      -2.519 -15.871  -3.117  1.00  0.00     0.002 A 
ATOM     25  C   UNL     1       0.518 -15.780  -0.044  1.00  0.00     0.047 C 
ATOM     26  C   UNL     1      -2.020 -14.653  -2.664  1.00  0.00     0.026 A 
ENDBRANCH  12  19
ENDBRANCH   6  11
ENDBRANCH   3   5
ENDBRANCH   2   3
ENDBRANCH   1   2
BRANCH   1  27
ATOM     27  C   UNL     1      -2.989 -10.164  -3.945  1.00  0.00     0.275 C 
BRANCH  27  28
ATOM     28  O   UNL     1      -3.732  -9.071  -4.498  1.00  0.00    -0.458 OA
BRANCH  28  29
ATOM     29  C   UNL     1      -4.059  -8.110  -3.606  1.00  0.00     0.338 C 
ATOM     30  O   UNL     1      -4.170  -8.202  -2.399  1.00  0.00    -0.246 OA
BRANCH  29  31
ATOM     31  C   UNL     1      -3.984  -6.851  -4.350  1.00  0.00     0.060 A 
ATOM     32  C   UNL     1      -2.735  -6.231  -4.442  1.00  0.00     0.016 A 
ATOM     33  C   UNL     1      -5.103  -6.310  -4.967  1.00  0.00     0.016 A 
ATOM     34  C   UNL     1      -2.596  -5.020  -5.102  1.00  0.00     0.010 A 
ATOM     35  C   UNL     1      -4.955  -5.120  -5.674  1.00  0.00     0.010 A 
ATOM     36  C   UNL     1      -3.709  -4.457  -5.725  1.00  0.00    -0.014 A 
BRANCH  36  37
ATOM     37  C   UNL     1      -3.636  -3.128  -6.364  1.00  0.00     0.031 A 
ATOM     38  C   UNL     1      -4.468  -2.027  -5.784  1.00  0.00     0.074 A 
ATOM     39  C   UNL     1      -2.903  -2.926  -7.473  1.00  0.00     0.049 A 
ATOM     40  N   UNL     1      -4.884  -0.922  -6.338  1.00  0.00    -0.248 NA
ATOM     41  C   UNL     1      -4.921  -2.223  -4.396  1.00  0.00     0.031 C 
ATOM     42  C   UNL     1      -1.969  -3.882  -8.069  1.00  0.00     0.029 A 
ATOM     43  N   UNL     1      -2.860  -1.845  -8.314  1.00  0.00    -0.354 N 
ATOM     44  C   UNL     1      -5.724  -0.335  -5.401  1.00  0.00     0.074 A 
ATOM     45  C   UNL     1      -5.737  -1.192  -4.236  1.00  0.00     0.031 C 
ATOM     46  C   UNL     1      -1.452  -3.348  -9.187  1.00  0.00     0.029 A 
ATOM     47  C   UNL     1      -2.088  -2.058  -9.430  1.00  0.00     0.049 A 
ATOM     48  H   UNL     1      -3.335  -1.001  -8.136  1.00  0.00     0.167 HD
ATOM     49  C   UNL     1      -6.439   0.807  -5.527  1.00  0.00     0.031 A 
ATOM     50  C   UNL     1      -1.967  -1.324 -10.551  1.00  0.00     0.031 A 
ATOM     51  C   UNL     1      -6.373   1.655  -6.685  1.00  0.00     0.049 A 
ATOM     52  C   UNL     1      -2.800  -0.081 -10.693  1.00  0.00     0.074 A 
ATOM     53  C   UNL     1      -7.036   2.843  -6.928  1.00  0.00     0.029 A 
ATOM     54  N   UNL     1      -5.575   1.403  -7.792  1.00  0.00    -0.354 N 
ATOM     55  N   UNL     1      -3.656   0.440  -9.845  1.00  0.00    -0.248 NA
ATOM     56  C   UNL     1      -2.668   0.664 -11.952  1.00  0.00     0.031 C 
ATOM     57  C   UNL     1      -6.665   3.293  -8.199  1.00  0.00     0.029 A 
ATOM     58  C   UNL     1      -5.734   2.410  -8.726  1.00  0.00     0.049 A 
ATOM     59  H   UNL     1      -4.983   0.623  -7.897  1.00  0.00     0.167 HD
ATOM     60  C   UNL     1      -4.142   1.589 -10.453  1.00  0.00     0.074 A 
ATOM     61  C   UNL     1      -3.486   1.688 -11.742  1.00  0.00     0.031 C 
ATOM     62  C   UNL     1      -5.046   2.485  -9.989  1.00  0.00     0.031 A 
BRANCH  49  63
ATOM     63  C   UNL     1      -7.395   1.148  -4.421  1.00  0.00    -0.014 A 
ATOM     64  C   UNL     1      -6.952   1.571  -3.159  1.00  0.00     0.009 A 
ATOM     65  C   UNL     1      -8.776   1.034  -4.652  1.00  0.00     0.009 A 
ATOM     66  C   UNL     1      -7.871   1.831  -2.139  1.00  0.00     0.001 A 
ATOM     67  C   UNL     1      -9.693   1.324  -3.641  1.00  0.00     0.001 A 
ATOM     68  C   UNL     1      -9.239   1.711  -2.382  1.00  0.00     0.000 A 
ENDBRANCH  49  63
BRANCH  50  69
ATOM     69  C   UNL     1      -1.060  -1.774 -11.639  1.00  0.00    -0.014 A 
ATOM     70  C   UNL     1       0.133  -1.082 -11.894  1.00  0.00     0.009 A 
ATOM     71  C   UNL     1      -1.364  -2.909 -12.408  1.00  0.00     0.009 A 
ATOM     72  C   UNL     1       0.999  -1.512 -12.903  1.00  0.00     0.001 A 
ATOM     73  C   UNL     1      -0.484  -3.352 -13.398  1.00  0.00     0.001 A 
ATOM     74  C   UNL     1       0.694  -2.650 -13.648  1.00  0.00     0.000 A 
ENDBRANCH  50  69
BRANCH  62  75
ATOM     75  C   UNL     1      -5.324   3.684 -10.846  1.00  0.00    -0.014 A 
ATOM     76  C   UNL     1      -6.154   3.599 -11.973  1.00  0.00     0.009 A 
ATOM     77  C   UNL     1      -4.802   4.931 -10.469  1.00  0.00     0.009 A 
ATOM     78  C   UNL     1      -6.442   4.744 -12.717  1.00  0.00     0.001 A 
ATOM     79  C   UNL     1      -5.110   6.076 -11.201  1.00  0.00     0.001 A 
ATOM     80  C   UNL     1      -5.925   5.981 -12.328  1.00  0.00     0.000 A 
ENDBRANCH  62  75
ENDBRANCH  36  37
ENDBRANCH  29  31
ENDBRANCH  28  29
ENDBRANCH  27  28
ENDBRANCH   1  27
TORSDOF 13
