REMARK SMILES CC[C@H](C(=O)OCCOC(=O)c1ccc(-c2c3nc(c(-c4ccccc4)c4ccc([nH]4)c(-c4ccccc4)c4nc(c(-c5ccccc5)c5ccc2[nH]5)C=C4)C=C3)cc1)N1C(=O)/C(=C\c2cccs2)SC1=S
REMARK SMILES IDX 7 1 6 2 4 3 5 4 3 5 2 6 1 7 60 8 61 9 71 10 62 11 63 12
REMARK SMILES IDX 70 13 72 14 64 15 65 16 66 17 69 18 67 19 68 20 8 21 9 22
REMARK SMILES IDX 10 23 11 24 12 25 13 26 59 27 14 28 58 29 15 30 16 31 17 32
REMARK SMILES IDX 52 33 18 34 57 35 51 36 53 37 19 38 56 39 50 40 49 41 20 43
REMARK SMILES IDX 42 44 27 45 41 46 28 47 31 48 40 49 54 50 29 51 30 52 39 54
REMARK SMILES IDX 55 55 32 56 21 57 22 58 26 59 23 60 25 61 24 62 43 63 44 64
REMARK SMILES IDX 48 65 45 66 47 67 46 68 33 69 34 70 38 71 35 72 37 73 36 74
REMARK H PARENT 53 42 31 53
REMARK Flexibility Score: inf
ROOT
ATOM      1  C   UNL     1       1.234   0.968   1.062  1.00  0.00     0.274 C 
ENDROOT
BRANCH   1   2
ATOM      2  O   UNL     1       1.747   0.641  -0.249  1.00  0.00    -0.461 OA
BRANCH   2   3
ATOM      3  C   UNL     1       0.802   0.371  -1.191  1.00  0.00     0.329 C 
ATOM      4  O   UNL     1      -0.404   0.441  -0.987  1.00  0.00    -0.250 OA
BRANCH   3   5
ATOM      5  C   UNL     1       1.422  -0.043  -2.541  1.00  0.00     0.201 C 
BRANCH   5   6
ATOM      6  C   UNL     1       0.810  -1.445  -2.833  1.00  0.00     0.034 C 
ATOM      7  C   UNL     1      -0.716  -1.500  -3.020  1.00  0.00     0.007 C 
ENDBRANCH   5   6
BRANCH   5   8
ATOM      8  N   UNL     1       1.247   1.008  -3.593  1.00  0.00    -0.278 N 
ATOM      9  C   UNL     1       0.710   0.728  -4.837  1.00  0.00     0.267 C 
ATOM     10  C   UNL     1       1.881   2.238  -3.557  1.00  0.00     0.149 C 
ATOM     11  O   UNL     1       0.589  -0.384  -5.329  1.00  0.00    -0.268 OA
ATOM     12  C   UNL     1       0.444   1.976  -5.606  1.00  0.00     0.081 C 
ATOM     13  S   UNL     1       1.296   3.271  -4.866  1.00  0.00    -0.054 SA
ATOM     14  S   UNL     1       3.058   2.771  -2.505  1.00  0.00    -0.052 S 
ATOM     15  C   UNL     1      -0.299   2.102  -6.716  1.00  0.00     0.040 C 
BRANCH  15  16
ATOM     16  C   UNL     1      -0.948   0.988  -7.317  1.00  0.00     0.028 A 
ATOM     17  C   UNL     1      -2.019   0.236  -6.864  1.00  0.00     0.020 A 
ATOM     18  S   UNL     1      -0.362   0.377  -8.814  1.00  0.00    -0.144 S 
ATOM     19  C   UNL     1      -2.275  -0.903  -7.683  1.00  0.00     0.012 A 
ATOM     20  C   UNL     1      -1.427  -0.958  -8.766  1.00  0.00     0.065 A 
ENDBRANCH  15  16
ENDBRANCH   5   8
ENDBRANCH   3   5
ENDBRANCH   2   3
ENDBRANCH   1   2
BRANCH   1  21
ATOM     21  C   UNL     1       0.897   2.453   1.216  1.00  0.00     0.275 C 
BRANCH  21  22
ATOM     22  O   UNL     1      -0.099   2.839   0.254  1.00  0.00    -0.458 OA
BRANCH  22  23
ATOM     23  C   UNL     1       0.100   4.016  -0.375  1.00  0.00     0.338 C 
ATOM     24  O   UNL     1       0.979   4.835  -0.145  1.00  0.00    -0.246 OA
BRANCH  23  25
ATOM     25  C   UNL     1      -0.944   4.227  -1.398  1.00  0.00     0.060 A 
ATOM     26  C   UNL     1      -1.322   3.214  -2.283  1.00  0.00     0.016 A 
ATOM     27  C   UNL     1      -1.512   5.494  -1.517  1.00  0.00     0.016 A 
ATOM     28  C   UNL     1      -2.239   3.462  -3.299  1.00  0.00     0.010 A 
ATOM     29  C   UNL     1      -2.484   5.727  -2.491  1.00  0.00     0.010 A 
ATOM     30  C   UNL     1      -2.849   4.715  -3.394  1.00  0.00    -0.014 A 
BRANCH  30  31
ATOM     31  C   UNL     1      -3.885   4.975  -4.419  1.00  0.00     0.031 A 
ATOM     32  C   UNL     1      -3.647   6.005  -5.481  1.00  0.00     0.074 A 
ATOM     33  C   UNL     1      -5.052   4.304  -4.372  1.00  0.00     0.049 A 
ATOM     34  N   UNL     1      -4.499   6.539  -6.316  1.00  0.00    -0.248 NA
ATOM     35  C   UNL     1      -2.268   6.503  -5.620  1.00  0.00     0.031 C 
ATOM     36  C   UNL     1      -5.375   3.224  -3.437  1.00  0.00     0.029 A 
ATOM     37  N   UNL     1      -6.189   4.444  -5.126  1.00  0.00    -0.354 N 
ATOM     38  C   UNL     1      -3.773   7.466  -7.053  1.00  0.00     0.074 A 
ATOM     39  C   UNL     1      -2.409   7.420  -6.567  1.00  0.00     0.031 C 
ATOM     40  C   UNL     1      -6.621   2.791  -3.682  1.00  0.00     0.029 A 
ATOM     41  C   UNL     1      -7.213   3.623  -4.722  1.00  0.00     0.049 A 
ATOM     42  H   UNL     1      -6.264   5.071  -5.881  1.00  0.00     0.167 HD
ATOM     43  C   UNL     1      -4.212   8.287  -8.035  1.00  0.00     0.031 A 
ATOM     44  C   UNL     1      -8.503   3.585  -5.100  1.00  0.00     0.031 A 
ATOM     45  C   UNL     1      -5.572   8.323  -8.506  1.00  0.00     0.049 A 
ATOM     46  C   UNL     1      -8.996   4.589  -6.100  1.00  0.00     0.074 A 
ATOM     47  C   UNL     1      -6.123   9.116  -9.498  1.00  0.00     0.029 A 
ATOM     48  N   UNL     1      -6.596   7.529  -8.013  1.00  0.00    -0.354 N 
ATOM     49  N   UNL     1      -8.318   5.501  -6.753  1.00  0.00    -0.248 NA
ATOM     50  C   UNL     1     -10.436   4.580  -6.389  1.00  0.00     0.031 C 
ATOM     51  C   UNL     1      -7.492   8.836  -9.569  1.00  0.00     0.029 A 
ATOM     52  C   UNL     1      -7.783   7.835  -8.655  1.00  0.00     0.049 A 
ATOM     53  H   UNL     1      -6.493   6.847  -7.310  1.00  0.00     0.167 HD
ATOM     54  C   UNL     1      -9.246   6.173  -7.534  1.00  0.00     0.074 A 
ATOM     55  C   UNL     1     -10.532   5.551  -7.287  1.00  0.00     0.031 C 
ATOM     56  C   UNL     1      -9.053   7.215  -8.378  1.00  0.00     0.031 A 
BRANCH  43  57
ATOM     57  C   UNL     1      -3.222   9.252  -8.622  1.00  0.00    -0.014 A 
ATOM     58  C   UNL     1      -2.210   8.825  -9.495  1.00  0.00     0.009 A 
ATOM     59  C   UNL     1      -3.320  10.617  -8.310  1.00  0.00     0.009 A 
ATOM     60  C   UNL     1      -1.296   9.742 -10.018  1.00  0.00     0.001 A 
ATOM     61  C   UNL     1      -2.419  11.535  -8.852  1.00  0.00     0.001 A 
ATOM     62  C   UNL     1      -1.403  11.096  -9.699  1.00  0.00     0.000 A 
ENDBRANCH  43  57
BRANCH  44  63
ATOM     63  C   UNL     1      -9.428   2.611  -4.467  1.00  0.00    -0.014 A 
ATOM     64  C   UNL     1      -9.920   1.521  -5.198  1.00  0.00     0.009 A 
ATOM     65  C   UNL     1      -9.798   2.749  -3.119  1.00  0.00     0.009 A 
ATOM     66  C   UNL     1     -10.767   0.589  -4.592  1.00  0.00     0.001 A 
ATOM     67  C   UNL     1     -10.622   1.802  -2.509  1.00  0.00     0.001 A 
ATOM     68  C   UNL     1     -11.109   0.726  -3.247  1.00  0.00     0.000 A 
ENDBRANCH  44  63
BRANCH  56  69
ATOM     69  C   UNL     1     -10.260   7.736  -9.100  1.00  0.00    -0.014 A 
ATOM     70  C   UNL     1     -11.201   8.542  -8.441  1.00  0.00     0.009 A 
ATOM     71  C   UNL     1     -10.441   7.443 -10.460  1.00  0.00     0.009 A 
ATOM     72  C   UNL     1     -12.314   9.028  -9.129  1.00  0.00     0.001 A 
ATOM     73  C   UNL     1     -11.543   7.948 -11.150  1.00  0.00     0.001 A 
ATOM     74  C   UNL     1     -12.482   8.734 -10.482  1.00  0.00     0.000 A 
ENDBRANCH  56  69
ENDBRANCH  30  31
ENDBRANCH  23  25
ENDBRANCH  22  23
ENDBRANCH  21  22
ENDBRANCH   1  21
TORSDOF 14
