REMARK SMILES COCCC(=O)N1CCc2cc(C(=O)OCCOC(=O)c3ccc(-c4c5nc(c(-c6ccccc6)c6ccc([nH]6)c(-c6ccccc6)c6nc(c(-c7ccccc7)c7ccc4[nH]7)C=C6)C=C5)cc3)ccc21
REMARK SMILES IDX 16 1 15 2 13 3 14 4 12 5 7 6 8 7 71 8 9 9 10 10 70 11 11 12
REMARK SMILES IDX 69 13 5 14 6 15 4 16 3 17 2 18 1 19 17 20 18 21 19 22 20 23
REMARK SMILES IDX 21 24 22 25 68 26 23 27 67 28 24 29 25 30 26 31 61 32 27 33
REMARK SMILES IDX 66 34 60 35 62 36 28 37 65 38 59 39 58 40 29 42 51 43 36 44
REMARK SMILES IDX 50 45 37 46 40 47 49 48 63 49 38 50 39 51 48 53 64 54 41 55
REMARK SMILES IDX 30 56 31 57 35 58 32 59 34 60 33 61 52 62 53 63 57 64 54 65
REMARK SMILES IDX 56 66 55 67 42 68 43 69 47 70 44 71 46 72 45 73
REMARK H PARENT 62 41 40 52
REMARK Flexibility Score: inf
ROOT
ATOM      1  C   UNL     1       0.427  -5.126   3.637  1.00  0.00     0.275 C 
ENDROOT
BRANCH   1   2
ATOM      2  O   UNL     1       0.540  -3.981   2.764  1.00  0.00    -0.458 OA
BRANCH   2   3
ATOM      3  C   UNL     1      -0.419  -3.041   2.918  1.00  0.00     0.338 C 
ATOM      4  O   UNL     1      -1.328  -3.047   3.737  1.00  0.00    -0.246 OA
BRANCH   3   5
ATOM      5  C   UNL     1      -0.247  -1.932   1.962  1.00  0.00     0.060 A 
ATOM      6  N   UNL     1       0.007   1.448  -0.492  1.00  0.00    -0.312 N 
ATOM      7  C   UNL     1       0.031   2.523   0.518  1.00  0.00     0.130 C 
ATOM      8  C   UNL     1      -0.193   0.220   0.172  1.00  0.00     0.047 A 
ATOM      9  C   UNL     1       0.160   1.864   1.888  1.00  0.00     0.059 C 
ATOM     10  C   UNL     1      -0.049   0.427   1.539  1.00  0.00    -0.022 A 
ATOM     11  C   UNL     1      -0.418  -1.069  -0.296  1.00  0.00     0.027 A 
ATOM     12  C   UNL     1      -0.042  -0.632   2.428  1.00  0.00     0.021 A 
ATOM     13  C   UNL     1      -0.443  -2.150   0.599  1.00  0.00     0.018 A 
BRANCH   6  14
ATOM     14  C   UNL     1       0.258   1.760  -1.809  1.00  0.00     0.229 C 
ATOM     15  O   UNL     1       0.520   2.924  -2.142  1.00  0.00    -0.274 OA
BRANCH  14  16
ATOM     16  C   UNL     1       0.246   0.701  -2.881  1.00  0.00     0.129 C 
BRANCH  16  17
ATOM     17  C   UNL     1       1.568  -0.043  -3.046  1.00  0.00     0.169 C 
BRANCH  17  18
ATOM     18  O   UNL     1       1.931  -0.830  -1.917  1.00  0.00    -0.384 OA
ATOM     19  C   UNL     1       2.937  -0.229  -1.108  1.00  0.00     0.194 C 
ENDBRANCH  17  18
ENDBRANCH  16  17
ENDBRANCH  14  16
ENDBRANCH   6  14
ENDBRANCH   3   5
ENDBRANCH   2   3
ENDBRANCH   1   2
BRANCH   1  20
ATOM     20  C   UNL     1       1.376  -5.047   4.835  1.00  0.00     0.275 C 
BRANCH  20  21
ATOM     21  O   UNL     1       1.000  -3.985   5.734  1.00  0.00    -0.458 OA
BRANCH  21  22
ATOM     22  C   UNL     1       1.770  -2.880   5.644  1.00  0.00     0.338 C 
ATOM     23  O   UNL     1       2.737  -2.704   4.922  1.00  0.00    -0.246 OA
BRANCH  22  24
ATOM     24  C   UNL     1       1.229  -1.783   6.460  1.00  0.00     0.060 A 
ATOM     25  C   UNL     1       0.240  -1.010   5.878  1.00  0.00     0.016 A 
ATOM     26  C   UNL     1       1.894  -1.315   7.588  1.00  0.00     0.016 A 
ATOM     27  C   UNL     1       0.090   0.319   6.244  1.00  0.00     0.010 A 
ATOM     28  C   UNL     1       1.580  -0.042   8.091  1.00  0.00     0.010 A 
ATOM     29  C   UNL     1       0.731   0.827   7.380  1.00  0.00    -0.014 A 
BRANCH  29  30
ATOM     30  C   UNL     1       0.523   2.257   7.771  1.00  0.00     0.031 A 
ATOM     31  C   UNL     1       1.702   3.163   8.052  1.00  0.00     0.074 A 
ATOM     32  C   UNL     1      -0.724   2.775   7.833  1.00  0.00     0.049 A 
ATOM     33  N   UNL     1       1.714   4.374   8.555  1.00  0.00    -0.248 NA
ATOM     34  C   UNL     1       3.042   2.637   7.746  1.00  0.00     0.031 C 
ATOM     35  C   UNL     1      -1.966   2.052   7.538  1.00  0.00     0.029 A 
ATOM     36  N   UNL     1      -1.159   4.042   8.144  1.00  0.00    -0.354 N 
ATOM     37  C   UNL     1       3.054   4.719   8.694  1.00  0.00     0.074 A 
ATOM     38  C   UNL     1       3.828   3.588   8.231  1.00  0.00     0.031 C 
ATOM     39  C   UNL     1      -3.002   2.898   7.599  1.00  0.00     0.029 A 
ATOM     40  C   UNL     1      -2.525   4.186   8.079  1.00  0.00     0.049 A 
ATOM     41  H   UNL     1      -0.550   4.776   8.389  1.00  0.00     0.167 HD
ATOM     42  C   UNL     1       3.593   5.870   9.167  1.00  0.00     0.031 A 
ATOM     43  C   UNL     1      -3.327   5.210   8.423  1.00  0.00     0.031 A 
ATOM     44  C   UNL     1       2.821   7.013   9.586  1.00  0.00     0.049 A 
ATOM     45  C   UNL     1      -2.711   6.450   8.998  1.00  0.00     0.074 A 
ATOM     46  C   UNL     1       3.273   8.228  10.073  1.00  0.00     0.029 A 
ATOM     47  N   UNL     1       1.437   7.087   9.553  1.00  0.00    -0.354 N 
ATOM     48  N   UNL     1      -1.445   6.733   9.183  1.00  0.00    -0.248 NA
ATOM     49  C   UNL     1      -3.638   7.506   9.425  1.00  0.00     0.031 C 
ATOM     50  C   UNL     1       2.161   9.015  10.388  1.00  0.00     0.029 A 
ATOM     51  C   UNL     1       1.018   8.320  10.029  1.00  0.00     0.049 A 
ATOM     52  H   UNL     1       0.840   6.371   9.239  1.00  0.00     0.167 HD
ATOM     53  C   UNL     1      -1.421   8.011   9.724  1.00  0.00     0.074 A 
ATOM     54  C   UNL     1      -2.798   8.453   9.815  1.00  0.00     0.031 C 
ATOM     55  C   UNL     1      -0.354   8.750  10.112  1.00  0.00     0.031 A 
BRANCH  42  56
ATOM     56  C   UNL     1       5.092   5.935   9.311  1.00  0.00    -0.014 A 
ATOM     57  C   UNL     1       5.947   5.983   8.198  1.00  0.00     0.009 A 
ATOM     58  C   UNL     1       5.658   5.982  10.597  1.00  0.00     0.009 A 
ATOM     59  C   UNL     1       7.333   6.035   8.371  1.00  0.00     0.001 A 
ATOM     60  C   UNL     1       7.041   6.068  10.767  1.00  0.00     0.001 A 
ATOM     61  C   UNL     1       7.878   6.082   9.654  1.00  0.00     0.000 A 
ENDBRANCH  42  56
BRANCH  43  62
ATOM     62  C   UNL     1      -4.805   5.078   8.296  1.00  0.00    -0.014 A 
ATOM     63  C   UNL     1      -5.522   5.872   7.389  1.00  0.00     0.009 A 
ATOM     64  C   UNL     1      -5.508   4.152   9.086  1.00  0.00     0.009 A 
ATOM     65  C   UNL     1      -6.911   5.757   7.293  1.00  0.00     0.001 A 
ATOM     66  C   UNL     1      -6.890   4.010   8.958  1.00  0.00     0.001 A 
ATOM     67  C   UNL     1      -7.592   4.821   8.070  1.00  0.00     0.000 A 
ENDBRANCH  43  62
BRANCH  55  68
ATOM     68  C   UNL     1      -0.635  10.140  10.611  1.00  0.00    -0.014 A 
ATOM     69  C   UNL     1      -1.273  10.368  11.840  1.00  0.00     0.009 A 
ATOM     70  C   UNL     1      -0.246  11.241   9.832  1.00  0.00     0.009 A 
ATOM     71  C   UNL     1      -1.558  11.670  12.255  1.00  0.00     0.001 A 
ATOM     72  C   UNL     1      -0.499  12.542  10.266  1.00  0.00     0.001 A 
ATOM     73  C   UNL     1      -1.167  12.755  11.471  1.00  0.00     0.000 A 
ENDBRANCH  55  68
ENDBRANCH  29  30
ENDBRANCH  22  24
ENDBRANCH  21  22
ENDBRANCH  20  21
ENDBRANCH   1  20
TORSDOF 15
