REMARK SMILES O=C(OCCOC(=O)c1ccc(-c2c3nc(c(-c4ccccc4)c4ccc([nH]4)c(-c4ccccc4)c4nc(c(-c5ccccc5)c5ccc2[nH]5)C=C4)C=C3)cc1)C1=Cc2cc(C(F)(F)F)ccc2O[C@@H]1C(F)(F)F
REMARK SMILES IDX 5 1 4 2 3 3 2 4 1 5 57 6 58 7 70 8 59 9 69 10 60 11 68 12
REMARK SMILES IDX 61 13 67 14 66 15 71 16 72 17 73 18 74 19 62 20 63 21 64 22
REMARK SMILES IDX 65 23 6 24 7 25 8 26 9 27 10 28 56 29 11 30 55 31 12 32
REMARK SMILES IDX 13 33 14 34 49 35 15 36 54 37 48 38 50 39 16 40 53 41 47 42
REMARK SMILES IDX 46 43 17 45 39 46 24 47 38 48 25 49 28 50 37 51 51 52 26 53
REMARK SMILES IDX 27 54 36 56 52 57 29 58 18 59 19 60 23 61 20 62 22 63 21 64
REMARK SMILES IDX 40 65 41 66 45 67 42 68 44 69 43 70 30 71 31 72 35 73 32 74
REMARK SMILES IDX 34 75 33 76
REMARK H PARENT 50 44 28 55
REMARK Flexibility Score: inf
ROOT
ATOM      1  C   UNL     1       4.736  -0.569  -0.701  1.00  0.00     0.275 C 
ENDROOT
BRANCH   1   2
ATOM      2  C   UNL     1       3.785   0.815   0.686  1.00  0.00     0.275 C 
BRANCH   2   3
ATOM      3  O   UNL     1       2.670   1.793   0.386  1.00  0.00    -0.459 OA
BRANCH   3   4
ATOM      4  C   UNL     1       2.818   2.334  -0.824  1.00  0.00     0.338 C 
ATOM      5  O   UNL     1       2.036   3.021  -1.437  1.00  0.00    -0.246 OA
BRANCH   4   6
ATOM      6  C   UNL     1       3.872   1.454  -1.315  1.00  0.00     0.087 C 
ATOM      7  C   UNL     1       5.196   1.719  -0.860  1.00  0.00     0.027 C 
ATOM      8  C   UNL     1       2.857  -0.098  -0.882  1.00  0.00     0.316 C 
ATOM      9  C   UNL     1       6.016   0.804   0.376  1.00  0.00     0.018 A 
ATOM     10  O   UNL     1       3.638  -1.038   0.657  1.00  0.00    -0.475 OA
ATOM     11  C   UNL     1       7.275   1.212   0.657  1.00  0.00     0.025 A 
ATOM     12  C   UNL     1       5.272  -0.452   1.293  1.00  0.00     0.128 A 
ATOM     13  C   UNL     1       7.852   0.626   1.788  1.00  0.00     0.056 A 
ATOM     14  C   UNL     1       5.876  -0.985   2.394  1.00  0.00     0.048 A 
ATOM     15  C   UNL     1       7.170  -0.392   2.623  1.00  0.00     0.017 A 
BRANCH   8  16
ATOM     16  C   UNL     1       2.873  -0.334  -2.593  1.00  0.00     0.430 C 
ATOM     17  F   UNL     1       1.639  -0.585  -3.038  1.00  0.00    -0.167 F 
ATOM     18  F   UNL     1       3.164   0.819  -3.286  1.00  0.00    -0.167 F 
ATOM     19  F   UNL     1       3.766  -1.184  -3.137  1.00  0.00    -0.167 F 
ENDBRANCH   8  16
BRANCH  13  20
ATOM     20  C   UNL     1       9.258   1.142   2.062  1.00  0.00     0.416 C 
ATOM     21  F   UNL     1      10.154   0.663   1.152  1.00  0.00    -0.166 F 
ATOM     22  F   UNL     1       9.329   2.502   1.947  1.00  0.00    -0.166 F 
ATOM     23  F   UNL     1       9.746   0.840   3.288  1.00  0.00    -0.166 F 
ENDBRANCH  13  20
ENDBRANCH   4   6
ENDBRANCH   3   4
ENDBRANCH   2   3
ENDBRANCH   1   2
BRANCH   1  24
ATOM     24  O   UNL     1       3.943  -2.099  -1.185  1.00  0.00    -0.458 OA
BRANCH  24  25
ATOM     25  C   UNL     1       2.846  -2.900  -0.867  1.00  0.00     0.338 C 
ATOM     26  O   UNL     1       2.235  -2.989   0.185  1.00  0.00    -0.246 OA
BRANCH  25  27
ATOM     27  C   UNL     1       2.181  -3.285  -2.160  1.00  0.00     0.060 A 
ATOM     28  C   UNL     1       0.872  -2.818  -2.423  1.00  0.00     0.016 A 
ATOM     29  C   UNL     1       2.976  -3.725  -3.214  1.00  0.00     0.016 A 
ATOM     30  C   UNL     1       0.466  -2.574  -3.755  1.00  0.00     0.010 A 
ATOM     31  C   UNL     1       2.584  -3.450  -4.528  1.00  0.00     0.010 A 
ATOM     32  C   UNL     1       1.364  -2.800  -4.811  1.00  0.00    -0.014 A 
BRANCH  32  33
ATOM     33  C   UNL     1       0.948  -2.671  -6.234  1.00  0.00     0.031 A 
ATOM     34  C   UNL     1       0.417  -3.943  -6.824  1.00  0.00     0.074 A 
ATOM     35  C   UNL     1       1.096  -1.572  -7.008  1.00  0.00     0.049 A 
ATOM     36  N   UNL     1       0.088  -4.228  -8.052  1.00  0.00    -0.248 NA
ATOM     37  C   UNL     1       0.297  -5.071  -5.880  1.00  0.00     0.031 C 
ATOM     38  C   UNL     1       1.604  -0.267  -6.583  1.00  0.00     0.029 A 
ATOM     39  N   UNL     1       0.835  -1.389  -8.353  1.00  0.00    -0.354 N 
ATOM     40  C   UNL     1      -0.260  -5.570  -8.021  1.00  0.00     0.074 A 
ATOM     41  C   UNL     1      -0.010  -6.062  -6.690  1.00  0.00     0.031 C 
ATOM     42  C   UNL     1       1.611   0.576  -7.639  1.00  0.00     0.029 A 
ATOM     43  C   UNL     1       1.134  -0.129  -8.828  1.00  0.00     0.049 A 
ATOM     44  H   UNL     1       0.465  -2.100  -8.925  1.00  0.00     0.167 HD
ATOM     45  C   UNL     1      -0.783  -6.332  -9.003  1.00  0.00     0.031 A 
ATOM     46  C   UNL     1       1.036   0.383 -10.078  1.00  0.00     0.031 A 
ATOM     47  C   UNL     1      -1.007  -5.856 -10.332  1.00  0.00     0.049 A 
ATOM     48  C   UNL     1       0.516  -0.508 -11.191  1.00  0.00     0.074 A 
ATOM     49  C   UNL     1      -1.539  -6.535 -11.408  1.00  0.00     0.029 A 
ATOM     50  N   UNL     1      -0.692  -4.577 -10.764  1.00  0.00    -0.354 N 
ATOM     51  N   UNL     1       0.114  -1.757 -11.134  1.00  0.00    -0.248 NA
ATOM     52  C   UNL     1       0.426   0.081 -12.538  1.00  0.00     0.031 C 
ATOM     53  C   UNL     1      -1.478  -5.688 -12.516  1.00  0.00     0.029 A 
ATOM     54  C   UNL     1      -0.991  -4.455 -12.106  1.00  0.00     0.049 A 
ATOM     55  H   UNL     1      -0.313  -3.865 -10.200  1.00  0.00     0.167 HD
ATOM     56  C   UNL     1      -0.312  -2.085 -12.418  1.00  0.00     0.074 A 
ATOM     57  C   UNL     1      -0.131  -0.902 -13.232  1.00  0.00     0.031 C 
ATOM     58  C   UNL     1      -0.812  -3.256 -12.885  1.00  0.00     0.031 A 
BRANCH  45  59
ATOM     59  C   UNL     1      -1.091  -7.755  -8.644  1.00  0.00    -0.014 A 
ATOM     60  C   UNL     1      -2.080  -8.068  -7.694  1.00  0.00     0.009 A 
ATOM     61  C   UNL     1      -0.320  -8.787  -9.193  1.00  0.00     0.009 A 
ATOM     62  C   UNL     1      -2.244  -9.381  -7.254  1.00  0.00     0.001 A 
ATOM     63  C   UNL     1      -0.518 -10.105  -8.783  1.00  0.00     0.001 A 
ATOM     64  C   UNL     1      -1.465 -10.398  -7.802  1.00  0.00     0.000 A 
ENDBRANCH  45  59
BRANCH  46  65
ATOM     65  C   UNL     1       1.429   1.796 -10.387  1.00  0.00    -0.014 A 
ATOM     66  C   UNL     1       0.475   2.735 -10.825  1.00  0.00     0.009 A 
ATOM     67  C   UNL     1       2.772   2.199 -10.329  1.00  0.00     0.009 A 
ATOM     68  C   UNL     1       0.860   4.021 -11.226  1.00  0.00     0.001 A 
ATOM     69  C   UNL     1       3.151   3.496 -10.700  1.00  0.00     0.001 A 
ATOM     70  C   UNL     1       2.198   4.402 -11.159  1.00  0.00     0.000 A 
ENDBRANCH  46  65
BRANCH  58  71
ATOM     71  C   UNL     1      -1.256  -3.314 -14.321  1.00  0.00    -0.014 A 
ATOM     72  C   UNL     1      -0.335  -3.303 -15.379  1.00  0.00     0.009 A 
ATOM     73  C   UNL     1      -2.620  -3.495 -14.608  1.00  0.00     0.009 A 
ATOM     74  C   UNL     1      -0.776  -3.445 -16.697  1.00  0.00     0.001 A 
ATOM     75  C   UNL     1      -3.053  -3.677 -15.920  1.00  0.00     0.001 A 
ATOM     76  C   UNL     1      -2.131  -3.643 -16.965  1.00  0.00     0.000 A 
ENDBRANCH  58  71
ENDBRANCH  32  33
ENDBRANCH  25  27
ENDBRANCH  24  25
ENDBRANCH   1  24
TORSDOF 13
