REMARK SMILES Cc1cc(C)n(-c2ccccc2NS(=O)(=O)c2cc(C)c(C(=O)OCCOC(=O)c3ccc(-c4c5nc(c(-c6ccccc6)c6ccc([nH]6)c(-c6ccccc6)c6nc(c(-c7ccccc7)c7ccc4[nH]7)C=C6)C=C5)cc3)s2)n1
REMARK SMILES IDX 25 1 24 2 22 3 23 4 21 5 17 6 18 7 78 8 19 9 20 10 14 11
REMARK SMILES IDX 15 12 16 13 13 14 12 16 7 17 8 18 9 19 11 20 10 21 6 22 1 23
REMARK SMILES IDX 2 24 3 25 79 26 4 27 5 28 26 29 27 30 28 31 29 32 30 33
REMARK SMILES IDX 31 34 77 35 32 36 76 37 33 38 34 39 35 40 70 41 36 42 75 43
REMARK SMILES IDX 69 44 71 45 37 46 74 47 68 48 67 49 38 51 60 52 45 53 59 54
REMARK SMILES IDX 46 55 49 56 58 57 72 58 47 59 48 60 57 62 73 63 50 64 39 65
REMARK SMILES IDX 40 66 44 67 41 68 43 69 42 70 61 71 62 72 66 73 63 74 65 75
REMARK SMILES IDX 64 76 51 77 52 78 56 79 53 80 55 81 54 82
REMARK H PARENT 13 15 71 50 49 61
REMARK Flexibility Score: inf
ROOT
ATOM      1  C   UNL     1      -1.802  11.588   3.687  1.00  0.00     0.275 C 
ENDROOT
BRANCH   1   2
ATOM      2  O   UNL     1      -2.005  10.194   3.403  1.00  0.00    -0.458 OA
BRANCH   2   3
ATOM      3  C   UNL     1      -2.024   9.328   4.462  1.00  0.00     0.348 C 
ATOM      4  O   UNL     1      -1.673   9.633   5.600  1.00  0.00    -0.245 OA
BRANCH   3   5
ATOM      5  C   UNL     1      -2.576   8.036   4.074  1.00  0.00     0.116 A 
ATOM      6  C   UNL     1      -2.907   5.984   2.783  1.00  0.00     0.141 A 
ATOM      7  C   UNL     1      -3.418   5.852   4.059  1.00  0.00     0.038 A 
ATOM      8  S   UNL     1      -2.650   7.620   2.407  1.00  0.00    -0.115 S 
ATOM      9  C   UNL     1      -3.076   7.000   4.867  1.00  0.00    -0.024 A 
ATOM     10  C   UNL     1      -3.169   6.960   6.361  1.00  0.00     0.046 C 
BRANCH   6  11
ATOM     11  S   UNL     1      -2.312   4.803   1.602  1.00  0.00     0.271 S 
ATOM     12  O   UNL     1      -1.325   5.474   0.784  1.00  0.00    -0.200 OA
ATOM     13  O   UNL     1      -3.506   4.223   1.025  1.00  0.00    -0.200 OA
BRANCH  11  14
ATOM     14  N   UNL     1      -1.526   3.582   2.432  1.00  0.00    -0.277 N 
ATOM     15  H   UNL     1      -1.740   2.661   2.158  1.00  0.00     0.180 HD
BRANCH  14  16
ATOM     16  C   UNL     1      -0.565   3.723   3.507  1.00  0.00     0.075 A 
ATOM     17  C   UNL     1      -0.035   2.533   4.042  1.00  0.00     0.089 A 
ATOM     18  C   UNL     1       0.537   2.504   5.326  1.00  0.00     0.030 A 
ATOM     19  C   UNL     1       0.592   3.667   6.089  1.00  0.00     0.002 A 
ATOM     20  C   UNL     1      -0.384   4.891   4.248  1.00  0.00     0.029 A 
ATOM     21  C   UNL     1       0.155   4.864   5.540  1.00  0.00     0.002 A 
BRANCH  17  22
ATOM     22  N   UNL     1      -0.010   1.369   3.235  1.00  0.00    -0.236 N 
ATOM     23  C   UNL     1       0.858   0.037   0.058  1.00  0.00     0.069 C 
ATOM     24  C   UNL     1       0.427   0.265   1.458  1.00  0.00     0.060 A 
ATOM     25  C   UNL     1       0.175  -0.688   2.465  1.00  0.00     0.048 A 
ATOM     26  N   UNL     1       0.200   1.505   1.896  1.00  0.00    -0.173 NA
ATOM     27  C   UNL     1      -0.165   0.041   3.587  1.00  0.00     0.041 A 
ATOM     28  C   UNL     1      -0.706  -0.417   4.890  1.00  0.00     0.067 C 
ENDBRANCH  17  22
ENDBRANCH  14  16
ENDBRANCH  11  14
ENDBRANCH   6  11
ENDBRANCH   3   5
ENDBRANCH   2   3
ENDBRANCH   1   2
BRANCH   1  29
ATOM     29  C   UNL     1      -3.126  12.284   3.974  1.00  0.00     0.275 C 
BRANCH  29  30
ATOM     30  O   UNL     1      -3.626  11.896   5.252  1.00  0.00    -0.458 OA
BRANCH  30  31
ATOM     31  C   UNL     1      -4.460  10.837   5.219  1.00  0.00     0.338 C 
ATOM     32  O   UNL     1      -4.711  10.116   4.268  1.00  0.00    -0.246 OA
BRANCH  31  33
ATOM     33  C   UNL     1      -5.203  10.754   6.470  1.00  0.00     0.060 A 
ATOM     34  C   UNL     1      -5.964   9.597   6.664  1.00  0.00     0.016 A 
ATOM     35  C   UNL     1      -5.422  11.935   7.188  1.00  0.00     0.016 A 
ATOM     36  C   UNL     1      -7.101   9.694   7.425  1.00  0.00     0.010 A 
ATOM     37  C   UNL     1      -6.564  12.034   7.936  1.00  0.00     0.010 A 
ATOM     38  C   UNL     1      -7.429  10.941   7.961  1.00  0.00    -0.014 A 
BRANCH  38  39
ATOM     39  C   UNL     1      -8.701  11.066   8.632  1.00  0.00     0.031 A 
ATOM     40  C   UNL     1      -8.732  10.332   9.917  1.00  0.00     0.074 A 
ATOM     41  C   UNL     1      -9.658  11.879   8.144  1.00  0.00     0.049 A 
ATOM     42  N   UNL     1      -9.531   9.384  10.274  1.00  0.00    -0.248 NA
ATOM     43  C   UNL     1      -7.613  10.563  10.852  1.00  0.00     0.031 C 
ATOM     44  C   UNL     1      -9.552  12.820   7.022  1.00  0.00     0.029 A 
ATOM     45  N   UNL     1     -10.887  12.150   8.649  1.00  0.00    -0.354 N 
ATOM     46  C   UNL     1      -9.139   9.038  11.564  1.00  0.00     0.074 A 
ATOM     47  C   UNL     1      -7.854   9.644  11.784  1.00  0.00     0.031 C 
ATOM     48  C   UNL     1     -10.543  13.734   7.119  1.00  0.00     0.029 A 
ATOM     49  C   UNL     1     -11.410  13.364   8.224  1.00  0.00     0.049 A 
ATOM     50  H   UNL     1     -11.364  11.543   9.260  1.00  0.00     0.167 HD
ATOM     51  C   UNL     1     -10.037   8.544  12.458  1.00  0.00     0.031 A 
ATOM     52  C   UNL     1     -12.414  14.060   8.816  1.00  0.00     0.031 A 
ATOM     53  C   UNL     1     -11.189   7.992  11.795  1.00  0.00     0.049 A 
ATOM     54  C   UNL     1     -13.115  13.133   9.739  1.00  0.00     0.074 A 
ATOM     55  C   UNL     1     -11.387   6.974  10.884  1.00  0.00     0.029 A 
ATOM     56  N   UNL     1     -12.317   8.777  11.745  1.00  0.00    -0.354 N 
ATOM     57  N   UNL     1     -13.818  12.114   9.335  1.00  0.00    -0.248 NA
ATOM     58  C   UNL     1     -12.636  13.053  11.112  1.00  0.00     0.031 C 
ATOM     59  C   UNL     1     -12.407   7.454  10.013  1.00  0.00     0.029 A 
ATOM     60  C   UNL     1     -12.825   8.703  10.477  1.00  0.00     0.049 A 
ATOM     61  H   UNL     1     -12.693   9.299  12.491  1.00  0.00     0.167 HD
ATOM     62  C   UNL     1     -13.502  11.091  10.220  1.00  0.00     0.074 A 
ATOM     63  C   UNL     1     -12.845  11.754  11.347  1.00  0.00     0.031 C 
ATOM     64  C   UNL     1     -13.532   9.784   9.826  1.00  0.00     0.031 A 
BRANCH  51  65
ATOM     65  C   UNL     1     -10.086   9.028  13.889  1.00  0.00    -0.014 A 
ATOM     66  C   UNL     1     -11.112   8.544  14.717  1.00  0.00     0.009 A 
ATOM     67  C   UNL     1      -9.379  10.155  14.356  1.00  0.00     0.009 A 
ATOM     68  C   UNL     1     -11.486   9.222  15.883  1.00  0.00     0.001 A 
ATOM     69  C   UNL     1      -9.722  10.811  15.539  1.00  0.00     0.001 A 
ATOM     70  C   UNL     1     -10.801  10.365  16.284  1.00  0.00     0.000 A 
ENDBRANCH  51  65
BRANCH  52  71
ATOM     71  C   UNL     1     -12.572  15.530   8.888  1.00  0.00    -0.014 A 
ATOM     72  C   UNL     1     -13.810  16.114   9.199  1.00  0.00     0.009 A 
ATOM     73  C   UNL     1     -11.440  16.368   8.885  1.00  0.00     0.009 A 
ATOM     74  C   UNL     1     -13.905  17.479   9.510  1.00  0.00     0.001 A 
ATOM     75  C   UNL     1     -11.534  17.730   9.193  1.00  0.00     0.001 A 
ATOM     76  C   UNL     1     -12.767  18.283   9.516  1.00  0.00     0.000 A 
ENDBRANCH  52  71
BRANCH  64  77
ATOM     77  C   UNL     1     -14.128   9.462   8.479  1.00  0.00    -0.014 A 
ATOM     78  C   UNL     1     -13.572   9.908   7.266  1.00  0.00     0.009 A 
ATOM     79  C   UNL     1     -15.173   8.528   8.431  1.00  0.00     0.009 A 
ATOM     80  C   UNL     1     -14.063   9.441   6.042  1.00  0.00     0.001 A 
ATOM     81  C   UNL     1     -15.648   8.047   7.210  1.00  0.00     0.001 A 
ATOM     82  C   UNL     1     -15.095   8.505   6.016  1.00  0.00     0.000 A 
ENDBRANCH  64  77
ENDBRANCH  38  39
ENDBRANCH  31  33
ENDBRANCH  30  31
ENDBRANCH  29  30
ENDBRANCH   1  29
TORSDOF 15
