REMARK SMILES O=C(N[C@@H](Cc1c[nH]c2ccccc12)C(=O)N[C@@H](CS)C(=O)N[C@@H](CO)C(=O)OCCOC(=O)c1ccc(-c2c3nc(c(-c4ccccc4)c4ccc([nH]4)c(-c4ccccc4)c4nc(c(-c5ccccc5)c5ccc2[nH]5)C=C4)C=C3)cc1)c1ccc(F)cc1
REMARK SMILES IDX 27 1 28 2 24 3 23 4 21 5 22 6 18 8 17 9 15 10 16 11 4 13
REMARK SMILES IDX 3 14 1 15 2 16 83 18 84 19 89 20 85 21 88 22 86 23 87 24
REMARK SMILES IDX 5 25 6 26 7 27 14 28 8 29 9 30 13 31 10 33 12 34 11 35 19 36
REMARK SMILES IDX 20 37 25 39 26 40 29 42 30 43 31 44 32 45 33 46 34 47 35 48
REMARK SMILES IDX 36 49 82 50 37 51 81 52 38 53 39 54 40 55 75 56 41 57 80 58
REMARK SMILES IDX 74 59 76 60 42 61 79 62 73 63 72 64 43 66 65 67 50 68 64 69
REMARK SMILES IDX 51 70 54 71 63 72 77 73 52 74 53 75 62 77 78 78 55 79 44 80
REMARK SMILES IDX 45 81 49 82 46 83 48 84 47 85 66 86 67 87 71 88 68 89 70 90
REMARK SMILES IDX 69 91 56 92 57 93 61 94 58 95 60 96 59 97
REMARK H PARENT 23 7 17 12 3 17 8 32 20 38 26 41 76 65 54 76
REMARK Flexibility Score: inf
ROOT
ATOM      1  C   UNL     1       4.707   4.213   7.444  1.00  0.00     0.331 C 
ATOM      2  O   UNL     1       4.513   3.590   8.481  1.00  0.00    -0.250 OA
ENDROOT
BRANCH   1   3
ATOM      3  C   UNL     1       5.540   3.652   6.289  1.00  0.00     0.218 C 
BRANCH   3   4
ATOM      4  N   UNL     1       5.441   4.407   5.032  1.00  0.00    -0.339 N 
ATOM      5  C   UNL     1       5.660   3.879   3.795  1.00  0.00     0.244 C 
ATOM      6  O   UNL     1       6.588   4.359   3.138  1.00  0.00    -0.273 OA
ATOM      7  H   UNL     1       5.200   5.360   5.087  1.00  0.00     0.164 HD
BRANCH   5   8
ATOM      8  C   UNL     1       4.744   2.773   3.201  1.00  0.00     0.181 C 
BRANCH   8   9
ATOM      9  N   UNL     1       5.545   1.700   2.621  1.00  0.00    -0.342 N 
ATOM     10  C   UNL     1       5.479   1.039   1.442  1.00  0.00     0.243 C 
ATOM     11  O   UNL     1       6.276   0.098   1.322  1.00  0.00    -0.273 OA
ATOM     12  H   UNL     1       6.280   1.397   3.203  1.00  0.00     0.164 HD
BRANCH  10  13
ATOM     13  C   UNL     1       4.448   1.308   0.319  1.00  0.00     0.176 C 
BRANCH  13  14
ATOM     14  N   UNL     1       3.087   0.892   0.661  1.00  0.00    -0.340 N 
ATOM     15  O   UNL     1       1.134  -0.153   0.258  1.00  0.00    -0.269 OA
ATOM     16  C   UNL     1       2.350  -0.127   0.108  1.00  0.00     0.251 C 
ATOM     17  H   UNL     1       2.645   1.406   1.375  1.00  0.00     0.164 HD
BRANCH  16  18
ATOM     18  C   UNL     1       3.021  -1.179  -0.686  1.00  0.00     0.040 A 
ATOM     19  C   UNL     1       4.015  -1.974  -0.102  1.00  0.00     0.017 A 
ATOM     20  C   UNL     1       2.638  -1.387  -2.016  1.00  0.00     0.017 A 
ATOM     21  C   UNL     1       4.658  -2.950  -0.865  1.00  0.00     0.040 A 
ATOM     22  C   UNL     1       3.285  -2.365  -2.775  1.00  0.00     0.040 A 
ATOM     23  C   UNL     1       4.291  -3.133  -2.195  1.00  0.00     0.123 A 
ATOM     24  F   UNL     1       4.916  -4.064  -2.928  1.00  0.00    -0.207 F 
ENDBRANCH  16  18
ENDBRANCH  13  14
BRANCH  13  25
ATOM     25  C   UNL     1       4.538   2.627  -0.470  1.00  0.00     0.072 C 
BRANCH  25  26
ATOM     26  C   UNL     1       3.922   3.880   0.085  1.00  0.00    -0.020 A 
ATOM     27  C   UNL     1       2.644   4.081   0.583  1.00  0.00     0.087 A 
ATOM     28  C   UNL     1       4.568   5.165   0.122  1.00  0.00     0.003 A 
ATOM     29  N   UNL     1       2.559   5.366   1.058  1.00  0.00    -0.361 N 
ATOM     30  C   UNL     1       3.714   6.053   0.773  1.00  0.00     0.046 A 
ATOM     31  C   UNL     1       5.811   5.648  -0.338  1.00  0.00     0.010 A 
ATOM     32  H   UNL     1       1.783   5.742   1.533  1.00  0.00     0.166 HD
ATOM     33  C   UNL     1       4.058   7.386   1.030  1.00  0.00     0.026 A 
ATOM     34  C   UNL     1       6.156   6.987  -0.123  1.00  0.00     0.001 A 
ATOM     35  C   UNL     1       5.296   7.838   0.564  1.00  0.00     0.002 A 
ENDBRANCH  25  26
ENDBRANCH  13  25
ENDBRANCH  10  13
ENDBRANCH   8   9
BRANCH   8  36
ATOM     36  C   UNL     1       3.546   2.285   4.022  1.00  0.00     0.101 C 
BRANCH  36  37
ATOM     37  S   UNL     1       3.799   0.705   4.908  1.00  0.00    -0.177 SA
ATOM     38  H   UNL     1       4.014  -0.291   4.008  1.00  0.00     0.102 HD
ENDBRANCH  36  37
ENDBRANCH   8  36
ENDBRANCH   5   8
ENDBRANCH   3   4
BRANCH   3  39
ATOM     39  C   UNL     1       7.005   3.580   6.747  1.00  0.00     0.193 C 
BRANCH  39  40
ATOM     40  O   UNL     1       7.608   4.876   6.717  1.00  0.00    -0.394 OA
ATOM     41  H   UNL     1       7.588   5.221   5.811  1.00  0.00     0.210 HD
ENDBRANCH  39  40
ENDBRANCH   3  39
ENDBRANCH   1   3
BRANCH   1  42
ATOM     42  O   UNL     1       4.265   5.476   7.197  1.00  0.00    -0.460 OA
BRANCH  42  43
ATOM     43  C   UNL     1       3.547   6.121   8.268  1.00  0.00     0.274 C 
BRANCH  43  44
ATOM     44  C   UNL     1       2.163   6.529   7.779  1.00  0.00     0.275 C 
BRANCH  44  45
ATOM     45  O   UNL     1       1.421   5.345   7.434  1.00  0.00    -0.458 OA
BRANCH  45  46
ATOM     46  C   UNL     1       0.885   5.328   6.193  1.00  0.00     0.338 C 
ATOM     47  O   UNL     1       0.933   6.205   5.347  1.00  0.00    -0.246 OA
BRANCH  46  48
ATOM     48  C   UNL     1       0.205   4.042   5.953  1.00  0.00     0.060 A 
ATOM     49  C   UNL     1       0.859   2.836   6.196  1.00  0.00     0.016 A 
ATOM     50  C   UNL     1      -1.046   4.045   5.332  1.00  0.00     0.016 A 
ATOM     51  C   UNL     1       0.311   1.645   5.708  1.00  0.00     0.010 A 
ATOM     52  C   UNL     1      -1.631   2.838   4.937  1.00  0.00     0.010 A 
ATOM     53  C   UNL     1      -0.938   1.620   5.066  1.00  0.00    -0.014 A 
BRANCH  53  54
ATOM     54  C   UNL     1      -1.496   0.369   4.459  1.00  0.00     0.031 A 
ATOM     55  C   UNL     1      -1.976   0.375   3.024  1.00  0.00     0.074 A 
ATOM     56  C   UNL     1      -1.575  -0.793   5.142  1.00  0.00     0.049 A 
ATOM     57  N   UNL     1      -2.786  -0.456   2.416  1.00  0.00    -0.248 NA
ATOM     58  C   UNL     1      -1.501   1.479   2.174  1.00  0.00     0.031 C 
ATOM     59  C   UNL     1      -1.091  -1.028   6.502  1.00  0.00     0.029 A 
ATOM     60  N   UNL     1      -2.097  -2.010   4.765  1.00  0.00    -0.354 N 
ATOM     61  C   UNL     1      -2.975   0.066   1.140  1.00  0.00     0.074 A 
ATOM     62  C   UNL     1      -2.192   1.280   1.060  1.00  0.00     0.031 C 
ATOM     63  C   UNL     1      -1.283  -2.317   6.821  1.00  0.00     0.029 A 
ATOM     64  C   UNL     1      -2.015  -2.971   5.742  1.00  0.00     0.049 A 
ATOM     65  H   UNL     1      -2.491  -2.176   3.878  1.00  0.00     0.167 HD
ATOM     66  C   UNL     1      -3.740  -0.416   0.130  1.00  0.00     0.031 A 
ATOM     67  C   UNL     1      -2.522  -4.218   5.806  1.00  0.00     0.031 A 
ATOM     68  C   UNL     1      -4.446  -1.670   0.168  1.00  0.00     0.049 A 
ATOM     69  C   UNL     1      -3.382  -4.733   4.687  1.00  0.00     0.074 A 
ATOM     70  C   UNL     1      -5.284  -2.221  -0.787  1.00  0.00     0.029 A 
ATOM     71  N   UNL     1      -4.345  -2.595   1.193  1.00  0.00    -0.354 N 
ATOM     72  N   UNL     1      -3.713  -4.146   3.564  1.00  0.00    -0.248 NA
ATOM     73  C   UNL     1      -3.967  -6.071   4.863  1.00  0.00     0.031 C 
ATOM     74  C   UNL     1      -5.702  -3.477  -0.332  1.00  0.00     0.029 A 
ATOM     75  C   UNL     1      -5.094  -3.718   0.888  1.00  0.00     0.049 A 
ATOM     76  H   UNL     1      -3.819  -2.472   2.016  1.00  0.00     0.167 HD
ATOM     77  C   UNL     1      -4.544  -5.040   2.902  1.00  0.00     0.074 A 
ATOM     78  C   UNL     1      -4.646  -6.220   3.734  1.00  0.00     0.031 C 
ATOM     79  C   UNL     1      -5.181  -4.888   1.717  1.00  0.00     0.031 A 
BRANCH  66  80
ATOM     80  C   UNL     1      -3.896   0.433  -1.099  1.00  0.00    -0.014 A 
ATOM     81  C   UNL     1      -2.879   0.538  -2.058  1.00  0.00     0.009 A 
ATOM     82  C   UNL     1      -5.121   1.083  -1.331  1.00  0.00     0.009 A 
ATOM     83  C   UNL     1      -3.081   1.290  -3.218  1.00  0.00     0.001 A 
ATOM     84  C   UNL     1      -5.329   1.812  -2.502  1.00  0.00     0.001 A 
ATOM     85  C   UNL     1      -4.306   1.919  -3.443  1.00  0.00     0.000 A 
ENDBRANCH  66  80
BRANCH  67  86
ATOM     86  C   UNL     1      -2.310  -5.041   7.026  1.00  0.00    -0.014 A 
ATOM     87  C   UNL     1      -1.497  -6.183   6.988  1.00  0.00     0.009 A 
ATOM     88  C   UNL     1      -2.927  -4.685   8.236  1.00  0.00     0.009 A 
ATOM     89  C   UNL     1      -1.318  -6.959   8.136  1.00  0.00     0.001 A 
ATOM     90  C   UNL     1      -2.718  -5.442   9.389  1.00  0.00     0.001 A 
ATOM     91  C   UNL     1      -1.920  -6.583   9.336  1.00  0.00     0.000 A 
ENDBRANCH  67  86
BRANCH  79  92
ATOM     92  C   UNL     1      -6.012  -6.039   1.233  1.00  0.00    -0.014 A 
ATOM     93  C   UNL     1      -7.282  -6.291   1.774  1.00  0.00     0.009 A 
ATOM     94  C   UNL     1      -5.530  -6.863   0.205  1.00  0.00     0.009 A 
ATOM     95  C   UNL     1      -8.042  -7.368   1.313  1.00  0.00     0.001 A 
ATOM     96  C   UNL     1      -6.300  -7.927  -0.266  1.00  0.00     0.001 A 
ATOM     97  C   UNL     1      -7.551  -8.183   0.293  1.00  0.00     0.000 A 
ENDBRANCH  79  92
ENDBRANCH  53  54
ENDBRANCH  46  48
ENDBRANCH  45  46
ENDBRANCH  44  45
ENDBRANCH  43  44
ENDBRANCH  42  43
ENDBRANCH   1  42
TORSDOF 23
