REMARK SMILES [NH3+][C@]1(C(=O)OCCOC(=O)c2ccc(-c3c4nc(c(-c5ccccc5)c5ccc([nH]5)c(-c5ccccc5)c5nc(c(-c6ccccc6)c6ccc3[nH]6)C=C5)C=C4)cc2)CC[C@@H](Sc2cc3ccccc3[nH]2)C1
REMARK SMILES IDX 6 1 5 2 3 3 4 4 2 5 59 6 72 7 60 8 61 9 1 10 62 14 63 15
REMARK SMILES IDX 64 16 71 17 65 18 70 19 66 21 69 22 67 23 68 24 7 25 8 26
REMARK SMILES IDX 9 27 10 28 11 29 12 30 58 31 13 32 57 33 14 34 15 35 16 36
REMARK SMILES IDX 51 37 17 38 56 39 50 40 52 41 18 42 55 43 49 44 48 45 19 47
REMARK SMILES IDX 41 48 26 49 40 50 27 51 30 52 39 53 53 54 28 55 29 56 38 58
REMARK SMILES IDX 54 59 31 60 20 61 21 62 25 63 22 64 24 65 23 66 42 67 43 68
REMARK SMILES IDX 47 69 44 70 46 71 45 72 32 73 33 74 37 75 34 76 36 77 35 78
REMARK H PARENT 1 11 1 12 1 13 71 20 52 46 30 57
REMARK Flexibility Score: inf
ROOT
ATOM      1  C   UNL     1       2.554   0.108   1.603  1.00  0.00     0.274 C 
ENDROOT
BRANCH   1   2
ATOM      2  O   UNL     1       2.321  -0.042   0.189  1.00  0.00    -0.457 OA
BRANCH   2   3
ATOM      3  C   UNL     1       1.127  -0.602  -0.161  1.00  0.00     0.368 C 
ATOM      4  O   UNL     1       0.241  -0.885   0.637  1.00  0.00    -0.245 OA
BRANCH   3   5
ATOM      5  C   UNL     1       1.021  -0.831  -1.689  1.00  0.00     0.193 C 
ATOM      6  C   UNL     1       0.287  -2.154  -1.970  1.00  0.00     0.082 C 
ATOM      7  C   UNL     1       0.167   0.263  -2.349  1.00  0.00     0.096 C 
ATOM      8  C   UNL     1      -0.499  -1.913  -3.246  1.00  0.00     0.022 C 
ATOM      9  C   UNL     1      -0.908  -0.451  -3.179  1.00  0.00     0.060 C 
BRANCH   5  10
ATOM     10  N   UNL     1       2.351  -0.839  -2.351  1.00  0.00    -0.343 N 
ATOM     11  H   UNL     1       2.231  -0.992  -3.352  1.00  0.00     0.345 HD
ATOM     12  H   UNL     1       2.922  -1.587  -1.958  1.00  0.00     0.345 HD
ATOM     13  H   UNL     1       2.812   0.058  -2.197  1.00  0.00     0.345 HD
ENDBRANCH   5  10
BRANCH   9  14
ATOM     14  S   UNL     1      -2.534   0.004  -2.550  1.00  0.00    -0.105 SA
BRANCH  14  15
ATOM     15  C   UNL     1      -3.284  -1.342  -1.775  1.00  0.00     0.073 A 
ATOM     16  C   UNL     1      -3.545  -1.595  -0.445  1.00  0.00     0.043 A 
ATOM     17  N   UNL     1      -4.176  -2.069  -2.514  1.00  0.00    -0.350 N 
ATOM     18  C   UNL     1      -4.894  -2.075  -0.409  1.00  0.00     0.001 A 
ATOM     19  C   UNL     1      -5.282  -2.314  -1.728  1.00  0.00     0.046 A 
ATOM     20  H   UNL     1      -4.051  -2.367  -3.444  1.00  0.00     0.167 HD
ATOM     21  C   UNL     1      -5.861  -2.194   0.606  1.00  0.00     0.010 A 
ATOM     22  C   UNL     1      -6.591  -2.632  -2.099  1.00  0.00     0.027 A 
ATOM     23  C   UNL     1      -7.189  -2.457   0.246  1.00  0.00     0.001 A 
ATOM     24  C   UNL     1      -7.550  -2.657  -1.085  1.00  0.00     0.002 A 
ENDBRANCH  14  15
ENDBRANCH   9  14
ENDBRANCH   3   5
ENDBRANCH   2   3
ENDBRANCH   1   2
BRANCH   1  25
ATOM     25  C   UNL     1       2.266   1.530   2.082  1.00  0.00     0.275 C 
BRANCH  25  26
ATOM     26  O   UNL     1       0.852   1.800   2.109  1.00  0.00    -0.458 OA
BRANCH  26  27
ATOM     27  C   UNL     1       0.389   2.558   1.090  1.00  0.00     0.338 C 
ATOM     28  O   UNL     1       1.026   3.024   0.163  1.00  0.00    -0.246 OA
BRANCH  27  29
ATOM     29  C   UNL     1      -1.066   2.733   1.219  1.00  0.00     0.060 A 
ATOM     30  C   UNL     1      -1.902   1.758   0.684  1.00  0.00     0.016 A 
ATOM     31  C   UNL     1      -1.599   3.928   1.705  1.00  0.00     0.016 A 
ATOM     32  C   UNL     1      -3.265   2.010   0.552  1.00  0.00     0.010 A 
ATOM     33  C   UNL     1      -2.983   4.149   1.633  1.00  0.00     0.010 A 
ATOM     34  C   UNL     1      -3.825   3.209   1.013  1.00  0.00    -0.014 A 
BRANCH  34  35
ATOM     35  C   UNL     1      -5.266   3.483   0.748  1.00  0.00     0.031 A 
ATOM     36  C   UNL     1      -5.666   4.601  -0.179  1.00  0.00     0.074 A 
ATOM     37  C   UNL     1      -6.217   2.674   1.259  1.00  0.00     0.049 A 
ATOM     38  N   UNL     1      -6.866   5.012  -0.507  1.00  0.00    -0.248 NA
ATOM     39  C   UNL     1      -4.580   5.370  -0.807  1.00  0.00     0.031 C 
ATOM     40  C   UNL     1      -5.964   1.519   2.120  1.00  0.00     0.029 A 
ATOM     41  N   UNL     1      -7.580   2.660   1.078  1.00  0.00    -0.354 N 
ATOM     42  C   UNL     1      -6.678   6.140  -1.296  1.00  0.00     0.074 A 
ATOM     43  C   UNL     1      -5.250   6.328  -1.432  1.00  0.00     0.031 C 
ATOM     44  C   UNL     1      -7.112   0.847   2.298  1.00  0.00     0.029 A 
ATOM     45  C   UNL     1      -8.195   1.557   1.624  1.00  0.00     0.049 A 
ATOM     46  H   UNL     1      -8.068   3.371   0.604  1.00  0.00     0.167 HD
ATOM     47  C   UNL     1      -7.612   6.961  -1.833  1.00  0.00     0.031 A 
ATOM     48  C   UNL     1      -9.481   1.154   1.570  1.00  0.00     0.031 A 
ATOM     49  C   UNL     1      -9.031   6.735  -1.760  1.00  0.00     0.049 A 
ATOM     50  C   UNL     1     -10.487   2.031   0.876  1.00  0.00     0.074 A 
ATOM     51  C   UNL     1     -10.060   7.529  -2.236  1.00  0.00     0.029 A 
ATOM     52  N   UNL     1      -9.618   5.610  -1.204  1.00  0.00    -0.354 N 
ATOM     53  N   UNL     1     -10.296   3.132   0.191  1.00  0.00    -0.248 NA
ATOM     54  C   UNL     1     -11.896   1.616   0.968  1.00  0.00     0.031 C 
ATOM     55  C   UNL     1     -11.274   6.896  -1.943  1.00  0.00     0.029 A 
ATOM     56  C   UNL     1     -10.995   5.691  -1.319  1.00  0.00     0.049 A 
ATOM     57  H   UNL     1      -9.128   4.864  -0.789  1.00  0.00     0.167 HD
ATOM     58  C   UNL     1     -11.557   3.549  -0.212  1.00  0.00     0.074 A 
ATOM     59  C   UNL     1     -12.498   2.546   0.241  1.00  0.00     0.031 C 
ATOM     60  C   UNL     1     -11.913   4.683  -0.863  1.00  0.00     0.031 A 
BRANCH  47  61
ATOM     61  C   UNL     1      -7.127   8.233  -2.468  1.00  0.00    -0.014 A 
ATOM     62  C   UNL     1      -6.541   8.257  -3.741  1.00  0.00     0.009 A 
ATOM     63  C   UNL     1      -7.288   9.440  -1.768  1.00  0.00     0.009 A 
ATOM     64  C   UNL     1      -6.098   9.466  -4.287  1.00  0.00     0.001 A 
ATOM     65  C   UNL     1      -6.866  10.647  -2.325  1.00  0.00     0.001 A 
ATOM     66  C   UNL     1      -6.264  10.658  -3.582  1.00  0.00     0.000 A 
ENDBRANCH  47  61
BRANCH  48  67
ATOM     67  C   UNL     1      -9.897  -0.154   2.151  1.00  0.00    -0.014 A 
ATOM     68  C   UNL     1     -10.413  -1.158   1.314  1.00  0.00     0.009 A 
ATOM     69  C   UNL     1      -9.785  -0.420   3.524  1.00  0.00     0.009 A 
ATOM     70  C   UNL     1     -10.800  -2.396   1.834  1.00  0.00     0.001 A 
ATOM     71  C   UNL     1     -10.136  -1.672   4.037  1.00  0.00     0.001 A 
ATOM     72  C   UNL     1     -10.646  -2.657   3.193  1.00  0.00     0.000 A 
ENDBRANCH  48  67
BRANCH  60  73
ATOM     73  C   UNL     1     -13.381   4.896  -1.094  1.00  0.00    -0.014 A 
ATOM     74  C   UNL     1     -14.228   5.233  -0.025  1.00  0.00     0.009 A 
ATOM     75  C   UNL     1     -13.921   4.774  -2.382  1.00  0.00     0.009 A 
ATOM     76  C   UNL     1     -15.597   5.401  -0.235  1.00  0.00     0.001 A 
ATOM     77  C   UNL     1     -15.288   4.966  -2.592  1.00  0.00     0.001 A 
ATOM     78  C   UNL     1     -16.125   5.268  -1.518  1.00  0.00     0.000 A 
ENDBRANCH  60  73
ENDBRANCH  34  35
ENDBRANCH  27  29
ENDBRANCH  26  27
ENDBRANCH  25  26
ENDBRANCH   1  25
TORSDOF 14
