REMARK SMILES C[C@H]([NH3+])c1ccc(F)cc1OCC(C)(C)C(=O)OCCOC(=O)c1ccc(-c2c3nc(c(-c4ccccc4)c4ccc([nH]4)c(-c4ccccc4)c4nc(c(-c5ccccc5)c5ccc2[nH]5)C=C4)C=C3)cc1
REMARK SMILES IDX 18 1 16 2 17 3 13 4 14 5 15 6 12 7 11 8 10 9 4 10 5 11 6 12
REMARK SMILES IDX 9 13 7 14 8 15 2 16 1 17 3 18 19 22 20 23 21 24 22 25 23 26
REMARK SMILES IDX 24 27 25 28 71 29 26 30 70 31 27 32 28 33 29 34 64 35 30 36
REMARK SMILES IDX 69 37 63 38 65 39 31 40 68 41 62 42 61 43 32 45 54 46 39 47
REMARK SMILES IDX 53 48 40 49 43 50 52 51 66 52 41 53 42 54 51 56 67 57 44 58
REMARK SMILES IDX 33 59 34 60 38 61 35 62 37 63 36 64 55 65 56 66 60 67 57 68
REMARK SMILES IDX 59 69 58 70 45 71 46 72 50 73 47 74 49 75 48 76
REMARK H PARENT 3 19 3 20 3 21 65 44 43 55
REMARK Flexibility Score: inf
ROOT
ATOM      1  O   UNL     1       1.095   0.944  -4.684  1.00  0.00    -0.462 OA
ENDROOT
BRANCH   1   2
ATOM      2  C   UNL     1       0.398   0.145  -3.827  1.00  0.00     0.315 C 
ATOM      3  O   UNL     1      -0.801  -0.077  -3.931  1.00  0.00    -0.251 OA
BRANCH   2   4
ATOM      4  C   UNL     1       1.273  -0.334  -2.662  1.00  0.00     0.096 C 
ATOM      5  C   UNL     1       1.115   0.720  -1.563  1.00  0.00     0.027 C 
ATOM      6  C   UNL     1       2.762  -0.397  -3.069  1.00  0.00     0.027 C 
BRANCH   4   7
ATOM      7  C   UNL     1       0.892  -1.774  -2.226  1.00  0.00     0.247 C 
BRANCH   7   8
ATOM      8  O   UNL     1      -0.472  -2.074  -1.979  1.00  0.00    -0.492 OA
BRANCH   8   9
ATOM      9  C   UNL     1      -1.233  -1.650  -0.936  1.00  0.00     0.131 A 
ATOM     10  C   UNL     1      -0.886  -1.373   0.402  1.00  0.00     0.051 A 
ATOM     11  C   UNL     1      -1.936  -1.008   1.289  1.00  0.00     0.017 A 
ATOM     12  C   UNL     1      -3.266  -0.923   0.877  1.00  0.00     0.040 A 
ATOM     13  C   UNL     1      -2.586  -1.584  -1.326  1.00  0.00     0.086 A 
ATOM     14  C   UNL     1      -3.581  -1.221  -0.432  1.00  0.00     0.126 A 
ATOM     15  F   UNL     1      -4.857  -1.173  -0.835  1.00  0.00    -0.207 F 
BRANCH  10  16
ATOM     16  C   UNL     1       0.505  -1.541   0.989  1.00  0.00     0.212 C 
ATOM     17  C   UNL     1       0.688  -2.931   1.591  1.00  0.00     0.081 C 
BRANCH  16  18
ATOM     18  N   UNL     1       0.863  -0.509   1.971  1.00  0.00    -0.351 N 
ATOM     19  H   UNL     1       0.246  -0.583   2.781  1.00  0.00     0.345 HD
ATOM     20  H   UNL     1       0.760   0.413   1.548  1.00  0.00     0.345 HD
ATOM     21  H   UNL     1       1.830  -0.643   2.267  1.00  0.00     0.345 HD
ENDBRANCH  16  18
ENDBRANCH  10  16
ENDBRANCH   8   9
ENDBRANCH   7   8
ENDBRANCH   4   7
ENDBRANCH   2   4
ENDBRANCH   1   2
BRANCH   1  22
ATOM     22  C   UNL     1       0.351   1.549  -5.758  1.00  0.00     0.274 C 
BRANCH  22  23
ATOM     23  C   UNL     1       0.603   0.819  -7.074  1.00  0.00     0.275 C 
BRANCH  23  24
ATOM     24  O   UNL     1       0.048  -0.507  -7.023  1.00  0.00    -0.458 OA
BRANCH  24  25
ATOM     25  C   UNL     1       0.943  -1.506  -6.878  1.00  0.00     0.338 C 
ATOM     26  O   UNL     1       2.162  -1.424  -6.837  1.00  0.00    -0.246 OA
BRANCH  25  27
ATOM     27  C   UNL     1       0.234  -2.779  -6.709  1.00  0.00     0.060 A 
ATOM     28  C   UNL     1      -0.302  -3.087  -5.461  1.00  0.00     0.016 A 
ATOM     29  C   UNL     1       0.226  -3.724  -7.732  1.00  0.00     0.016 A 
ATOM     30  C   UNL     1      -0.767  -4.370  -5.195  1.00  0.00     0.010 A 
ATOM     31  C   UNL     1      -0.329  -4.985  -7.492  1.00  0.00     0.010 A 
ATOM     32  C   UNL     1      -0.799  -5.333  -6.210  1.00  0.00    -0.014 A 
BRANCH  32  33
ATOM     33  C   UNL     1      -1.281  -6.712  -5.931  1.00  0.00     0.031 A 
ATOM     34  C   UNL     1      -0.366  -7.886  -6.152  1.00  0.00     0.074 A 
ATOM     35  C   UNL     1      -2.531  -6.925  -5.473  1.00  0.00     0.049 A 
ATOM     36  N   UNL     1      -0.651  -9.164  -6.188  1.00  0.00    -0.248 NA
ATOM     37  C   UNL     1       1.057  -7.582  -6.374  1.00  0.00     0.031 C 
ATOM     38  C   UNL     1      -3.507  -5.886  -5.139  1.00  0.00     0.029 A 
ATOM     39  N   UNL     1      -3.193  -8.098  -5.207  1.00  0.00    -0.354 N 
ATOM     40  C   UNL     1       0.539  -9.808  -6.501  1.00  0.00     0.074 A 
ATOM     41  C   UNL     1       1.553  -8.783  -6.636  1.00  0.00     0.031 C 
ATOM     42  C   UNL     1      -4.628  -6.465  -4.682  1.00  0.00     0.029 A 
ATOM     43  C   UNL     1      -4.485  -7.913  -4.779  1.00  0.00     0.049 A 
ATOM     44  H   UNL     1      -2.781  -8.986  -5.312  1.00  0.00     0.167 HD
ATOM     45  C   UNL     1       0.764 -11.133  -6.671  1.00  0.00     0.031 A 
ATOM     46  C   UNL     1      -5.466  -8.803  -4.540  1.00  0.00     0.031 A 
ATOM     47  C   UNL     1      -0.234 -12.154  -6.493  1.00  0.00     0.049 A 
ATOM     48  C   UNL     1      -5.208 -10.262  -4.781  1.00  0.00     0.074 A 
ATOM     49  C   UNL     1      -0.105 -13.524  -6.647  1.00  0.00     0.029 A 
ATOM     50  N   UNL     1      -1.541 -11.916  -6.099  1.00  0.00    -0.354 N 
ATOM     51  N   UNL     1      -4.103 -10.853  -5.163  1.00  0.00    -0.248 NA
ATOM     52  C   UNL     1      -6.344 -11.174  -4.581  1.00  0.00     0.031 C 
ATOM     53  C   UNL     1      -1.346 -14.112  -6.376  1.00  0.00     0.029 A 
ATOM     54  C   UNL     1      -2.233 -13.112  -6.014  1.00  0.00     0.049 A 
ATOM     55  H   UNL     1      -1.921 -11.028  -5.908  1.00  0.00     0.167 HD
ATOM     56  C   UNL     1      -4.407 -12.205  -5.245  1.00  0.00     0.074 A 
ATOM     57  C   UNL     1      -5.794 -12.349  -4.850  1.00  0.00     0.031 C 
ATOM     58  C   UNL     1      -3.612 -13.235  -5.623  1.00  0.00     0.031 A 
BRANCH  45  59
ATOM     59  C   UNL     1       2.135 -11.549  -7.121  1.00  0.00    -0.014 A 
ATOM     60  C   UNL     1       3.231 -11.545  -6.245  1.00  0.00     0.009 A 
ATOM     61  C   UNL     1       2.323 -11.981  -8.444  1.00  0.00     0.009 A 
ATOM     62  C   UNL     1       4.494 -11.936  -6.696  1.00  0.00     0.001 A 
ATOM     63  C   UNL     1       3.581 -12.394  -8.884  1.00  0.00     0.001 A 
ATOM     64  C   UNL     1       4.667 -12.364  -8.012  1.00  0.00     0.000 A 
ENDBRANCH  45  59
BRANCH  46  65
ATOM     65  C   UNL     1      -6.807  -8.331  -4.109  1.00  0.00    -0.014 A 
ATOM     66  C   UNL     1      -7.264  -8.574  -2.806  1.00  0.00     0.009 A 
ATOM     67  C   UNL     1      -7.636  -7.631  -5.001  1.00  0.00     0.009 A 
ATOM     68  C   UNL     1      -8.530  -8.138  -2.409  1.00  0.00     0.001 A 
ATOM     69  C   UNL     1      -8.889  -7.171  -4.593  1.00  0.00     0.001 A 
ATOM     70  C   UNL     1      -9.338  -7.432  -3.300  1.00  0.00     0.000 A 
ENDBRANCH  46  65
BRANCH  58  71
ATOM     71  C   UNL     1      -4.219 -14.606  -5.599  1.00  0.00    -0.014 A 
ATOM     72  C   UNL     1      -5.112 -15.019  -6.599  1.00  0.00     0.009 A 
ATOM     73  C   UNL     1      -3.874 -15.503  -4.576  1.00  0.00     0.009 A 
ATOM     74  C   UNL     1      -5.670 -16.298  -6.559  1.00  0.00     0.001 A 
ATOM     75  C   UNL     1      -4.417 -16.787  -4.552  1.00  0.00     0.001 A 
ATOM     76  C   UNL     1      -5.320 -17.181  -5.538  1.00  0.00     0.000 A 
ENDBRANCH  58  71
ENDBRANCH  32  33
ENDBRANCH  25  27
ENDBRANCH  24  25
ENDBRANCH  23  24
ENDBRANCH  22  23
ENDBRANCH   1  22
TORSDOF 16
