REMARK SMILES O=C(OCCOC(=O)c1cc(-c2ccc(Cl)cc2)nc2c3c(C4CC4)cc(C(F)(F)F)nc3nn12)c1ccc(-c2c3nc(c(-c4ccccc4)c4ccc([nH]4)c(-c4ccccc4)c4nc(c(-c5ccccc5)c5ccc2[nH]5)C=C4)C=C3)cc1
REMARK SMILES IDX 4 1 3 2 2 3 1 4 36 5 37 6 83 7 38 8 82 9 39 10 40 11 41 12
REMARK SMILES IDX 76 13 42 14 81 15 75 16 77 17 43 18 80 19 74 20 73 21 44 23
REMARK SMILES IDX 66 24 51 25 65 26 52 27 55 28 64 29 78 30 53 31 54 32 63 34
REMARK SMILES IDX 79 35 56 36 45 37 46 38 50 39 47 40 49 41 48 42 67 43 68 44
REMARK SMILES IDX 72 45 69 46 71 47 70 48 57 49 58 50 62 51 59 52 61 53 60 54
REMARK SMILES IDX 5 55 6 56 7 57 8 58 9 59 10 60 35 61 11 62 20 63 34 64 19 65
REMARK SMILES IDX 21 66 33 67 22 68 32 69 26 70 27 71 12 72 13 73 18 74 14 75
REMARK SMILES IDX 17 76 15 77 16 78 23 79 24 80 25 81 28 82 29 83 30 84 31 85
REMARK H PARENT 77 22 55 33
REMARK Flexibility Score: inf
ROOT
ATOM      1  C   UNL     1       4.114   0.271   1.582  1.00  0.00     0.275 C 
ENDROOT
BRANCH   1   2
ATOM      2  O   UNL     1       2.952   0.554   0.778  1.00  0.00    -0.458 OA
BRANCH   2   3
ATOM      3  C   UNL     1       2.803   0.387  -0.557  1.00  0.00     0.338 C 
ATOM      4  O   UNL     1       1.685   0.479  -1.060  1.00  0.00    -0.246 OA
BRANCH   3   5
ATOM      5  C   UNL     1       3.950   0.132  -1.470  1.00  0.00     0.060 A 
ATOM      6  C   UNL     1       5.100  -0.584  -1.132  1.00  0.00     0.016 A 
ATOM      7  C   UNL     1       3.820   0.605  -2.786  1.00  0.00     0.016 A 
ATOM      8  C   UNL     1       6.140  -0.740  -2.024  1.00  0.00     0.010 A 
ATOM      9  C   UNL     1       4.854   0.435  -3.700  1.00  0.00     0.010 A 
ATOM     10  C   UNL     1       6.024  -0.216  -3.302  1.00  0.00    -0.014 A 
BRANCH  10  11
ATOM     11  C   UNL     1       7.178  -0.432  -4.171  1.00  0.00     0.031 A 
ATOM     12  C   UNL     1       6.838  -1.007  -5.495  1.00  0.00     0.074 A 
ATOM     13  C   UNL     1       8.291   0.296  -3.942  1.00  0.00     0.049 A 
ATOM     14  N   UNL     1       6.361  -0.241  -6.429  1.00  0.00    -0.248 NA
ATOM     15  C   UNL     1       6.648  -2.433  -5.749  1.00  0.00     0.031 C 
ATOM     16  C   UNL     1       8.257   1.642  -3.340  1.00  0.00     0.029 A 
ATOM     17  N   UNL     1       9.587   0.147  -4.356  1.00  0.00    -0.354 N 
ATOM     18  C   UNL     1       5.740  -1.053  -7.353  1.00  0.00     0.074 A 
ATOM     19  C   UNL     1       5.979  -2.411  -6.915  1.00  0.00     0.031 C 
ATOM     20  C   UNL     1       9.414   2.272  -3.622  1.00  0.00     0.029 A 
ATOM     21  C   UNL     1      10.311   1.337  -4.288  1.00  0.00     0.049 A 
ATOM     22  H   UNL     1       9.966  -0.707  -4.667  1.00  0.00     0.167 HD
ATOM     23  C   UNL     1       5.039  -0.533  -8.393  1.00  0.00     0.031 A 
ATOM     24  C   UNL     1      11.256   1.682  -5.204  1.00  0.00     0.031 A 
ATOM     25  C   UNL     1       4.945   0.899  -8.405  1.00  0.00     0.049 A 
ATOM     26  C   UNL     1      10.370   1.978  -6.402  1.00  0.00     0.074 A 
ATOM     27  C   UNL     1       4.010   1.854  -8.069  1.00  0.00     0.029 A 
ATOM     28  N   UNL     1       6.075   1.609  -8.734  1.00  0.00    -0.354 N 
ATOM     29  N   UNL     1       9.623   3.038  -6.573  1.00  0.00    -0.248 NA
ATOM     30  C   UNL     1      10.025   0.852  -7.274  1.00  0.00     0.031 C 
ATOM     31  C   UNL     1       4.763   3.037  -7.784  1.00  0.00     0.029 A 
ATOM     32  C   UNL     1       6.114   2.722  -7.935  1.00  0.00     0.049 A 
ATOM     33  H   UNL     1       6.737   1.362  -9.419  1.00  0.00     0.167 HD
ATOM     34  C   UNL     1       8.531   2.611  -7.337  1.00  0.00     0.074 A 
ATOM     35  C   UNL     1       8.860   1.264  -7.759  1.00  0.00     0.031 C 
ATOM     36  C   UNL     1       7.350   3.291  -7.433  1.00  0.00     0.031 A 
BRANCH  23  37
ATOM     37  C   UNL     1       4.566  -1.311  -9.551  1.00  0.00    -0.014 A 
ATOM     38  C   UNL     1       5.429  -1.374 -10.657  1.00  0.00     0.009 A 
ATOM     39  C   UNL     1       3.256  -1.783  -9.674  1.00  0.00     0.009 A 
ATOM     40  C   UNL     1       4.983  -1.860 -11.882  1.00  0.00     0.001 A 
ATOM     41  C   UNL     1       2.814  -2.285 -10.904  1.00  0.00     0.001 A 
ATOM     42  C   UNL     1       3.672  -2.308 -12.008  1.00  0.00     0.000 A 
ENDBRANCH  23  37
BRANCH  24  43
ATOM     43  C   UNL     1      12.415   0.727  -5.251  1.00  0.00    -0.014 A 
ATOM     44  C   UNL     1      12.961   0.274  -4.029  1.00  0.00     0.009 A 
ATOM     45  C   UNL     1      12.981   0.223  -6.429  1.00  0.00     0.009 A 
ATOM     46  C   UNL     1      13.914  -0.746  -3.983  1.00  0.00     0.001 A 
ATOM     47  C   UNL     1      13.922  -0.815  -6.386  1.00  0.00     0.001 A 
ATOM     48  C   UNL     1      14.369  -1.315  -5.165  1.00  0.00     0.000 A 
ENDBRANCH  24  43
BRANCH  36  49
ATOM     49  C   UNL     1       7.301   4.644  -6.797  1.00  0.00    -0.014 A 
ATOM     50  C   UNL     1       7.983   5.714  -7.386  1.00  0.00     0.009 A 
ATOM     51  C   UNL     1       6.491   4.888  -5.674  1.00  0.00     0.009 A 
ATOM     52  C   UNL     1       7.830   7.009  -6.889  1.00  0.00     0.001 A 
ATOM     53  C   UNL     1       6.326   6.186  -5.187  1.00  0.00     0.001 A 
ATOM     54  C   UNL     1       6.989   7.247  -5.802  1.00  0.00     0.000 A 
ENDBRANCH  36  49
ENDBRANCH  10  11
ENDBRANCH   3   5
ENDBRANCH   2   3
ENDBRANCH   1   2
BRANCH   1  55
ATOM     55  C   UNL     1       4.106  -1.186   2.083  1.00  0.00     0.275 C 
BRANCH  55  56
ATOM     56  O   UNL     1       3.771  -2.129   1.039  1.00  0.00    -0.457 OA
BRANCH  56  57
ATOM     57  C   UNL     1       2.462  -2.447   0.909  1.00  0.00     0.357 C 
ATOM     58  O   UNL     1       1.572  -2.095   1.678  1.00  0.00    -0.244 OA
BRANCH  57  59
ATOM     59  C   UNL     1       2.187  -3.139  -0.364  1.00  0.00     0.154 A 
ATOM     60  C   UNL     1       1.124  -2.682  -1.049  1.00  0.00     0.065 A 
ATOM     61  N   UNL     1       2.907  -4.235  -0.838  1.00  0.00    -0.205 N 
ATOM     62  C   UNL     1       0.803  -3.408  -2.306  1.00  0.00     0.075 A 
ATOM     63  C   UNL     1       2.448  -4.943  -1.975  1.00  0.00     0.166 A 
ATOM     64  N   UNL     1       4.030  -4.792  -0.319  1.00  0.00    -0.145 NA
ATOM     65  N   UNL     1       1.402  -4.480  -2.733  1.00  0.00    -0.228 NA
ATOM     66  C   UNL     1       3.218  -6.088  -2.028  1.00  0.00     0.069 A 
ATOM     67  C   UNL     1       4.202  -5.913  -1.011  1.00  0.00     0.184 A 
ATOM     68  C   UNL     1       3.079  -7.197  -2.880  1.00  0.00    -0.028 A 
ATOM     69  N   UNL     1       5.176  -6.824  -0.777  1.00  0.00    -0.222 NA
ATOM     70  C   UNL     1       4.097  -8.131  -2.589  1.00  0.00     0.038 A 
ATOM     71  C   UNL     1       5.086  -7.931  -1.582  1.00  0.00     0.147 A 
BRANCH  62  72
ATOM     72  C   UNL     1      -0.325  -2.835  -3.063  1.00  0.00     0.000 A 
ATOM     73  C   UNL     1      -1.603  -3.366  -2.872  1.00  0.00     0.012 A 
ATOM     74  C   UNL     1      -0.119  -1.744  -3.913  1.00  0.00     0.012 A 
ATOM     75  C   UNL     1      -2.692  -2.786  -3.524  1.00  0.00     0.021 A 
ATOM     76  C   UNL     1      -1.212  -1.172  -4.569  1.00  0.00     0.021 A 
ATOM     77  C   UNL     1      -2.493  -1.691  -4.367  1.00  0.00     0.041 A 
ATOM     78  Cl  UNL     1      -3.842  -0.970  -5.156  1.00  0.00    -0.084 Cl
ENDBRANCH  62  72
BRANCH  68  79
ATOM     79  C   UNL     1       1.966  -7.362  -3.871  1.00  0.00     0.020 C 
ATOM     80  C   UNL     1       1.841  -8.583  -4.757  1.00  0.00     0.009 C 
ATOM     81  C   UNL     1       0.905  -8.409  -3.601  1.00  0.00     0.009 C 
ENDBRANCH  68  79
BRANCH  71  82
ATOM     82  C   UNL     1       6.125  -9.030  -1.367  1.00  0.00     0.433 C 
ATOM     83  F   UNL     1       7.384  -8.643  -1.721  1.00  0.00    -0.165 F 
ATOM     84  F   UNL     1       6.205  -9.448  -0.072  1.00  0.00    -0.165 F 
ATOM     85  F   UNL     1       5.878 -10.160  -2.096  1.00  0.00    -0.165 F 
ENDBRANCH  71  82
ENDBRANCH  57  59
ENDBRANCH  56  57
ENDBRANCH  55  56
ENDBRANCH   1  55
TORSDOF 14
