REMARK SMILES O=C(CCC(=O)N1N=C(c2ccc(F)cc2)C[C@@H]1c1ccc2nccnc2c1)OCCOC(=O)c1ccc(-c2c3nc(c(-c4ccccc4)c4ccc([nH]4)c(-c4ccccc4)c4nc(c(-c5ccccc5)c5ccc2[nH]5)C=C4)C=C3)cc1
REMARK SMILES IDX 30 1 29 2 2 3 1 4 3 5 4 6 5 7 6 8 7 9 8 10 18 11 9 12 17 13
REMARK SMILES IDX 19 14 20 15 28 16 21 17 27 18 22 19 26 20 23 21 25 22 24 23
REMARK SMILES IDX 10 24 11 25 16 26 12 27 15 28 13 29 14 30 31 31 32 32 33 33
REMARK SMILES IDX 34 34 35 35 36 36 82 37 37 38 81 39 38 40 39 41 40 42 75 43
REMARK SMILES IDX 41 44 80 45 74 46 76 47 42 48 79 49 73 50 72 51 43 53 65 54
REMARK SMILES IDX 50 55 64 56 51 57 54 58 63 59 77 60 52 61 53 62 62 64 78 65
REMARK SMILES IDX 55 66 44 67 45 68 49 69 46 70 48 71 47 72 66 73 67 74 71 75
REMARK SMILES IDX 68 76 70 77 69 78 56 79 57 80 61 81 58 82 60 83 59 84
REMARK H PARENT 76 52 54 63
REMARK Flexibility Score: inf
ROOT
ATOM      1  C   UNL     1       5.411  -0.520   0.473  1.00  0.00     0.274 C 
ENDROOT
BRANCH   1   2
ATOM      2  O   UNL     1       4.029  -0.072   0.516  1.00  0.00    -0.462 OA
BRANCH   2   3
ATOM      3  C   UNL     1       2.918  -0.690   0.085  1.00  0.00     0.306 C 
ATOM      4  O   UNL     1       1.798  -0.210   0.236  1.00  0.00    -0.252 OA
BRANCH   3   5
ATOM      5  C   UNL     1       3.115  -1.865  -0.777  1.00  0.00     0.132 C 
BRANCH   5   6
ATOM      6  C   UNL     1       3.361  -1.319  -2.163  1.00  0.00     0.114 C 
BRANCH   6   7
ATOM      7  C   UNL     1       4.401  -0.202  -2.306  1.00  0.00     0.243 C 
ATOM      8  O   UNL     1       5.515  -0.594  -2.703  1.00  0.00    -0.273 OA
BRANCH   7   9
ATOM      9  N   UNL     1       4.151   1.167  -2.130  1.00  0.00    -0.225 N 
ATOM     10  N   UNL     1       4.808   1.869  -3.119  1.00  0.00    -0.174 NA
ATOM     11  C   UNL     1       3.089   2.074  -1.486  1.00  0.00     0.147 C 
ATOM     12  C   UNL     1       4.173   2.967  -3.329  1.00  0.00     0.071 C 
ATOM     13  C   UNL     1       3.070   3.310  -2.400  1.00  0.00     0.091 C 
BRANCH  11  14
ATOM     14  C   UNL     1       3.247   2.656  -0.050  1.00  0.00    -0.021 A 
ATOM     15  C   UNL     1       2.132   3.297   0.529  1.00  0.00     0.008 A 
ATOM     16  C   UNL     1       4.409   2.644   0.739  1.00  0.00     0.036 A 
ATOM     17  C   UNL     1       2.149   3.764   1.853  1.00  0.00     0.031 A 
ATOM     18  C   UNL     1       4.409   2.996   2.109  1.00  0.00     0.089 A 
ATOM     19  C   UNL     1       3.237   3.549   2.678  1.00  0.00     0.089 A 
ATOM     20  N   UNL     1       5.481   2.737   2.898  1.00  0.00    -0.253 NA
ATOM     21  N   UNL     1       3.130   3.830   3.997  1.00  0.00    -0.253 NA
ATOM     22  C   UNL     1       5.307   2.895   4.234  1.00  0.00     0.132 A 
ATOM     23  C   UNL     1       4.160   3.438   4.772  1.00  0.00     0.132 A 
ENDBRANCH  11  14
BRANCH  12  24
ATOM     24  C   UNL     1       4.450   3.766  -4.513  1.00  0.00    -0.002 A 
ATOM     25  C   UNL     1       4.984   5.045  -4.403  1.00  0.00     0.013 A 
ATOM     26  C   UNL     1       4.218   3.163  -5.756  1.00  0.00     0.013 A 
ATOM     27  C   UNL     1       5.295   5.735  -5.573  1.00  0.00     0.040 A 
ATOM     28  C   UNL     1       4.516   3.865  -6.917  1.00  0.00     0.040 A 
ATOM     29  C   UNL     1       5.056   5.143  -6.814  1.00  0.00     0.123 A 
ATOM     30  F   UNL     1       5.361   5.814  -7.931  1.00  0.00    -0.207 F 
ENDBRANCH  12  24
ENDBRANCH   7   9
ENDBRANCH   6   7
ENDBRANCH   5   6
ENDBRANCH   3   5
ENDBRANCH   2   3
ENDBRANCH   1   2
BRANCH   1  31
ATOM     31  C   UNL     1       5.939  -0.511   1.894  1.00  0.00     0.275 C 
BRANCH  31  32
ATOM     32  O   UNL     1       5.106  -1.353   2.692  1.00  0.00    -0.458 OA
BRANCH  32  33
ATOM     33  C   UNL     1       3.922  -0.843   3.118  1.00  0.00     0.338 C 
ATOM     34  O   UNL     1       3.534   0.309   3.163  1.00  0.00    -0.246 OA
BRANCH  33  35
ATOM     35  C   UNL     1       3.067  -2.007   3.326  1.00  0.00     0.060 A 
ATOM     36  C   UNL     1       1.759  -2.040   2.821  1.00  0.00     0.016 A 
ATOM     37  C   UNL     1       3.635  -3.102   3.974  1.00  0.00     0.016 A 
ATOM     38  C   UNL     1       1.011  -3.199   2.951  1.00  0.00     0.010 A 
ATOM     39  C   UNL     1       2.894  -4.250   4.114  1.00  0.00     0.010 A 
ATOM     40  C   UNL     1       1.576  -4.279   3.634  1.00  0.00    -0.014 A 
BRANCH  40  41
ATOM     41  C   UNL     1       0.744  -5.378   4.119  1.00  0.00     0.031 A 
ATOM     42  C   UNL     1       0.286  -5.291   5.540  1.00  0.00     0.074 A 
ATOM     43  C   UNL     1       0.551  -6.452   3.345  1.00  0.00     0.049 A 
ATOM     44  N   UNL     1      -0.280  -6.200   6.281  1.00  0.00    -0.248 NA
ATOM     45  C   UNL     1       0.543  -4.012   6.231  1.00  0.00     0.031 C 
ATOM     46  C   UNL     1       0.972  -6.584   1.951  1.00  0.00     0.029 A 
ATOM     47  N   UNL     1      -0.025  -7.651   3.647  1.00  0.00    -0.354 N 
ATOM     48  C   UNL     1      -0.423  -5.614   7.530  1.00  0.00     0.074 A 
ATOM     49  C   UNL     1       0.149  -4.290   7.462  1.00  0.00     0.031 C 
ATOM     50  C   UNL     1       0.640  -7.811   1.515  1.00  0.00     0.029 A 
ATOM     51  C   UNL     1       0.028  -8.550   2.615  1.00  0.00     0.049 A 
ATOM     52  H   UNL     1      -0.438  -7.849   4.518  1.00  0.00     0.167 HD
ATOM     53  C   UNL     1      -0.988  -6.146   8.636  1.00  0.00     0.031 A 
ATOM     54  C   UNL     1      -0.364  -9.834   2.592  1.00  0.00     0.031 A 
ATOM     55  C   UNL     1      -1.518  -7.480   8.671  1.00  0.00     0.049 A 
ATOM     56  C   UNL     1      -0.954 -10.416   3.848  1.00  0.00     0.074 A 
ATOM     57  C   UNL     1      -2.143  -8.137   9.712  1.00  0.00     0.029 A 
ATOM     58  N   UNL     1      -1.469  -8.367   7.601  1.00  0.00    -0.354 N 
ATOM     59  N   UNL     1      -1.135  -9.851   5.020  1.00  0.00    -0.248 NA
ATOM     60  C   UNL     1      -1.408 -11.809   3.772  1.00  0.00     0.031 C 
ATOM     61  C   UNL     1      -2.417  -9.443   9.291  1.00  0.00     0.029 A 
ATOM     62  C   UNL     1      -2.034  -9.574   7.964  1.00  0.00     0.049 A 
ATOM     63  H   UNL     1      -1.088  -8.164   6.716  1.00  0.00     0.167 HD
ATOM     64  C   UNL     1      -1.769 -10.802   5.808  1.00  0.00     0.074 A 
ATOM     65  C   UNL     1      -1.941 -11.977   4.973  1.00  0.00     0.031 C 
ATOM     66  C   UNL     1      -2.184 -10.717   7.097  1.00  0.00     0.031 A 
BRANCH  53  67
ATOM     67  C   UNL     1      -1.000  -5.299   9.876  1.00  0.00    -0.014 A 
ATOM     68  C   UNL     1      -1.751  -4.113   9.952  1.00  0.00     0.009 A 
ATOM     69  C   UNL     1      -0.223  -5.677  10.981  1.00  0.00     0.009 A 
ATOM     70  C   UNL     1      -1.685  -3.303  11.087  1.00  0.00     0.001 A 
ATOM     71  C   UNL     1      -0.187  -4.884  12.129  1.00  0.00     0.001 A 
ATOM     72  C   UNL     1      -0.907  -3.691  12.176  1.00  0.00     0.000 A 
ENDBRANCH  53  67
BRANCH  54  73
ATOM     73  C   UNL     1      -0.248 -10.626   1.344  1.00  0.00    -0.014 A 
ATOM     74  C   UNL     1      -1.401 -10.995   0.636  1.00  0.00     0.009 A 
ATOM     75  C   UNL     1       1.007 -11.003   0.840  1.00  0.00     0.009 A 
ATOM     76  C   UNL     1      -1.304 -11.753  -0.533  1.00  0.00     0.001 A 
ATOM     77  C   UNL     1       1.103 -11.735  -0.345  1.00  0.00     0.001 A 
ATOM     78  C   UNL     1      -0.053 -12.118  -1.025  1.00  0.00     0.000 A 
ENDBRANCH  54  73
BRANCH  66  79
ATOM     79  C   UNL     1      -2.921 -11.905   7.650  1.00  0.00    -0.014 A 
ATOM     80  C   UNL     1      -2.273 -13.121   7.912  1.00  0.00     0.009 A 
ATOM     81  C   UNL     1      -4.289 -11.784   7.941  1.00  0.00     0.009 A 
ATOM     82  C   UNL     1      -2.994 -14.208   8.409  1.00  0.00     0.001 A 
ATOM     83  C   UNL     1      -4.998 -12.858   8.475  1.00  0.00     0.001 A 
ATOM     84  C   UNL     1      -4.353 -14.074   8.694  1.00  0.00     0.000 A 
ENDBRANCH  66  79
ENDBRANCH  40  41
ENDBRANCH  33  35
ENDBRANCH  32  33
ENDBRANCH  31  32
ENDBRANCH   1  31
TORSDOF 16
