REMARK SMILES CC1=Nc2c(c(C)nn2-c2ccc(F)cc2)[C@H](c2ccc(C(=O)OCCOC(=O)c3ccc(-c4c5nc(c(-c6ccccc6)c6ccc([nH]6)c(-c6ccccc6)c6nc(c(-c7ccccc7)c7ccc4[nH]7)C=C6)C=C5)cc3)cc2)S1
REMARK SMILES IDX 25 1 24 2 22 3 23 4 21 5 18 6 19 7 79 8 20 9 78 10 17 11
REMARK SMILES IDX 1 12 2 13 3 14 80 15 4 16 5 17 9 18 6 19 8 20 7 21 10 22
REMARK SMILES IDX 11 23 16 24 12 25 15 26 13 27 14 28 26 29 27 30 28 31 29 32
REMARK SMILES IDX 30 33 31 34 77 35 32 36 76 37 33 38 34 39 35 40 70 41 36 42
REMARK SMILES IDX 75 43 69 44 71 45 37 46 74 47 68 48 67 49 38 51 60 52 45 53
REMARK SMILES IDX 59 54 46 55 49 56 58 57 72 58 47 59 48 60 57 62 73 63 50 64
REMARK SMILES IDX 39 65 40 66 44 67 41 68 43 69 42 70 61 71 62 72 66 73 63 74
REMARK SMILES IDX 65 75 64 76 51 77 52 78 56 79 53 80 55 81 54 82
REMARK H PARENT 71 50 49 61
REMARK Flexibility Score: inf
ROOT
ATOM      1  C   UNL     1      -3.464   2.077   7.977  1.00  0.00     0.275 C 
ENDROOT
BRANCH   1   2
ATOM      2  O   UNL     1      -3.053   1.982   6.602  1.00  0.00    -0.458 OA
BRANCH   2   3
ATOM      3  C   UNL     1      -3.668   2.844   5.753  1.00  0.00     0.338 C 
ATOM      4  O   UNL     1      -4.623   3.559   6.030  1.00  0.00    -0.246 OA
BRANCH   3   5
ATOM      5  C   UNL     1      -2.988   2.896   4.432  1.00  0.00     0.060 A 
ATOM      6  C   UNL     1      -1.866   3.044   1.829  1.00  0.00    -0.030 A 
ATOM      7  C   UNL     1      -2.815   3.984   2.272  1.00  0.00     0.006 A 
ATOM      8  C   UNL     1      -1.441   2.069   2.752  1.00  0.00     0.006 A 
ATOM      9  C   UNL     1      -3.358   3.921   3.556  1.00  0.00     0.016 A 
ATOM     10  C   UNL     1      -2.006   1.985   4.035  1.00  0.00     0.016 A 
BRANCH   6  11
ATOM     11  C   UNL     1      -1.410   3.099   0.375  1.00  0.00     0.119 C 
ATOM     12  C   UNL     1       1.054  -0.168  -0.236  1.00  0.00     0.075 C 
ATOM     13  C   UNL     1       0.584   1.262  -0.222  1.00  0.00     0.074 C 
ATOM     14  N   UNL     1       1.472   2.195  -0.103  1.00  0.00    -0.227 NA
ATOM     15  S   UNL     1      -1.154   1.464  -0.395  1.00  0.00    -0.098 SA
ATOM     16  C   UNL     1       1.047   3.477  -0.000  1.00  0.00     0.161 A 
ATOM     17  C   UNL     1      -0.210   3.963   0.282  1.00  0.00     0.038 A 
ATOM     18  N   UNL     1       1.884   4.578  -0.097  1.00  0.00    -0.215 N 
ATOM     19  C   UNL     1      -0.041   5.371   0.359  1.00  0.00     0.067 A 
ATOM     20  N   UNL     1       1.246   5.725   0.246  1.00  0.00    -0.171 NA
ATOM     21  C   UNL     1      -1.066   6.429   0.543  1.00  0.00     0.069 C 
BRANCH  18  22
ATOM     22  C   UNL     1       3.230   4.599  -0.535  1.00  0.00     0.067 A 
ATOM     23  C   UNL     1       3.633   3.776  -1.599  1.00  0.00     0.031 A 
ATOM     24  C   UNL     1       4.152   5.439   0.101  1.00  0.00     0.031 A 
ATOM     25  C   UNL     1       4.964   3.783  -2.013  1.00  0.00     0.041 A 
ATOM     26  C   UNL     1       5.493   5.398  -0.284  1.00  0.00     0.041 A 
ATOM     27  C   UNL     1       5.885   4.576  -1.337  1.00  0.00     0.123 A 
ATOM     28  F   UNL     1       7.172   4.545  -1.707  1.00  0.00    -0.207 F 
ENDBRANCH  18  22
ENDBRANCH   6  11
ENDBRANCH   3   5
ENDBRANCH   2   3
ENDBRANCH   1   2
BRANCH   1  29
ATOM     29  C   UNL     1      -2.598   3.067   8.746  1.00  0.00     0.275 C 
BRANCH  29  30
ATOM     30  O   UNL     1      -2.820   4.413   8.323  1.00  0.00    -0.458 OA
BRANCH  30  31
ATOM     31  C   UNL     1      -1.974   4.854   7.364  1.00  0.00     0.338 C 
ATOM     32  O   UNL     1      -1.252   4.181   6.648  1.00  0.00    -0.246 OA
BRANCH  31  33
ATOM     33  C   UNL     1      -1.847   6.313   7.464  1.00  0.00     0.060 A 
ATOM     34  C   UNL     1      -1.029   6.947   6.523  1.00  0.00     0.016 A 
ATOM     35  C   UNL     1      -2.275   6.968   8.628  1.00  0.00     0.016 A 
ATOM     36  C   UNL     1      -0.500   8.183   6.834  1.00  0.00     0.010 A 
ATOM     37  C   UNL     1      -1.734   8.193   8.944  1.00  0.00     0.010 A 
ATOM     38  C   UNL     1      -0.797   8.751   8.078  1.00  0.00    -0.014 A 
BRANCH  38  39
ATOM     39  C   UNL     1      -0.137   9.990   8.431  1.00  0.00     0.031 A 
ATOM     40  C   UNL     1      -0.637  11.177   7.707  1.00  0.00     0.074 A 
ATOM     41  C   UNL     1       0.760  10.080   9.430  1.00  0.00     0.049 A 
ATOM     42  N   UNL     1       0.011  11.940   6.894  1.00  0.00    -0.248 NA
ATOM     43  C   UNL     1      -2.071  11.485   7.823  1.00  0.00     0.031 C 
ATOM     44  C   UNL     1       1.109   9.069  10.430  1.00  0.00     0.029 A 
ATOM     45  N   UNL     1       1.462  11.173   9.831  1.00  0.00    -0.354 N 
ATOM     46  C   UNL     1      -0.886  12.931   6.512  1.00  0.00     0.074 A 
ATOM     47  C   UNL     1      -2.182  12.520   6.992  1.00  0.00     0.031 C 
ATOM     48  C   UNL     1       1.764   9.670  11.450  1.00  0.00     0.029 A 
ATOM     49  C   UNL     1       1.988  11.066  11.108  1.00  0.00     0.049 A 
ATOM     50  H   UNL     1       1.586  11.969   9.265  1.00  0.00     0.167 HD
ATOM     51  C   UNL     1      -0.465  14.130   6.030  1.00  0.00     0.031 A 
ATOM     52  C   UNL     1       2.489  12.080  11.854  1.00  0.00     0.031 A 
ATOM     53  C   UNL     1       0.907  14.091   5.598  1.00  0.00     0.049 A 
ATOM     54  C   UNL     1       2.797  13.208  10.943  1.00  0.00     0.074 A 
ATOM     55  C   UNL     1       1.612  13.358   4.662  1.00  0.00     0.029 A 
ATOM     56  N   UNL     1       1.852  14.646   6.428  1.00  0.00    -0.354 N 
ATOM     57  N   UNL     1       3.764  13.190  10.072  1.00  0.00    -0.248 NA
ATOM     58  C   UNL     1       1.764  14.206  10.703  1.00  0.00     0.031 C 
ATOM     59  C   UNL     1       2.884  13.121   5.262  1.00  0.00     0.029 A 
ATOM     60  C   UNL     1       2.894  13.760   6.503  1.00  0.00     0.049 A 
ATOM     61  H   UNL     1       1.790  15.517   6.883  1.00  0.00     0.167 HD
ATOM     62  C   UNL     1       3.253  13.845   8.961  1.00  0.00     0.074 A 
ATOM     63  C   UNL     1       2.068  14.547   9.447  1.00  0.00     0.031 C 
ATOM     64  C   UNL     1       3.671  13.527   7.700  1.00  0.00     0.031 A 
BRANCH  51  65
ATOM     65  C   UNL     1      -1.173  15.425   6.333  1.00  0.00    -0.014 A 
ATOM     66  C   UNL     1      -0.697  16.609   5.747  1.00  0.00     0.009 A 
ATOM     67  C   UNL     1      -2.100  15.565   7.384  1.00  0.00     0.009 A 
ATOM     68  C   UNL     1      -1.070  17.865   6.240  1.00  0.00     0.001 A 
ATOM     69  C   UNL     1      -2.511  16.816   7.849  1.00  0.00     0.001 A 
ATOM     70  C   UNL     1      -1.971  17.967   7.296  1.00  0.00     0.000 A 
ENDBRANCH  51  65
BRANCH  52  71
ATOM     71  C   UNL     1       2.459  12.240  13.322  1.00  0.00    -0.014 A 
ATOM     72  C   UNL     1       3.290  13.174  13.958  1.00  0.00     0.009 A 
ATOM     73  C   UNL     1       1.425  11.658  14.079  1.00  0.00     0.009 A 
ATOM     74  C   UNL     1       3.069  13.541  15.292  1.00  0.00     0.001 A 
ATOM     75  C   UNL     1       1.209  12.019  15.412  1.00  0.00     0.001 A 
ATOM     76  C   UNL     1       2.021  12.973  16.014  1.00  0.00     0.000 A 
ENDBRANCH  52  71
BRANCH  64  77
ATOM     77  C   UNL     1       4.870  12.622   7.560  1.00  0.00    -0.014 A 
ATOM     78  C   UNL     1       4.911  11.321   8.094  1.00  0.00     0.009 A 
ATOM     79  C   UNL     1       5.932  13.037   6.742  1.00  0.00     0.009 A 
ATOM     80  C   UNL     1       6.000  10.479   7.850  1.00  0.00     0.001 A 
ATOM     81  C   UNL     1       7.008  12.187   6.479  1.00  0.00     0.001 A 
ATOM     82  C   UNL     1       7.046  10.911   7.039  1.00  0.00     0.000 A 
ENDBRANCH  64  77
ENDBRANCH  38  39
ENDBRANCH  31  33
ENDBRANCH  30  31
ENDBRANCH  29  30
ENDBRANCH   1  29
TORSDOF 13
