REMARK SMILES O=C(NCCOCC(=O)OCCOC(=O)c1ccc(-c2c3nc(c(-c4ccccc4)c4ccc([nH]4)c(-c4ccccc4)c4nc(c(-c5ccccc5)c5ccc2[nH]5)C=C4)C=C3)cc1)Nc1cccc(F)c1
REMARK SMILES IDX 10 1 8 2 9 3 7 4 6 5 5 6 4 7 3 8 1 9 2 10 64 11 65 14 66 15
REMARK SMILES IDX 71 16 67 17 69 18 68 19 70 20 11 21 12 22 13 23 14 24 15 25
REMARK SMILES IDX 16 26 17 27 63 28 18 29 62 30 19 31 20 32 21 33 56 34 22 35
REMARK SMILES IDX 61 36 55 37 57 38 23 39 60 40 54 41 53 42 24 44 46 45 31 46
REMARK SMILES IDX 45 47 32 48 35 49 44 50 58 51 33 52 34 53 43 55 59 56 36 57
REMARK SMILES IDX 25 58 26 59 30 60 27 61 29 62 28 63 47 64 48 65 52 66 49 67
REMARK SMILES IDX 51 68 50 69 37 70 38 71 42 72 39 73 41 74 40 75
REMARK H PARENT 3 12 64 13 57 43 35 54
REMARK Flexibility Score: inf
ROOT
ATOM      1  O   UNL     1       3.497  -4.681   0.473  1.00  0.00    -0.460 OA
ENDROOT
BRANCH   1   2
ATOM      2  C   UNL     1       2.937  -4.203  -0.669  1.00  0.00     0.332 C 
ATOM      3  O   UNL     1       1.754  -4.344  -0.971  1.00  0.00    -0.250 OA
BRANCH   2   4
ATOM      4  C   UNL     1       3.904  -3.354  -1.528  1.00  0.00     0.282 C 
BRANCH   4   5
ATOM      5  O   UNL     1       5.305  -3.261  -1.365  1.00  0.00    -0.368 OA
BRANCH   5   6
ATOM      6  C   UNL     1       5.792  -2.599  -0.191  1.00  0.00     0.182 C 
BRANCH   6   7
ATOM      7  C   UNL     1       6.027  -1.075  -0.320  1.00  0.00     0.146 C 
BRANCH   7   8
ATOM      8  N   UNL     1       4.847  -0.263  -0.155  1.00  0.00    -0.336 N 
ATOM      9  O   UNL     1       3.223   0.949   0.546  1.00  0.00    -0.249 OA
ATOM     10  C   UNL     1       4.319   0.494   0.812  1.00  0.00     0.319 C 
ATOM     11  N   UNL     1       4.954   0.822   1.967  1.00  0.00    -0.308 N 
ATOM     12  H   UNL     1       4.285  -0.268  -0.963  1.00  0.00     0.165 HD
ATOM     13  H   UNL     1       5.871   0.525   2.168  1.00  0.00     0.171 HD
BRANCH  11  14
ATOM     14  C   UNL     1       4.191   1.634   2.876  1.00  0.00     0.045 A 
ATOM     15  C   UNL     1       4.353   3.026   2.876  1.00  0.00     0.026 A 
ATOM     16  C   UNL     1       3.111   1.083   3.578  1.00  0.00     0.065 A 
ATOM     17  C   UNL     1       3.401   3.854   3.499  1.00  0.00     0.005 A 
ATOM     18  C   UNL     1       2.190   1.915   4.219  1.00  0.00     0.125 A 
ATOM     19  C   UNL     1       2.312   3.297   4.167  1.00  0.00     0.039 A 
ATOM     20  F   UNL     1       1.127   1.377   4.835  1.00  0.00    -0.207 F 
ENDBRANCH  11  14
ENDBRANCH   7   8
ENDBRANCH   6   7
ENDBRANCH   5   6
ENDBRANCH   4   5
ENDBRANCH   2   4
ENDBRANCH   1   2
BRANCH   1  21
ATOM     21  C   UNL     1       2.577  -5.191   1.468  1.00  0.00     0.274 C 
BRANCH  21  22
ATOM     22  C   UNL     1       2.224  -4.127   2.523  1.00  0.00     0.275 C 
BRANCH  22  23
ATOM     23  O   UNL     1       1.277  -3.143   2.034  1.00  0.00    -0.458 OA
BRANCH  23  24
ATOM     24  C   UNL     1       1.879  -2.142   1.360  1.00  0.00     0.338 C 
ATOM     25  O   UNL     1       3.086  -2.066   1.173  1.00  0.00    -0.246 OA
BRANCH  24  26
ATOM     26  C   UNL     1       1.009  -1.087   0.821  1.00  0.00     0.060 A 
ATOM     27  C   UNL     1       1.114  -0.818  -0.553  1.00  0.00     0.016 A 
ATOM     28  C   UNL     1       0.569  -0.097   1.699  1.00  0.00     0.016 A 
ATOM     29  C   UNL     1       0.962   0.490  -1.023  1.00  0.00     0.010 A 
ATOM     30  C   UNL     1       0.402   1.211   1.224  1.00  0.00     0.010 A 
ATOM     31  C   UNL     1       0.678   1.534  -0.121  1.00  0.00    -0.014 A 
BRANCH  31  32
ATOM     32  C   UNL     1       0.407   2.907  -0.608  1.00  0.00     0.031 A 
ATOM     33  C   UNL     1       1.346   4.090  -0.526  1.00  0.00     0.074 A 
ATOM     34  C   UNL     1      -0.853   3.058  -1.038  1.00  0.00     0.049 A 
ATOM     35  N   UNL     1       1.071   5.371  -0.649  1.00  0.00    -0.248 NA
ATOM     36  C   UNL     1       2.768   3.837  -0.286  1.00  0.00     0.031 C 
ATOM     37  C   UNL     1      -1.823   1.963  -1.158  1.00  0.00     0.029 A 
ATOM     38  N   UNL     1      -1.547   4.174  -1.391  1.00  0.00    -0.354 N 
ATOM     39  C   UNL     1       2.269   6.059  -0.434  1.00  0.00     0.074 A 
ATOM     40  C   UNL     1       3.275   5.059  -0.169  1.00  0.00     0.031 C 
ATOM     41  C   UNL     1      -3.006   2.470  -1.506  1.00  0.00     0.029 A 
ATOM     42  C   UNL     1      -2.876   3.916  -1.589  1.00  0.00     0.049 A 
ATOM     43  H   UNL     1      -1.140   5.065  -1.493  1.00  0.00     0.167 HD
ATOM     44  C   UNL     1       2.502   7.397  -0.482  1.00  0.00     0.031 A 
ATOM     45  C   UNL     1      -3.904   4.754  -1.771  1.00  0.00     0.031 A 
ATOM     46  C   UNL     1       1.494   8.359  -0.865  1.00  0.00     0.049 A 
ATOM     47  C   UNL     1      -3.618   6.210  -1.859  1.00  0.00     0.074 A 
ATOM     48  C   UNL     1       1.631   9.722  -1.073  1.00  0.00     0.029 A 
ATOM     49  N   UNL     1       0.167   8.048  -1.124  1.00  0.00    -0.354 N 
ATOM     50  N   UNL     1      -2.488   6.841  -1.653  1.00  0.00    -0.248 NA
ATOM     51  C   UNL     1      -4.739   7.064  -2.251  1.00  0.00     0.031 C 
ATOM     52  C   UNL     1       0.375  10.242  -1.404  1.00  0.00     0.029 A 
ATOM     53  C   UNL     1      -0.530   9.195  -1.467  1.00  0.00     0.049 A 
ATOM     54  H   UNL     1      -0.222   7.145  -1.072  1.00  0.00     0.167 HD
ATOM     55  C   UNL     1      -2.753   8.174  -1.909  1.00  0.00     0.074 A 
ATOM     56  C   UNL     1      -4.147   8.248  -2.312  1.00  0.00     0.031 C 
ATOM     57  C   UNL     1      -1.924   9.241  -1.824  1.00  0.00     0.031 A 
BRANCH  44  58
ATOM     58  C   UNL     1       3.874   7.940  -0.127  1.00  0.00    -0.014 A 
ATOM     59  C   UNL     1       5.005   7.712  -0.928  1.00  0.00     0.009 A 
ATOM     60  C   UNL     1       4.007   8.820   0.965  1.00  0.00     0.009 A 
ATOM     61  C   UNL     1       6.229   8.328  -0.633  1.00  0.00     0.001 A 
ATOM     62  C   UNL     1       5.220   9.461   1.238  1.00  0.00     0.001 A 
ATOM     63  C   UNL     1       6.334   9.209   0.443  1.00  0.00     0.000 A 
ENDBRANCH  44  58
BRANCH  45  64
ATOM     64  C   UNL     1      -5.249   4.166  -1.935  1.00  0.00    -0.014 A 
ATOM     65  C   UNL     1      -5.791   4.025  -3.218  1.00  0.00     0.009 A 
ATOM     66  C   UNL     1      -5.899   3.569  -0.841  1.00  0.00     0.009 A 
ATOM     67  C   UNL     1      -6.964   3.295  -3.405  1.00  0.00     0.001 A 
ATOM     68  C   UNL     1      -7.054   2.814  -1.037  1.00  0.00     0.001 A 
ATOM     69  C   UNL     1      -7.587   2.681  -2.318  1.00  0.00     0.000 A 
ENDBRANCH  45  64
BRANCH  57  70
ATOM     70  C   UNL     1      -2.526  10.569  -2.174  1.00  0.00    -0.014 A 
ATOM     71  C   UNL     1      -3.470  11.174  -1.330  1.00  0.00     0.009 A 
ATOM     72  C   UNL     1      -2.168  11.204  -3.371  1.00  0.00     0.009 A 
ATOM     73  C   UNL     1      -4.088  12.365  -1.708  1.00  0.00     0.001 A 
ATOM     74  C   UNL     1      -2.762  12.413  -3.730  1.00  0.00     0.001 A 
ATOM     75  C   UNL     1      -3.733  12.983  -2.906  1.00  0.00     0.000 A 
ENDBRANCH  57  70
ENDBRANCH  31  32
ENDBRANCH  24  26
ENDBRANCH  23  24
ENDBRANCH  22  23
ENDBRANCH  21  22
ENDBRANCH   1  21
TORSDOF 16
