REMARK SMILES O=C(Cc1ccccc1-c1ccn(C(F)F)c(=O)c1)OCCOC(=O)c1ccc(-c2c3nc(c(-c4ccccc4)c4ccc([nH]4)c(-c4ccccc4)c4nc(c(-c5ccccc5)c5ccc2[nH]5)C=C4)C=C3)cc1
REMARK SMILES IDX 21 1 20 2 2 3 1 4 3 5 4 6 5 7 9 8 6 9 8 10 7 11 10 12 11 13
REMARK SMILES IDX 19 14 12 15 17 16 13 17 18 18 14 19 15 20 16 21 22 22 23 23
REMARK SMILES IDX 24 24 25 25 26 26 27 27 73 28 28 29 72 30 29 31 30 32 31 33
REMARK SMILES IDX 66 34 32 35 71 36 65 37 67 38 33 39 70 40 64 41 63 42 34 44
REMARK SMILES IDX 56 45 41 46 55 47 42 48 45 49 54 50 68 51 43 52 44 53 53 55
REMARK SMILES IDX 69 56 46 57 35 58 36 59 40 60 37 61 39 62 38 63 57 64 58 65
REMARK SMILES IDX 62 66 59 67 61 68 60 69 47 70 48 71 52 72 49 73 51 74 50 75
REMARK H PARENT 67 43 45 54
REMARK Flexibility Score: inf
ROOT
ATOM      1  C   UNL     1       4.432  -0.119  -0.973  1.00  0.00     0.274 C 
ENDROOT
BRANCH   1   2
ATOM      2  O   UNL     1       3.102  -0.644  -0.765  1.00  0.00    -0.462 OA
BRANCH   2   3
ATOM      3  C   UNL     1       2.393  -0.546   0.384  1.00  0.00     0.310 C 
ATOM      4  O   UNL     1       1.261  -1.024   0.454  1.00  0.00    -0.252 OA
BRANCH   3   5
ATOM      5  C   UNL     1       3.008   0.148   1.576  1.00  0.00     0.158 C 
BRANCH   5   6
ATOM      6  C   UNL     1       3.953  -0.672   2.426  1.00  0.00    -0.029 A 
ATOM      7  C   UNL     1       3.777  -2.063   2.535  1.00  0.00     0.005 A 
ATOM      8  C   UNL     1       4.972  -0.052   3.188  1.00  0.00    -0.014 A 
ATOM      9  C   UNL     1       4.606  -2.827   3.357  1.00  0.00     0.000 A 
ATOM     10  C   UNL     1       5.785  -0.834   4.023  1.00  0.00     0.009 A 
ATOM     11  C   UNL     1       5.606  -2.213   4.103  1.00  0.00     0.001 A 
BRANCH   8  12
ATOM     12  C   UNL     1       5.227   1.405   3.146  1.00  0.00    -0.011 A 
ATOM     13  C   UNL     1       4.395   2.373   3.831  1.00  0.00     0.027 A 
ATOM     14  C   UNL     1       6.289   1.836   2.444  1.00  0.00     0.080 A 
ATOM     15  C   UNL     1       4.667   3.681   3.748  1.00  0.00     0.095 A 
ATOM     16  C   UNL     1       6.598   3.288   2.333  1.00  0.00     0.255 A 
ATOM     17  N   UNL     1       5.733   4.143   2.997  1.00  0.00    -0.258 N 
ATOM     18  O   UNL     1       7.567   3.629   1.663  1.00  0.00    -0.269 OA
BRANCH  17  19
ATOM     19  C   UNL     1       5.979   5.556   2.858  1.00  0.00     0.451 C 
ATOM     20  F   UNL     1       7.197   5.894   3.342  1.00  0.00    -0.185 F 
ATOM     21  F   UNL     1       5.924   5.926   1.554  1.00  0.00    -0.185 F 
ENDBRANCH  17  19
ENDBRANCH   8  12
ENDBRANCH   5   6
ENDBRANCH   3   5
ENDBRANCH   2   3
ENDBRANCH   1   2
BRANCH   1  22
ATOM     22  C   UNL     1       4.394   1.226  -1.701  1.00  0.00     0.275 C 
BRANCH  22  23
ATOM     23  O   UNL     1       3.821   2.236  -0.852  1.00  0.00    -0.458 OA
BRANCH  23  24
ATOM     24  C   UNL     1       2.505   2.499  -1.049  1.00  0.00     0.338 C 
ATOM     25  O   UNL     1       1.795   2.069  -1.940  1.00  0.00    -0.246 OA
BRANCH  24  26
ATOM     26  C   UNL     1       1.990   3.237   0.126  1.00  0.00     0.060 A 
ATOM     27  C   UNL     1       0.751   2.856   0.656  1.00  0.00     0.016 A 
ATOM     28  C   UNL     1       2.724   4.261   0.730  1.00  0.00     0.016 A 
ATOM     29  C   UNL     1       0.241   3.503   1.785  1.00  0.00     0.010 A 
ATOM     30  C   UNL     1       2.208   4.906   1.858  1.00  0.00     0.010 A 
ATOM     31  C   UNL     1       0.959   4.543   2.392  1.00  0.00    -0.014 A 
BRANCH  31  32
ATOM     32  C   UNL     1       0.356   5.321   3.509  1.00  0.00     0.031 A 
ATOM     33  C   UNL     1      -0.095   6.737   3.264  1.00  0.00     0.074 A 
ATOM     34  C   UNL     1       0.196   4.782   4.734  1.00  0.00     0.049 A 
ATOM     35  N   UNL     1      -0.697   7.567   4.080  1.00  0.00    -0.248 NA
ATOM     36  C   UNL     1       0.182   7.298   1.933  1.00  0.00     0.031 C 
ATOM     37  C   UNL     1       0.601   3.435   5.136  1.00  0.00     0.029 A 
ATOM     38  N   UNL     1      -0.361   5.315   5.873  1.00  0.00    -0.354 N 
ATOM     39  C   UNL     1      -0.884   8.737   3.355  1.00  0.00     0.074 A 
ATOM     40  C   UNL     1      -0.260   8.539   2.065  1.00  0.00     0.031 C 
ATOM     41  C   UNL     1       0.273   3.245   6.426  1.00  0.00     0.029 A 
ATOM     42  C   UNL     1      -0.368   4.452   6.944  1.00  0.00     0.049 A 
ATOM     43  H   UNL     1      -0.722   6.230   5.918  1.00  0.00     0.167 HD
ATOM     44  C   UNL     1      -1.547   9.865   3.705  1.00  0.00     0.031 A 
ATOM     45  C   UNL     1      -0.851   4.609   8.192  1.00  0.00     0.031 A 
ATOM     46  C   UNL     1      -2.174  10.085   4.978  1.00  0.00     0.049 A 
ATOM     47  C   UNL     1      -1.562   5.883   8.570  1.00  0.00     0.074 A 
ATOM     48  C   UNL     1      -2.892  11.189   5.407  1.00  0.00     0.029 A 
ATOM     49  N   UNL     1      -2.158   9.185   6.030  1.00  0.00    -0.354 N 
ATOM     50  N   UNL     1      -1.799   6.947   7.842  1.00  0.00    -0.248 NA
ATOM     51  C   UNL     1      -2.100   5.960   9.938  1.00  0.00     0.031 C 
ATOM     52  C   UNL     1      -3.277  10.971   6.734  1.00  0.00     0.029 A 
ATOM     53  C   UNL     1      -2.840   9.713   7.113  1.00  0.00     0.049 A 
ATOM     54  H   UNL     1      -1.726   8.300   6.011  1.00  0.00     0.167 HD
ATOM     55  C   UNL     1      -2.542   7.802   8.651  1.00  0.00     0.074 A 
ATOM     56  C   UNL     1      -2.730   7.127   9.917  1.00  0.00     0.031 C 
ATOM     57  C   UNL     1      -3.026   9.036   8.368  1.00  0.00     0.031 A 
BRANCH  44  58
ATOM     58  C   UNL     1      -1.634  10.947   2.667  1.00  0.00    -0.014 A 
ATOM     59  C   UNL     1      -2.446  10.787   1.531  1.00  0.00     0.009 A 
ATOM     60  C   UNL     1      -0.911  12.137   2.826  1.00  0.00     0.009 A 
ATOM     61  C   UNL     1      -2.496  11.781   0.553  1.00  0.00     0.001 A 
ATOM     62  C   UNL     1      -0.986  13.142   1.859  1.00  0.00     0.001 A 
ATOM     63  C   UNL     1      -1.769  12.958   0.720  1.00  0.00     0.000 A 
ENDBRANCH  44  58
BRANCH  45  64
ATOM     64  C   UNL     1      -0.714   3.519   9.195  1.00  0.00    -0.014 A 
ATOM     65  C   UNL     1      -1.836   2.786   9.614  1.00  0.00     0.009 A 
ATOM     66  C   UNL     1       0.530   3.251   9.785  1.00  0.00     0.009 A 
ATOM     67  C   UNL     1      -1.722   1.836  10.631  1.00  0.00     0.001 A 
ATOM     68  C   UNL     1       0.646   2.281  10.784  1.00  0.00     0.001 A 
ATOM     69  C   UNL     1      -0.481   1.584  11.215  1.00  0.00     0.000 A 
ENDBRANCH  45  64
BRANCH  57  70
ATOM     70  C   UNL     1      -3.836   9.723   9.433  1.00  0.00    -0.014 A 
ATOM     71  C   UNL     1      -3.235  10.228  10.597  1.00  0.00     0.009 A 
ATOM     72  C   UNL     1      -5.218   9.896   9.253  1.00  0.00     0.009 A 
ATOM     73  C   UNL     1      -4.008  10.857  11.575  1.00  0.00     0.001 A 
ATOM     74  C   UNL     1      -5.983  10.551  10.220  1.00  0.00     0.001 A 
ATOM     75  C   UNL     1      -5.380  11.021  11.384  1.00  0.00     0.000 A 
ENDBRANCH  57  70
ENDBRANCH  31  32
ENDBRANCH  24  26
ENDBRANCH  23  24
ENDBRANCH  22  23
ENDBRANCH   1  22
TORSDOF 14
