REMARK SMILES Cc1ccc(S(=O)(=O)N(c2ccccc2)[C@H](C)C(=O)OCCOC(=O)c2ccc(-c3c4nc(c(-c5ccccc5)c5ccc([nH]5)c(-c5ccccc5)c5nc(c(-c6ccccc6)c6ccc3[nH]6)C=C5)C=C4)cc2)cc1
REMARK SMILES IDX 21 1 20 2 18 3 19 4 16 5 17 6 9 7 6 8 7 9 8 10 5 11 1 12
REMARK SMILES IDX 2 13 3 14 75 15 4 16 74 17 10 18 11 19 15 20 12 21 14 22
REMARK SMILES IDX 13 23 22 24 23 25 24 26 25 27 26 28 27 29 73 30 28 31 72 32
REMARK SMILES IDX 29 33 30 34 31 35 66 36 32 37 71 38 65 39 67 40 33 41 70 42
REMARK SMILES IDX 64 43 63 44 34 46 56 47 41 48 55 49 42 50 45 51 54 52 68 53
REMARK SMILES IDX 43 54 44 55 53 57 69 58 46 59 35 60 36 61 40 62 37 63 39 64
REMARK SMILES IDX 38 65 57 66 58 67 62 68 59 69 61 70 60 71 47 72 48 73 52 74
REMARK SMILES IDX 49 75 51 76 50 77
REMARK H PARENT 67 45 45 56
REMARK Flexibility Score: inf
ROOT
ATOM      1  C   UNL     1      -7.000   0.848   4.037  1.00  0.00     0.274 C 
ENDROOT
BRANCH   1   2
ATOM      2  O   UNL     1      -7.488   1.295   2.760  1.00  0.00    -0.461 OA
BRANCH   2   3
ATOM      3  C   UNL     1      -6.757   2.252   2.155  1.00  0.00     0.329 C 
ATOM      4  O   UNL     1      -6.543   3.339   2.688  1.00  0.00    -0.250 OA
BRANCH   3   5
ATOM      5  C   UNL     1      -5.979   1.771   0.738  1.00  0.00     0.206 C 
ATOM      6  C   UNL     1      -4.176   0.563   0.265  1.00  0.00     0.045 C 
BRANCH   5   7
ATOM      7  N   UNL     1      -6.536   1.035  -0.067  1.00  0.00    -0.252 N 
BRANCH   7   8
ATOM      8  S   UNL     1      -7.856   2.318  -1.396  1.00  0.00     0.265 S 
ATOM      9  O   UNL     1      -7.157   3.585  -1.579  1.00  0.00    -0.201 OA
ATOM     10  O   UNL     1      -9.200   2.337  -0.876  1.00  0.00    -0.201 OA
BRANCH   8  11
ATOM     11  C   UNL     1      -8.010   1.592  -3.362  1.00  0.00     0.088 A 
ATOM     12  C   UNL     1      -8.495  -0.142  -7.387  1.00  0.00     0.044 C 
ATOM     13  C   UNL     1      -8.271   0.560  -6.074  1.00  0.00    -0.051 A 
ATOM     14  C   UNL     1      -8.811   1.804  -5.690  1.00  0.00     0.005 A 
ATOM     15  C   UNL     1      -7.496  -0.087  -5.143  1.00  0.00     0.005 A 
ATOM     16  C   UNL     1      -8.680   2.332  -4.348  1.00  0.00     0.022 A 
ATOM     17  C   UNL     1      -7.401   0.415  -3.841  1.00  0.00     0.022 A 
ENDBRANCH   8  11
ENDBRANCH   7   8
BRANCH   7  18
ATOM     18  C   UNL     1      -5.388  -0.583  -0.839  1.00  0.00     0.053 A 
ATOM     19  C   UNL     1      -5.137  -1.922  -0.188  1.00  0.00     0.027 A 
ATOM     20  C   UNL     1      -4.832  -0.757  -2.244  1.00  0.00     0.027 A 
ATOM     21  C   UNL     1      -4.680  -3.109  -0.815  1.00  0.00     0.002 A 
ATOM     22  C   UNL     1      -4.378  -1.948  -2.855  1.00  0.00     0.002 A 
ATOM     23  C   UNL     1      -4.351  -3.130  -2.153  1.00  0.00     0.000 A 
ENDBRANCH   7  18
ENDBRANCH   5   7
ENDBRANCH   3   5
ENDBRANCH   2   3
ENDBRANCH   1   2
BRANCH   1  24
ATOM     24  C   UNL     1      -5.493   1.035   4.492  1.00  0.00     0.275 C 
BRANCH  24  25
ATOM     25  O   UNL     1      -4.527   2.043   3.958  1.00  0.00    -0.458 OA
BRANCH  25  26
ATOM     26  C   UNL     1      -3.881   2.369   2.787  1.00  0.00     0.338 C 
ATOM     27  O   UNL     1      -2.954   3.160   2.732  1.00  0.00    -0.246 OA
BRANCH  26  28
ATOM     28  C   UNL     1      -4.420   1.798   1.542  1.00  0.00     0.060 A 
ATOM     29  C   UNL     1      -4.579   2.291  -0.388  1.00  0.00     0.016 A 
ATOM     30  C   UNL     1      -5.501   0.205   1.836  1.00  0.00     0.016 A 
ATOM     31  C   UNL     1      -5.774   1.320  -1.622  1.00  0.00     0.010 A 
ATOM     32  C   UNL     1      -6.839  -0.594   0.743  1.00  0.00     0.010 A 
ATOM     33  C   UNL     1      -7.167  -0.097  -1.117  1.00  0.00    -0.014 A 
BRANCH  33  34
ATOM     34  C   UNL     1      -8.652  -0.496  -1.041  1.00  0.00     0.031 A 
ATOM     35  C   UNL     1      -8.919  -1.550  -1.977  1.00  0.00     0.074 A 
ATOM     36  C   UNL     1      -9.517  -0.395   0.025  1.00  0.00     0.049 A 
ATOM     37  N   UNL     1      -9.606  -1.408  -3.056  1.00  0.00    -0.248 NA
ATOM     38  C   UNL     1      -8.094  -2.747  -1.849  1.00  0.00     0.031 C 
ATOM     39  C   UNL     1     -10.513  -1.416   0.383  1.00  0.00     0.029 A 
ATOM     40  N   UNL     1      -9.641   0.471   1.110  1.00  0.00    -0.354 N 
ATOM     41  C   UNL     1      -9.431  -2.622  -3.659  1.00  0.00     0.074 A 
ATOM     42  C   UNL     1      -8.182  -3.147  -3.110  1.00  0.00     0.031 C 
ATOM     43  C   UNL     1     -11.256  -1.002   1.425  1.00  0.00     0.029 A 
ATOM     44  C   UNL     1     -10.887   0.363   1.739  1.00  0.00     0.049 A 
ATOM     45  H   UNL     1      -8.932   1.088   1.402  1.00  0.00     0.167 HD
ATOM     46  C   UNL     1     -10.487  -3.462  -3.836  1.00  0.00     0.031 A 
ATOM     47  C   UNL     1     -11.803   1.380   1.803  1.00  0.00     0.031 A 
ATOM     48  C   UNL     1     -11.634  -3.094  -2.998  1.00  0.00     0.049 A 
ATOM     49  C   UNL     1     -12.862   1.254   0.725  1.00  0.00     0.074 A 
ATOM     50  C   UNL     1     -12.158  -3.641  -1.835  1.00  0.00     0.029 A 
ATOM     51  N   UNL     1     -12.181  -1.816  -3.082  1.00  0.00    -0.354 N 
ATOM     52  N   UNL     1     -12.869   0.277  -0.141  1.00  0.00    -0.248 NA
ATOM     53  C   UNL     1     -13.981   2.168   0.514  1.00  0.00     0.031 C 
ATOM     54  C   UNL     1     -13.080  -2.709  -1.274  1.00  0.00     0.029 A 
ATOM     55  C   UNL     1     -13.130  -1.599  -2.099  1.00  0.00     0.049 A 
ATOM     56  H   UNL     1     -11.923  -1.148  -3.759  1.00  0.00     0.167 HD
ATOM     57  C   UNL     1     -13.866   0.445  -1.054  1.00  0.00     0.074 A 
ATOM     58  C   UNL     1     -14.572   1.619  -0.566  1.00  0.00     0.031 C 
ATOM     59  C   UNL     1     -13.961  -0.388  -2.135  1.00  0.00     0.031 A 
BRANCH  46  60
ATOM     60  C   UNL     1     -10.181  -4.818  -4.409  1.00  0.00    -0.014 A 
ATOM     61  C   UNL     1     -11.049  -5.891  -4.214  1.00  0.00     0.009 A 
ATOM     62  C   UNL     1      -9.015  -5.069  -5.176  1.00  0.00     0.009 A 
ATOM     63  C   UNL     1     -10.731  -7.166  -4.694  1.00  0.00     0.001 A 
ATOM     64  C   UNL     1      -8.655  -6.350  -5.588  1.00  0.00     0.001 A 
ATOM     65  C   UNL     1      -9.525  -7.402  -5.353  1.00  0.00     0.000 A 
ENDBRANCH  46  60
BRANCH  47  66
ATOM     66  C   UNL     1     -11.296   2.628   2.422  1.00  0.00    -0.014 A 
ATOM     67  C   UNL     1     -11.171   2.632   3.826  1.00  0.00     0.009 A 
ATOM     68  C   UNL     1     -10.528   3.525   1.676  1.00  0.00     0.009 A 
ATOM     69  C   UNL     1     -10.141   3.345   4.443  1.00  0.00     0.001 A 
ATOM     70  C   UNL     1      -9.491   4.227   2.293  1.00  0.00     0.001 A 
ATOM     71  C   UNL     1      -9.271   4.100   3.666  1.00  0.00     0.000 A 
ENDBRANCH  47  66
BRANCH  59  72
ATOM     72  C   UNL     1     -14.850  -0.194  -3.348  1.00  0.00    -0.014 A 
ATOM     73  C   UNL     1     -15.665   0.915  -3.582  1.00  0.00     0.009 A 
ATOM     74  C   UNL     1     -14.821  -1.164  -4.380  1.00  0.00     0.009 A 
ATOM     75  C   UNL     1     -16.419   1.038  -4.757  1.00  0.00     0.001 A 
ATOM     76  C   UNL     1     -15.513  -1.018  -5.581  1.00  0.00     0.001 A 
ATOM     77  C   UNL     1     -16.330   0.082  -5.763  1.00  0.00     0.000 A 
ENDBRANCH  59  72
ENDBRANCH  33  34
ENDBRANCH  26  28
ENDBRANCH  25  26
ENDBRANCH  24  25
ENDBRANCH   1  24
TORSDOF 15
