REMARK SMILES COc1cccc(-c2cc(OCC(=O)OCCOC(=O)c3ccc(-c4c5nc(c(-c6ccccc6)c6ccc([nH]6)c(-c6ccccc6)c6nc(c(-c7ccccc7)c7ccc4[nH]7)C=C6)C=C5)cc3)nc(Nc3ccccc3Br)n2)c1
REMARK SMILES IDX 16 1 15 2 13 3 14 4 12 5 11 6 10 7 8 8 9 9 79 10 70 11 69 12
REMARK SMILES IDX 7 13 3 14 4 15 80 16 5 17 6 18 2 19 1 20 71 21 72 23 73 24
REMARK SMILES IDX 77 25 74 26 76 27 78 28 75 29 17 30 18 31 19 32 20 33 21 34
REMARK SMILES IDX 22 35 68 36 23 37 67 38 24 39 25 40 26 41 61 42 27 43 66 44
REMARK SMILES IDX 60 45 62 46 28 47 65 48 59 49 58 50 29 52 51 53 36 54 50 55
REMARK SMILES IDX 37 56 40 57 49 58 63 59 38 60 39 61 48 63 64 64 41 65 30 66
REMARK SMILES IDX 31 67 35 68 32 69 34 70 33 71 52 72 53 73 57 74 54 75 56 76
REMARK SMILES IDX 55 77 42 78 43 79 47 80 44 81 46 82 45 83
REMARK H PARENT 71 22 62 51 40 62
REMARK Flexibility Score: inf
ROOT
ATOM      1  C   UNL     1       6.388  -1.891  -1.152  1.00  0.00     0.274 C 
ENDROOT
BRANCH   1   2
ATOM      2  O   UNL     1       6.644  -0.601  -1.749  1.00  0.00    -0.460 OA
BRANCH   2   3
ATOM      3  C   UNL     1       6.872  -0.609  -3.088  1.00  0.00     0.344 C 
ATOM      4  O   UNL     1       6.796  -1.607  -3.800  1.00  0.00    -0.248 OA
BRANCH   3   5
ATOM      5  C   UNL     1       7.220   0.763  -3.666  1.00  0.00     0.353 C 
BRANCH   5   6
ATOM      6  O   UNL     1       7.400   1.847  -2.778  1.00  0.00    -0.466 OA
BRANCH   6   7
ATOM      7  C   UNL     1       6.398   2.765  -2.648  1.00  0.00     0.219 A 
ATOM      8  C   UNL     1       4.185   3.517  -2.524  1.00  0.00     0.080 A 
ATOM      9  C   UNL     1       5.064   2.512  -2.864  1.00  0.00     0.097 A 
ATOM     10  N   UNL     1       4.609   4.702  -2.077  1.00  0.00    -0.212 NA
ATOM     11  C   UNL     1       5.923   4.870  -1.890  1.00  0.00     0.231 A 
ATOM     12  N   UNL     1       6.842   3.945  -2.186  1.00  0.00    -0.177 NA
BRANCH   8  13
ATOM     13  C   UNL     1       2.728   3.345  -2.495  1.00  0.00     0.004 A 
ATOM     14  C   UNL     1       0.762   2.313  -1.466  1.00  0.00     0.119 A 
ATOM     15  C   UNL     1      -0.054   2.975  -2.381  1.00  0.00     0.046 A 
ATOM     16  C   UNL     1       2.139   2.531  -1.510  1.00  0.00     0.056 A 
ATOM     17  C   UNL     1       0.499   3.847  -3.319  1.00  0.00     0.005 A 
ATOM     18  C   UNL     1       1.884   4.027  -3.379  1.00  0.00     0.010 A 
BRANCH  14  19
ATOM     19  O   UNL     1       0.107   1.485  -0.595  1.00  0.00    -0.497 OA
ATOM     20  C   UNL     1       0.913   0.738   0.310  1.00  0.00     0.278 C 
ENDBRANCH  14  19
ENDBRANCH   8  13
BRANCH  11  21
ATOM     21  N   UNL     1       6.370   6.082  -1.372  1.00  0.00    -0.323 N 
ATOM     22  H   UNL     1       7.344   6.213  -1.314  1.00  0.00     0.170 HD
BRANCH  21  23
ATOM     23  C   UNL     1       5.556   7.130  -0.926  1.00  0.00     0.055 A 
ATOM     24  C   UNL     1       5.581   8.339  -1.636  1.00  0.00     0.027 A 
ATOM     25  C   UNL     1       4.611   6.987   0.112  1.00  0.00     0.041 A 
ATOM     26  C   UNL     1       4.672   9.360  -1.349  1.00  0.00     0.002 A 
ATOM     27  C   UNL     1       3.706   8.013   0.402  1.00  0.00     0.018 A 
ATOM     28  Br  UNL     1       4.557   5.450   1.239  1.00  0.00    -0.049 Br
ATOM     29  C   UNL     1       3.730   9.194  -0.336  1.00  0.00     0.001 A 
ENDBRANCH  21  23
ENDBRANCH  11  21
ENDBRANCH   6   7
ENDBRANCH   5   6
ENDBRANCH   3   5
ENDBRANCH   2   3
ENDBRANCH   1   2
BRANCH   1  30
ATOM     30  C   UNL     1       4.896  -2.187  -0.971  1.00  0.00     0.275 C 
BRANCH  30  31
ATOM     31  O   UNL     1       4.167  -2.081  -2.211  1.00  0.00    -0.458 OA
BRANCH  31  32
ATOM     32  C   UNL     1       3.599  -0.870  -2.376  1.00  0.00     0.338 C 
ATOM     33  O   UNL     1       3.680   0.063  -1.587  1.00  0.00    -0.246 OA
BRANCH  32  34
ATOM     34  C   UNL     1       2.887  -0.720  -3.651  1.00  0.00     0.060 A 
ATOM     35  C   UNL     1       3.605  -0.589  -4.843  1.00  0.00     0.016 A 
ATOM     36  C   UNL     1       1.512  -0.477  -3.627  1.00  0.00     0.016 A 
ATOM     37  C   UNL     1       2.947  -0.190  -6.009  1.00  0.00     0.010 A 
ATOM     38  C   UNL     1       0.849  -0.117  -4.802  1.00  0.00     0.010 A 
ATOM     39  C   UNL     1       1.562   0.037  -6.000  1.00  0.00    -0.014 A 
BRANCH  39  40
ATOM     40  C   UNL     1       0.832   0.308  -7.261  1.00  0.00     0.031 A 
ATOM     41  C   UNL     1       0.286   1.664  -7.590  1.00  0.00     0.074 A 
ATOM     42  C   UNL     1       0.612  -0.724  -8.094  1.00  0.00     0.049 A 
ATOM     43  N   UNL     1      -0.521   2.019  -8.558  1.00  0.00    -0.248 NA
ATOM     44  C   UNL     1       0.700   2.768  -6.717  1.00  0.00     0.031 C 
ATOM     45  C   UNL     1       1.109  -2.086  -7.896  1.00  0.00     0.029 A 
ATOM     46  N   UNL     1      -0.101  -0.788  -9.261  1.00  0.00    -0.354 N 
ATOM     47  C   UNL     1      -0.744   3.381  -8.388  1.00  0.00     0.074 A 
ATOM     48  C   UNL     1       0.021   3.788  -7.227  1.00  0.00     0.031 C 
ATOM     49  C   UNL     1       0.679  -2.857  -8.905  1.00  0.00     0.029 A 
ATOM     50  C   UNL     1      -0.160  -2.053  -9.788  1.00  0.00     0.049 A 
ATOM     51  H   UNL     1      -0.528  -0.006  -9.680  1.00  0.00     0.167 HD
ATOM     52  C   UNL     1      -1.517   4.208  -9.133  1.00  0.00     0.031 A 
ATOM     53  C   UNL     1      -0.844  -2.527 -10.843  1.00  0.00     0.031 A 
ATOM     54  C   UNL     1      -2.247   3.803 -10.307  1.00  0.00     0.049 A 
ATOM     55  C   UNL     1      -1.705  -1.601 -11.641  1.00  0.00     0.074 A 
ATOM     56  C   UNL     1      -3.024   4.578 -11.152  1.00  0.00     0.029 A 
ATOM     57  N   UNL     1      -2.283   2.510 -10.806  1.00  0.00    -0.354 N 
ATOM     58  N   UNL     1      -1.927  -0.323 -11.456  1.00  0.00    -0.248 NA
ATOM     59  C   UNL     1      -2.410  -2.182 -12.790  1.00  0.00     0.031 C 
ATOM     60  C   UNL     1      -3.551   3.747 -12.149  1.00  0.00     0.029 A 
ATOM     61  C   UNL     1      -3.076   2.463 -11.940  1.00  0.00     0.049 A 
ATOM     62  H   UNL     1      -1.814   1.740 -10.412  1.00  0.00     0.167 HD
ATOM     63  C   UNL     1      -2.792   0.058 -12.470  1.00  0.00     0.074 A 
ATOM     64  C   UNL     1      -3.045  -1.123 -13.273  1.00  0.00     0.031 C 
ATOM     65  C   UNL     1      -3.326   1.278 -12.716  1.00  0.00     0.031 A 
BRANCH  52  66
ATOM     66  C   UNL     1      -1.639   5.639  -8.693  1.00  0.00    -0.014 A 
ATOM     67  C   UNL     1      -0.616   6.568  -8.937  1.00  0.00     0.009 A 
ATOM     68  C   UNL     1      -2.830   6.081  -8.095  1.00  0.00     0.009 A 
ATOM     69  C   UNL     1      -0.777   7.907  -8.572  1.00  0.00     0.001 A 
ATOM     70  C   UNL     1      -2.995   7.424  -7.747  1.00  0.00     0.001 A 
ATOM     71  C   UNL     1      -1.967   8.335  -7.983  1.00  0.00     0.000 A 
ENDBRANCH  52  66
BRANCH  53  72
ATOM     72  C   UNL     1      -0.743  -3.968 -11.170  1.00  0.00    -0.014 A 
ATOM     73  C   UNL     1       0.090  -4.400 -12.210  1.00  0.00     0.009 A 
ATOM     74  C   UNL     1      -1.419  -4.918 -10.389  1.00  0.00     0.009 A 
ATOM     75  C   UNL     1       0.244  -5.764 -12.464  1.00  0.00     0.001 A 
ATOM     76  C   UNL     1      -1.248  -6.280 -10.634  1.00  0.00     0.001 A 
ATOM     77  C   UNL     1      -0.418  -6.702 -11.671  1.00  0.00     0.000 A 
ENDBRANCH  53  72
BRANCH  65  78
ATOM     78  C   UNL     1      -4.221   1.389 -13.913  1.00  0.00    -0.014 A 
ATOM     79  C   UNL     1      -5.553   0.952 -13.858  1.00  0.00     0.009 A 
ATOM     80  C   UNL     1      -3.726   1.938 -15.105  1.00  0.00     0.009 A 
ATOM     81  C   UNL     1      -6.367   1.038 -14.989  1.00  0.00     0.001 A 
ATOM     82  C   UNL     1      -4.547   2.036 -16.229  1.00  0.00     0.001 A 
ATOM     83  C   UNL     1      -5.864   1.579 -16.172  1.00  0.00     0.000 A 
ENDBRANCH  65  78
ENDBRANCH  39  40
ENDBRANCH  32  34
ENDBRANCH  31  32
ENDBRANCH  30  31
ENDBRANCH   1  30
TORSDOF 17
