REMARK SMILES C[N@H+](CC(=O)OCCOC(=O)c1ccc(-c2c3nc(c(-c4ccccc4)c4ccc([nH]4)c(-c4ccccc4)c4nc(c(-c5ccccc5)c5ccc2[nH]5)C=C4)C=C3)cc1)Cc1csc(-c2ccco2)n1
REMARK SMILES IDX 7 1 6 2 4 3 5 4 3 5 2 6 1 7 60 9 61 10 62 11 70 12 63 13
REMARK SMILES IDX 64 14 65 15 66 16 69 17 67 18 68 19 8 20 9 21 10 22 11 23
REMARK SMILES IDX 12 24 13 25 59 26 14 27 58 28 15 29 16 30 17 31 52 32 18 33
REMARK SMILES IDX 57 34 51 35 53 36 19 37 56 38 50 39 49 40 20 42 42 43 27 44
REMARK SMILES IDX 41 45 28 46 31 47 40 48 54 49 29 50 30 51 39 53 55 54 32 55
REMARK SMILES IDX 21 56 22 57 26 58 23 59 25 60 24 61 43 62 44 63 48 64 45 65
REMARK SMILES IDX 47 66 46 67 33 68 34 69 38 70 35 71 37 72 36 73
REMARK H PARENT 2 8 53 41 31 52
REMARK Flexibility Score: inf
ROOT
ATOM      1  C   UNL     1      -2.343   1.777   2.142  1.00  0.00     0.274 C 
ENDROOT
BRANCH   1   2
ATOM      2  O   UNL     1      -1.291   1.200   1.348  1.00  0.00    -0.458 OA
BRANCH   2   3
ATOM      3  C   UNL     1      -1.644   0.695   0.137  1.00  0.00     0.361 C 
ATOM      4  O   UNL     1      -2.805   0.585  -0.254  1.00  0.00    -0.245 OA
BRANCH   3   5
ATOM      5  C   UNL     1      -0.461   0.282  -0.742  1.00  0.00     0.386 C 
BRANCH   5   6
ATOM      6  N   UNL     1       0.846   0.572  -0.143  1.00  0.00    -0.323 N 
ATOM      7  C   UNL     1       1.584  -0.596   0.290  1.00  0.00     0.333 C 
ATOM      8  H   UNL     1       0.596   1.018   0.740  1.00  0.00     0.348 HD
BRANCH   6   9
ATOM      9  C   UNL     1       1.625   1.651  -0.758  1.00  0.00     0.320 C 
BRANCH   9  10
ATOM     10  C   UNL     1       2.005   2.664   0.298  1.00  0.00     0.106 A 
ATOM     11  C   UNL     1       2.441   2.406   1.587  1.00  0.00     0.097 A 
ATOM     12  N   UNL     1       1.852   4.024   0.020  1.00  0.00    -0.232 NA
ATOM     13  S   UNL     1       2.475   3.847   2.507  1.00  0.00    -0.119 S 
ATOM     14  C   UNL     1       1.900   4.714   1.142  1.00  0.00     0.159 A 
BRANCH  14  15
ATOM     15  C   UNL     1       1.437   6.073   1.252  1.00  0.00     0.162 A 
ATOM     16  C   UNL     1       0.762   6.832   0.306  1.00  0.00     0.053 A 
ATOM     17  O   UNL     1       1.550   6.826   2.399  1.00  0.00    -0.462 OA
ATOM     18  C   UNL     1       0.453   8.080   0.900  1.00  0.00     0.043 A 
ATOM     19  C   UNL     1       0.958   8.025   2.174  1.00  0.00     0.196 A 
ENDBRANCH  14  15
ENDBRANCH   9  10
ENDBRANCH   6   9
ENDBRANCH   5   6
ENDBRANCH   3   5
ENDBRANCH   2   3
ENDBRANCH   1   2
BRANCH   1  20
ATOM     20  C   UNL     1      -2.406   3.304   1.995  1.00  0.00     0.275 C 
BRANCH  20  21
ATOM     21  O   UNL     1      -2.928   3.725   0.716  1.00  0.00    -0.458 OA
BRANCH  21  22
ATOM     22  C   UNL     1      -1.987   3.812  -0.242  1.00  0.00     0.338 C 
ATOM     23  O   UNL     1      -0.801   3.544  -0.129  1.00  0.00    -0.246 OA
BRANCH  22  24
ATOM     24  C   UNL     1      -2.501   4.209  -1.543  1.00  0.00     0.060 A 
ATOM     25  C   UNL     1      -2.567   3.236  -2.545  1.00  0.00     0.016 A 
ATOM     26  C   UNL     1      -2.694   5.560  -1.828  1.00  0.00     0.016 A 
ATOM     27  C   UNL     1      -2.855   3.613  -3.849  1.00  0.00     0.010 A 
ATOM     28  C   UNL     1      -3.010   5.934  -3.133  1.00  0.00     0.010 A 
ATOM     29  C   UNL     1      -3.104   4.961  -4.142  1.00  0.00    -0.014 A 
BRANCH  29  30
ATOM     30  C   UNL     1      -3.644   5.330  -5.464  1.00  0.00     0.031 A 
ATOM     31  C   UNL     1      -2.806   6.015  -6.495  1.00  0.00     0.074 A 
ATOM     32  C   UNL     1      -4.944   5.067  -5.685  1.00  0.00     0.049 A 
ATOM     33  N   UNL     1      -3.176   6.512  -7.646  1.00  0.00    -0.248 NA
ATOM     34  C   UNL     1      -1.373   6.163  -6.201  1.00  0.00     0.031 C 
ATOM     35  C   UNL     1      -5.833   4.380  -4.742  1.00  0.00     0.029 A 
ATOM     36  N   UNL     1      -5.747   5.359  -6.752  1.00  0.00    -0.354 N 
ATOM     37  C   UNL     1      -2.028   7.043  -8.215  1.00  0.00     0.074 A 
ATOM     38  C   UNL     1      -0.947   6.813  -7.279  1.00  0.00     0.031 C 
ATOM     39  C   UNL     1      -7.063   4.313  -5.270  1.00  0.00     0.029 A 
ATOM     40  C   UNL     1      -7.056   4.998  -6.556  1.00  0.00     0.049 A 
ATOM     41  H   UNL     1      -5.420   5.785  -7.577  1.00  0.00     0.167 HD
ATOM     42  C   UNL     1      -1.901   7.671  -9.408  1.00  0.00     0.031 A 
ATOM     43  C   UNL     1      -8.144   5.232  -7.308  1.00  0.00     0.031 A 
ATOM     44  C   UNL     1      -2.993   7.904 -10.319  1.00  0.00     0.049 A 
ATOM     45  C   UNL     1      -7.986   5.995  -8.585  1.00  0.00     0.074 A 
ATOM     46  C   UNL     1      -2.966   8.506 -11.565  1.00  0.00     0.029 A 
ATOM     47  N   UNL     1      -4.312   7.553 -10.073  1.00  0.00    -0.354 N 
ATOM     48  N   UNL     1      -6.894   6.485  -9.117  1.00  0.00    -0.248 NA
ATOM     49  C   UNL     1      -9.208   6.245  -9.358  1.00  0.00     0.031 C 
ATOM     50  C   UNL     1      -4.277   8.559 -12.053  1.00  0.00     0.029 A 
ATOM     51  C   UNL     1      -5.114   7.955 -11.128  1.00  0.00     0.049 A 
ATOM     52  H   UNL     1      -4.632   7.088  -9.266  1.00  0.00     0.167 HD
ATOM     53  C   UNL     1      -7.292   7.101 -10.292  1.00  0.00     0.074 A 
ATOM     54  C   UNL     1      -8.725   6.906 -10.402  1.00  0.00     0.031 C 
ATOM     55  C   UNL     1      -6.539   7.768 -11.200  1.00  0.00     0.031 A 
BRANCH  42  56
ATOM     56  C   UNL     1      -0.541   8.184  -9.785  1.00  0.00    -0.014 A 
ATOM     57  C   UNL     1       0.463   7.317 -10.242  1.00  0.00     0.009 A 
ATOM     58  C   UNL     1      -0.279   9.562  -9.734  1.00  0.00     0.009 A 
ATOM     59  C   UNL     1       1.710   7.819 -10.623  1.00  0.00     0.001 A 
ATOM     60  C   UNL     1       0.963  10.063 -10.130  1.00  0.00     0.001 A 
ATOM     61  C   UNL     1       1.958   9.191 -10.570  1.00  0.00     0.000 A 
ENDBRANCH  42  56
BRANCH  43  62
ATOM     62  C   UNL     1      -9.469   4.773  -6.828  1.00  0.00    -0.014 A 
ATOM     63  C   UNL     1     -10.082   3.651  -7.400  1.00  0.00     0.009 A 
ATOM     64  C   UNL     1     -10.091   5.418  -5.747  1.00  0.00     0.009 A 
ATOM     65  C   UNL     1     -11.300   3.185  -6.900  1.00  0.00     0.001 A 
ATOM     66  C   UNL     1     -11.297   4.937  -5.236  1.00  0.00     0.001 A 
ATOM     67  C   UNL     1     -11.902   3.823  -5.815  1.00  0.00     0.000 A 
ENDBRANCH  43  62
BRANCH  55  68
ATOM     68  C   UNL     1      -7.266   8.328 -12.384  1.00  0.00    -0.014 A 
ATOM     69  C   UNL     1      -8.016   9.509 -12.272  1.00  0.00     0.009 A 
ATOM     70  C   UNL     1      -7.193   7.674 -13.623  1.00  0.00     0.009 A 
ATOM     71  C   UNL     1      -8.702  10.011 -13.378  1.00  0.00     0.001 A 
ATOM     72  C   UNL     1      -7.865   8.190 -14.730  1.00  0.00     0.001 A 
ATOM     73  C   UNL     1      -8.625   9.353 -14.605  1.00  0.00     0.000 A 
ENDBRANCH  55  68
ENDBRANCH  29  30
ENDBRANCH  22  24
ENDBRANCH  21  22
ENDBRANCH  20  21
ENDBRANCH   1  20
TORSDOF 15
