REMARK SMILES Nc1cc([N+](=O)[O-])ccc1[C@H]([NH3+])C(=O)OCCOC(=O)c1ccc(-c2c3nc(c(-c4ccccc4)c4ccc([nH]4)c(-c4ccccc4)c4nc(c(-c5ccccc5)c5ccc2[nH]5)C=C4)C=C3)cc1
REMARK SMILES IDX 16 1 15 2 13 3 14 4 11 5 10 6 2 7 3 8 4 9 9 10 8 11 1 12
REMARK SMILES IDX 5 15 6 16 7 17 12 18 17 22 18 23 19 24 20 25 21 26 22 27
REMARK SMILES IDX 68 28 23 29 67 30 24 31 25 32 26 33 61 34 27 35 66 36 60 37
REMARK SMILES IDX 62 38 28 39 65 40 59 41 58 42 29 44 51 45 36 46 50 47 37 48
REMARK SMILES IDX 40 49 49 50 63 51 38 52 39 53 48 55 64 56 41 57 30 58 31 59
REMARK SMILES IDX 35 60 32 61 34 62 33 63 52 64 53 65 57 66 54 67 56 68 55 69
REMARK SMILES IDX 42 70 43 71 47 72 44 73 46 74 45 75
REMARK H PARENT 1 13 1 14 12 19 12 20 12 21 62 43 40 54
REMARK Flexibility Score: inf
ROOT
ATOM      1  C   UNL     1      -0.798   4.420   2.825  1.00  0.00     0.274 C 
ENDROOT
BRANCH   1   2
ATOM      2  O   UNL     1      -0.792   3.663   1.604  1.00  0.00    -0.457 OA
BRANCH   2   3
ATOM      3  C   UNL     1       0.339   3.698   0.843  1.00  0.00     0.369 C 
ATOM      4  O   UNL     1       1.328   4.374   1.117  1.00  0.00    -0.245 OA
BRANCH   3   5
ATOM      5  C   UNL     1       0.257   2.766  -0.398  1.00  0.00     0.325 C 
BRANCH   5   6
ATOM      6  C   UNL     1       0.269   3.484  -1.753  1.00  0.00     0.044 A 
ATOM      7  C   UNL     1       0.163   2.760  -2.968  1.00  0.00     0.048 A 
ATOM      8  C   UNL     1       0.037   3.454  -4.181  1.00  0.00     0.111 A 
ATOM      9  C   UNL     1       0.148   4.847  -4.216  1.00  0.00     0.271 A 
ATOM     10  C   UNL     1       0.413   4.888  -1.825  1.00  0.00     0.020 A 
ATOM     11  C   UNL     1       0.368   5.567  -3.044  1.00  0.00     0.086 A 
BRANCH   7  12
ATOM     12  N   UNL     1       0.088   1.367  -3.000  1.00  0.00    -0.398 N 
ATOM     13  H   UNL     1       0.015   0.898  -3.863  1.00  0.00     0.156 HD
ATOM     14  H   UNL     1       0.107   0.853  -2.161  1.00  0.00     0.156 HD
ENDBRANCH   7  12
BRANCH   9  15
ATOM     15  N   UNL     1       0.045   5.555  -5.496  1.00  0.00     0.062 N 
ATOM     16  O   UNL     1      -0.205   4.885  -6.508  1.00  0.00    -0.258 OA
ATOM     17  O   UNL     1       0.215   6.783  -5.491  1.00  0.00    -0.258 OA
ENDBRANCH   9  15
ENDBRANCH   5   6
BRANCH   5  18
ATOM     18  N   UNL     1      -0.899   1.848  -0.270  1.00  0.00    -0.342 N 
ATOM     19  H   UNL     1      -1.764   2.389  -0.268  1.00  0.00     0.345 HD
ATOM     20  H   UNL     1      -0.823   1.326   0.603  1.00  0.00     0.345 HD
ATOM     21  H   UNL     1      -0.906   1.198  -1.056  1.00  0.00     0.345 HD
ENDBRANCH   5  18
ENDBRANCH   3   5
ENDBRANCH   2   3
ENDBRANCH   1   2
BRANCH   1  22
ATOM     22  C   UNL     1      -0.434   3.542   4.027  1.00  0.00     0.275 C 
BRANCH  22  23
ATOM     23  O   UNL     1       0.976   3.250   4.072  1.00  0.00    -0.458 OA
BRANCH  23  24
ATOM     24  C   UNL     1       1.362   2.147   3.389  1.00  0.00     0.338 C 
ATOM     25  O   UNL     1       0.652   1.360   2.785  1.00  0.00    -0.246 OA
BRANCH  24  26
ATOM     26  C   UNL     1       2.832   2.094   3.322  1.00  0.00     0.060 A 
ATOM     27  C   UNL     1       3.414   1.968   2.057  1.00  0.00     0.016 A 
ATOM     28  C   UNL     1       3.627   2.101   4.470  1.00  0.00     0.016 A 
ATOM     29  C   UNL     1       4.790   1.832   1.928  1.00  0.00     0.010 A 
ATOM     30  C   UNL     1       5.013   1.963   4.340  1.00  0.00     0.010 A 
ATOM     31  C   UNL     1       5.598   1.812   3.070  1.00  0.00    -0.014 A 
BRANCH  31  32
ATOM     32  C   UNL     1       7.049   1.566   2.923  1.00  0.00     0.031 A 
ATOM     33  C   UNL     1       7.610   0.215   3.257  1.00  0.00     0.074 A 
ATOM     34  C   UNL     1       7.851   2.537   2.453  1.00  0.00     0.049 A 
ATOM     35  N   UNL     1       8.854  -0.188   3.248  1.00  0.00    -0.248 NA
ATOM     36  C   UNL     1       6.641  -0.820   3.650  1.00  0.00     0.031 C 
ATOM     37  C   UNL     1       7.412   3.871   2.042  1.00  0.00     0.029 A 
ATOM     38  N   UNL     1       9.206   2.547   2.243  1.00  0.00    -0.354 N 
ATOM     39  C   UNL     1       8.822  -1.515   3.654  1.00  0.00     0.074 A 
ATOM     40  C   UNL     1       7.437  -1.846   3.913  1.00  0.00     0.031 C 
ATOM     41  C   UNL     1       8.482   4.573   1.634  1.00  0.00     0.029 A 
ATOM     42  C   UNL     1       9.680   3.754   1.795  1.00  0.00     0.049 A 
ATOM     43  H   UNL     1       9.783   1.764   2.399  1.00  0.00     0.167 HD
ATOM     44  C   UNL     1       9.854  -2.379   3.800  1.00  0.00     0.031 A 
ATOM     45  C   UNL     1      10.942   4.163   1.569  1.00  0.00     0.031 A 
ATOM     46  C   UNL     1      11.231  -2.046   3.548  1.00  0.00     0.049 A 
ATOM     47  C   UNL     1      12.077   3.207   1.799  1.00  0.00     0.074 A 
ATOM     48  C   UNL     1      12.350  -2.852   3.666  1.00  0.00     0.029 A 
ATOM     49  N   UNL     1      11.675  -0.801   3.130  1.00  0.00    -0.354 N 
ATOM     50  N   UNL     1      12.036   1.957   2.191  1.00  0.00    -0.248 NA
ATOM     51  C   UNL     1      13.433   3.719   1.555  1.00  0.00     0.031 C 
ATOM     52  C   UNL     1      13.477  -2.080   3.360  1.00  0.00     0.029 A 
ATOM     53  C   UNL     1      13.054  -0.809   3.006  1.00  0.00     0.049 A 
ATOM     54  H   UNL     1      11.096  -0.026   2.947  1.00  0.00     0.167 HD
ATOM     55  C   UNL     1      13.356   1.529   2.231  1.00  0.00     0.074 A 
ATOM     56  C   UNL     1      14.173   2.647   1.805  1.00  0.00     0.031 C 
ATOM     57  C   UNL     1      13.849   0.318   2.591  1.00  0.00     0.031 A 
BRANCH  44  58
ATOM     58  C   UNL     1       9.526  -3.756   4.300  1.00  0.00    -0.014 A 
ATOM     59  C   UNL     1       8.894  -4.702   3.478  1.00  0.00     0.009 A 
ATOM     60  C   UNL     1       9.861  -4.113   5.616  1.00  0.00     0.009 A 
ATOM     61  C   UNL     1       8.571  -5.966   3.977  1.00  0.00     0.001 A 
ATOM     62  C   UNL     1       9.559  -5.385   6.104  1.00  0.00     0.001 A 
ATOM     63  C   UNL     1       8.905  -6.307   5.287  1.00  0.00     0.000 A 
ENDBRANCH  44  58
BRANCH  45  64
ATOM     64  C   UNL     1      11.194   5.562   1.141  1.00  0.00    -0.014 A 
ATOM     65  C   UNL     1      11.607   5.850  -0.168  1.00  0.00     0.009 A 
ATOM     66  C   UNL     1      11.008   6.621   2.044  1.00  0.00     0.009 A 
ATOM     67  C   UNL     1      11.840   7.171  -0.559  1.00  0.00     0.001 A 
ATOM     68  C   UNL     1      11.218   7.941   1.643  1.00  0.00     0.001 A 
ATOM     69  C   UNL     1      11.639   8.214   0.344  1.00  0.00     0.000 A 
ENDBRANCH  45  64
BRANCH  57  70
ATOM     70  C   UNL     1      15.338   0.139   2.518  1.00  0.00    -0.014 A 
ATOM     71  C   UNL     1      16.183   0.708   3.484  1.00  0.00     0.009 A 
ATOM     72  C   UNL     1      15.897  -0.637   1.492  1.00  0.00     0.009 A 
ATOM     73  C   UNL     1      17.565   0.525   3.405  1.00  0.00     0.001 A 
ATOM     74  C   UNL     1      17.276  -0.837   1.429  1.00  0.00     0.001 A 
ATOM     75  C   UNL     1      18.110  -0.250   2.381  1.00  0.00     0.000 A 
ENDBRANCH  57  70
ENDBRANCH  31  32
ENDBRANCH  24  26
ENDBRANCH  23  24
ENDBRANCH  22  23
ENDBRANCH   1  22
TORSDOF 15
