REMARK SMILES O=C(OCCOC(=O)c1ccccc1C(=O)Nc1ccc(N2C(=O)[C@H]3[C@@H]4CC[C@@H](C4)[C@@H]3C2=O)cc1)c1ccc(-c2c3nc(c(-c4ccccc4)c4ccc([nH]4)c(-c4ccccc4)c4nc(c(-c5ccccc5)c5ccc2[nH]5)C=C4)C=C3)cc1
REMARK SMILES IDX 5 1 4 2 3 3 2 4 1 5 36 6 37 7 83 8 38 9 82 10 39 11 40 12
REMARK SMILES IDX 41 13 76 14 42 15 81 16 75 17 77 18 43 19 80 20 74 21 73 22
REMARK SMILES IDX 44 24 66 25 51 26 65 27 52 28 55 29 64 30 78 31 53 32 54 33
REMARK SMILES IDX 63 35 79 36 56 37 45 38 46 39 50 40 47 41 49 42 48 43 67 44
REMARK SMILES IDX 68 45 72 46 69 47 71 48 70 49 57 50 58 51 62 52 59 53 61 54
REMARK SMILES IDX 60 55 6 56 7 57 8 58 9 59 10 60 14 61 11 62 13 63 12 64
REMARK SMILES IDX 15 65 16 66 17 67 18 69 19 70 35 71 20 72 34 73 21 74 22 75
REMARK SMILES IDX 23 76 32 77 24 78 25 79 31 80 33 81 26 82 29 83 27 84 30 85
REMARK SMILES IDX 28 86
REMARK H PARENT 77 23 55 34 17 68
REMARK Flexibility Score: inf
ROOT
ATOM      1  C   UNL     1       5.228  -0.618   0.586  1.00  0.00     0.275 C 
ENDROOT
BRANCH   1   2
ATOM      2  C   UNL     1       5.273   0.871   0.182  1.00  0.00     0.275 C 
BRANCH   2   3
ATOM      3  O   UNL     1       4.311   1.501  -0.685  1.00  0.00    -0.458 OA
BRANCH   3   4
ATOM      4  C   UNL     1       3.993   1.279  -1.974  1.00  0.00     0.338 C 
ATOM      5  O   UNL     1       3.265   2.035  -2.609  1.00  0.00    -0.246 OA
BRANCH   4   6
ATOM      6  C   UNL     1       4.405   0.002  -2.572  1.00  0.00     0.060 A 
ATOM      7  C   UNL     1       5.692  -0.506  -2.414  1.00  0.00     0.016 A 
ATOM      8  C   UNL     1       3.428  -0.734  -3.256  1.00  0.00     0.016 A 
ATOM      9  C   UNL     1       5.952  -1.822  -2.753  1.00  0.00     0.010 A 
ATOM     10  C   UNL     1       3.704  -2.033  -3.666  1.00  0.00     0.010 A 
ATOM     11  C   UNL     1       4.963  -2.579  -3.391  1.00  0.00    -0.014 A 
BRANCH  11  12
ATOM     12  C   UNL     1       5.412  -3.788  -4.087  1.00  0.00     0.031 A 
ATOM     13  C   UNL     1       6.082  -3.550  -5.402  1.00  0.00     0.074 A 
ATOM     14  C   UNL     1       5.338  -5.002  -3.520  1.00  0.00     0.049 A 
ATOM     15  N   UNL     1       6.758  -4.383  -6.139  1.00  0.00    -0.248 NA
ATOM     16  C   UNL     1       6.059  -2.164  -5.914  1.00  0.00     0.031 C 
ATOM     17  C   UNL     1       4.816  -5.289  -2.186  1.00  0.00     0.029 A 
ATOM     18  N   UNL     1       5.710  -6.225  -4.004  1.00  0.00    -0.354 N 
ATOM     19  C   UNL     1       7.312  -3.604  -7.142  1.00  0.00     0.074 A 
ATOM     20  C   UNL     1       6.865  -2.246  -6.956  1.00  0.00     0.031 C 
ATOM     21  C   UNL     1       4.828  -6.620  -1.987  1.00  0.00     0.029 A 
ATOM     22  C   UNL     1       5.367  -7.268  -3.178  1.00  0.00     0.049 A 
ATOM     23  H   UNL     1       6.178  -6.347  -4.861  1.00  0.00     0.167 HD
ATOM     24  C   UNL     1       8.135  -3.998  -8.134  1.00  0.00     0.031 A 
ATOM     25  C   UNL     1       5.464  -8.591  -3.401  1.00  0.00     0.031 A 
ATOM     26  C   UNL     1       8.442  -5.373  -8.377  1.00  0.00     0.049 A 
ATOM     27  C   UNL     1       6.144  -9.030  -4.673  1.00  0.00     0.074 A 
ATOM     28  C   UNL     1       9.180  -5.928  -9.400  1.00  0.00     0.029 A 
ATOM     29  N   UNL     1       7.962  -6.418  -7.598  1.00  0.00    -0.354 N 
ATOM     30  N   UNL     1       6.729  -8.291  -5.589  1.00  0.00    -0.248 NA
ATOM     31  C   UNL     1       6.195 -10.472  -4.941  1.00  0.00     0.031 C 
ATOM     32  C   UNL     1       9.076  -7.319  -9.286  1.00  0.00     0.029 A 
ATOM     33  C   UNL     1       8.327  -7.624  -8.157  1.00  0.00     0.049 A 
ATOM     34  H   UNL     1       7.439  -6.313  -6.770  1.00  0.00     0.167 HD
ATOM     35  C   UNL     1       7.253  -9.176  -6.519  1.00  0.00     0.074 A 
ATOM     36  C   UNL     1       6.914 -10.509  -6.055  1.00  0.00     0.031 C 
ATOM     37  C   UNL     1       7.959  -8.921  -7.649  1.00  0.00     0.031 A 
BRANCH  24  38
ATOM     38  C   UNL     1       8.637  -2.923  -9.044  1.00  0.00    -0.014 A 
ATOM     39  C   UNL     1       9.643  -2.036  -8.627  1.00  0.00     0.009 A 
ATOM     40  C   UNL     1       8.031  -2.733 -10.293  1.00  0.00     0.009 A 
ATOM     41  C   UNL     1      10.015  -0.962  -9.438  1.00  0.00     0.001 A 
ATOM     42  C   UNL     1       8.415  -1.668 -11.107  1.00  0.00     0.001 A 
ATOM     43  C   UNL     1       9.400  -0.779 -10.677  1.00  0.00     0.000 A 
ENDBRANCH  24  38
BRANCH  25  44
ATOM     44  C   UNL     1       4.850  -9.575  -2.467  1.00  0.00    -0.014 A 
ATOM     45  C   UNL     1       5.622 -10.512  -1.766  1.00  0.00     0.009 A 
ATOM     46  C   UNL     1       3.451  -9.620  -2.328  1.00  0.00     0.009 A 
ATOM     47  C   UNL     1       5.007 -11.493  -0.980  1.00  0.00     0.001 A 
ATOM     48  C   UNL     1       2.840 -10.585  -1.523  1.00  0.00     0.001 A 
ATOM     49  C   UNL     1       3.618 -11.530  -0.860  1.00  0.00     0.000 A 
ENDBRANCH  25  44
BRANCH  37  50
ATOM     50  C   UNL     1       8.425 -10.106  -8.438  1.00  0.00    -0.014 A 
ATOM     51  C   UNL     1       7.533 -10.840  -9.232  1.00  0.00     0.009 A 
ATOM     52  C   UNL     1       9.790 -10.429  -8.451  1.00  0.00     0.009 A 
ATOM     53  C   UNL     1       8.002 -11.893 -10.017  1.00  0.00     0.001 A 
ATOM     54  C   UNL     1      10.259 -11.461  -9.260  1.00  0.00     0.001 A 
ATOM     55  C   UNL     1       9.364 -12.195 -10.037  1.00  0.00     0.000 A 
ENDBRANCH  37  50
ENDBRANCH  11  12
ENDBRANCH   4   6
ENDBRANCH   3   4
ENDBRANCH   2   3
ENDBRANCH   1   2
BRANCH   1  56
ATOM     56  O   UNL     1       4.262  -1.576   0.124  1.00  0.00    -0.458 OA
BRANCH  56  57
ATOM     57  C   UNL     1       2.947  -1.304   0.061  1.00  0.00     0.339 C 
ATOM     58  O   UNL     1       2.407  -0.215   0.122  1.00  0.00    -0.246 OA
BRANCH  57  59
ATOM     59  C   UNL     1       2.209  -2.546  -0.260  1.00  0.00     0.072 A 
ATOM     60  C   UNL     1       1.332  -2.457  -1.357  1.00  0.00     0.016 A 
ATOM     61  C   UNL     1       2.393  -3.777   0.384  1.00  0.00     0.054 A 
ATOM     62  C   UNL     1       0.788  -3.603  -1.933  1.00  0.00     0.001 A 
ATOM     63  C   UNL     1       1.836  -4.928  -0.215  1.00  0.00     0.015 A 
ATOM     64  C   UNL     1       1.070  -4.845  -1.381  1.00  0.00     0.001 A 
BRANCH  61  65
ATOM     65  C   UNL     1       3.218  -4.024   1.598  1.00  0.00     0.256 C 
ATOM     66  O   UNL     1       3.906  -5.050   1.617  1.00  0.00    -0.269 OA
ATOM     67  N   UNL     1       3.314  -3.169   2.676  1.00  0.00    -0.322 N 
ATOM     68  H   UNL     1       3.980  -3.442   3.348  1.00  0.00     0.170 HD
BRANCH  67  69
ATOM     69  C   UNL     1       2.636  -1.984   2.990  1.00  0.00     0.041 A 
ATOM     70  C   UNL     1       3.417  -0.938   3.487  1.00  0.00     0.028 A 
ATOM     71  C   UNL     1       1.294  -1.758   2.704  1.00  0.00     0.028 A 
ATOM     72  C   UNL     1       2.954   0.378   3.390  1.00  0.00     0.029 A 
ATOM     73  C   UNL     1       0.792  -0.448   2.727  1.00  0.00     0.029 A 
ATOM     74  C   UNL     1       1.654   0.639   2.950  1.00  0.00     0.052 A 
BRANCH  74  75
ATOM     75  N   UNL     1       1.260   1.936   2.538  1.00  0.00    -0.250 N 
ATOM     76  C   UNL     1      -0.046   2.426   2.645  1.00  0.00     0.237 C 
ATOM     77  C   UNL     1       2.098   2.824   1.836  1.00  0.00     0.237 C 
ATOM     78  O   UNL     1      -0.961   2.068   3.364  1.00  0.00    -0.274 OA
ATOM     79  C   UNL     1      -0.134   3.418   1.537  1.00  0.00     0.095 C 
ATOM     80  C   UNL     1       1.246   4.031   1.605  1.00  0.00     0.095 C 
ATOM     81  O   UNL     1       3.301   2.783   1.645  1.00  0.00    -0.274 OA
ATOM     82  C   UNL     1      -0.998   4.651   1.238  1.00  0.00     0.002 C 
ATOM     83  C   UNL     1       1.111   5.143   0.567  1.00  0.00     0.002 C 
ATOM     84  C   UNL     1      -1.143   4.631  -0.296  1.00  0.00     0.005 C 
ATOM     85  C   UNL     1      -0.035   5.870   1.313  1.00  0.00     0.009 C 
ATOM     86  C   UNL     1       0.346   4.762  -0.743  1.00  0.00     0.005 C 
ENDBRANCH  74  75
ENDBRANCH  67  69
ENDBRANCH  61  65
ENDBRANCH  57  59
ENDBRANCH  56  57
ENDBRANCH   1  56
TORSDOF 14
