REMARK SMILES Cc1cc(OCCc2nc(CC(=O)OCCOC(=O)c3ccc(-c4c5nc(c(-c6ccccc6)c6ccc([nH]6)c(-c6ccccc6)c6nc(c(-c7ccccc7)c7ccc4[nH]7)C=C6)C=C5)cc3)cs2)ccc1Cl
REMARK SMILES IDX 14 1 12 2 13 3 11 4 10 5 8 6 9 7 69 8 68 9 7 10 6 11 5 12
REMARK SMILES IDX 4 13 1 14 2 15 3 16 72 17 71 18 73 19 70 20 15 21 16 22
REMARK SMILES IDX 17 23 18 24 19 25 20 26 21 27 67 28 22 29 66 30 23 31 24 32
REMARK SMILES IDX 25 33 60 34 26 35 65 36 59 37 61 38 27 39 64 40 58 41 57 42
REMARK SMILES IDX 28 44 50 45 35 46 49 47 36 48 39 49 48 50 62 51 37 52 38 53
REMARK SMILES IDX 47 55 63 56 40 57 29 58 30 59 34 60 31 61 33 62 32 63 51 64
REMARK SMILES IDX 52 65 56 66 53 67 55 68 54 69 41 70 42 71 46 72 43 73 45 74
REMARK SMILES IDX 44 75
REMARK H PARENT 61 43 39 54
REMARK Flexibility Score: inf
ROOT
ATOM      1  O   UNL     1       1.688   1.121  -0.485  1.00  0.00    -0.462 OA
ENDROOT
BRANCH   1   2
ATOM      2  C   UNL     1       1.737   0.166   0.479  1.00  0.00     0.312 C 
ATOM      3  O   UNL     1       2.594  -0.717   0.508  1.00  0.00    -0.252 OA
BRANCH   2   4
ATOM      4  C   UNL     1       0.702   0.264   1.579  1.00  0.00     0.179 C 
BRANCH   4   5
ATOM      5  C   UNL     1      -0.347   1.334   1.553  1.00  0.00     0.063 A 
ATOM      6  C   UNL     1      -2.488   1.954   1.772  1.00  0.00     0.096 A 
ATOM      7  N   UNL     1      -1.659   0.931   1.784  1.00  0.00    -0.246 NA
ATOM      8  S   UNL     1      -1.735   3.483   1.579  1.00  0.00    -0.127 S 
ATOM      9  C   UNL     1      -0.206   2.707   1.502  1.00  0.00     0.091 A 
BRANCH   6  10
ATOM     10  C   UNL     1      -3.973   1.842   1.971  1.00  0.00     0.109 C 
BRANCH  10  11
ATOM     11  C   UNL     1      -4.755   1.468   0.708  1.00  0.00     0.237 C 
BRANCH  11  12
ATOM     12  O   UNL     1      -4.600   0.097   0.320  1.00  0.00    -0.493 OA
BRANCH  12  13
ATOM     13  C   UNL     1      -3.478  -0.227  -0.390  1.00  0.00     0.119 A 
ATOM     14  C   UNL     1      -0.795   1.359  -2.520  1.00  0.00     0.046 C 
ATOM     15  C   UNL     1      -1.565   0.274  -1.823  1.00  0.00    -0.029 A 
ATOM     16  C   UNL     1      -2.779   0.648  -1.223  1.00  0.00     0.051 A 
ATOM     17  C   UNL     1      -1.103  -1.035  -1.629  1.00  0.00     0.044 A 
ATOM     18  C   UNL     1      -1.820  -1.928  -0.828  1.00  0.00     0.024 A 
ATOM     19  Cl  UNL     1       0.339  -1.629  -2.363  1.00  0.00    -0.084 Cl
ATOM     20  C   UNL     1      -3.003  -1.524  -0.211  1.00  0.00     0.048 A 
ENDBRANCH  12  13
ENDBRANCH  11  12
ENDBRANCH  10  11
ENDBRANCH   6  10
ENDBRANCH   4   5
ENDBRANCH   2   4
ENDBRANCH   1   2
BRANCH   1  21
ATOM     21  C   UNL     1       2.647   0.981  -1.565  1.00  0.00     0.274 C 
BRANCH  21  22
ATOM     22  C   UNL     1       3.081   2.346  -2.102  1.00  0.00     0.275 C 
BRANCH  22  23
ATOM     23  O   UNL     1       3.926   2.967  -1.126  1.00  0.00    -0.458 OA
BRANCH  23  24
ATOM     24  C   UNL     1       3.264   3.726  -0.227  1.00  0.00     0.338 C 
ATOM     25  O   UNL     1       2.145   4.193  -0.311  1.00  0.00    -0.246 OA
BRANCH  24  26
ATOM     26  C   UNL     1       4.030   3.654   1.018  1.00  0.00     0.060 A 
ATOM     27  C   UNL     1       3.545   2.814   2.025  1.00  0.00     0.016 A 
ATOM     28  C   UNL     1       5.198   4.388   1.190  1.00  0.00     0.016 A 
ATOM     29  C   UNL     1       4.210   2.715   3.233  1.00  0.00     0.010 A 
ATOM     30  C   UNL     1       5.874   4.285   2.402  1.00  0.00     0.010 A 
ATOM     31  C   UNL     1       5.372   3.463   3.429  1.00  0.00    -0.014 A 
BRANCH  31  32
ATOM     32  C   UNL     1       6.007   3.474   4.756  1.00  0.00     0.031 A 
ATOM     33  C   UNL     1       5.831   4.685   5.617  1.00  0.00     0.074 A 
ATOM     34  C   UNL     1       6.714   2.411   5.172  1.00  0.00     0.049 A 
ATOM     35  N   UNL     1       6.434   5.003   6.730  1.00  0.00    -0.248 NA
ATOM     36  C   UNL     1       4.845   5.678   5.154  1.00  0.00     0.031 C 
ATOM     37  C   UNL     1       6.858   1.149   4.443  1.00  0.00     0.029 A 
ATOM     38  N   UNL     1       7.451   2.230   6.311  1.00  0.00    -0.354 N 
ATOM     39  C   UNL     1       5.933   6.250   7.080  1.00  0.00     0.074 A 
ATOM     40  C   UNL     1       4.981   6.633   6.061  1.00  0.00     0.031 C 
ATOM     41  C   UNL     1       7.650   0.326   5.150  1.00  0.00     0.029 A 
ATOM     42  C   UNL     1       8.113   1.028   6.343  1.00  0.00     0.049 A 
ATOM     43  H   UNL     1       7.502   2.895   7.034  1.00  0.00     0.167 HD
ATOM     44  C   UNL     1       6.255   7.006   8.153  1.00  0.00     0.031 A 
ATOM     45  C   UNL     1       9.028   0.573   7.217  1.00  0.00     0.031 A 
ATOM     46  C   UNL     1       7.212   6.601   9.147  1.00  0.00     0.049 A 
ATOM     47  C   UNL     1       9.431   1.467   8.358  1.00  0.00     0.074 A 
ATOM     48  C   UNL     1       7.639   7.287  10.268  1.00  0.00     0.029 A 
ATOM     49  N   UNL     1       7.888   5.389   9.132  1.00  0.00    -0.354 N 
ATOM     50  N   UNL     1       8.992   2.666   8.663  1.00  0.00    -0.248 NA
ATOM     51  C   UNL     1      10.459   0.950   9.269  1.00  0.00     0.031 C 
ATOM     52  C   UNL     1       8.609   6.507  10.908  1.00  0.00     0.029 A 
ATOM     53  C   UNL     1       8.743   5.312  10.216  1.00  0.00     0.049 A 
ATOM     54  H   UNL     1       7.775   4.688   8.450  1.00  0.00     0.167 HD
ATOM     55  C   UNL     1       9.673   3.038   9.814  1.00  0.00     0.074 A 
ATOM     56  C   UNL     1      10.541   1.928  10.159  1.00  0.00     0.031 C 
ATOM     57  C   UNL     1       9.591   4.189  10.525  1.00  0.00     0.031 A 
BRANCH  44  58
ATOM     58  C   UNL     1       5.614   8.361   8.256  1.00  0.00    -0.014 A 
ATOM     59  C   UNL     1       4.251   8.510   8.555  1.00  0.00     0.009 A 
ATOM     60  C   UNL     1       6.390   9.510   8.038  1.00  0.00     0.009 A 
ATOM     61  C   UNL     1       3.671   9.781   8.595  1.00  0.00     0.001 A 
ATOM     62  C   UNL     1       5.814  10.780   8.106  1.00  0.00     0.001 A 
ATOM     63  C   UNL     1       4.453  10.914   8.374  1.00  0.00     0.000 A 
ENDBRANCH  44  58
BRANCH  45  64
ATOM     64  C   UNL     1       9.653  -0.760   7.021  1.00  0.00    -0.014 A 
ATOM     65  C   UNL     1       9.390  -1.811   7.912  1.00  0.00     0.009 A 
ATOM     66  C   UNL     1      10.517  -0.992   5.938  1.00  0.00     0.009 A 
ATOM     67  C   UNL     1       9.994  -3.059   7.734  1.00  0.00     0.001 A 
ATOM     68  C   UNL     1      11.096  -2.248   5.746  1.00  0.00     0.001 A 
ATOM     69  C   UNL     1      10.841  -3.278   6.649  1.00  0.00     0.000 A 
ENDBRANCH  45  64
BRANCH  57  70
ATOM     70  C   UNL     1      10.433   4.279  11.765  1.00  0.00    -0.014 A 
ATOM     71  C   UNL     1      11.822   4.456  11.693  1.00  0.00     0.009 A 
ATOM     72  C   UNL     1       9.814   4.222  13.024  1.00  0.00     0.009 A 
ATOM     73  C   UNL     1      12.581   4.540  12.861  1.00  0.00     0.001 A 
ATOM     74  C   UNL     1      10.571   4.336  14.189  1.00  0.00     0.001 A 
ATOM     75  C   UNL     1      11.955   4.485  14.107  1.00  0.00     0.000 A 
ENDBRANCH  57  70
ENDBRANCH  31  32
ENDBRANCH  24  26
ENDBRANCH  23  24
ENDBRANCH  22  23
ENDBRANCH  21  22
ENDBRANCH   1  21
TORSDOF 16
