REMARK SMILES O=C(OCCOC(=O)c1ccc(COc2cccc(Cl)c2Cl)o1)c1ccc(-c2c3nc(c(-c4ccccc4)c4ccc([nH]4)c(-c4ccccc4)c4nc(c(-c5ccccc5)c5ccc2[nH]5)C=C4)C=C3)cc1
REMARK SMILES IDX 5 1 4 2 3 3 2 4 1 5 24 6 25 7 71 8 26 9 70 10 27 11 28 12
REMARK SMILES IDX 29 13 64 14 30 15 69 16 63 17 65 18 31 19 68 20 62 21 61 22
REMARK SMILES IDX 32 24 54 25 39 26 53 27 40 28 43 29 52 30 66 31 41 32 42 33
REMARK SMILES IDX 51 35 67 36 44 37 33 38 34 39 38 40 35 41 37 42 36 43 55 44
REMARK SMILES IDX 56 45 60 46 57 47 59 48 58 49 45 50 46 51 50 52 47 53 49 54
REMARK SMILES IDX 48 55 6 56 7 57 8 58 9 59 10 60 23 61 11 62 12 63 13 64
REMARK SMILES IDX 14 65 15 66 16 67 21 68 17 69 19 70 22 71 18 72 20 73
REMARK H PARENT 65 23 43 34
REMARK Flexibility Score: inf
ROOT
ATOM      1  C   UNL     1       4.059  -0.537  -2.254  1.00  0.00     0.275 C 
ENDROOT
BRANCH   1   2
ATOM      2  C   UNL     1       4.195  -1.348  -0.964  1.00  0.00     0.275 C 
BRANCH   2   3
ATOM      3  O   UNL     1       3.088  -1.174  -0.062  1.00  0.00    -0.458 OA
BRANCH   3   4
ATOM      4  C   UNL     1       3.082  -0.493   1.109  1.00  0.00     0.338 C 
ATOM      5  O   UNL     1       2.372  -0.871   2.037  1.00  0.00    -0.246 OA
BRANCH   4   6
ATOM      6  C   UNL     1       3.746   0.838   1.240  1.00  0.00     0.060 A 
ATOM      7  C   UNL     1       5.058   1.126   0.857  1.00  0.00     0.016 A 
ATOM      8  C   UNL     1       3.005   1.845   1.885  1.00  0.00     0.016 A 
ATOM      9  C   UNL     1       5.608   2.393   1.081  1.00  0.00     0.010 A 
ATOM     10  C   UNL     1       3.552   3.113   2.113  1.00  0.00     0.010 A 
ATOM     11  C   UNL     1       4.867   3.388   1.724  1.00  0.00    -0.014 A 
BRANCH  11  12
ATOM     12  C   UNL     1       5.532   4.649   2.125  1.00  0.00     0.031 A 
ATOM     13  C   UNL     1       6.010   4.791   3.538  1.00  0.00     0.074 A 
ATOM     14  C   UNL     1       5.755   5.634   1.236  1.00  0.00     0.049 A 
ATOM     15  N   UNL     1       6.719   5.751   4.074  1.00  0.00    -0.248 NA
ATOM     16  C   UNL     1       5.674   3.695   4.461  1.00  0.00     0.031 C 
ATOM     17  C   UNL     1       5.404   5.584  -0.178  1.00  0.00     0.029 A 
ATOM     18  N   UNL     1       6.329   6.869   1.390  1.00  0.00    -0.354 N 
ATOM     19  C   UNL     1       6.950   5.353   5.383  1.00  0.00     0.074 A 
ATOM     20  C   UNL     1       6.249   4.103   5.581  1.00  0.00     0.031 C 
ATOM     21  C   UNL     1       5.717   6.755  -0.758  1.00  0.00     0.029 A 
ATOM     22  C   UNL     1       6.325   7.625   0.243  1.00  0.00     0.049 A 
ATOM     23  H   UNL     1       6.709   7.185   2.242  1.00  0.00     0.167 HD
ATOM     24  C   UNL     1       7.707   5.957   6.327  1.00  0.00     0.031 A 
ATOM     25  C   UNL     1       6.779   8.871   0.019  1.00  0.00     0.031 A 
ATOM     26  C   UNL     1       8.361   7.221   6.146  1.00  0.00     0.049 A 
ATOM     27  C   UNL     1       7.502   9.587   1.124  1.00  0.00     0.074 A 
ATOM     28  C   UNL     1       9.149   7.926   7.037  1.00  0.00     0.029 A 
ATOM     29  N   UNL     1       8.280   7.984   4.989  1.00  0.00    -0.354 N 
ATOM     30  N   UNL     1       7.777   9.165   2.334  1.00  0.00    -0.248 NA
ATOM     31  C   UNL     1       8.013  10.930   0.819  1.00  0.00     0.031 C 
ATOM     32  C   UNL     1       9.507   9.139   6.434  1.00  0.00     0.029 A 
ATOM     33  C   UNL     1       8.978   9.166   5.152  1.00  0.00     0.049 A 
ATOM     34  H   UNL     1       7.796   7.721   4.173  1.00  0.00     0.167 HD
ATOM     35  C   UNL     1       8.539  10.166   2.920  1.00  0.00     0.074 A 
ATOM     36  C   UNL     1       8.671  11.221   1.934  1.00  0.00     0.031 C 
ATOM     37  C   UNL     1       9.098  10.199   4.154  1.00  0.00     0.031 A 
BRANCH  24  38
ATOM     38  C   UNL     1       7.829   5.238   7.638  1.00  0.00    -0.014 A 
ATOM     39  C   UNL     1       8.598   4.067   7.747  1.00  0.00     0.009 A 
ATOM     40  C   UNL     1       7.121   5.696   8.758  1.00  0.00     0.009 A 
ATOM     41  C   UNL     1       8.614   3.340   8.939  1.00  0.00     0.001 A 
ATOM     42  C   UNL     1       7.157   4.978   9.955  1.00  0.00     0.001 A 
ATOM     43  C   UNL     1       7.891   3.795  10.041  1.00  0.00     0.000 A 
ENDBRANCH  24  38
BRANCH  25  44
ATOM     44  C   UNL     1       6.609   9.496  -1.318  1.00  0.00    -0.014 A 
ATOM     45  C   UNL     1       7.699   9.634  -2.189  1.00  0.00     0.009 A 
ATOM     46  C   UNL     1       5.347   9.954  -1.731  1.00  0.00     0.009 A 
ATOM     47  C   UNL     1       7.534  10.235  -3.440  1.00  0.00     0.001 A 
ATOM     48  C   UNL     1       5.182  10.538  -2.989  1.00  0.00     0.001 A 
ATOM     49  C   UNL     1       6.276  10.684  -3.840  1.00  0.00     0.000 A 
ENDBRANCH  25  44
BRANCH  37  50
ATOM     50  C   UNL     1       9.942  11.394   4.487  1.00  0.00    -0.014 A 
ATOM     51  C   UNL     1       9.363  12.637   4.781  1.00  0.00     0.009 A 
ATOM     52  C   UNL     1      11.338  11.257   4.545  1.00  0.00     0.009 A 
ATOM     53  C   UNL     1      10.171  13.729   5.103  1.00  0.00     0.001 A 
ATOM     54  C   UNL     1      12.140  12.344   4.891  1.00  0.00     0.001 A 
ATOM     55  C   UNL     1      11.557  13.580   5.162  1.00  0.00     0.000 A 
ENDBRANCH  37  50
ENDBRANCH  11  12
ENDBRANCH   4   6
ENDBRANCH   3   4
ENDBRANCH   2   3
ENDBRANCH   1   2
BRANCH   1  56
ATOM     56  O   UNL     1       3.726   0.837  -2.012  1.00  0.00    -0.456 OA
BRANCH  56  57
ATOM     57  C   UNL     1       2.381   1.086  -1.948  1.00  0.00     0.374 C 
ATOM     58  O   UNL     1       1.507   0.264  -2.189  1.00  0.00    -0.242 OA
BRANCH  57  59
ATOM     59  C   UNL     1       2.161   2.431  -1.490  1.00  0.00     0.211 A 
ATOM     60  C   UNL     1       2.790   3.633  -1.744  1.00  0.00     0.058 A 
ATOM     61  O   UNL     1       1.141   2.636  -0.605  1.00  0.00    -0.450 OA
ATOM     62  C   UNL     1       2.116   4.620  -0.976  1.00  0.00     0.050 A 
ATOM     63  C   UNL     1       1.113   3.963  -0.298  1.00  0.00     0.142 A 
BRANCH  63  64
ATOM     64  C   UNL     1       0.016   4.409   0.602  1.00  0.00     0.304 C 
BRANCH  64  65
ATOM     65  O   UNL     1      -1.220   3.800   0.186  1.00  0.00    -0.484 OA
BRANCH  65  66
ATOM     66  C   UNL     1      -1.809   4.467  -0.861  1.00  0.00     0.140 A 
ATOM     67  C   UNL     1      -1.352   4.224  -2.161  1.00  0.00     0.048 A 
ATOM     68  C   UNL     1      -2.913   5.299  -0.645  1.00  0.00     0.101 A 
ATOM     69  C   UNL     1      -1.929   4.874  -3.245  1.00  0.00     0.005 A 
ATOM     70  C   UNL     1      -3.513   5.927  -1.745  1.00  0.00     0.063 A 
ATOM     71  Cl  UNL     1      -3.504   5.533   0.967  1.00  0.00    -0.079 Cl
ATOM     72  C   UNL     1      -3.009   5.727  -3.037  1.00  0.00     0.022 A 
ATOM     73  Cl  UNL     1      -4.889   6.962  -1.587  1.00  0.00    -0.083 Cl
ENDBRANCH  65  66
ENDBRANCH  64  65
ENDBRANCH  63  64
ENDBRANCH  57  59
ENDBRANCH  56  57
ENDBRANCH   1  56
TORSDOF 14
