REMARK SMILES COc1ccc(C(=O)OCCOC(=O)c2ccc(-c3c4nc(c(-c5ccccc5)c5ccc([nH]5)c(-c5ccccc5)c5nc(c(-c6ccccc6)c6ccc3[nH]6)C=C5)C=C4)cc2)cc1NC(=S)NC(=O)c1cccc(C)c1OC
REMARK SMILES IDX 9 1 7 2 8 3 6 4 3 5 4 6 64 7 5 8 63 9 2 10 1 11 65 12 66 14
REMARK SMILES IDX 67 15 68 16 69 17 70 19 71 20 72 21 77 22 73 23 75 24 74 25
REMARK SMILES IDX 76 26 78 27 79 28 10 29 11 30 12 31 13 32 14 33 15 34 16 35
REMARK SMILES IDX 62 36 17 37 61 38 18 39 19 40 20 41 55 42 21 43 60 44 54 45
REMARK SMILES IDX 56 46 22 47 59 48 53 49 52 50 23 52 45 53 30 54 44 55 31 56
REMARK SMILES IDX 34 57 43 58 57 59 32 60 33 61 42 63 58 64 35 65 24 66 25 67
REMARK SMILES IDX 29 68 26 69 28 70 27 71 46 72 47 73 51 74 48 75 50 76 49 77
REMARK SMILES IDX 36 78 37 79 41 80 38 81 40 82 39 83
REMARK H PARENT 65 13 68 18 56 51 34 62
REMARK Flexibility Score: inf
ROOT
ATOM      1  O   UNL     1       2.870   6.170   1.981  1.00  0.00    -0.458 OA
ENDROOT
BRANCH   1   2
ATOM      2  C   UNL     1       1.675   5.268   1.832  1.00  0.00     0.338 C 
ATOM      3  O   UNL     1       0.946   5.708   2.756  1.00  0.00    -0.246 OA
BRANCH   2   4
ATOM      4  C   UNL     1       1.478   3.694   0.365  1.00  0.00     0.062 A 
ATOM      5  C   UNL     1       1.431   0.999  -0.913  1.00  0.00     0.142 A 
ATOM      6  C   UNL     1       0.264   1.716  -0.885  1.00  0.00     0.049 A 
ATOM      7  C   UNL     1       2.588   1.660  -0.594  1.00  0.00     0.084 A 
ATOM      8  C   UNL     1       0.283   2.962  -0.219  1.00  0.00     0.019 A 
ATOM      9  C   UNL     1       2.513   3.020  -0.433  1.00  0.00     0.045 A 
BRANCH   5  10
ATOM     10  O   UNL     1       1.432  -0.306  -1.286  1.00  0.00    -0.495 OA
ATOM     11  C   UNL     1       1.030  -1.124  -0.187  1.00  0.00     0.278 C 
ENDBRANCH   5  10
BRANCH   7  12
ATOM     12  N   UNL     1       3.809   1.014  -0.390  1.00  0.00    -0.329 N 
ATOM     13  H   UNL     1       3.818   0.085  -0.713  1.00  0.00     0.169 HD
BRANCH  12  14
ATOM     14  C   UNL     1       4.981   1.402   0.160  1.00  0.00     0.177 C 
ATOM     15  S   UNL     1       6.232   0.282   0.120  1.00  0.00    -0.040 S 
BRANCH  14  16
ATOM     16  N   UNL     1       5.270   2.602   0.789  1.00  0.00    -0.299 N 
ATOM     17  C   UNL     1       4.793   3.836   1.294  1.00  0.00     0.261 C 
ATOM     18  H   UNL     1       6.239   2.593   0.962  1.00  0.00     0.172 HD
ATOM     19  O   UNL     1       5.590   4.686   1.683  1.00  0.00    -0.269 OA
BRANCH  17  20
ATOM     20  C   UNL     1       3.367   4.157   1.337  1.00  0.00     0.082 A 
ATOM     21  C   UNL     1       2.749   5.365   0.057  1.00  0.00     0.018 A 
ATOM     22  C   UNL     1       2.181   3.299   2.392  1.00  0.00     0.134 A 
ATOM     23  C   UNL     1       0.972   5.718  -0.053  1.00  0.00     0.001 A 
ATOM     24  C   UNL     1       0.410   3.624   2.242  1.00  0.00    -0.008 A 
ATOM     25  C   UNL     1      -0.201   4.891   1.067  1.00  0.00     0.007 A 
ATOM     26  C   UNL     1      -0.564   2.668   2.878  1.00  0.00     0.048 C 
BRANCH  22  27
ATOM     27  O   UNL     1       2.431   2.320   3.313  1.00  0.00    -0.496 OA
ATOM     28  C   UNL     1       3.773   2.020   3.627  1.00  0.00     0.278 C 
ENDBRANCH  22  27
ENDBRANCH  17  20
ENDBRANCH  14  16
ENDBRANCH  12  14
ENDBRANCH   7  12
ENDBRANCH   2   4
ENDBRANCH   1   2
BRANCH   1  29
ATOM     29  C   UNL     1       3.036   7.325   2.852  1.00  0.00     0.275 C 
BRANCH  29  30
ATOM     30  C   UNL     1       3.189   8.584   1.990  1.00  0.00     0.275 C 
BRANCH  30  31
ATOM     31  O   UNL     1       1.880   9.031   1.601  1.00  0.00    -0.458 OA
BRANCH  31  32
ATOM     32  C   UNL     1       1.611   9.001   0.280  1.00  0.00     0.338 C 
ATOM     33  O   UNL     1       2.382   8.818  -0.647  1.00  0.00    -0.246 OA
BRANCH  32  34
ATOM     34  C   UNL     1       0.153   9.067   0.086  1.00  0.00     0.060 A 
ATOM     35  C   UNL     1      -0.634   8.130   0.743  1.00  0.00     0.016 A 
ATOM     36  C   UNL     1      -0.389   9.834  -0.940  1.00  0.00     0.016 A 
ATOM     37  C   UNL     1      -1.871   7.797   0.211  1.00  0.00     0.010 A 
ATOM     38  C   UNL     1      -1.728   9.650  -1.302  1.00  0.00     0.010 A 
ATOM     39  C   UNL     1      -2.476   8.587  -0.769  1.00  0.00    -0.014 A 
BRANCH  39  40
ATOM     40  C   UNL     1      -3.878   8.310  -1.198  1.00  0.00     0.031 A 
ATOM     41  C   UNL     1      -4.248   8.304  -2.662  1.00  0.00     0.074 A 
ATOM     42  C   UNL     1      -4.838   8.096  -0.270  1.00  0.00     0.049 A 
ATOM     43  N   UNL     1      -5.435   8.372  -3.212  1.00  0.00    -0.248 NA
ATOM     44  C   UNL     1      -3.144   8.243  -3.635  1.00  0.00     0.031 C 
ATOM     45  C   UNL     1      -4.631   8.001   1.181  1.00  0.00     0.029 A 
ATOM     46  N   UNL     1      -6.195   7.926  -0.405  1.00  0.00    -0.354 N 
ATOM     47  C   UNL     1      -5.216   8.441  -4.583  1.00  0.00     0.074 A 
ATOM     48  C   UNL     1      -3.784   8.416  -4.784  1.00  0.00     0.031 C 
ATOM     49  C   UNL     1      -5.792   7.739   1.788  1.00  0.00     0.029 A 
ATOM     50  C   UNL     1      -6.851   7.811   0.799  1.00  0.00     0.049 A 
ATOM     51  H   UNL     1      -6.652   7.889  -1.277  1.00  0.00     0.167 HD
ATOM     52  C   UNL     1      -6.131   8.528  -5.580  1.00  0.00     0.031 A 
ATOM     53  C   UNL     1      -8.158   7.853   1.106  1.00  0.00     0.031 A 
ATOM     54  C   UNL     1      -7.555   8.532  -5.361  1.00  0.00     0.049 A 
ATOM     55  C   UNL     1      -9.143   8.053  -0.003  1.00  0.00     0.074 A 
ATOM     56  C   UNL     1      -8.571   8.603  -6.298  1.00  0.00     0.029 A 
ATOM     57  N   UNL     1      -8.164   8.459  -4.117  1.00  0.00    -0.354 N 
ATOM     58  N   UNL     1      -8.924   8.161  -1.290  1.00  0.00    -0.248 NA
ATOM     59  C   UNL     1     -10.554   8.145   0.385  1.00  0.00     0.031 C 
ATOM     60  C   UNL     1      -9.790   8.655  -5.616  1.00  0.00     0.029 A 
ATOM     61  C   UNL     1      -9.540   8.519  -4.260  1.00  0.00     0.049 A 
ATOM     62  H   UNL     1      -7.688   8.376  -3.259  1.00  0.00     0.167 HD
ATOM     63  C   UNL     1     -10.174   8.296  -1.872  1.00  0.00     0.074 A 
ATOM     64  C   UNL     1     -11.145   8.235  -0.797  1.00  0.00     0.031 C 
ATOM     65  C   UNL     1     -10.491   8.454  -3.180  1.00  0.00     0.031 A 
BRANCH  52  66
ATOM     66  C   UNL     1      -5.625   8.690  -6.990  1.00  0.00    -0.014 A 
ATOM     67  C   UNL     1      -4.937   7.665  -7.658  1.00  0.00     0.009 A 
ATOM     68  C   UNL     1      -5.879   9.889  -7.679  1.00  0.00     0.009 A 
ATOM     69  C   UNL     1      -4.478   7.853  -8.965  1.00  0.00     0.001 A 
ATOM     70  C   UNL     1      -5.454  10.060  -8.998  1.00  0.00     0.001 A 
ATOM     71  C   UNL     1      -4.742   9.047  -9.636  1.00  0.00     0.000 A 
ENDBRANCH  52  66
BRANCH  53  72
ATOM     72  C   UNL     1      -8.598   7.779   2.527  1.00  0.00    -0.014 A 
ATOM     73  C   UNL     1      -9.368   6.697   2.977  1.00  0.00     0.009 A 
ATOM     74  C   UNL     1      -8.255   8.790   3.441  1.00  0.00     0.009 A 
ATOM     75  C   UNL     1      -9.816   6.649   4.299  1.00  0.00     0.001 A 
ATOM     76  C   UNL     1      -8.663   8.716   4.774  1.00  0.00     0.001 A 
ATOM     77  C   UNL     1      -9.458   7.653   5.197  1.00  0.00     0.000 A 
ENDBRANCH  53  72
BRANCH  65  78
ATOM     78  C   UNL     1     -11.953   8.504  -3.524  1.00  0.00    -0.014 A 
ATOM     79  C   UNL     1     -12.765   9.584  -3.147  1.00  0.00     0.009 A 
ATOM     80  C   UNL     1     -12.518   7.453  -4.264  1.00  0.00     0.009 A 
ATOM     81  C   UNL     1     -14.123   9.588  -3.466  1.00  0.00     0.001 A 
ATOM     82  C   UNL     1     -13.865   7.482  -4.621  1.00  0.00     0.001 A 
ATOM     83  C   UNL     1     -14.670   8.542  -4.210  1.00  0.00     0.000 A 
ENDBRANCH  65  78
ENDBRANCH  39  40
ENDBRANCH  32  34
ENDBRANCH  31  32
ENDBRANCH  30  31
ENDBRANCH  29  30
ENDBRANCH   1  29
TORSDOF 17
