REMARK SMILES CCNC(=O)c1ccc(N[C@@H]2COC[C@@]2(C)C(=O)OCCOC(=O)c2ccc(-c3c4nc(c(-c5ccccc5)c5ccc([nH]5)c(-c5ccccc5)c5nc(c(-c6ccccc6)c6ccc3[nH]6)C=C5)C=C4)cc2)nn1
REMARK SMILES IDX 20 1 19 2 17 3 18 4 15 5 11 6 12 7 13 8 14 9 16 10 10 11
REMARK SMILES IDX 9 13 6 14 7 15 74 16 8 17 73 18 4 19 3 20 5 22 2 23 1 24
REMARK SMILES IDX 21 25 22 26 23 27 24 28 25 29 26 30 72 31 27 32 71 33 28 34
REMARK SMILES IDX 29 35 30 36 65 37 31 38 70 39 64 40 66 41 32 42 69 43 63 44
REMARK SMILES IDX 62 45 33 47 55 48 40 49 54 50 41 51 44 52 53 53 67 54 42 55
REMARK SMILES IDX 43 56 52 58 68 59 45 60 34 61 35 62 39 63 36 64 38 65 37 66
REMARK SMILES IDX 56 67 57 68 61 69 58 70 60 71 59 72 46 73 47 74 51 75 48 76
REMARK SMILES IDX 50 77 49 78
REMARK H PARENT 10 12 3 21 66 46 44 57
REMARK Flexibility Score: inf
ROOT
ATOM      1  C   UNL     1      -8.035   1.328   6.480  1.00  0.00     0.274 C 
ENDROOT
BRANCH   1   2
ATOM      2  O   UNL     1      -7.670   2.181   5.371  1.00  0.00    -0.462 OA
BRANCH   2   3
ATOM      3  C   UNL     1      -6.415   2.025   4.870  1.00  0.00     0.316 C 
ATOM      4  O   UNL     1      -5.680   1.091   5.171  1.00  0.00    -0.251 OA
BRANCH   3   5
ATOM      5  C   UNL     1      -5.984   3.159   3.944  1.00  0.00     0.111 C 
ATOM      6  C   UNL     1      -5.907   2.690   2.492  1.00  0.00     0.126 C 
ATOM      7  C   UNL     1      -5.993   3.977   1.689  1.00  0.00     0.186 C 
ATOM      8  O   UNL     1      -6.757   4.896   2.490  1.00  0.00    -0.378 OA
ATOM      9  C   UNL     1      -7.027   4.267   3.760  1.00  0.00     0.181 C 
ATOM     10  C   UNL     1      -4.706   3.792   4.518  1.00  0.00     0.028 C 
BRANCH   6  11
ATOM     11  N   UNL     1      -4.854   1.776   2.086  1.00  0.00    -0.362 N 
ATOM     12  H   UNL     1      -5.124   1.009   1.530  1.00  0.00     0.162 HD
BRANCH  11  13
ATOM     13  C   UNL     1      -3.518   1.872   2.396  1.00  0.00     0.149 A 
ATOM     14  C   UNL     1      -0.818   1.829   2.725  1.00  0.00     0.150 A 
ATOM     15  C   UNL     1      -1.555   0.819   3.308  1.00  0.00     0.040 A 
ATOM     16  N   UNL     1      -1.387   2.838   2.033  1.00  0.00    -0.143 NA
ATOM     17  C   UNL     1      -2.929   0.839   3.118  1.00  0.00     0.051 A 
ATOM     18  N   UNL     1      -2.757   2.852   1.871  1.00  0.00    -0.132 NA
BRANCH  14  19
ATOM     19  C   UNL     1       0.656   1.804   2.814  1.00  0.00     0.271 C 
ATOM     20  N   UNL     1       1.351   0.824   2.140  1.00  0.00    -0.351 N 
ATOM     21  H   UNL     1       2.310   0.757   2.350  1.00  0.00     0.163 HD
ATOM     22  O   UNL     1       1.252   2.610   3.524  1.00  0.00    -0.267 OA
BRANCH  20  23
ATOM     23  C   UNL     1       0.851  -0.125   1.159  1.00  0.00     0.113 C 
ATOM     24  C   UNL     1       1.240   0.291  -0.246  1.00  0.00     0.027 C 
ENDBRANCH  20  23
ENDBRANCH  14  19
ENDBRANCH  11  13
ENDBRANCH   6  11
ENDBRANCH   3   5
ENDBRANCH   2   3
ENDBRANCH   1   2
BRANCH   1  25
ATOM     25  C   UNL     1      -8.886   0.123   6.068  1.00  0.00     0.275 C 
BRANCH  25  26
ATOM     26  O   UNL     1      -8.086  -0.884   5.418  1.00  0.00    -0.458 OA
BRANCH  26  27
ATOM     27  C   UNL     1      -8.286  -1.017   4.091  1.00  0.00     0.338 C 
ATOM     28  O   UNL     1      -9.108  -0.426   3.400  1.00  0.00    -0.246 OA
BRANCH  27  29
ATOM     29  C   UNL     1      -7.201  -1.816   3.504  1.00  0.00     0.060 A 
ATOM     30  C   UNL     1      -6.287  -1.106   2.733  1.00  0.00     0.016 A 
ATOM     31  C   UNL     1      -7.094  -3.202   3.616  1.00  0.00     0.016 A 
ATOM     32  C   UNL     1      -5.250  -1.754   2.080  1.00  0.00     0.010 A 
ATOM     33  C   UNL     1      -6.048  -3.865   2.949  1.00  0.00     0.010 A 
ATOM     34  C   UNL     1      -5.119  -3.140   2.181  1.00  0.00    -0.014 A 
BRANCH  34  35
ATOM     35  C   UNL     1      -4.032  -3.775   1.400  1.00  0.00     0.031 A 
ATOM     36  C   UNL     1      -4.305  -4.236  -0.001  1.00  0.00     0.074 A 
ATOM     37  C   UNL     1      -2.769  -3.764   1.869  1.00  0.00     0.049 A 
ATOM     38  N   UNL     1      -3.487  -4.779  -0.865  1.00  0.00    -0.248 NA
ATOM     39  C   UNL     1      -5.671  -4.026  -0.507  1.00  0.00     0.031 C 
ATOM     40  C   UNL     1      -2.349  -3.194   3.149  1.00  0.00     0.029 A 
ATOM     41  N   UNL     1      -1.600  -4.206   1.300  1.00  0.00    -0.354 N 
ATOM     42  C   UNL     1      -4.242  -4.996  -2.010  1.00  0.00     0.074 A 
ATOM     43  C   UNL     1      -5.577  -4.506  -1.739  1.00  0.00     0.031 C 
ATOM     44  C   UNL     1      -1.012  -3.295   3.254  1.00  0.00     0.029 A 
ATOM     45  C   UNL     1      -0.489  -3.987   2.079  1.00  0.00     0.049 A 
ATOM     46  H   UNL     1      -1.562  -4.640   0.417  1.00  0.00     0.167 HD
ATOM     47  C   UNL     1      -3.863  -5.573  -3.175  1.00  0.00     0.031 A 
ATOM     48  C   UNL     1       0.799  -4.330   1.874  1.00  0.00     0.031 A 
ATOM     49  C   UNL     1      -2.547  -6.089  -3.434  1.00  0.00     0.049 A 
ATOM     50  C   UNL     1       1.163  -5.088   0.624  1.00  0.00     0.074 A 
ATOM     51  C   UNL     1      -2.095  -6.789  -4.540  1.00  0.00     0.029 A 
ATOM     52  N   UNL     1      -1.470  -5.960  -2.573  1.00  0.00    -0.354 N 
ATOM     53  N   UNL     1       0.421  -5.367  -0.419  1.00  0.00    -0.248 NA
ATOM     54  C   UNL     1       2.540  -5.596   0.537  1.00  0.00     0.031 C 
ATOM     55  C   UNL     1      -0.753  -7.122  -4.325  1.00  0.00     0.029 A 
ATOM     56  C   UNL     1      -0.359  -6.587  -3.110  1.00  0.00     0.049 A 
ATOM     57  H   UNL     1      -1.491  -5.491  -1.708  1.00  0.00     0.167 HD
ATOM     58  C   UNL     1       1.238  -6.085  -1.284  1.00  0.00     0.074 A 
ATOM     59  C   UNL     1       2.544  -6.160  -0.662  1.00  0.00     0.031 C 
ATOM     60  C   UNL     1       0.932  -6.650  -2.477  1.00  0.00     0.031 A 
BRANCH  47  61
ATOM     61  C   UNL     1      -4.925  -5.763  -4.215  1.00  0.00    -0.014 A 
ATOM     62  C   UNL     1      -5.352  -4.706  -5.032  1.00  0.00     0.009 A 
ATOM     63  C   UNL     1      -5.504  -7.031  -4.378  1.00  0.00     0.009 A 
ATOM     64  C   UNL     1      -6.361  -4.912  -5.976  1.00  0.00     0.001 A 
ATOM     65  C   UNL     1      -6.498  -7.238  -5.335  1.00  0.00     0.001 A 
ATOM     66  C   UNL     1      -6.931  -6.176  -6.128  1.00  0.00     0.000 A 
ENDBRANCH  47  61
BRANCH  48  67
ATOM     67  C   UNL     1       1.842  -4.019   2.890  1.00  0.00    -0.014 A 
ATOM     68  C   UNL     1       2.909  -3.159   2.584  1.00  0.00     0.009 A 
ATOM     69  C   UNL     1       1.806  -4.620   4.158  1.00  0.00     0.009 A 
ATOM     70  C   UNL     1       3.915  -2.909   3.522  1.00  0.00     0.001 A 
ATOM     71  C   UNL     1       2.801  -4.354   5.101  1.00  0.00     0.001 A 
ATOM     72  C   UNL     1       3.857  -3.503   4.781  1.00  0.00     0.000 A 
ENDBRANCH  48  67
BRANCH  60  73
ATOM     73  C   UNL     1       2.028  -7.391  -3.187  1.00  0.00    -0.014 A 
ATOM     74  C   UNL     1       2.452  -8.653  -2.740  1.00  0.00     0.009 A 
ATOM     75  C   UNL     1       2.611  -6.845  -4.340  1.00  0.00     0.009 A 
ATOM     76  C   UNL     1       3.459  -9.340  -3.419  1.00  0.00     0.001 A 
ATOM     77  C   UNL     1       3.600  -7.546  -5.031  1.00  0.00     0.001 A 
ATOM     78  C   UNL     1       4.029  -8.788  -4.566  1.00  0.00     0.000 A 
ENDBRANCH  60  73
ENDBRANCH  34  35
ENDBRANCH  27  29
ENDBRANCH  26  27
ENDBRANCH  25  26
ENDBRANCH   1  25
TORSDOF 15
