REMARK SMILES N#Cc1cccc(NCCCC(=O)OCCOC(=O)c2ccc(-c3c4nc(c(-c5ccccc5)c5ccc([nH]5)c(-c5ccccc5)c5nc(c(-c6ccccc6)c6ccc3[nH]6)C=C5)C=C4)cc2)c1
REMARK SMILES IDX 14 1 12 2 13 3 11 4 10 5 9 6 8 7 7 9 3 10 4 11 68 12 5 13
REMARK SMILES IDX 6 14 2 15 1 16 15 17 16 18 17 19 18 20 19 21 20 22 21 23
REMARK SMILES IDX 67 24 22 25 66 26 23 27 24 28 25 29 60 30 26 31 65 32 59 33
REMARK SMILES IDX 61 34 27 35 64 36 58 37 57 38 28 40 50 41 35 42 49 43 36 44
REMARK SMILES IDX 39 45 48 46 62 47 37 48 38 49 47 51 63 52 40 53 29 54 30 55
REMARK SMILES IDX 34 56 31 57 33 58 32 59 51 60 52 61 56 62 53 63 55 64 54 65
REMARK SMILES IDX 41 66 42 67 46 68 43 69 45 70 44 71
REMARK H PARENT 8 8 61 39 39 50
REMARK Flexibility Score: inf
ROOT
ATOM      1  O   UNL     1       3.829  -4.989  -1.060  1.00  0.00    -0.462 OA
ENDROOT
BRANCH   1   2
ATOM      2  C   UNL     1       3.441  -5.597   0.086  1.00  0.00     0.305 C 
ATOM      3  O   UNL     1       3.456  -6.808   0.274  1.00  0.00    -0.252 OA
BRANCH   2   4
ATOM      4  C   UNL     1       2.921  -4.621   1.117  1.00  0.00     0.124 C 
BRANCH   4   5
ATOM      5  C   UNL     1       3.734  -3.337   1.307  1.00  0.00     0.033 C 
BRANCH   5   6
ATOM      6  C   UNL     1       3.684  -2.331   0.155  1.00  0.00     0.113 C 
BRANCH   6   7
ATOM      7  N   UNL     1       2.308  -2.114  -0.246  1.00  0.00    -0.385 N 
ATOM      8  H   UNL     1       1.826  -2.892  -0.610  1.00  0.00     0.160 HD
BRANCH   7   9
ATOM      9  C   UNL     1       1.608  -0.933  -0.171  1.00  0.00     0.035 A 
ATOM     10  C   UNL     1      -0.571   0.168  -0.059  1.00  0.00     0.054 A 
ATOM     11  C   UNL     1       0.050   1.413   0.030  1.00  0.00     0.019 A 
ATOM     12  C   UNL     1       0.207  -0.992  -0.158  1.00  0.00     0.045 A 
ATOM     13  C   UNL     1       1.440   1.489   0.038  1.00  0.00     0.003 A 
ATOM     14  C   UNL     1       2.208   0.323  -0.048  1.00  0.00     0.026 A 
BRANCH  10  15
ATOM     15  C   UNL     1      -2.002   0.068  -0.046  1.00  0.00     0.099 C 
ATOM     16  N   UNL     1      -3.157  -0.018  -0.035  1.00  0.00    -0.192 NA
ENDBRANCH  10  15
ENDBRANCH   7   9
ENDBRANCH   6   7
ENDBRANCH   5   6
ENDBRANCH   4   5
ENDBRANCH   2   4
ENDBRANCH   1   2
BRANCH   1  17
ATOM     17  C   UNL     1       4.380  -5.832  -2.090  1.00  0.00     0.274 C 
BRANCH  17  18
ATOM     18  C   UNL     1       5.910  -5.860  -2.038  1.00  0.00     0.275 C 
BRANCH  18  19
ATOM     19  O   UNL     1       6.388  -6.517  -0.848  1.00  0.00    -0.458 OA
BRANCH  19  20
ATOM     20  C   UNL     1       6.708  -5.685   0.170  1.00  0.00     0.338 C 
ATOM     21  O   UNL     1       6.689  -4.465   0.158  1.00  0.00    -0.246 OA
BRANCH  20  22
ATOM     22  C   UNL     1       6.963  -6.452   1.399  1.00  0.00     0.060 A 
ATOM     23  C   UNL     1       6.057  -6.311   2.452  1.00  0.00     0.016 A 
ATOM     24  C   UNL     1       8.134  -7.189   1.571  1.00  0.00     0.016 A 
ATOM     25  C   UNL     1       6.329  -6.871   3.693  1.00  0.00     0.010 A 
ATOM     26  C   UNL     1       8.397  -7.775   2.817  1.00  0.00     0.010 A 
ATOM     27  C   UNL     1       7.508  -7.599   3.893  1.00  0.00    -0.014 A 
BRANCH  27  28
ATOM     28  C   UNL     1       7.807  -8.119   5.251  1.00  0.00     0.031 A 
ATOM     29  C   UNL     1       8.925  -7.524   6.061  1.00  0.00     0.074 A 
ATOM     30  C   UNL     1       7.027  -9.080   5.783  1.00  0.00     0.049 A 
ATOM     31  N   UNL     1       9.328  -7.836   7.268  1.00  0.00    -0.248 NA
ATOM     32  C   UNL     1       9.694  -6.439   5.433  1.00  0.00     0.031 C 
ATOM     33  C   UNL     1       5.882  -9.704   5.116  1.00  0.00     0.029 A 
ATOM     34  N   UNL     1       7.068  -9.686   7.013  1.00  0.00    -0.354 N 
ATOM     35  C   UNL     1      10.407  -7.000   7.535  1.00  0.00     0.074 A 
ATOM     36  C   UNL     1      10.615  -6.191   6.354  1.00  0.00     0.031 C 
ATOM     37  C   UNL     1       5.314 -10.584   5.955  1.00  0.00     0.029 A 
ATOM     38  C   UNL     1       6.085 -10.628   7.193  1.00  0.00     0.049 A 
ATOM     39  H   UNL     1       7.737  -9.466   7.701  1.00  0.00     0.167 HD
ATOM     40  C   UNL     1      11.152  -6.912   8.664  1.00  0.00     0.031 A 
ATOM     41  C   UNL     1       5.842 -11.451   8.230  1.00  0.00     0.031 A 
ATOM     42  C   UNL     1      10.947  -7.724   9.836  1.00  0.00     0.049 A 
ATOM     43  C   UNL     1       6.729 -11.379   9.442  1.00  0.00     0.074 A 
ATOM     44  C   UNL     1      11.643  -7.704  11.033  1.00  0.00     0.029 A 
ATOM     45  N   UNL     1       9.976  -8.707   9.957  1.00  0.00    -0.354 N 
ATOM     46  N   UNL     1       7.739 -10.578   9.684  1.00  0.00    -0.248 NA
ATOM     47  C   UNL     1       6.434 -12.323  10.528  1.00  0.00     0.031 C 
ATOM     48  C   UNL     1      11.137  -8.718  11.852  1.00  0.00     0.029 A 
ATOM     49  C   UNL     1      10.074  -9.319  11.197  1.00  0.00     0.049 A 
ATOM     50  H   UNL     1       9.315  -8.937   9.265  1.00  0.00     0.167 HD
ATOM     51  C   UNL     1       8.180 -10.900  10.962  1.00  0.00     0.074 A 
ATOM     52  C   UNL     1       7.311 -11.953  11.450  1.00  0.00     0.031 C 
ATOM     53  C   UNL     1       9.210 -10.372  11.668  1.00  0.00     0.031 A 
BRANCH  40  54
ATOM     54  C   UNL     1      12.293  -5.929   8.667  1.00  0.00    -0.014 A 
ATOM     55  C   UNL     1      12.070  -4.542   8.671  1.00  0.00     0.009 A 
ATOM     56  C   UNL     1      13.615  -6.400   8.700  1.00  0.00     0.009 A 
ATOM     57  C   UNL     1      13.148  -3.652   8.667  1.00  0.00     0.001 A 
ATOM     58  C   UNL     1      14.689  -5.509   8.730  1.00  0.00     0.001 A 
ATOM     59  C   UNL     1      14.455  -4.135   8.702  1.00  0.00     0.000 A 
ENDBRANCH  40  54
BRANCH  41  60
ATOM     60  C   UNL     1       4.724 -12.429   8.162  1.00  0.00    -0.014 A 
ATOM     61  C   UNL     1       3.615 -12.316   9.014  1.00  0.00     0.009 A 
ATOM     62  C   UNL     1       4.771 -13.498   7.253  1.00  0.00     0.009 A 
ATOM     63  C   UNL     1       2.594 -13.268   8.978  1.00  0.00     0.001 A 
ATOM     64  C   UNL     1       3.732 -14.428   7.192  1.00  0.00     0.001 A 
ATOM     65  C   UNL     1       2.650 -14.319   8.064  1.00  0.00     0.000 A 
ENDBRANCH  41  60
BRANCH  53  66
ATOM     66  C   UNL     1       9.419 -10.896  13.064  1.00  0.00    -0.014 A 
ATOM     67  C   UNL     1       9.860 -12.209  13.301  1.00  0.00     0.009 A 
ATOM     68  C   UNL     1       9.175 -10.056  14.162  1.00  0.00     0.009 A 
ATOM     69  C   UNL     1       9.996 -12.684  14.607  1.00  0.00     0.001 A 
ATOM     70  C   UNL     1       9.350 -10.521  15.466  1.00  0.00     0.001 A 
ATOM     71  C   UNL     1       9.744 -11.839  15.688  1.00  0.00     0.000 A 
ENDBRANCH  53  66
ENDBRANCH  27  28
ENDBRANCH  20  22
ENDBRANCH  19  20
ENDBRANCH  18  19
ENDBRANCH  17  18
ENDBRANCH   1  17
TORSDOF 16
