REMARK SMILES COc1ccc([C@H]2O[C@@H]2C(=O)OCCOC(=O)c2ccc(-c3c4nc(c(-c5ccccc5)c5ccc([nH]5)c(-c5ccccc5)c5nc(c(-c6ccccc6)c6ccc3[nH]6)C=C5)C=C4)cc2)cc1Oc1ccccc1
REMARK SMILES IDX 13 1 12 2 10 3 11 4 9 5 7 6 8 7 6 8 3 9 4 10 67 11 5 12
REMARK SMILES IDX 66 13 2 14 1 15 68 16 69 17 70 18 74 19 71 20 73 21 72 22
REMARK SMILES IDX 14 23 15 24 16 25 17 26 18 27 19 28 65 29 20 30 64 31 21 32
REMARK SMILES IDX 22 33 23 34 58 35 24 36 63 37 57 38 59 39 25 40 62 41 56 42
REMARK SMILES IDX 55 43 26 45 48 46 33 47 47 48 34 49 37 50 46 51 60 52 35 53
REMARK SMILES IDX 36 54 45 56 61 57 38 58 27 59 28 60 32 61 29 62 31 63 30 64
REMARK SMILES IDX 49 65 50 66 54 67 51 68 53 69 52 70 39 71 40 72 44 73 41 74
REMARK SMILES IDX 43 75 42 76
REMARK H PARENT 59 44 37 55
REMARK Flexibility Score: inf
ROOT
ATOM      1  C   UNL     1       6.300   2.856  -4.114  1.00  0.00     0.274 C 
ENDROOT
BRANCH   1   2
ATOM      2  O   UNL     1       5.384   3.207  -5.169  1.00  0.00    -0.460 OA
BRANCH   2   3
ATOM      3  C   UNL     1       4.678   2.196  -5.737  1.00  0.00     0.338 C 
ATOM      4  O   UNL     1       4.860   0.999  -5.542  1.00  0.00    -0.249 OA
BRANCH   3   5
ATOM      5  C   UNL     1       3.533   2.716  -6.522  1.00  0.00     0.262 C 
ATOM      6  C   UNL     1       2.321   1.819  -6.720  1.00  0.00     0.190 C 
ATOM      7  O   UNL     1       3.255   2.089  -7.783  1.00  0.00    -0.352 OA
BRANCH   6   8
ATOM      8  C   UNL     1       0.916   2.362  -6.839  1.00  0.00    -0.012 A 
ATOM      9  C   UNL     1      -1.722   3.323  -7.210  1.00  0.00     0.161 A 
ATOM     10  C   UNL     1      -1.393   2.008  -7.547  1.00  0.00     0.051 A 
ATOM     11  C   UNL     1      -0.784   4.141  -6.573  1.00  0.00     0.169 A 
ATOM     12  C   UNL     1      -0.091   1.542  -7.370  1.00  0.00     0.010 A 
ATOM     13  C   UNL     1       0.524   3.643  -6.400  1.00  0.00     0.057 A 
BRANCH   9  14
ATOM     14  O   UNL     1      -3.001   3.707  -7.503  1.00  0.00    -0.493 OA
ATOM     15  C   UNL     1      -3.052   4.284  -8.811  1.00  0.00     0.278 C 
ENDBRANCH   9  14
BRANCH  11  16
ATOM     16  O   UNL     1      -0.940   5.425  -6.083  1.00  0.00    -0.453 OA
BRANCH  16  17
ATOM     17  C   UNL     1      -2.129   6.092  -6.225  1.00  0.00     0.127 A 
ATOM     18  C   UNL     1      -2.150   7.215  -7.054  1.00  0.00     0.047 A 
ATOM     19  C   UNL     1      -3.273   5.718  -5.520  1.00  0.00     0.047 A 
ATOM     20  C   UNL     1      -3.345   7.906  -7.258  1.00  0.00     0.004 A 
ATOM     21  C   UNL     1      -4.472   6.399  -5.739  1.00  0.00     0.004 A 
ATOM     22  C   UNL     1      -4.510   7.484  -6.616  1.00  0.00     0.000 A 
ENDBRANCH  16  17
ENDBRANCH  11  16
ENDBRANCH   6   8
ENDBRANCH   3   5
ENDBRANCH   2   3
ENDBRANCH   1   2
BRANCH   1  23
ATOM     23  C   UNL     1       5.761   3.356  -2.770  1.00  0.00     0.275 C 
BRANCH  23  24
ATOM     24  O   UNL     1       4.639   2.559  -2.334  1.00  0.00    -0.458 OA
BRANCH  24  25
ATOM     25  C   UNL     1       3.426   3.048  -2.673  1.00  0.00     0.338 C 
ATOM     26  O   UNL     1       3.183   4.080  -3.277  1.00  0.00    -0.246 OA
BRANCH  25  27
ATOM     27  C   UNL     1       2.378   2.063  -2.377  1.00  0.00     0.060 A 
ATOM     28  C   UNL     1       2.031   1.198  -3.406  1.00  0.00     0.016 A 
ATOM     29  C   UNL     1       1.607   2.116  -1.220  1.00  0.00     0.016 A 
ATOM     30  C   UNL     1       0.839   0.488  -3.357  1.00  0.00     0.010 A 
ATOM     31  C   UNL     1       0.471   1.297  -1.117  1.00  0.00     0.010 A 
ATOM     32  C   UNL     1       0.045   0.509  -2.204  1.00  0.00    -0.014 A 
BRANCH  32  33
ATOM     33  C   UNL     1      -1.226  -0.275  -2.176  1.00  0.00     0.031 A 
ATOM     34  C   UNL     1      -2.547   0.401  -1.903  1.00  0.00     0.074 A 
ATOM     35  C   UNL     1      -1.209  -1.598  -2.448  1.00  0.00     0.049 A 
ATOM     36  N   UNL     1      -3.735  -0.135  -1.753  1.00  0.00    -0.248 NA
ATOM     37  C   UNL     1      -2.532   1.865  -1.762  1.00  0.00     0.031 C 
ATOM     38  C   UNL     1      -0.016  -2.384  -2.775  1.00  0.00     0.029 A 
ATOM     39  N   UNL     1      -2.232  -2.513  -2.518  1.00  0.00    -0.354 N 
ATOM     40  C   UNL     1      -4.594   0.918  -1.453  1.00  0.00     0.074 A 
ATOM     41  C   UNL     1      -3.786   2.118  -1.418  1.00  0.00     0.031 C 
ATOM     42  C   UNL     1      -0.381  -3.639  -3.073  1.00  0.00     0.029 A 
ATOM     43  C   UNL     1      -1.815  -3.778  -2.857  1.00  0.00     0.049 A 
ATOM     44  H   UNL     1      -3.173  -2.285  -2.341  1.00  0.00     0.167 HD
ATOM     45  C   UNL     1      -5.931   0.890  -1.229  1.00  0.00     0.031 A 
ATOM     46  C   UNL     1      -2.494  -4.937  -2.951  1.00  0.00     0.031 A 
ATOM     47  C   UNL     1      -6.743  -0.300  -1.292  1.00  0.00     0.049 A 
ATOM     48  C   UNL     1      -3.963  -4.950  -2.644  1.00  0.00     0.074 A 
ATOM     49  C   UNL     1      -8.108  -0.425  -1.094  1.00  0.00     0.029 A 
ATOM     50  N   UNL     1      -6.267  -1.569  -1.582  1.00  0.00    -0.354 N 
ATOM     51  N   UNL     1      -4.751  -3.952  -2.328  1.00  0.00    -0.248 NA
ATOM     52  C   UNL     1      -4.633  -6.255  -2.703  1.00  0.00     0.031 C 
ATOM     53  C   UNL     1      -8.447  -1.778  -1.204  1.00  0.00     0.029 A 
ATOM     54  C   UNL     1      -7.307  -2.486  -1.544  1.00  0.00     0.049 A 
ATOM     55  H   UNL     1      -5.329  -1.788  -1.786  1.00  0.00     0.167 HD
ATOM     56  C   UNL     1      -6.014  -4.505  -2.170  1.00  0.00     0.074 A 
ATOM     57  C   UNL     1      -5.891  -5.919  -2.456  1.00  0.00     0.031 C 
ATOM     58  C   UNL     1      -7.173  -3.895  -1.816  1.00  0.00     0.031 A 
BRANCH  45  59
ATOM     59  C   UNL     1      -6.598   2.186  -0.845  1.00  0.00    -0.014 A 
ATOM     60  C   UNL     1      -6.745   3.245  -1.756  1.00  0.00     0.009 A 
ATOM     61  C   UNL     1      -7.115   2.338   0.453  1.00  0.00     0.009 A 
ATOM     62  C   UNL     1      -7.352   4.441  -1.362  1.00  0.00     0.001 A 
ATOM     63  C   UNL     1      -7.753   3.520   0.833  1.00  0.00     0.001 A 
ATOM     64  C   UNL     1      -7.860   4.575  -0.070  1.00  0.00     0.000 A 
ENDBRANCH  45  59
BRANCH  46  65
ATOM     65  C   UNL     1      -1.780  -6.193  -3.309  1.00  0.00    -0.014 A 
ATOM     66  C   UNL     1      -2.051  -6.854  -4.517  1.00  0.00     0.009 A 
ATOM     67  C   UNL     1      -0.827  -6.744  -2.436  1.00  0.00     0.009 A 
ATOM     68  C   UNL     1      -1.401  -8.049  -4.831  1.00  0.00     0.001 A 
ATOM     69  C   UNL     1      -0.150  -7.917  -2.771  1.00  0.00     0.001 A 
ATOM     70  C   UNL     1      -0.445  -8.575  -3.963  1.00  0.00     0.000 A 
ENDBRANCH  46  65
BRANCH  58  71
ATOM     71  C   UNL     1      -8.404  -4.759  -1.762  1.00  0.00    -0.014 A 
ATOM     72  C   UNL     1      -8.563  -5.751  -0.781  1.00  0.00     0.009 A 
ATOM     73  C   UNL     1      -9.417  -4.581  -2.717  1.00  0.00     0.009 A 
ATOM     74  C   UNL     1      -9.684  -6.584  -0.794  1.00  0.00     0.001 A 
ATOM     75  C   UNL     1     -10.555  -5.390  -2.704  1.00  0.00     0.001 A 
ATOM     76  C   UNL     1     -10.679  -6.402  -1.753  1.00  0.00     0.000 A 
ENDBRANCH  58  71
ENDBRANCH  32  33
ENDBRANCH  25  27
ENDBRANCH  24  25
ENDBRANCH  23  24
ENDBRANCH   1  23
TORSDOF 15
