REMARK SMILES NS(=O)(=O)c1ccc(-n2nc(C(F)(F)F)cc2-c2ccc(C(=O)OCCOC(=O)c3ccc(-c4c5nc(c(-c6ccccc6)c6ccc([nH]6)c(-c6ccccc6)c6nc(c(-c7ccccc7)c7ccc4[nH]7)C=C6)C=C5)cc3)cc2)cc1
REMARK SMILES IDX 25 1 24 2 22 3 23 4 21 5 18 6 19 7 79 8 20 9 78 10 17 11
REMARK SMILES IDX 9 12 10 13 11 14 16 15 8 16 5 17 6 18 81 19 7 20 80 21 2 22
REMARK SMILES IDX 3 23 4 24 1 25 12 28 13 29 14 30 15 31 26 32 27 33 28 34
REMARK SMILES IDX 29 35 30 36 31 37 77 38 32 39 76 40 33 41 34 42 35 43 70 44
REMARK SMILES IDX 36 45 75 46 69 47 71 48 37 49 74 50 68 51 67 52 38 54 60 55
REMARK SMILES IDX 45 56 59 57 46 58 49 59 58 60 72 61 47 62 48 63 57 65 73 66
REMARK SMILES IDX 50 67 39 68 40 69 44 70 41 71 43 72 42 73 61 74 62 75 66 76
REMARK SMILES IDX 63 77 65 78 64 79 51 80 52 81 56 82 53 83 55 84 54 85
REMARK H PARENT 1 26 1 27 71 53 49 64
REMARK Flexibility Score: inf
ROOT
ATOM      1  C   UNL     1       8.927   1.209   5.301  1.00  0.00     0.275 C 
ENDROOT
BRANCH   1   2
ATOM      2  O   UNL     1       7.808   2.102   5.404  1.00  0.00    -0.458 OA
BRANCH   2   3
ATOM      3  C   UNL     1       7.737   3.058   4.443  1.00  0.00     0.338 C 
ATOM      4  O   UNL     1       8.590   3.307   3.606  1.00  0.00    -0.246 OA
BRANCH   3   5
ATOM      5  C   UNL     1       6.409   3.720   4.470  1.00  0.00     0.060 A 
ATOM      6  C   UNL     1       3.954   5.074   4.447  1.00  0.00     0.000 A 
ATOM      7  C   UNL     1       4.759   5.050   3.299  1.00  0.00     0.011 A 
ATOM      8  C   UNL     1       4.372   4.390   5.595  1.00  0.00     0.011 A 
ATOM      9  C   UNL     1       5.981   4.377   3.311  1.00  0.00     0.016 A 
ATOM     10  C   UNL     1       5.591   3.707   5.605  1.00  0.00     0.016 A 
BRANCH   6  11
ATOM     11  C   UNL     1       2.735   5.877   4.472  1.00  0.00     0.075 A 
ATOM     12  N   UNL     1       1.701   5.831   3.546  1.00  0.00    -0.233 N 
ATOM     13  N   UNL     1       0.890   6.918   3.647  1.00  0.00    -0.163 NA
ATOM     14  C   UNL     1       1.272   7.535   4.782  1.00  0.00     0.167 A 
ATOM     15  C   UNL     1       2.435   6.930   5.312  1.00  0.00     0.064 A 
BRANCH  12  16
ATOM     16  C   UNL     1       1.415   4.816   2.593  1.00  0.00     0.065 A 
ATOM     17  C   UNL     1       0.882   2.836   0.703  1.00  0.00     0.082 A 
ATOM     18  C   UNL     1       1.387   2.475   1.953  1.00  0.00     0.024 A 
ATOM     19  C   UNL     1       0.626   4.178   0.397  1.00  0.00     0.024 A 
ATOM     20  C   UNL     1       1.667   3.469   2.895  1.00  0.00     0.030 A 
ATOM     21  C   UNL     1       0.865   5.168   1.354  1.00  0.00     0.030 A 
BRANCH  17  22
ATOM     22  S   UNL     1       0.571   1.623  -0.547  1.00  0.00     0.238 S 
ATOM     23  O   UNL     1       1.309   2.005  -1.732  1.00  0.00    -0.207 OA
ATOM     24  O   UNL     1      -0.841   1.338  -0.558  1.00  0.00    -0.207 OA
BRANCH  22  25
ATOM     25  N   UNL     1       1.322   0.224   0.009  1.00  0.00    -0.225 NA
ATOM     26  H   UNL     1       1.185  -0.527  -0.667  1.00  0.00     0.137 HD
ATOM     27  H   UNL     1       0.917  -0.046   0.905  1.00  0.00     0.137 HD
ENDBRANCH  22  25
ENDBRANCH  17  22
ENDBRANCH  12  16
BRANCH  14  28
ATOM     28  C   UNL     1       0.554   8.723   5.363  1.00  0.00     0.435 C 
ATOM     29  F   UNL     1       0.314   9.702   4.453  1.00  0.00    -0.164 F 
ATOM     30  F   UNL     1      -0.643   8.379   5.909  1.00  0.00    -0.164 F 
ATOM     31  F   UNL     1       1.275   9.300   6.366  1.00  0.00    -0.164 F 
ENDBRANCH  14  28
ENDBRANCH   6  11
ENDBRANCH   3   5
ENDBRANCH   2   3
ENDBRANCH   1   2
BRANCH   1  32
ATOM     32  C   UNL     1       8.586   0.004   4.436  1.00  0.00     0.275 C 
BRANCH  32  33
ATOM     33  O   UNL     1       8.467   0.347   3.055  1.00  0.00    -0.458 OA
BRANCH  33  34
ATOM     34  C   UNL     1       7.207   0.576   2.623  1.00  0.00     0.338 C 
ATOM     35  O   UNL     1       6.227   0.852   3.295  1.00  0.00    -0.246 OA
BRANCH  34  36
ATOM     36  C   UNL     1       7.112   0.193   1.210  1.00  0.00     0.060 A 
ATOM     37  C   UNL     1       5.960   0.550   0.505  1.00  0.00     0.016 A 
ATOM     38  C   UNL     1       8.035  -0.728   0.691  1.00  0.00     0.016 A 
ATOM     39  C   UNL     1       5.672  -0.117  -0.671  1.00  0.00     0.010 A 
ATOM     40  C   UNL     1       7.738  -1.405  -0.470  1.00  0.00     0.010 A 
ATOM     41  C   UNL     1       6.530  -1.137  -1.108  1.00  0.00    -0.014 A 
BRANCH  41  42
ATOM     42  C   UNL     1       6.210  -1.829  -2.340  1.00  0.00     0.031 A 
ATOM     43  C   UNL     1       6.325  -0.967  -3.539  1.00  0.00     0.074 A 
ATOM     44  C   UNL     1       5.961  -3.150  -2.417  1.00  0.00     0.049 A 
ATOM     45  N   UNL     1       5.373  -0.589  -4.322  1.00  0.00    -0.248 NA
ATOM     46  C   UNL     1       7.625  -0.334  -3.811  1.00  0.00     0.031 C 
ATOM     47  C   UNL     1       6.100  -4.168  -1.373  1.00  0.00     0.029 A 
ATOM     48  N   UNL     1       5.624  -3.881  -3.514  1.00  0.00    -0.354 N 
ATOM     49  C   UNL     1       5.977   0.197  -5.298  1.00  0.00     0.074 A 
ATOM     50  C   UNL     1       7.323   0.446  -4.849  1.00  0.00     0.031 C 
ATOM     51  C   UNL     1       6.081  -5.396  -1.945  1.00  0.00     0.029 A 
ATOM     52  C   UNL     1       5.787  -5.252  -3.362  1.00  0.00     0.049 A 
ATOM     53  H   UNL     1       5.293  -3.472  -4.346  1.00  0.00     0.167 HD
ATOM     54  C   UNL     1       5.396   0.383  -6.513  1.00  0.00     0.031 A 
ATOM     55  C   UNL     1       5.740  -6.181  -4.349  1.00  0.00     0.031 A 
ATOM     56  C   UNL     1       3.997   0.043  -6.491  1.00  0.00     0.049 A 
ATOM     57  C   UNL     1       5.030  -5.576  -5.500  1.00  0.00     0.074 A 
ATOM     58  C   UNL     1       2.895   0.504  -5.797  1.00  0.00     0.029 A 
ATOM     59  N   UNL     1       3.642  -1.187  -6.990  1.00  0.00    -0.354 N 
ATOM     60  N   UNL     1       3.762  -5.287  -5.487  1.00  0.00    -0.248 NA
ATOM     61  C   UNL     1       5.820  -4.881  -6.505  1.00  0.00     0.031 C 
ATOM     62  C   UNL     1       2.126  -0.662  -5.513  1.00  0.00     0.029 A 
ATOM     63  C   UNL     1       2.764  -1.754  -6.104  1.00  0.00     0.049 A 
ATOM     64  H   UNL     1       3.960  -1.587  -7.832  1.00  0.00     0.167 HD
ATOM     65  C   UNL     1       3.673  -4.071  -6.148  1.00  0.00     0.074 A 
ATOM     66  C   UNL     1       4.952  -3.922  -6.841  1.00  0.00     0.031 C 
ATOM     67  C   UNL     1       2.691  -3.174  -5.840  1.00  0.00     0.031 A 
BRANCH  54  68
ATOM     68  C   UNL     1       6.185   0.448  -7.796  1.00  0.00    -0.014 A 
ATOM     69  C   UNL     1       5.490   0.627  -9.004  1.00  0.00     0.009 A 
ATOM     70  C   UNL     1       7.533   0.050  -7.895  1.00  0.00     0.009 A 
ATOM     71  C   UNL     1       6.086   0.337 -10.237  1.00  0.00     0.001 A 
ATOM     72  C   UNL     1       8.144  -0.201  -9.125  1.00  0.00     0.001 A 
ATOM     73  C   UNL     1       7.410  -0.088 -10.295  1.00  0.00     0.000 A 
ENDBRANCH  54  68
BRANCH  55  74
ATOM     74  C   UNL     1       6.497  -7.444  -4.484  1.00  0.00    -0.014 A 
ATOM     75  C   UNL     1       6.101  -8.424  -5.410  1.00  0.00     0.009 A 
ATOM     76  C   UNL     1       7.777  -7.565  -3.913  1.00  0.00     0.009 A 
ATOM     77  C   UNL     1       6.971  -9.458  -5.784  1.00  0.00     0.001 A 
ATOM     78  C   UNL     1       8.645  -8.598  -4.285  1.00  0.00     0.001 A 
ATOM     79  C   UNL     1       8.248  -9.535  -5.233  1.00  0.00     0.000 A 
ENDBRANCH  55  74
BRANCH  67  80
ATOM     80  C   UNL     1       1.567  -3.632  -4.942  1.00  0.00    -0.014 A 
ATOM     81  C   UNL     1       1.764  -4.098  -3.630  1.00  0.00     0.009 A 
ATOM     82  C   UNL     1       0.251  -3.446  -5.389  1.00  0.00     0.009 A 
ATOM     83  C   UNL     1       0.675  -4.398  -2.804  1.00  0.00     0.001 A 
ATOM     84  C   UNL     1      -0.836  -3.722  -4.558  1.00  0.00     0.001 A 
ATOM     85  C   UNL     1      -0.625  -4.204  -3.268  1.00  0.00     0.000 A 
ENDBRANCH  67  80
ENDBRANCH  41  42
ENDBRANCH  34  36
ENDBRANCH  33  34
ENDBRANCH  32  33
ENDBRANCH   1  32
TORSDOF 16
