REMARK SMILES CC(=O)Nc1cc(NC(C)=O)cc(C(=O)Nc2ccc(Br)cc2C(=O)OCCOC(=O)c2ccc(-c3c4nc(c(-c5ccccc5)c5ccc([nH]5)c(-c5ccccc5)c5nc(c(-c6ccccc6)c6ccc3[nH]6)C=C5)C=C4)cc2)c1
REMARK SMILES IDX 27 1 26 2 24 3 25 4 23 5 17 6 18 7 19 8 22 9 20 10 21 11
REMARK SMILES IDX 16 12 14 13 15 14 13 16 5 17 6 18 80 19 7 20 12 21 4 22 1 23
REMARK SMILES IDX 2 24 3 25 8 27 9 28 10 30 11 31 28 32 29 33 30 34 31 35
REMARK SMILES IDX 32 36 33 37 79 38 34 39 78 40 35 41 36 42 37 43 72 44 38 45
REMARK SMILES IDX 77 46 71 47 73 48 39 49 76 50 70 51 69 52 40 54 62 55 47 56
REMARK SMILES IDX 61 57 48 58 51 59 60 60 74 61 49 62 50 63 59 65 75 66 52 67
REMARK SMILES IDX 41 68 42 69 46 70 43 71 45 72 44 73 63 74 64 75 68 76 65 77
REMARK SMILES IDX 67 78 66 79 53 80 54 81 58 82 55 83 57 84 56 85
REMARK H PARENT 16 15 4 26 8 29 73 53 51 64
REMARK Flexibility Score: inf
ROOT
ATOM      1  C   UNL     1       5.551   2.197  -3.530  1.00  0.00     0.275 C 
ENDROOT
BRANCH   1   2
ATOM      2  O   UNL     1       5.511   1.339  -2.369  1.00  0.00    -0.458 OA
BRANCH   2   3
ATOM      3  C   UNL     1       4.309   0.757  -2.160  1.00  0.00     0.340 C 
ATOM      4  O   UNL     1       3.344   0.852  -2.897  1.00  0.00    -0.246 OA
BRANCH   3   5
ATOM      5  C   UNL     1       4.242  -0.012  -0.903  1.00  0.00     0.084 A 
ATOM      6  C   UNL     1       4.508   0.538   0.359  1.00  0.00     0.056 A 
ATOM      7  C   UNL     1       4.441  -0.304   1.485  1.00  0.00     0.028 A 
ATOM      8  C   UNL     1       3.969  -1.618   1.381  1.00  0.00     0.018 A 
ATOM      9  C   UNL     1       3.793  -1.342  -1.000  1.00  0.00     0.033 A 
ATOM     10  C   UNL     1       3.622  -2.123   0.137  1.00  0.00     0.018 A 
ATOM     11  Br  UNL     1       2.867  -3.849  -0.015  1.00  0.00    -0.051 Br
BRANCH   6  12
ATOM     12  N   UNL     1       4.784   1.894   0.637  1.00  0.00    -0.321 N 
ATOM     13  C   UNL     1       4.333   3.073   0.072  1.00  0.00     0.255 C 
ATOM     14  O   UNL     1       4.951   4.114   0.297  1.00  0.00    -0.269 OA
ATOM     15  H   UNL     1       5.421   2.026   1.376  1.00  0.00     0.170 HD
BRANCH  13  16
ATOM     16  C   UNL     1       3.080   3.153  -0.736  1.00  0.00     0.044 A 
ATOM     17  C   UNL     1       1.029   2.159  -1.537  1.00  0.00     0.044 A 
ATOM     18  C   UNL     1       0.989   3.121  -2.558  1.00  0.00     0.052 A 
ATOM     19  C   UNL     1       2.025   2.246  -0.567  1.00  0.00     0.040 A 
ATOM     20  C   UNL     1       1.950   4.129  -2.656  1.00  0.00     0.044 A 
ATOM     21  C   UNL     1       3.007   4.131  -1.742  1.00  0.00     0.040 A 
BRANCH  17  22
ATOM     22  N   UNL     1       0.175   1.051  -1.705  1.00  0.00    -0.326 N 
ATOM     23  C   UNL     1       0.192  -0.084   0.510  1.00  0.00     0.114 C 
ATOM     24  C   UNL     1      -0.065  -0.067  -0.967  1.00  0.00     0.221 C 
ATOM     25  O   UNL     1      -0.536  -1.058  -1.530  1.00  0.00    -0.275 OA
ATOM     26  H   UNL     1      -0.361   1.095  -2.530  1.00  0.00     0.169 HD
ENDBRANCH  17  22
BRANCH  20  27
ATOM     27  N   UNL     1       1.945   5.119  -3.666  1.00  0.00    -0.326 N 
ATOM     28  C   UNL     1       1.029   5.253  -4.697  1.00  0.00     0.221 C 
ATOM     29  H   UNL     1       2.671   5.783  -3.634  1.00  0.00     0.169 HD
ATOM     30  C   UNL     1       1.283   6.453  -5.575  1.00  0.00     0.114 C 
ATOM     31  O   UNL     1       0.074   4.519  -4.931  1.00  0.00    -0.275 OA
ENDBRANCH  20  27
ENDBRANCH  13  16
ENDBRANCH   6  12
ENDBRANCH   3   5
ENDBRANCH   2   3
ENDBRANCH   1   2
BRANCH   1  32
ATOM     32  C   UNL     1       5.979   1.478  -4.813  1.00  0.00     0.275 C 
BRANCH  32  33
ATOM     33  O   UNL     1       4.959   0.592  -5.314  1.00  0.00    -0.458 OA
BRANCH  33  34
ATOM     34  C   UNL     1       5.057  -0.678  -4.868  1.00  0.00     0.338 C 
ATOM     35  O   UNL     1       5.914  -1.140  -4.130  1.00  0.00    -0.246 OA
BRANCH  34  36
ATOM     36  C   UNL     1       3.932  -1.498  -5.336  1.00  0.00     0.060 A 
ATOM     37  C   UNL     1       2.832  -1.666  -4.497  1.00  0.00     0.016 A 
ATOM     38  C   UNL     1       4.085  -2.306  -6.458  1.00  0.00     0.016 A 
ATOM     39  C   UNL     1       1.967  -2.731  -4.670  1.00  0.00     0.010 A 
ATOM     40  C   UNL     1       3.141  -3.304  -6.705  1.00  0.00     0.010 A 
ATOM     41  C   UNL     1       2.107  -3.558  -5.782  1.00  0.00    -0.014 A 
BRANCH  41  42
ATOM     42  C   UNL     1       1.217  -4.728  -5.947  1.00  0.00     0.031 A 
ATOM     43  C   UNL     1       1.821  -6.099  -6.028  1.00  0.00     0.074 A 
ATOM     44  C   UNL     1      -0.117  -4.560  -6.021  1.00  0.00     0.049 A 
ATOM     45  N   UNL     1       1.285  -7.216  -6.441  1.00  0.00    -0.248 NA
ATOM     46  C   UNL     1       3.229  -6.224  -5.610  1.00  0.00     0.031 C 
ATOM     47  C   UNL     1      -0.831  -3.292  -5.846  1.00  0.00     0.029 A 
ATOM     48  N   UNL     1      -1.111  -5.467  -6.277  1.00  0.00    -0.354 N 
ATOM     49  C   UNL     1       2.305  -8.159  -6.401  1.00  0.00     0.074 A 
ATOM     50  C   UNL     1       3.493  -7.484  -5.927  1.00  0.00     0.031 C 
ATOM     51  C   UNL     1      -2.147  -3.504  -5.990  1.00  0.00     0.029 A 
ATOM     52  C   UNL     1      -2.355  -4.893  -6.371  1.00  0.00     0.049 A 
ATOM     53  H   UNL     1      -0.951  -6.433  -6.381  1.00  0.00     0.167 HD
ATOM     54  C   UNL     1       2.247  -9.466  -6.745  1.00  0.00     0.031 A 
ATOM     55  C   UNL     1      -3.524  -5.412  -6.788  1.00  0.00     0.031 A 
ATOM     56  C   UNL     1       1.040 -10.116  -7.184  1.00  0.00     0.049 A 
ATOM     57  C   UNL     1      -3.548  -6.844  -7.237  1.00  0.00     0.074 A 
ATOM     58  C   UNL     1       0.855 -11.435  -7.558  1.00  0.00     0.029 A 
ATOM     59  N   UNL     1      -0.194  -9.490  -7.293  1.00  0.00    -0.354 N 
ATOM     60  N   UNL     1      -2.569  -7.716  -7.269  1.00  0.00    -0.248 NA
ATOM     61  C   UNL     1      -4.835  -7.360  -7.719  1.00  0.00     0.031 C 
ATOM     62  C   UNL     1      -0.479 -11.592  -7.945  1.00  0.00     0.029 A 
ATOM     63  C   UNL     1      -1.141 -10.390  -7.745  1.00  0.00     0.049 A 
ATOM     64  H   UNL     1      -0.369  -8.545  -7.079  1.00  0.00     0.167 HD
ATOM     65  C   UNL     1      -3.128  -8.895  -7.739  1.00  0.00     0.074 A 
ATOM     66  C   UNL     1      -4.534  -8.625  -7.973  1.00  0.00     0.031 C 
ATOM     67  C   UNL     1      -2.535 -10.095  -7.956  1.00  0.00     0.031 A 
BRANCH  54  68
ATOM     68  C   UNL     1       3.528 -10.253  -6.722  1.00  0.00    -0.014 A 
ATOM     69  C   UNL     1       4.177 -10.583  -5.522  1.00  0.00     0.009 A 
ATOM     70  C   UNL     1       4.088 -10.690  -7.934  1.00  0.00     0.009 A 
ATOM     71  C   UNL     1       5.378 -11.298  -5.540  1.00  0.00     0.001 A 
ATOM     72  C   UNL     1       5.270 -11.432  -7.948  1.00  0.00     0.001 A 
ATOM     73  C   UNL     1       5.920 -11.726  -6.751  1.00  0.00     0.000 A 
ENDBRANCH  54  68
BRANCH  55  74
ATOM     74  C   UNL     1      -4.736  -4.555  -6.856  1.00  0.00    -0.014 A 
ATOM     75  C   UNL     1      -5.823  -4.787  -6.001  1.00  0.00     0.009 A 
ATOM     76  C   UNL     1      -4.808  -3.489  -7.769  1.00  0.00     0.009 A 
ATOM     77  C   UNL     1      -6.965  -3.985  -6.075  1.00  0.00     0.001 A 
ATOM     78  C   UNL     1      -5.935  -2.667  -7.816  1.00  0.00     0.001 A 
ATOM     79  C   UNL     1      -7.017  -2.922  -6.977  1.00  0.00     0.000 A 
ENDBRANCH  55  74
BRANCH  67  80
ATOM     80  C   UNL     1      -3.421 -11.221  -8.405  1.00  0.00    -0.014 A 
ATOM     81  C   UNL     1      -3.944 -11.271  -9.705  1.00  0.00     0.009 A 
ATOM     82  C   UNL     1      -3.691 -12.274  -7.517  1.00  0.00     0.009 A 
ATOM     83  C   UNL     1      -4.747 -12.344 -10.097  1.00  0.00     0.001 A 
ATOM     84  C   UNL     1      -4.466 -13.360  -7.922  1.00  0.00     0.001 A 
ATOM     85  C   UNL     1      -5.000 -13.389  -9.209  1.00  0.00     0.000 A 
ENDBRANCH  67  80
ENDBRANCH  41  42
ENDBRANCH  34  36
ENDBRANCH  33  34
ENDBRANCH  32  33
ENDBRANCH   1  32
TORSDOF 15
