REMARK SMILES CCCCc1cc(S(F)(F)(F)(F)F)cc2c1O[C@@H](C(F)(F)F)C(C(=O)OCCOC(=O)c1ccc(-c3c4nc(c(-c5ccccc5)c5ccc([nH]5)c(-c5ccccc5)c5nc(c(-c6ccccc6)c6ccc3[nH]6)C=C5)C=C4)cc1)=C2
REMARK SMILES IDX 27 1 26 2 24 3 25 4 23 5 5 6 6 7 16 8 7 9 15 10 17 11 14 12
REMARK SMILES IDX 80 13 18 14 4 15 3 16 2 17 1 18 8 19 9 20 10 21 11 22 12 23
REMARK SMILES IDX 13 24 19 25 20 26 21 27 22 28 28 29 29 30 30 31 31 32 32 33
REMARK SMILES IDX 33 34 79 35 34 36 78 37 35 38 36 39 37 40 72 41 38 42 77 43
REMARK SMILES IDX 71 44 73 45 39 46 76 47 70 48 69 49 40 51 62 52 47 53 61 54
REMARK SMILES IDX 48 55 51 56 60 57 74 58 49 59 50 60 59 62 75 63 52 64 41 65
REMARK SMILES IDX 42 66 46 67 43 68 45 69 44 70 63 71 64 72 68 73 65 74 67 75
REMARK SMILES IDX 66 76 53 77 54 78 58 79 55 80 57 81 56 82
REMARK H PARENT 73 50 51 61
REMARK Flexibility Score: inf
ROOT
ATOM      1  C   UNL     1      -5.850  -8.148   1.986  1.00  0.00     0.275 C 
ENDROOT
BRANCH   1   2
ATOM      2  O   UNL     1      -5.211  -6.880   1.993  1.00  0.00    -0.459 OA
BRANCH   2   3
ATOM      3  C   UNL     1      -3.827  -6.780   1.689  1.00  0.00     0.338 C 
ATOM      4  O   UNL     1      -3.161  -7.826   1.410  1.00  0.00    -0.246 OA
BRANCH   3   5
ATOM      5  C   UNL     1      -3.143  -5.423   1.696  1.00  0.00     0.087 C 
ATOM      6  C   UNL     1      -1.095  -1.815   2.183  1.00  0.00    -0.004 A 
ATOM      7  C   UNL     1      -1.799  -0.630   2.290  1.00  0.00     0.032 A 
ATOM      8  C   UNL     1      -1.795  -2.993   2.078  1.00  0.00     0.131 A 
ATOM      9  C   UNL     1      -3.170  -0.624   2.295  1.00  0.00     0.108 A 
ATOM     10  C   UNL     1      -3.178  -3.023   2.061  1.00  0.00     0.019 A 
ATOM     11  O   UNL     1      -1.084  -4.168   2.086  1.00  0.00    -0.475 OA
ATOM     12  C   UNL     1      -3.855  -1.814   2.174  1.00  0.00     0.036 A 
ATOM     13  C   UNL     1      -3.825  -4.321   1.985  1.00  0.00     0.027 C 
ATOM     14  C   UNL     1      -1.661  -5.297   1.372  1.00  0.00     0.316 C 
BRANCH   6  15
ATOM     15  C   UNL     1       0.425  -1.815   2.183  1.00  0.00     0.039 C 
BRANCH  15  16
ATOM     16  C   UNL     1       0.932  -2.344   0.851  1.00  0.00     0.005 C 
BRANCH  16  17
ATOM     17  C   UNL     1       0.425  -1.454  -0.273  1.00  0.00    -0.003 C 
ATOM     18  C   UNL     1       0.932  -0.036  -0.064  1.00  0.00     0.004 C 
ENDBRANCH  16  17
ENDBRANCH  15  16
ENDBRANCH   6  15
BRANCH   9  19
ATOM     19  S   UNL     1      -4.073   0.936   2.460  1.00  0.00     0.310 S 
ATOM     20  F   UNL     1      -3.890   0.946   4.035  1.00  0.00    -0.094 F 
ATOM     21  F   UNL     1      -5.402   0.121   2.688  1.00  0.00    -0.094 F 
ATOM     22  F   UNL     1      -4.841   2.281   2.601  1.00  0.00    -0.094 F 
ATOM     23  F   UNL     1      -2.712   1.732   2.369  1.00  0.00    -0.094 F 
ATOM     24  F   UNL     1      -3.264  -0.422   2.427  1.00  0.00    -0.094 F 
ENDBRANCH   9  19
BRANCH  14  25
ATOM     25  C   UNL     1      -0.950  -6.570   1.800  1.00  0.00     0.430 C 
ATOM     26  F   UNL     1      -1.467  -7.608   1.149  1.00  0.00    -0.167 F 
ATOM     27  F   UNL     1       0.346  -6.471   1.518  1.00  0.00    -0.167 F 
ATOM     28  F   UNL     1      -1.105  -6.746   3.110  1.00  0.00    -0.167 F 
ENDBRANCH  14  25
ENDBRANCH   3   5
ENDBRANCH   2   3
ENDBRANCH   1   2
BRANCH   1  29
ATOM     29  C   UNL     1      -5.733  -8.767   0.603  1.00  0.00     0.275 C 
BRANCH  29  30
ATOM     30  O   UNL     1      -4.361  -8.926   0.270  1.00  0.00    -0.458 OA
BRANCH  30  31
ATOM     31  C   UNL     1      -3.509  -7.792   0.212  1.00  0.00     0.338 C 
ATOM     32  O   UNL     1      -3.973  -6.635   0.458  1.00  0.00    -0.246 OA
BRANCH  31  33
ATOM     33  C   UNL     1      -2.041  -7.963  -0.144  1.00  0.00     0.060 A 
ATOM     34  C   UNL     1      -1.080  -7.297   0.599  1.00  0.00     0.016 A 
ATOM     35  C   UNL     1      -1.704  -8.747  -1.161  1.00  0.00     0.016 A 
ATOM     36  C   UNL     1       0.204  -7.296   0.006  1.00  0.00     0.010 A 
ATOM     37  C   UNL     1      -0.403  -8.801  -1.602  1.00  0.00     0.010 A 
ATOM     38  C   UNL     1       0.588  -8.121  -0.951  1.00  0.00    -0.014 A 
BRANCH  38  39
ATOM     39  C   UNL     1       2.054  -8.306  -1.309  1.00  0.00     0.031 A 
ATOM     40  C   UNL     1       2.455  -8.001  -2.611  1.00  0.00     0.074 A 
ATOM     41  C   UNL     1       2.910  -8.768  -0.324  1.00  0.00     0.049 A 
ATOM     42  N   UNL     1       3.687  -8.062  -3.118  1.00  0.00    -0.248 NA
ATOM     43  C   UNL     1       1.542  -7.543  -3.668  1.00  0.00     0.031 C 
ATOM     44  C   UNL     1       2.515  -9.069   0.995  1.00  0.00     0.029 A 
ATOM     45  N   UNL     1       4.261  -9.016  -0.426  1.00  0.00    -0.354 N 
ATOM     46  C   UNL     1       3.679  -7.675  -4.395  1.00  0.00     0.074 A 
ATOM     47  C   UNL     1       2.299  -7.342  -4.769  1.00  0.00     0.031 C 
ATOM     48  C   UNL     1       3.609  -9.504   1.673  1.00  0.00     0.029 A 
ATOM     49  C   UNL     1       4.706  -9.481   0.792  1.00  0.00     0.049 A 
ATOM     50  H   UNL     1       4.812  -8.885  -1.230  1.00  0.00     0.167 HD
ATOM     51  C   UNL     1       4.770  -7.585  -5.262  1.00  0.00     0.031 A 
ATOM     52  C   UNL     1       5.992  -9.870   1.133  1.00  0.00     0.031 A 
ATOM     53  C   UNL     1       6.064  -7.933  -4.907  1.00  0.00     0.049 A 
ATOM     54  C   UNL     1       7.072  -9.836   0.249  1.00  0.00     0.074 A 
ATOM     55  C   UNL     1       7.176  -7.841  -5.766  1.00  0.00     0.029 A 
ATOM     56  N   UNL     1       6.505  -8.421  -3.697  1.00  0.00    -0.354 N 
ATOM     57  N   UNL     1       7.072  -9.412  -1.016  1.00  0.00    -0.248 NA
ATOM     58  C   UNL     1       8.432 -10.276   0.590  1.00  0.00     0.031 C 
ATOM     59  C   UNL     1       8.270  -8.277  -5.087  1.00  0.00     0.029 A 
ATOM     60  C   UNL     1       7.860  -8.649  -3.793  1.00  0.00     0.049 A 
ATOM     61  H   UNL     1       5.947  -8.580  -2.901  1.00  0.00     0.167 HD
ATOM     62  C   UNL     1       8.297  -9.512  -1.535  1.00  0.00     0.074 A 
ATOM     63  C   UNL     1       9.188 -10.077  -0.512  1.00  0.00     0.031 C 
ATOM     64  C   UNL     1       8.709  -9.152  -2.819  1.00  0.00     0.031 A 
BRANCH  51  65
ATOM     65  C   UNL     1       4.525  -7.077  -6.673  1.00  0.00    -0.014 A 
ATOM     66  C   UNL     1       4.105  -5.765  -6.813  1.00  0.00     0.009 A 
ATOM     67  C   UNL     1       4.802  -7.829  -7.732  1.00  0.00     0.009 A 
ATOM     68  C   UNL     1       3.728  -5.421  -8.133  1.00  0.00     0.001 A 
ATOM     69  C   UNL     1       4.532  -7.375  -9.001  1.00  0.00     0.001 A 
ATOM     70  C   UNL     1       4.060  -6.110  -9.210  1.00  0.00     0.000 A 
ENDBRANCH  51  65
BRANCH  52  71
ATOM     71  C   UNL     1       6.239 -10.363   2.550  1.00  0.00    -0.014 A 
ATOM     72  C   UNL     1       7.227  -9.769   3.319  1.00  0.00     0.009 A 
ATOM     73  C   UNL     1       5.575 -11.427   2.984  1.00  0.00     0.009 A 
ATOM     74  C   UNL     1       7.644 -10.552   4.421  1.00  0.00     0.001 A 
ATOM     75  C   UNL     1       5.953 -12.063   4.141  1.00  0.00     0.001 A 
ATOM     76  C   UNL     1       6.960 -11.565   4.921  1.00  0.00     0.000 A 
ENDBRANCH  52  71
BRANCH  64  77
ATOM     77  C   UNL     1      10.177  -9.323  -3.172  1.00  0.00    -0.014 A 
ATOM     78  C   UNL     1      10.748 -10.584  -3.111  1.00  0.00     0.009 A 
ATOM     79  C   UNL     1      10.889  -8.262  -3.535  1.00  0.00     0.009 A 
ATOM     80  C   UNL     1      12.162 -10.577  -3.173  1.00  0.00     0.001 A 
ATOM     81  C   UNL     1      12.248  -8.358  -3.711  1.00  0.00     0.001 A 
ATOM     82  C   UNL     1      12.887  -9.562  -3.607  1.00  0.00     0.000 A 
ENDBRANCH  64  77
ENDBRANCH  38  39
ENDBRANCH  31  33
ENDBRANCH  30  31
ENDBRANCH  29  30
ENDBRANCH   1  29
TORSDOF 16
