REMARK SMILES COC(=O)c1ccc(NC(=O)[C@@H]2CC=CC[C@@H]2C(=O)OCCOC(=O)c2ccc(-c3c4nc(c(-c5ccccc5)c5ccc([nH]5)c(-c5ccccc5)c5nc(c(-c6ccccc6)c6ccc3[nH]6)C=C5)C=C4)cc2)c(C)c1
REMARK SMILES IDX 21 1 20 2 18 3 19 4 17 5 12 6 13 7 14 8 16 9 15 10 10 11
REMARK SMILES IDX 9 12 11 14 8 15 5 16 6 17 76 18 7 19 74 20 75 21 3 22 4 23
REMARK SMILES IDX 2 24 1 25 22 26 23 27 24 28 25 29 26 30 27 31 73 32 28 33
REMARK SMILES IDX 72 34 29 35 30 36 31 37 66 38 32 39 71 40 65 41 67 42 33 43
REMARK SMILES IDX 70 44 64 45 63 46 34 48 56 49 41 50 55 51 42 52 45 53 54 54
REMARK SMILES IDX 68 55 43 56 44 57 53 59 69 60 46 61 35 62 36 63 40 64 37 65
REMARK SMILES IDX 39 66 38 67 57 68 58 69 62 70 59 71 61 72 60 73 47 74 48 75
REMARK SMILES IDX 52 76 49 77 51 78 50 79
REMARK H PARENT 9 13 67 47 45 58
REMARK Flexibility Score: inf
ROOT
ATOM      1  C   UNL     1       2.657   3.348  -7.352  1.00  0.00     0.274 C 
ENDROOT
BRANCH   1   2
ATOM      2  O   UNL     1       4.006   3.476  -6.895  1.00  0.00    -0.462 OA
BRANCH   2   3
ATOM      3  C   UNL     1       4.680   2.300  -6.754  1.00  0.00     0.310 C 
ATOM      4  O   UNL     1       4.247   1.244  -7.155  1.00  0.00    -0.252 OA
BRANCH   3   5
ATOM      5  C   UNL     1       5.954   2.417  -5.909  1.00  0.00     0.116 C 
ATOM      6  C   UNL     1       5.620   3.118  -4.571  1.00  0.00     0.097 C 
ATOM      7  C   UNL     1       5.364   4.627  -4.842  1.00  0.00     0.041 C 
ATOM      8  C   UNL     1       6.278   5.249  -5.864  1.00  0.00    -0.030 C 
ATOM      9  C   UNL     1       7.165   3.050  -6.593  1.00  0.00     0.043 C 
ATOM     10  C   UNL     1       7.127   4.543  -6.620  1.00  0.00    -0.030 C 
BRANCH   6  11
ATOM     11  C   UNL     1       4.521   2.262  -3.890  1.00  0.00     0.228 C 
ATOM     12  N   UNL     1       3.667   2.732  -2.948  1.00  0.00    -0.326 N 
ATOM     13  H   UNL     1       2.932   2.126  -2.700  1.00  0.00     0.169 HD
ATOM     14  O   UNL     1       4.368   1.072  -4.190  1.00  0.00    -0.274 OA
BRANCH  12  15
ATOM     15  C   UNL     1       3.686   3.951  -2.283  1.00  0.00     0.044 A 
ATOM     16  C   UNL     1       3.839   6.594  -1.489  1.00  0.00     0.060 A 
ATOM     17  C   UNL     1       4.978   5.794  -1.417  1.00  0.00     0.018 A 
ATOM     18  C   UNL     1       2.600   6.043  -1.850  1.00  0.00     0.021 A 
ATOM     19  C   UNL     1       4.894   4.460  -1.796  1.00  0.00     0.027 A 
ATOM     20  C   UNL     1       2.498   4.692  -2.199  1.00  0.00    -0.027 A 
ATOM     21  C   UNL     1       1.167   4.135  -2.625  1.00  0.00     0.046 C 
BRANCH  16  22
ATOM     22  C   UNL     1       3.992   8.050  -1.274  1.00  0.00     0.337 C 
ATOM     23  O   UNL     1       4.925   8.664  -1.773  1.00  0.00    -0.246 OA
BRANCH  22  24
ATOM     24  O   UNL     1       3.001   8.642  -0.567  1.00  0.00    -0.465 OA
ATOM     25  C   UNL     1       2.563   7.997   0.635  1.00  0.00     0.282 C 
ENDBRANCH  22  24
ENDBRANCH  16  22
ENDBRANCH  12  15
ENDBRANCH   6  11
ENDBRANCH   3   5
ENDBRANCH   2   3
ENDBRANCH   1   2
BRANCH   1  26
ATOM     26  C   UNL     1       2.115   4.656  -7.945  1.00  0.00     0.275 C 
BRANCH  26  27
ATOM     27  O   UNL     1       3.057   5.648  -8.444  1.00  0.00    -0.458 OA
BRANCH  27  28
ATOM     28  C   UNL     1       4.105   5.501  -9.292  1.00  0.00     0.338 C 
ATOM     29  O   UNL     1       4.865   6.421  -9.565  1.00  0.00    -0.246 OA
BRANCH  28  30
ATOM     30  C   UNL     1       4.360   4.157  -9.821  1.00  0.00     0.060 A 
ATOM     31  C   UNL     1       5.637   3.600  -9.667  1.00  0.00     0.016 A 
ATOM     32  C   UNL     1       3.319   3.418 -10.365  1.00  0.00     0.016 A 
ATOM     33  C   UNL     1       5.839   2.242  -9.913  1.00  0.00     0.010 A 
ATOM     34  C   UNL     1       3.493   2.059 -10.525  1.00  0.00     0.010 A 
ATOM     35  C   UNL     1       4.749   1.463 -10.301  1.00  0.00    -0.014 A 
BRANCH  35  36
ATOM     36  C   UNL     1       4.895   0.140 -10.896  1.00  0.00     0.031 A 
ATOM     37  C   UNL     1       5.035  -1.141 -10.168  1.00  0.00     0.074 A 
ATOM     38  C   UNL     1       4.809   0.200 -12.244  1.00  0.00     0.049 A 
ATOM     39  N   UNL     1       5.421  -2.234 -10.739  1.00  0.00    -0.248 NA
ATOM     40  C   UNL     1       4.795  -1.334  -8.745  1.00  0.00     0.031 C 
ATOM     41  C   UNL     1       4.627  -0.857 -13.218  1.00  0.00     0.029 A 
ATOM     42  N   UNL     1       5.093   1.333 -13.024  1.00  0.00    -0.354 N 
ATOM     43  C   UNL     1       5.177  -3.279  -9.871  1.00  0.00     0.074 A 
ATOM     44  C   UNL     1       4.872  -2.663  -8.611  1.00  0.00     0.031 C 
ATOM     45  C   UNL     1       5.110  -0.422 -14.397  1.00  0.00     0.029 A 
ATOM     46  C   UNL     1       5.762   0.860 -14.144  1.00  0.00     0.049 A 
ATOM     47  H   UNL     1       4.865   2.268 -12.818  1.00  0.00     0.167 HD
ATOM     48  C   UNL     1       5.114  -4.547 -10.363  1.00  0.00     0.031 A 
ATOM     49  C   UNL     1       7.080   1.146 -14.357  1.00  0.00     0.031 A 
ATOM     50  C   UNL     1       5.519  -4.574 -11.761  1.00  0.00     0.049 A 
ATOM     51  C   UNL     1       7.874  -0.129 -14.483  1.00  0.00     0.074 A 
ATOM     52  C   UNL     1       4.801  -4.556 -12.944  1.00  0.00     0.029 A 
ATOM     53  N   UNL     1       6.829  -4.240 -12.078  1.00  0.00    -0.354 N 
ATOM     54  N   UNL     1       7.597  -1.229 -13.836  1.00  0.00    -0.248 NA
ATOM     55  C   UNL     1       9.012  -0.266 -15.382  1.00  0.00     0.031 C 
ATOM     56  C   UNL     1       5.676  -4.109 -13.969  1.00  0.00     0.029 A 
ATOM     57  C   UNL     1       6.925  -3.897 -13.409  1.00  0.00     0.049 A 
ATOM     58  H   UNL     1       7.581  -4.247 -11.443  1.00  0.00     0.167 HD
ATOM     59  C   UNL     1       8.392  -2.236 -14.321  1.00  0.00     0.074 A 
ATOM     60  C   UNL     1       9.298  -1.572 -15.243  1.00  0.00     0.031 C 
ATOM     61  C   UNL     1       8.213  -3.545 -13.983  1.00  0.00     0.031 A 
BRANCH  48  62
ATOM     62  C   UNL     1       4.406  -5.690  -9.676  1.00  0.00    -0.014 A 
ATOM     63  C   UNL     1       3.759  -6.662 -10.466  1.00  0.00     0.009 A 
ATOM     64  C   UNL     1       4.278  -5.840  -8.286  1.00  0.00     0.009 A 
ATOM     65  C   UNL     1       2.965  -7.673  -9.910  1.00  0.00     0.001 A 
ATOM     66  C   UNL     1       3.467  -6.840  -7.722  1.00  0.00     0.001 A 
ATOM     67  C   UNL     1       2.800  -7.749  -8.535  1.00  0.00     0.000 A 
ENDBRANCH  48  62
BRANCH  49  68
ATOM     68  C   UNL     1       7.601   2.406 -13.736  1.00  0.00    -0.014 A 
ATOM     69  C   UNL     1       6.987   3.636 -14.063  1.00  0.00     0.009 A 
ATOM     70  C   UNL     1       8.491   2.390 -12.651  1.00  0.00     0.009 A 
ATOM     71  C   UNL     1       7.195   4.785 -13.290  1.00  0.00     0.001 A 
ATOM     72  C   UNL     1       8.715   3.550 -11.890  1.00  0.00     0.001 A 
ATOM     73  C   UNL     1       8.052   4.739 -12.196  1.00  0.00     0.000 A 
ENDBRANCH  49  68
BRANCH  61  74
ATOM     74  C   UNL     1       9.180  -4.673 -14.241  1.00  0.00    -0.014 A 
ATOM     75  C   UNL     1      10.541  -4.496 -14.507  1.00  0.00     0.009 A 
ATOM     76  C   UNL     1       8.739  -6.004 -14.044  1.00  0.00     0.009 A 
ATOM     77  C   UNL     1      11.407  -5.592 -14.611  1.00  0.00     0.001 A 
ATOM     78  C   UNL     1       9.608  -7.093 -14.094  1.00  0.00     0.001 A 
ATOM     79  C   UNL     1      10.945  -6.886 -14.390  1.00  0.00     0.000 A 
ENDBRANCH  61  74
ENDBRANCH  35  36
ENDBRANCH  28  30
ENDBRANCH  27  28
ENDBRANCH  26  27
ENDBRANCH   1  26
TORSDOF 15
