REMARK SMILES O=C(OCCOC(=O)c1ccc(F)c(S(=O)(=O)N2CCOc3ccccc32)c1)c1ccc(-c2c3nc(c(-c4ccccc4)c4ccc([nH]4)c(-c4ccccc4)c4nc(c(-c5ccccc5)c5ccc2[nH]5)C=C4)C=C3)cc1
REMARK SMILES IDX 4 1 3 2 2 3 1 4 29 5 30 6 76 7 31 8 75 9 32 10 33 11 34 12
REMARK SMILES IDX 69 13 35 14 74 15 68 16 70 17 36 18 73 19 67 20 66 21 37 23
REMARK SMILES IDX 59 24 44 25 58 26 45 27 48 28 57 29 71 30 46 31 47 32 56 34
REMARK SMILES IDX 72 35 49 36 38 37 39 38 43 39 40 40 42 41 41 42 60 43 61 44
REMARK SMILES IDX 65 45 62 46 64 47 63 48 50 49 51 50 55 51 52 52 54 53 53 54
REMARK SMILES IDX 5 55 6 56 7 57 8 58 9 59 10 60 28 61 11 62 14 63 12 64 13 65
REMARK SMILES IDX 15 66 16 67 17 68 18 69 19 70 27 71 20 72 22 73 26 74 21 75
REMARK SMILES IDX 23 76 25 77 24 78
REMARK H PARENT 70 22 48 33
REMARK Flexibility Score: inf
ROOT
ATOM      1  C   UNL     1       3.891   1.388  -0.814  1.00  0.00     0.275 C 
ENDROOT
BRANCH   1   2
ATOM      2  O   UNL     1       2.847   0.420  -1.027  1.00  0.00    -0.458 OA
BRANCH   2   3
ATOM      3  C   UNL     1       2.667  -0.823  -0.527  1.00  0.00     0.338 C 
ATOM      4  O   UNL     1       1.708  -1.484  -0.922  1.00  0.00    -0.246 OA
BRANCH   3   5
ATOM      5  C   UNL     1       3.506  -1.418   0.561  1.00  0.00     0.060 A 
ATOM      6  C   UNL     1       4.842  -1.113   0.817  1.00  0.00     0.016 A 
ATOM      7  C   UNL     1       2.889  -2.389   1.374  1.00  0.00     0.016 A 
ATOM      8  C   UNL     1       5.518  -1.690   1.894  1.00  0.00     0.010 A 
ATOM      9  C   UNL     1       3.557  -2.968   2.459  1.00  0.00     0.010 A 
ATOM     10  C   UNL     1       4.880  -2.614   2.726  1.00  0.00    -0.014 A 
BRANCH  10  11
ATOM     11  C   UNL     1       5.668  -3.264   3.794  1.00  0.00     0.031 A 
ATOM     12  C   UNL     1       6.218  -4.636   3.556  1.00  0.00     0.074 A 
ATOM     13  C   UNL     1       5.987  -2.582   4.909  1.00  0.00     0.049 A 
ATOM     14  N   UNL     1       7.069  -5.313   4.281  1.00  0.00    -0.248 NA
ATOM     15  C   UNL     1       5.798  -5.313   2.319  1.00  0.00     0.031 C 
ATOM     16  C   UNL     1       5.589  -1.205   5.191  1.00  0.00     0.029 A 
ATOM     17  N   UNL     1       6.725  -2.941   6.006  1.00  0.00    -0.354 N 
ATOM     18  C   UNL     1       7.335  -6.466   3.558  1.00  0.00     0.074 A 
ATOM     19  C   UNL     1       6.502  -6.434   2.376  1.00  0.00     0.031 C 
ATOM     20  C   UNL     1       6.034  -0.851   6.407  1.00  0.00     0.029 A 
ATOM     21  C   UNL     1       6.776  -1.969   6.976  1.00  0.00     0.049 A 
ATOM     22  H   UNL     1       7.177  -3.811   6.091  1.00  0.00     0.167 HD
ATOM     23  C   UNL     1       8.226  -7.445   3.837  1.00  0.00     0.031 A 
ATOM     24  C   UNL     1       7.367  -1.976   8.185  1.00  0.00     0.031 A 
ATOM     25  C   UNL     1       8.999  -7.500   5.047  1.00  0.00     0.049 A 
ATOM     26  C   UNL     1       8.223  -3.156   8.549  1.00  0.00     0.074 A 
ATOM     27  C   UNL     1       9.889  -8.473   5.462  1.00  0.00     0.029 A 
ATOM     28  N   UNL     1       8.955  -6.540   6.049  1.00  0.00    -0.354 N 
ATOM     29  N   UNL     1       8.498  -4.223   7.836  1.00  0.00    -0.248 NA
ATOM     30  C   UNL     1       8.888  -3.114   9.857  1.00  0.00     0.031 C 
ATOM     31  C   UNL     1      10.343  -8.128   6.741  1.00  0.00     0.029 A 
ATOM     32  C   UNL     1       9.782  -6.911   7.096  1.00  0.00     0.049 A 
ATOM     33  H   UNL     1       8.415  -5.718   6.020  1.00  0.00     0.167 HD
ATOM     34  C   UNL     1       9.397  -4.961   8.590  1.00  0.00     0.074 A 
ATOM     35  C   UNL     1       9.632  -4.210   9.809  1.00  0.00     0.031 C 
ATOM     36  C   UNL     1       9.985  -6.148   8.301  1.00  0.00     0.031 A 
BRANCH  23  37
ATOM     37  C   UNL     1       8.375  -8.532   2.814  1.00  0.00    -0.014 A 
ATOM     38  C   UNL     1       9.017  -8.281   1.589  1.00  0.00     0.009 A 
ATOM     39  C   UNL     1       7.853  -9.809   3.060  1.00  0.00     0.009 A 
ATOM     40  C   UNL     1       9.101  -9.280   0.617  1.00  0.00     0.001 A 
ATOM     41  C   UNL     1       7.959 -10.812   2.094  1.00  0.00     0.001 A 
ATOM     42  C   UNL     1       8.573 -10.545   0.871  1.00  0.00     0.000 A 
ENDBRANCH  23  37
BRANCH  24  43
ATOM     43  C   UNL     1       7.178  -0.839   9.125  1.00  0.00    -0.014 A 
ATOM     44  C   UNL     1       8.237   0.016   9.462  1.00  0.00     0.009 A 
ATOM     45  C   UNL     1       5.922  -0.625   9.718  1.00  0.00     0.009 A 
ATOM     46  C   UNL     1       8.052   1.037  10.400  1.00  0.00     0.001 A 
ATOM     47  C   UNL     1       5.733   0.412  10.634  1.00  0.00     0.001 A 
ATOM     48  C   UNL     1       6.802   1.235  10.984  1.00  0.00     0.000 A 
ENDBRANCH  24  43
BRANCH  36  49
ATOM     49  C   UNL     1      10.954  -6.684   9.315  1.00  0.00    -0.014 A 
ATOM     50  C   UNL     1      10.514  -7.184  10.550  1.00  0.00     0.009 A 
ATOM     51  C   UNL     1      12.326  -6.705   9.018  1.00  0.00     0.009 A 
ATOM     52  C   UNL     1      11.434  -7.656  11.486  1.00  0.00     0.001 A 
ATOM     53  C   UNL     1      13.240  -7.209   9.943  1.00  0.00     0.001 A 
ATOM     54  C   UNL     1      12.795  -7.672  11.181  1.00  0.00     0.000 A 
ENDBRANCH  36  49
ENDBRANCH  10  11
ENDBRANCH   3   5
ENDBRANCH   2   3
ENDBRANCH   1   2
BRANCH   1  55
ATOM     55  C   UNL     1       3.741   2.241   0.448  1.00  0.00     0.275 C 
BRANCH  55  56
ATOM     56  O   UNL     1       3.351   1.499   1.611  1.00  0.00    -0.458 OA
BRANCH  56  57
ATOM     57  C   UNL     1       2.016   1.482   1.871  1.00  0.00     0.338 C 
ATOM     58  O   UNL     1       1.131   2.008   1.220  1.00  0.00    -0.246 OA
BRANCH  57  59
ATOM     59  C   UNL     1       1.770   0.626   3.052  1.00  0.00     0.061 A 
ATOM     60  C   UNL     1       2.564   0.763   4.194  1.00  0.00     0.019 A 
ATOM     61  C   UNL     1       0.764  -0.349   3.002  1.00  0.00     0.041 A 
ATOM     62  C   UNL     1       2.392  -0.118   5.260  1.00  0.00     0.041 A 
ATOM     63  C   UNL     1       0.626  -1.254   4.068  1.00  0.00     0.124 A 
ATOM     64  C   UNL     1       1.462  -1.150   5.174  1.00  0.00     0.143 A 
ATOM     65  F   UNL     1       1.441  -2.029   6.180  1.00  0.00    -0.205 F 
BRANCH  63  66
ATOM     66  S   UNL     1      -0.567  -2.561   3.914  1.00  0.00     0.267 S 
ATOM     67  O   UNL     1      -1.832  -1.913   3.630  1.00  0.00    -0.201 OA
ATOM     68  O   UNL     1       0.023  -3.484   2.969  1.00  0.00    -0.201 OA
BRANCH  66  69
ATOM     69  N   UNL     1      -0.690  -3.241   5.462  1.00  0.00    -0.259 N 
ATOM     70  C   UNL     1      -1.352  -2.399   6.497  1.00  0.00     0.177 C 
ATOM     71  C   UNL     1      -0.822  -4.670   5.670  1.00  0.00     0.094 A 
ATOM     72  C   UNL     1      -2.648  -3.059   6.935  1.00  0.00     0.252 C 
ATOM     73  C   UNL     1      -1.610  -5.139   6.742  1.00  0.00     0.143 A 
ATOM     74  C   UNL     1      -0.048  -5.605   4.973  1.00  0.00     0.031 A 
ATOM     75  O   UNL     1      -2.390  -4.330   7.538  1.00  0.00    -0.489 OA
ATOM     76  C   UNL     1      -1.619  -6.492   7.095  1.00  0.00     0.049 A 
ATOM     77  C   UNL     1      -0.085  -6.965   5.305  1.00  0.00     0.002 A 
ATOM     78  C   UNL     1      -0.864  -7.407   6.370  1.00  0.00     0.004 A 
ENDBRANCH  66  69
ENDBRANCH  63  66
ENDBRANCH  57  59
ENDBRANCH  56  57
ENDBRANCH  55  56
ENDBRANCH   1  55
TORSDOF 13
