REMARK SMILES COc1ccc([C@@H]2CC(c3ccc(Cl)cc3)=NN2C2=[NH+]C(=O)[C@@H](CC(=O)OCCOC(=O)c3ccc(-c4c5nc(c(-c6ccccc6)c6ccc([nH]6)c(-c6ccccc6)c6nc(c(-c7ccccc7)c7ccc4[nH]7)C=C6)C=C5)cc3)S2)cc1OC
REMARK SMILES IDX 28 1 27 2 25 3 26 4 24 5 23 6 19 7 20 8 81 9 21 10 22 12
REMARK SMILES IDX 18 13 7 14 8 15 9 16 17 17 6 18 3 19 4 20 83 21 5 22 82 23
REMARK SMILES IDX 2 24 1 25 84 26 85 27 10 28 11 29 16 30 12 31 15 32 13 33
REMARK SMILES IDX 14 34 29 35 30 36 31 37 32 38 33 39 34 40 80 41 35 42 79 43
REMARK SMILES IDX 36 44 37 45 38 46 73 47 39 48 78 49 72 50 74 51 40 52 77 53
REMARK SMILES IDX 71 54 70 55 41 57 63 58 48 59 62 60 49 61 52 62 61 63 75 64
REMARK SMILES IDX 50 65 51 66 60 68 76 69 53 70 42 71 43 72 47 73 44 74 46 75
REMARK SMILES IDX 45 76 64 77 65 78 69 79 66 80 68 81 67 82 54 83 55 84 59 85
REMARK SMILES IDX 56 86 58 87 57 88
REMARK H PARENT 20 11 74 56 52 67
REMARK Flexibility Score: inf
ROOT
ATOM      1  C   UNL     1      -1.574   2.705  -6.663  1.00  0.00     0.274 C 
ENDROOT
BRANCH   1   2
ATOM      2  O   UNL     1      -0.412   2.927  -5.845  1.00  0.00    -0.462 OA
BRANCH   2   3
ATOM      3  C   UNL     1       0.275   1.837  -5.433  1.00  0.00     0.307 C 
ATOM      4  O   UNL     1      -0.043   0.677  -5.659  1.00  0.00    -0.252 OA
BRANCH   3   5
ATOM      5  C   UNL     1       1.464   2.208  -4.588  1.00  0.00     0.150 C 
BRANCH   5   6
ATOM      6  C   UNL     1       2.379   3.254  -5.214  1.00  0.00     0.184 C 
ATOM      7  C   UNL     1       2.880   5.231  -3.738  1.00  0.00     0.340 C 
ATOM      8  N   UNL     1       3.771   4.317  -3.529  1.00  0.00    -0.202 N 
ATOM      9  S   UNL     1       1.759   4.955  -5.043  1.00  0.00    -0.020 SA
ATOM     10  C   UNL     1       3.675   3.277  -4.423  1.00  0.00     0.322 C 
ATOM     11  H   UNL     1       4.443   4.362  -2.811  1.00  0.00     0.316 HD
ATOM     12  O   UNL     1       4.505   2.380  -4.512  1.00  0.00    -0.246 OA
BRANCH   7  13
ATOM     13  N   UNL     1       2.694   6.368  -2.993  1.00  0.00    -0.120 N 
ATOM     14  C   UNL     1       2.119   6.250  -1.652  1.00  0.00     0.243 C 
ATOM     15  C   UNL     1       2.945   7.215  -0.808  1.00  0.00     0.118 C 
ATOM     16  C   UNL     1       3.704   7.923  -1.891  1.00  0.00     0.096 C 
ATOM     17  N   UNL     1       3.561   7.436  -3.083  1.00  0.00    -0.086 NA
BRANCH  14  18
ATOM     18  C   UNL     1       0.634   6.574  -1.646  1.00  0.00     0.003 A 
ATOM     19  C   UNL     1      -2.118   7.165  -1.444  1.00  0.00     0.160 A 
ATOM     20  C   UNL     1      -1.245   8.049  -2.092  1.00  0.00     0.051 A 
ATOM     21  C   UNL     1      -1.637   5.951  -0.943  1.00  0.00     0.161 A 
ATOM     22  C   UNL     1       0.119   7.759  -2.188  1.00  0.00     0.012 A 
ATOM     23  C   UNL     1      -0.266   5.672  -1.051  1.00  0.00     0.058 A 
BRANCH  19  24
ATOM     24  O   UNL     1      -3.446   7.489  -1.392  1.00  0.00    -0.493 OA
ATOM     25  C   UNL     1      -3.689   8.539  -0.452  1.00  0.00     0.278 C 
ENDBRANCH  19  24
BRANCH  21  26
ATOM     26  O   UNL     1      -2.334   4.939  -0.340  1.00  0.00    -0.493 OA
ATOM     27  C   UNL     1      -3.644   5.210   0.134  1.00  0.00     0.278 C 
ENDBRANCH  21  26
ENDBRANCH  14  18
BRANCH  16  28
ATOM     28  C   UNL     1       4.577   9.075  -1.597  1.00  0.00     0.000 A 
ATOM     29  C   UNL     1       4.865   9.985  -2.622  1.00  0.00     0.011 A 
ATOM     30  C   UNL     1       5.132   9.254  -0.325  1.00  0.00     0.011 A 
ATOM     31  C   UNL     1       5.693  11.081  -2.370  1.00  0.00     0.021 A 
ATOM     32  C   UNL     1       5.970  10.344  -0.081  1.00  0.00     0.021 A 
ATOM     33  C   UNL     1       6.243  11.255  -1.101  1.00  0.00     0.041 A 
ATOM     34  Cl  UNL     1       7.267  12.601  -0.791  1.00  0.00    -0.084 Cl
ENDBRANCH  16  28
ENDBRANCH   7  13
ENDBRANCH   5   6
ENDBRANCH   3   5
ENDBRANCH   2   3
ENDBRANCH   1   2
BRANCH   1  35
ATOM     35  C   UNL     1      -1.240   2.857  -8.148  1.00  0.00     0.275 C 
BRANCH  35  36
ATOM     36  O   UNL     1      -0.461   1.743  -8.626  1.00  0.00    -0.458 OA
BRANCH  36  37
ATOM     37  C   UNL     1       0.875   1.933  -8.652  1.00  0.00     0.338 C 
ATOM     38  O   UNL     1       1.487   2.955  -8.369  1.00  0.00    -0.246 OA
BRANCH  37  39
ATOM     39  C   UNL     1       1.548   0.665  -8.954  1.00  0.00     0.060 A 
ATOM     40  C   UNL     1       2.324   0.065  -7.958  1.00  0.00     0.016 A 
ATOM     41  C   UNL     1       1.462   0.099 -10.227  1.00  0.00     0.016 A 
ATOM     42  C   UNL     1       3.008  -1.118  -8.227  1.00  0.00     0.010 A 
ATOM     43  C   UNL     1       2.145  -1.090 -10.494  1.00  0.00     0.010 A 
ATOM     44  C   UNL     1       2.921  -1.706  -9.496  1.00  0.00    -0.014 A 
BRANCH  44  45
ATOM     45  C   UNL     1       3.636  -2.974  -9.776  1.00  0.00     0.031 A 
ATOM     46  C   UNL     1       4.864  -2.978 -10.638  1.00  0.00     0.074 A 
ATOM     47  C   UNL     1       3.166  -4.125  -9.261  1.00  0.00     0.049 A 
ATOM     48  N   UNL     1       5.572  -3.994 -11.059  1.00  0.00    -0.248 NA
ATOM     49  C   UNL     1       5.359  -1.668 -11.089  1.00  0.00     0.031 C 
ATOM     50  C   UNL     1       1.998  -4.246  -8.387  1.00  0.00     0.029 A 
ATOM     51  N   UNL     1       3.610  -5.415  -9.407  1.00  0.00    -0.354 N 
ATOM     52  C   UNL     1       6.585  -3.452 -11.839  1.00  0.00     0.074 A 
ATOM     53  C   UNL     1       6.391  -2.017 -11.846  1.00  0.00     0.031 C 
ATOM     54  C   UNL     1       1.816  -5.540  -8.078  1.00  0.00     0.029 A 
ATOM     55  C   UNL     1       2.823  -6.340  -8.767  1.00  0.00     0.049 A 
ATOM     56  H   UNL     1       4.415  -5.654  -9.922  1.00  0.00     0.167 HD
ATOM     57  C   UNL     1       7.585  -4.094 -12.489  1.00  0.00     0.031 A 
ATOM     58  C   UNL     1       2.887  -7.685  -8.761  1.00  0.00     0.031 A 
ATOM     59  C   UNL     1       7.777  -5.520 -12.479  1.00  0.00     0.049 A 
ATOM     60  C   UNL     1       3.971  -8.373  -9.541  1.00  0.00     0.074 A 
ATOM     61  C   UNL     1       8.783  -6.258 -13.080  1.00  0.00     0.029 A 
ATOM     62  N   UNL     1       6.944  -6.425 -11.841  1.00  0.00    -0.354 N 
ATOM     63  N   UNL     1       4.938  -7.847 -10.252  1.00  0.00    -0.248 NA
ATOM     64  C   UNL     1       3.970  -9.843  -9.518  1.00  0.00     0.031 C 
ATOM     65  C   UNL     1       8.526  -7.614 -12.852  1.00  0.00     0.029 A 
ATOM     66  C   UNL     1       7.391  -7.717 -12.063  1.00  0.00     0.049 A 
ATOM     67  H   UNL     1       6.151  -6.185 -11.309  1.00  0.00     0.167 HD
ATOM     68  C   UNL     1       5.669  -8.918 -10.748  1.00  0.00     0.074 A 
ATOM     69  C   UNL     1       5.048 -10.123 -10.239  1.00  0.00     0.031 C 
ATOM     70  C   UNL     1       6.756  -8.905 -11.557  1.00  0.00     0.031 A 
BRANCH  57  71
ATOM     71  C   UNL     1       8.534  -3.260 -13.302  1.00  0.00    -0.014 A 
ATOM     72  C   UNL     1       9.510  -2.458 -12.692  1.00  0.00     0.009 A 
ATOM     73  C   UNL     1       8.487  -3.326 -14.704  1.00  0.00     0.009 A 
ATOM     74  C   UNL     1      10.404  -1.718 -13.471  1.00  0.00     0.001 A 
ATOM     75  C   UNL     1       9.396  -2.605 -15.479  1.00  0.00     0.001 A 
ATOM     76  C   UNL     1      10.349  -1.797 -14.863  1.00  0.00     0.000 A 
ENDBRANCH  57  71
BRANCH  58  77
ATOM     77  C   UNL     1       1.865  -8.474  -8.025  1.00  0.00    -0.014 A 
ATOM     78  C   UNL     1       2.208  -9.196  -6.872  1.00  0.00     0.009 A 
ATOM     79  C   UNL     1       0.539  -8.519  -8.485  1.00  0.00     0.009 A 
ATOM     80  C   UNL     1       1.249  -9.966  -6.210  1.00  0.00     0.001 A 
ATOM     81  C   UNL     1      -0.423  -9.266  -7.804  1.00  0.00     0.001 A 
ATOM     82  C   UNL     1      -0.065  -9.997  -6.673  1.00  0.00     0.000 A 
ENDBRANCH  58  77
BRANCH  70  83
ATOM     83  C   UNL     1       7.351 -10.235 -11.924  1.00  0.00    -0.014 A 
ATOM     84  C   UNL     1       6.712 -11.088 -12.838  1.00  0.00     0.009 A 
ATOM     85  C   UNL     1       8.580 -10.626 -11.372  1.00  0.00     0.009 A 
ATOM     86  C   UNL     1       7.278 -12.320 -13.167  1.00  0.00     0.001 A 
ATOM     87  C   UNL     1       9.158 -11.847 -11.724  1.00  0.00     0.001 A 
ATOM     88  C   UNL     1       8.502 -12.697 -12.614  1.00  0.00     0.000 A 
ENDBRANCH  70  83
ENDBRANCH  44  45
ENDBRANCH  37  39
ENDBRANCH  36  37
ENDBRANCH  35  36
ENDBRANCH   1  35
TORSDOF 17
