REMARK SMILES COc1cc(OC)cc(-c2cc3nc(C)c(CCC(=O)OCCOC(=O)c4ccc(-c5c6nc(c(-c7ccccc7)c7ccc([nH]7)c(-c7ccccc7)c7nc(c(-c8ccccc8)c8ccc5[nH]8)C=C7)C=C6)cc4)c(C)n3n2)c1
REMARK SMILES IDX 22 1 21 2 19 3 20 4 18 5 17 6 16 7 10 8 11 9 78 10 12 11
REMARK SMILES IDX 77 12 13 13 75 14 14 15 76 16 15 17 9 18 3 19 4 20 79 21
REMARK SMILES IDX 5 22 8 23 2 24 1 25 6 26 7 27 23 28 24 29 25 30 26 31 27 32
REMARK SMILES IDX 28 33 74 34 29 35 73 36 30 37 31 38 32 39 67 40 33 41 72 42
REMARK SMILES IDX 66 43 68 44 34 45 71 46 65 47 64 48 35 50 57 51 42 52 56 53
REMARK SMILES IDX 43 54 46 55 55 56 69 57 44 58 45 59 54 61 70 62 47 63 36 64
REMARK SMILES IDX 37 65 41 66 38 67 40 68 39 69 58 70 59 71 63 72 60 73 62 74
REMARK SMILES IDX 61 75 48 76 49 77 53 78 50 79 52 80 51 81
REMARK H PARENT 68 49 46 60
REMARK Flexibility Score: inf
ROOT
ATOM      1  C   UNL     1       7.884  -2.268  -0.658  1.00  0.00     0.274 C 
ENDROOT
BRANCH   1   2
ATOM      2  O   UNL     1       8.284  -1.745  -1.944  1.00  0.00    -0.462 OA
BRANCH   2   3
ATOM      3  C   UNL     1       9.515  -1.174  -2.014  1.00  0.00     0.306 C 
ATOM      4  O   UNL     1      10.218  -0.932  -1.036  1.00  0.00    -0.252 OA
BRANCH   3   5
ATOM      5  C   UNL     1       9.952  -0.821  -3.433  1.00  0.00     0.127 C 
BRANCH   5   6
ATOM      6  C   UNL     1       9.478  -1.682  -4.622  1.00  0.00     0.051 C 
BRANCH   6   7
ATOM      7  C   UNL     1       8.058  -1.398  -5.028  1.00  0.00    -0.005 A 
ATOM      8  C   UNL     1       3.661  -1.136  -4.443  1.00  0.00     0.095 A 
ATOM      9  C   UNL     1       4.194  -0.019  -5.117  1.00  0.00     0.080 A 
ATOM     10  N   UNL     1       4.555  -2.121  -4.335  1.00  0.00    -0.166 NA
ATOM     11  C   UNL     1       5.516  -0.330  -5.341  1.00  0.00     0.156 A 
ATOM     12  N   UNL     1       5.709  -1.605  -4.818  1.00  0.00    -0.219 N 
ATOM     13  N   UNL     1       6.525   0.357  -5.945  1.00  0.00    -0.234 NA
ATOM     14  C   UNL     1       6.989  -2.168  -4.718  1.00  0.00     0.046 A 
ATOM     15  C   UNL     1       7.720  -0.149  -5.826  1.00  0.00     0.045 A 
ATOM     16  C   UNL     1       7.030  -3.552  -4.133  1.00  0.00     0.067 C 
ATOM     17  C   UNL     1       8.790   0.503  -6.681  1.00  0.00     0.067 C 
BRANCH   8  18
ATOM     18  C   UNL     1       2.322  -1.335  -3.925  1.00  0.00     0.009 A 
ATOM     19  C   UNL     1       0.773  -1.351  -2.072  1.00  0.00     0.123 A 
ATOM     20  C   UNL     1      -0.167  -1.985  -2.890  1.00  0.00     0.092 A 
ATOM     21  C   UNL     1       2.029  -1.035  -2.588  1.00  0.00     0.057 A 
ATOM     22  C   UNL     1       0.125  -2.289  -4.223  1.00  0.00     0.123 A 
ATOM     23  C   UNL     1       1.369  -1.947  -4.744  1.00  0.00     0.057 A 
BRANCH  19  24
ATOM     24  O   UNL     1       0.377  -1.155  -0.777  1.00  0.00    -0.497 OA
ATOM     25  C   UNL     1       1.001  -0.075  -0.092  1.00  0.00     0.278 C 
ENDBRANCH  19  24
BRANCH  22  26
ATOM     26  O   UNL     1      -0.872  -2.926  -4.910  1.00  0.00    -0.497 OA
ATOM     27  C   UNL     1      -0.493  -3.526  -6.145  1.00  0.00     0.278 C 
ENDBRANCH  22  26
ENDBRANCH   8  18
ENDBRANCH   6   7
ENDBRANCH   5   6
ENDBRANCH   3   5
ENDBRANCH   2   3
ENDBRANCH   1   2
BRANCH   1  28
ATOM     28  C   UNL     1       7.972  -3.795  -0.608  1.00  0.00     0.275 C 
BRANCH  28  29
ATOM     29  O   UNL     1       9.290  -4.327  -0.398  1.00  0.00    -0.458 OA
BRANCH  29  30
ATOM     30  C   UNL     1      10.053  -4.385  -1.508  1.00  0.00     0.338 C 
ATOM     31  O   UNL     1      10.176  -3.542  -2.372  1.00  0.00    -0.246 OA
BRANCH  30  32
ATOM     32  C   UNL     1      10.550  -5.727  -1.778  1.00  0.00     0.060 A 
ATOM     33  C   UNL     1      11.367  -5.863  -2.912  1.00  0.00     0.016 A 
ATOM     34  C   UNL     1      10.030  -6.829  -1.098  1.00  0.00     0.016 A 
ATOM     35  C   UNL     1      11.615  -7.117  -3.414  1.00  0.00     0.010 A 
ATOM     36  C   UNL     1      10.271  -8.084  -1.607  1.00  0.00     0.010 A 
ATOM     37  C   UNL     1      11.042  -8.211  -2.767  1.00  0.00    -0.014 A 
BRANCH  37  38
ATOM     38  C   UNL     1      11.460  -9.525  -3.202  1.00  0.00     0.031 A 
ATOM     39  C   UNL     1      12.847  -9.859  -2.795  1.00  0.00     0.074 A 
ATOM     40  C   UNL     1      10.604 -10.414  -3.728  1.00  0.00     0.049 A 
ATOM     41  N   UNL     1      13.858 -10.148  -3.545  1.00  0.00    -0.248 NA
ATOM     42  C   UNL     1      13.176  -9.703  -1.367  1.00  0.00     0.031 C 
ATOM     43  C   UNL     1       9.152 -10.280  -3.853  1.00  0.00     0.029 A 
ATOM     44  N   UNL     1      10.846 -11.693  -4.114  1.00  0.00    -0.354 N 
ATOM     45  C   UNL     1      14.913 -10.381  -2.666  1.00  0.00     0.074 A 
ATOM     46  C   UNL     1      14.492  -9.899  -1.378  1.00  0.00     0.031 C 
ATOM     47  C   UNL     1       8.620 -11.506  -4.050  1.00  0.00     0.029 A 
ATOM     48  C   UNL     1       9.703 -12.470  -4.180  1.00  0.00     0.049 A 
ATOM     49  H   UNL     1      11.745 -12.034  -4.325  1.00  0.00     0.167 HD
ATOM     50  C   UNL     1      15.944 -11.207  -2.987  1.00  0.00     0.031 A 
ATOM     51  C   UNL     1       9.655 -13.819  -4.245  1.00  0.00     0.031 A 
ATOM     52  C   UNL     1      16.003 -11.465  -4.400  1.00  0.00     0.049 A 
ATOM     53  C   UNL     1      10.992 -14.313  -4.645  1.00  0.00     0.074 A 
ATOM     54  C   UNL     1      16.235 -10.716  -5.533  1.00  0.00     0.029 A 
ATOM     55  N   UNL     1      15.443 -12.648  -4.817  1.00  0.00    -0.354 N 
ATOM     56  N   UNL     1      11.505 -14.127  -5.826  1.00  0.00    -0.248 NA
ATOM     57  C   UNL     1      11.944 -14.704  -3.614  1.00  0.00     0.031 C 
ATOM     58  C   UNL     1      15.458 -11.331  -6.558  1.00  0.00     0.029 A 
ATOM     59  C   UNL     1      14.804 -12.436  -6.007  1.00  0.00     0.049 A 
ATOM     60  H   UNL     1      15.494 -13.507  -4.338  1.00  0.00     0.167 HD
ATOM     61  C   UNL     1      12.863 -13.954  -5.602  1.00  0.00     0.074 A 
ATOM     62  C   UNL     1      13.091 -14.480  -4.261  1.00  0.00     0.031 C 
ATOM     63  C   UNL     1      13.602 -13.136  -6.408  1.00  0.00     0.031 A 
BRANCH  50  64
ATOM     64  C   UNL     1      16.587 -12.141  -1.984  1.00  0.00    -0.014 A 
ATOM     65  C   UNL     1      17.622 -12.984  -2.427  1.00  0.00     0.009 A 
ATOM     66  C   UNL     1      16.032 -12.441  -0.724  1.00  0.00     0.009 A 
ATOM     67  C   UNL     1      18.008 -14.113  -1.694  1.00  0.00     0.001 A 
ATOM     68  C   UNL     1      16.446 -13.539   0.033  1.00  0.00     0.001 A 
ATOM     69  C   UNL     1      17.412 -14.396  -0.469  1.00  0.00     0.000 A 
ENDBRANCH  50  64
BRANCH  51  70
ATOM     70  C   UNL     1       8.586 -14.713  -3.763  1.00  0.00    -0.014 A 
ATOM     71  C   UNL     1       8.444 -16.006  -4.281  1.00  0.00     0.009 A 
ATOM     72  C   UNL     1       7.832 -14.368  -2.626  1.00  0.00     0.009 A 
ATOM     73  C   UNL     1       7.590 -16.931  -3.667  1.00  0.00     0.001 A 
ATOM     74  C   UNL     1       6.975 -15.289  -2.017  1.00  0.00     0.001 A 
ATOM     75  C   UNL     1       6.864 -16.575  -2.531  1.00  0.00     0.000 A 
ENDBRANCH  51  70
BRANCH  63  76
ATOM     76  C   UNL     1      12.978 -12.708  -7.710  1.00  0.00    -0.014 A 
ATOM     77  C   UNL     1      11.819 -11.914  -7.771  1.00  0.00     0.009 A 
ATOM     78  C   UNL     1      13.648 -13.005  -8.905  1.00  0.00     0.009 A 
ATOM     79  C   UNL     1      11.325 -11.462  -8.997  1.00  0.00     0.001 A 
ATOM     80  C   UNL     1      13.167 -12.534 -10.128  1.00  0.00     0.001 A 
ATOM     81  C   UNL     1      12.002 -11.769 -10.175  1.00  0.00     0.000 A 
ENDBRANCH  63  76
ENDBRANCH  37  38
ENDBRANCH  30  32
ENDBRANCH  29  30
ENDBRANCH  28  29
ENDBRANCH   1  28
TORSDOF 16
