REMARK SMILES Cc1ccc(Cl)c2c1N[C@@H](c1ccc(C(=O)OCCOC(=O)c3ccc(-c4c5nc(c(-c6ccccc6)c6ccc([nH]6)c(-c6ccccc6)c6nc(c(-c7ccccc7)c7ccc4[nH]7)C=C6)C=C5)cc3)cc1)[C@H]1CC=C[C@@H]21
REMARK SMILES IDX 19 1 18 2 17 3 15 4 16 5 14 6 11 7 12 8 72 9 13 10 71 11
REMARK SMILES IDX 10 12 1 13 2 14 3 15 8 16 4 17 7 18 9 19 5 20 77 21 6 23
REMARK SMILES IDX 73 24 76 25 74 26 75 27 20 28 21 29 22 30 23 31 24 32 70 33
REMARK SMILES IDX 25 34 69 35 26 36 27 37 28 38 63 39 29 40 68 41 62 42 64 43
REMARK SMILES IDX 30 44 67 45 61 46 60 47 31 49 53 50 38 51 52 52 39 53 42 54
REMARK SMILES IDX 51 55 65 56 40 57 41 58 50 60 66 61 43 62 32 63 33 64 37 65
REMARK SMILES IDX 34 66 36 67 35 68 54 69 55 70 59 71 56 72 58 73 57 74 44 75
REMARK SMILES IDX 45 76 49 77 46 78 48 79 47 80
REMARK H PARENT 9 22 64 48 42 59
REMARK Flexibility Score: inf
ROOT
ATOM      1  C   UNL     1       1.818   6.341  -7.881  1.00  0.00     0.275 C 
ENDROOT
BRANCH   1   2
ATOM      2  C   UNL     1       2.098   7.414  -6.832  1.00  0.00     0.275 C 
BRANCH   2   3
ATOM      3  O   UNL     1       2.624   6.800  -5.641  1.00  0.00    -0.458 OA
BRANCH   3   4
ATOM      4  C   UNL     1       1.711   6.601  -4.658  1.00  0.00     0.338 C 
ATOM      5  O   UNL     1       0.565   7.005  -4.644  1.00  0.00    -0.246 OA
BRANCH   4   6
ATOM      6  C   UNL     1       2.252   5.696  -3.617  1.00  0.00     0.060 A 
ATOM      7  C   UNL     1       3.080   4.082  -1.455  1.00  0.00    -0.025 A 
ATOM      8  C   UNL     1       1.736   4.138  -1.846  1.00  0.00     0.007 A 
ATOM      9  C   UNL     1       4.020   4.762  -2.255  1.00  0.00     0.007 A 
ATOM     10  C   UNL     1       1.322   4.969  -2.877  1.00  0.00     0.016 A 
ATOM     11  C   UNL     1       3.611   5.562  -3.333  1.00  0.00     0.016 A 
BRANCH   7  12
ATOM     12  C   UNL     1       3.504   3.461  -0.118  1.00  0.00     0.114 C 
ATOM     13  C   UNL     1       0.995  -0.084   0.005  1.00  0.00     0.046 C 
ATOM     14  C   UNL     1       0.600   1.214   0.661  1.00  0.00    -0.027 A 
ATOM     15  C   UNL     1      -0.723   1.338   1.110  1.00  0.00     0.007 A 
ATOM     16  C   UNL     1       1.480   2.318   0.756  1.00  0.00     0.043 A 
ATOM     17  C   UNL     1      -1.161   2.515   1.702  1.00  0.00     0.021 A 
ATOM     18  C   UNL     1       1.046   3.510   1.395  1.00  0.00     0.001 A 
ATOM     19  N   UNL     1       2.748   2.248   0.178  1.00  0.00    -0.377 N 
ATOM     20  C   UNL     1      -0.281   3.583   1.867  1.00  0.00     0.046 A 
ATOM     21  C   UNL     1       2.012   4.658   1.594  1.00  0.00     0.051 C 
ATOM     22  H   UNL     1       3.138   1.369  -0.034  1.00  0.00     0.161 HD
ATOM     23  Cl  UNL     1      -0.904   4.976   2.685  1.00  0.00    -0.084 Cl
ATOM     24  C   UNL     1       3.458   4.381   1.130  1.00  0.00     0.031 C 
ATOM     25  C   UNL     1       1.724   5.955   0.875  1.00  0.00    -0.023 C 
ATOM     26  C   UNL     1       4.055   5.782   0.917  1.00  0.00     0.034 C 
ATOM     27  C   UNL     1       2.855   6.584   0.528  1.00  0.00    -0.030 C 
ENDBRANCH   7  12
ENDBRANCH   4   6
ENDBRANCH   3   4
ENDBRANCH   2   3
ENDBRANCH   1   2
BRANCH   1  28
ATOM     28  O   UNL     1       0.745   5.487  -7.439  1.00  0.00    -0.458 OA
BRANCH  28  29
ATOM     29  C   UNL     1       1.064   4.188  -7.241  1.00  0.00     0.338 C 
ATOM     30  O   UNL     1       2.142   3.649  -7.435  1.00  0.00    -0.246 OA
BRANCH  29  31
ATOM     31  C   UNL     1      -0.113   3.447  -6.755  1.00  0.00     0.060 A 
ATOM     32  C   UNL     1      -0.737   3.823  -5.566  1.00  0.00     0.016 A 
ATOM     33  C   UNL     1      -0.518   2.290  -7.420  1.00  0.00     0.016 A 
ATOM     34  C   UNL     1      -1.688   2.987  -4.981  1.00  0.00     0.010 A 
ATOM     35  C   UNL     1      -1.543   1.505  -6.883  1.00  0.00     0.010 A 
ATOM     36  C   UNL     1      -2.107   1.818  -5.634  1.00  0.00    -0.014 A 
BRANCH  36  37
ATOM     37  C   UNL     1      -3.093   0.900  -5.000  1.00  0.00     0.031 A 
ATOM     38  C   UNL     1      -2.703  -0.518  -4.667  1.00  0.00     0.074 A 
ATOM     39  C   UNL     1      -4.337   1.327  -4.702  1.00  0.00     0.049 A 
ATOM     40  N   UNL     1      -3.454  -1.504  -4.245  1.00  0.00    -0.248 NA
ATOM     41  C   UNL     1      -1.284  -0.876  -4.832  1.00  0.00     0.031 C 
ATOM     42  C   UNL     1      -4.840   2.686  -4.905  1.00  0.00     0.029 A 
ATOM     43  N   UNL     1      -5.403   0.658  -4.149  1.00  0.00    -0.354 N 
ATOM     44  C   UNL     1      -2.611  -2.602  -4.132  1.00  0.00     0.074 A 
ATOM     45  C   UNL     1      -1.293  -2.169  -4.538  1.00  0.00     0.031 C 
ATOM     46  C   UNL     1      -6.099   2.762  -4.446  1.00  0.00     0.029 A 
ATOM     47  C   UNL     1      -6.519   1.442  -3.987  1.00  0.00     0.049 A 
ATOM     48  H   UNL     1      -5.369  -0.292  -3.894  1.00  0.00     0.167 HD
ATOM     49  C   UNL     1      -2.907  -3.858  -3.721  1.00  0.00     0.031 A 
ATOM     50  C   UNL     1      -7.755   1.134  -3.549  1.00  0.00     0.031 A 
ATOM     51  C   UNL     1      -4.205  -4.289  -3.281  1.00  0.00     0.049 A 
ATOM     52  C   UNL     1      -8.080  -0.282  -3.172  1.00  0.00     0.074 A 
ATOM     53  C   UNL     1      -4.590  -5.545  -2.843  1.00  0.00     0.029 A 
ATOM     54  N   UNL     1      -5.324  -3.477  -3.209  1.00  0.00    -0.354 N 
ATOM     55  N   UNL     1      -7.287  -1.323  -3.131  1.00  0.00    -0.248 NA
ATOM     56  C   UNL     1      -9.475  -0.571  -2.805  1.00  0.00     0.031 C 
ATOM     57  C   UNL     1      -5.953  -5.501  -2.537  1.00  0.00     0.029 A 
ATOM     58  C   UNL     1      -6.404  -4.208  -2.748  1.00  0.00     0.049 A 
ATOM     59  H   UNL     1      -5.347  -2.522  -3.449  1.00  0.00     0.167 HD
ATOM     60  C   UNL     1      -8.082  -2.389  -2.732  1.00  0.00     0.074 A 
ATOM     61  C   UNL     1      -9.417  -1.868  -2.530  1.00  0.00     0.031 C 
ATOM     62  C   UNL     1      -7.729  -3.684  -2.555  1.00  0.00     0.031 A 
BRANCH  49  63
ATOM     63  C   UNL     1      -1.807  -4.879  -3.739  1.00  0.00    -0.014 A 
ATOM     64  C   UNL     1      -0.833  -4.912  -2.731  1.00  0.00     0.009 A 
ATOM     65  C   UNL     1      -1.800  -5.874  -4.730  1.00  0.00     0.009 A 
ATOM     66  C   UNL     1       0.136  -5.917  -2.721  1.00  0.00     0.001 A 
ATOM     67  C   UNL     1      -0.842  -6.888  -4.706  1.00  0.00     0.001 A 
ATOM     68  C   UNL     1       0.127  -6.907  -3.704  1.00  0.00     0.000 A 
ENDBRANCH  49  63
BRANCH  50  69
ATOM     69  C   UNL     1      -8.788   2.198  -3.476  1.00  0.00    -0.014 A 
ATOM     70  C   UNL     1      -9.173   2.727  -2.235  1.00  0.00     0.009 A 
ATOM     71  C   UNL     1      -9.359   2.721  -4.647  1.00  0.00     0.009 A 
ATOM     72  C   UNL     1     -10.108   3.762  -2.170  1.00  0.00     0.001 A 
ATOM     73  C   UNL     1     -10.277   3.770  -4.579  1.00  0.00     0.001 A 
ATOM     74  C   UNL     1     -10.652   4.288  -3.341  1.00  0.00     0.000 A 
ENDBRANCH  50  69
BRANCH  62  75
ATOM     75  C   UNL     1      -8.791  -4.646  -2.113  1.00  0.00    -0.014 A 
ATOM     76  C   UNL     1      -9.700  -5.181  -3.036  1.00  0.00     0.009 A 
ATOM     77  C   UNL     1      -8.806  -5.109  -0.788  1.00  0.00     0.009 A 
ATOM     78  C   UNL     1     -10.609  -6.163  -2.639  1.00  0.00     0.001 A 
ATOM     79  C   UNL     1      -9.704  -6.104  -0.399  1.00  0.00     0.001 A 
ATOM     80  C   UNL     1     -10.604  -6.630  -1.324  1.00  0.00     0.000 A 
ENDBRANCH  62  75
ENDBRANCH  36  37
ENDBRANCH  29  31
ENDBRANCH  28  29
ENDBRANCH   1  28
TORSDOF 12
