REMARK SMILES O=C(OCCOC(=O)c1cccnc1SCC(=O)c1ccccc1Cl)c1ccc(-c2c3nc(c(-c4ccccc4)c4ccc([nH]4)c(-c4ccccc4)c4nc(c(-c5ccccc5)c5ccc2[nH]5)C=C4)C=C3)cc1
REMARK SMILES IDX 5 1 4 2 3 3 2 4 1 5 26 6 27 7 73 8 28 9 72 10 29 11 30 12
REMARK SMILES IDX 31 13 66 14 32 15 71 16 65 17 67 18 33 19 70 20 64 21 63 22
REMARK SMILES IDX 34 24 56 25 41 26 55 27 42 28 45 29 54 30 68 31 43 32 44 33
REMARK SMILES IDX 53 35 69 36 46 37 35 38 36 39 40 40 37 41 39 42 38 43 57 44
REMARK SMILES IDX 58 45 62 46 59 47 61 48 60 49 47 50 48 51 52 52 49 53 51 54
REMARK SMILES IDX 50 55 6 56 7 57 8 58 9 59 10 60 14 61 11 62 13 63 12 64
REMARK SMILES IDX 15 65 16 66 17 67 18 68 19 69 20 70 24 71 21 72 23 73 25 74
REMARK SMILES IDX 22 75
REMARK H PARENT 67 23 45 34
REMARK Flexibility Score: inf
ROOT
ATOM      1  C   UNL     1       3.971  -1.204   1.498  1.00  0.00     0.275 C 
ENDROOT
BRANCH   1   2
ATOM      2  C   UNL     1       4.563   0.178   1.808  1.00  0.00     0.275 C 
BRANCH   2   3
ATOM      3  O   UNL     1       5.369   0.643   0.718  1.00  0.00    -0.458 OA
BRANCH   3   4
ATOM      4  C   UNL     1       4.661   1.180  -0.303  1.00  0.00     0.338 C 
ATOM      5  O   UNL     1       3.761   2.005  -0.201  1.00  0.00    -0.246 OA
BRANCH   4   6
ATOM      6  C   UNL     1       5.004   0.426  -1.536  1.00  0.00     0.060 A 
ATOM      7  C   UNL     1       6.027  -0.532  -1.530  1.00  0.00     0.016 A 
ATOM      8  C   UNL     1       4.171   0.538  -2.650  1.00  0.00     0.016 A 
ATOM      9  C   UNL     1       6.192  -1.386  -2.610  1.00  0.00     0.010 A 
ATOM     10  C   UNL     1       4.262  -0.387  -3.686  1.00  0.00     0.010 A 
ATOM     11  C   UNL     1       5.305  -1.322  -3.688  1.00  0.00    -0.014 A 
BRANCH  11  12
ATOM     12  C   UNL     1       5.627  -2.076  -4.911  1.00  0.00     0.031 A 
ATOM     13  C   UNL     1       6.187  -1.296  -6.064  1.00  0.00     0.074 A 
ATOM     14  C   UNL     1       5.505  -3.415  -4.951  1.00  0.00     0.049 A 
ATOM     15  N   UNL     1       6.675  -1.734  -7.193  1.00  0.00    -0.248 NA
ATOM     16  C   UNL     1       6.225   0.172  -5.922  1.00  0.00     0.031 C 
ATOM     17  C   UNL     1       5.014  -4.259  -3.861  1.00  0.00     0.029 A 
ATOM     18  N   UNL     1       5.787  -4.303  -5.955  1.00  0.00    -0.354 N 
ATOM     19  C   UNL     1       7.108  -0.600  -7.867  1.00  0.00     0.074 A 
ATOM     20  C   UNL     1       6.744   0.549  -7.076  1.00  0.00     0.031 C 
ATOM     21  C   UNL     1       4.982  -5.539  -4.273  1.00  0.00     0.029 A 
ATOM     22  C   UNL     1       5.467  -5.602  -5.647  1.00  0.00     0.049 A 
ATOM     23  H   UNL     1       6.182  -4.035  -6.816  1.00  0.00     0.167 HD
ATOM     24  C   UNL     1       7.801  -0.526  -9.023  1.00  0.00     0.031 A 
ATOM     25  C   UNL     1       5.561  -6.712  -6.403  1.00  0.00     0.031 A 
ATOM     26  C   UNL     1       8.146  -1.678  -9.800  1.00  0.00     0.049 A 
ATOM     27  C   UNL     1       6.215  -6.593  -7.753  1.00  0.00     0.074 A 
ATOM     28  C   UNL     1       8.878  -1.747 -10.968  1.00  0.00     0.029 A 
ATOM     29  N   UNL     1       7.754  -2.970  -9.482  1.00  0.00    -0.354 N 
ATOM     30  N   UNL     1       6.721  -5.528  -8.329  1.00  0.00    -0.248 NA
ATOM     31  C   UNL     1       6.353  -7.826  -8.537  1.00  0.00     0.031 C 
ATOM     32  C   UNL     1       8.880  -3.080 -11.389  1.00  0.00     0.029 A 
ATOM     33  C   UNL     1       8.191  -3.844 -10.457  1.00  0.00     0.049 A 
ATOM     34  H   UNL     1       7.242  -3.226  -8.681  1.00  0.00     0.167 HD
ATOM     35  C   UNL     1       7.279  -5.968  -9.521  1.00  0.00     0.074 A 
ATOM     36  C   UNL     1       7.045  -7.398  -9.585  1.00  0.00     0.031 C 
ATOM     37  C   UNL     1       7.939  -5.262 -10.472  1.00  0.00     0.031 A 
BRANCH  24  38
ATOM     38  C   UNL     1       8.204   0.843  -9.485  1.00  0.00    -0.014 A 
ATOM     39  C   UNL     1       9.194   1.574  -8.806  1.00  0.00     0.009 A 
ATOM     40  C   UNL     1       7.555   1.430 -10.579  1.00  0.00     0.009 A 
ATOM     41  C   UNL     1       9.496   2.882  -9.189  1.00  0.00     0.001 A 
ATOM     42  C   UNL     1       7.877   2.729 -10.976  1.00  0.00     0.001 A 
ATOM     43  C   UNL     1       8.837   3.457 -10.275  1.00  0.00     0.000 A 
ENDBRANCH  24  38
BRANCH  25  44
ATOM     44  C   UNL     1       5.028  -8.010  -5.909  1.00  0.00    -0.014 A 
ATOM     45  C   UNL     1       5.881  -9.070  -5.569  1.00  0.00     0.009 A 
ATOM     46  C   UNL     1       3.640  -8.200  -5.798  1.00  0.00     0.009 A 
ATOM     47  C   UNL     1       5.356 -10.301  -5.161  1.00  0.00     0.001 A 
ATOM     48  C   UNL     1       3.118  -9.422  -5.367  1.00  0.00     0.001 A 
ATOM     49  C   UNL     1       3.976 -10.475  -5.059  1.00  0.00     0.000 A 
ENDBRANCH  25  44
BRANCH  37  50
ATOM     50  C   UNL     1       8.477  -6.031 -11.639  1.00  0.00    -0.014 A 
ATOM     51  C   UNL     1       7.628  -6.487 -12.657  1.00  0.00     0.009 A 
ATOM     52  C   UNL     1       9.863  -6.224 -11.758  1.00  0.00     0.009 A 
ATOM     53  C   UNL     1       8.158  -7.140 -13.770  1.00  0.00     0.001 A 
ATOM     54  C   UNL     1      10.390  -6.852 -12.885  1.00  0.00     0.001 A 
ATOM     55  C   UNL     1       9.537  -7.313 -13.886  1.00  0.00     0.000 A 
ENDBRANCH  37  50
ENDBRANCH  11  12
ENDBRANCH   4   6
ENDBRANCH   3   4
ENDBRANCH   2   3
ENDBRANCH   1   2
BRANCH   1  56
ATOM     56  O   UNL     1       3.220  -1.207   0.268  1.00  0.00    -0.458 OA
BRANCH  56  57
ATOM     57  C   UNL     1       2.323  -2.211   0.161  1.00  0.00     0.341 C 
ATOM     58  O   UNL     1       2.082  -3.063   1.005  1.00  0.00    -0.246 OA
BRANCH  57  59
ATOM     59  C   UNL     1       1.807  -2.339  -1.211  1.00  0.00     0.092 A 
ATOM     60  C   UNL     1       1.988  -3.620  -1.768  1.00  0.00     0.020 A 
ATOM     61  C   UNL     1       1.211  -1.348  -1.990  1.00  0.00     0.111 A 
ATOM     62  C   UNL     1       1.625  -3.877  -3.081  1.00  0.00     0.021 A 
ATOM     63  N   UNL     1       0.839  -1.612  -3.280  1.00  0.00    -0.249 NA
ATOM     64  C   UNL     1       1.060  -2.845  -3.795  1.00  0.00     0.112 A 
BRANCH  61  65
ATOM     65  S   UNL     1       1.111   0.394  -1.645  1.00  0.00    -0.097 SA
BRANCH  65  66
ATOM     66  C   UNL     1      -0.125   0.707  -0.380  1.00  0.00     0.157 C 
BRANCH  66  67
ATOM     67  C   UNL     1      -0.088  -0.221   0.794  1.00  0.00     0.174 C 
ATOM     68  O   UNL     1       0.884  -0.254   1.551  1.00  0.00    -0.293 OA
BRANCH  67  69
ATOM     69  C   UNL     1      -1.308  -0.981   1.176  1.00  0.00     0.037 A 
ATOM     70  C   UNL     1      -1.467  -1.188   2.559  1.00  0.00     0.013 A 
ATOM     71  C   UNL     1      -2.301  -1.445   0.303  1.00  0.00     0.051 A 
ATOM     72  C   UNL     1      -2.623  -1.777   3.066  1.00  0.00     0.001 A 
ATOM     73  C   UNL     1      -3.468  -2.016   0.823  1.00  0.00     0.021 A 
ATOM     74  Cl  UNL     1      -2.187  -1.442  -1.418  1.00  0.00    -0.084 Cl
ATOM     75  C   UNL     1      -3.634  -2.170   2.198  1.00  0.00     0.002 A 
ENDBRANCH  67  69
ENDBRANCH  66  67
ENDBRANCH  65  66
ENDBRANCH  61  65
ENDBRANCH  57  59
ENDBRANCH  56  57
ENDBRANCH   1  56
TORSDOF 15
