REMARK SMILES C[C@@H]1CCC[C@H](C)[N@H+]1Cc1cc2c(cc1Cl)C=C(C(=O)OCCOC(=O)c1ccc(-c3c4nc(c(-c5ccccc5)c5ccc([nH]5)c(-c5ccccc5)c5nc(c(-c6ccccc6)c6ccc3[nH]6)C=C5)C=C4)cc1)[C@@H](C(F)(F)F)O2
REMARK SMILES IDX 22 1 21 2 19 3 20 4 18 5 10 6 11 7 15 8 12 9 14 10 16 11
REMARK SMILES IDX 13 12 80 13 17 14 75 15 9 16 8 17 7 18 6 19 5 20 4 21 2 22
REMARK SMILES IDX 3 24 1 25 76 26 77 27 78 28 79 29 23 30 24 31 25 32 26 33
REMARK SMILES IDX 27 34 28 35 74 36 29 37 73 38 30 39 31 40 32 41 67 42 33 43
REMARK SMILES IDX 72 44 66 45 68 46 34 47 71 48 65 49 64 50 35 52 57 53 42 54
REMARK SMILES IDX 56 55 43 56 46 57 55 58 69 59 44 60 45 61 54 63 70 64 47 65
REMARK SMILES IDX 36 66 37 67 41 68 38 69 40 70 39 71 58 72 59 73 63 74 60 75
REMARK SMILES IDX 62 76 61 77 48 78 49 79 53 80 50 81 52 82 51 83
REMARK H PARENT 8 23 68 51 46 62
REMARK Flexibility Score: inf
ROOT
ATOM      1  C   UNL     1      -8.381   0.741   6.123  1.00  0.00     0.275 C 
ENDROOT
BRANCH   1   2
ATOM      2  O   UNL     1      -7.027   0.333   5.825  1.00  0.00    -0.459 OA
BRANCH   2   3
ATOM      3  C   UNL     1      -6.901  -0.922   5.330  1.00  0.00     0.338 C 
ATOM      4  O   UNL     1      -7.816  -1.693   5.091  1.00  0.00    -0.246 OA
BRANCH   3   5
ATOM      5  C   UNL     1      -5.489  -1.245   5.037  1.00  0.00     0.087 C 
ATOM      6  C   UNL     1      -1.265  -2.876   2.828  1.00  0.00     0.029 A 
ATOM      7  C   UNL     1      -1.544  -1.943   3.854  1.00  0.00     0.058 A 
ATOM      8  C   UNL     1      -2.310  -3.708   2.396  1.00  0.00     0.050 A 
ATOM      9  C   UNL     1      -2.849  -1.747   4.315  1.00  0.00     0.128 A 
ATOM     10  C   UNL     1      -3.619  -3.474   2.817  1.00  0.00     0.033 A 
ATOM     11  Cl  UNL     1      -2.077  -5.054   1.339  1.00  0.00    -0.084 Cl
ATOM     12  C   UNL     1      -3.891  -2.470   3.744  1.00  0.00     0.019 A 
ATOM     13  O   UNL     1      -3.050  -0.782   5.266  1.00  0.00    -0.475 OA
ATOM     14  C   UNL     1      -5.264  -2.135   4.062  1.00  0.00     0.027 C 
ATOM     15  C   UNL     1      -4.370  -0.714   5.890  1.00  0.00     0.316 C 
BRANCH   6  16
ATOM     16  C   UNL     1       0.114  -2.895   2.193  1.00  0.00     0.301 C 
BRANCH  16  17
ATOM     17  N   UNL     1       0.334  -1.990   1.040  1.00  0.00    -0.327 N 
ATOM     18  C   UNL     1       1.493   0.152   0.612  1.00  0.00     0.075 C 
ATOM     19  C   UNL     1       0.357  -0.556   1.366  1.00  0.00     0.181 C 
ATOM     20  C   UNL     1      -0.980   0.168   1.135  1.00  0.00     0.065 C 
ATOM     21  C   UNL     1      -1.602  -0.142  -0.219  1.00  0.00     0.012 C 
ATOM     22  C   UNL     1      -0.360  -2.373  -0.201  1.00  0.00     0.181 C 
ATOM     23  H   UNL     1       1.308  -2.157   0.788  1.00  0.00     0.348 HD
ATOM     24  C   UNL     1      -1.696  -1.647  -0.433  1.00  0.00     0.065 C 
ATOM     25  C   UNL     1       0.552  -2.235  -1.429  1.00  0.00     0.075 C 
ENDBRANCH  16  17
ENDBRANCH   6  16
BRANCH  15  26
ATOM     26  C   UNL     1      -4.370  -1.454   7.239  1.00  0.00     0.430 C 
ATOM     27  F   UNL     1      -3.369  -1.036   8.045  1.00  0.00    -0.167 F 
ATOM     28  F   UNL     1      -5.530  -1.242   7.911  1.00  0.00    -0.167 F 
ATOM     29  F   UNL     1      -4.239  -2.793   7.088  1.00  0.00    -0.167 F 
ENDBRANCH  15  26
ENDBRANCH   3   5
ENDBRANCH   2   3
ENDBRANCH   1   2
BRANCH   1  30
ATOM     30  C   UNL     1      -8.969   1.643   5.035  1.00  0.00     0.275 C 
BRANCH  30  31
ATOM     31  O   UNL     1      -9.117   0.930   3.793  1.00  0.00    -0.458 OA
BRANCH  31  32
ATOM     32  C   UNL     1      -8.261   1.281   2.810  1.00  0.00     0.338 C 
ATOM     33  O   UNL     1      -7.388   2.138   2.848  1.00  0.00    -0.246 OA
BRANCH  32  34
ATOM     34  C   UNL     1      -8.454   0.393   1.658  1.00  0.00     0.060 A 
ATOM     35  C   UNL     1      -9.161   0.798   0.529  1.00  0.00     0.016 A 
ATOM     36  C   UNL     1      -7.803  -0.838   1.672  1.00  0.00     0.016 A 
ATOM     37  C   UNL     1      -9.236  -0.062  -0.575  1.00  0.00     0.010 A 
ATOM     38  C   UNL     1      -7.815  -1.659   0.550  1.00  0.00     0.010 A 
ATOM     39  C   UNL     1      -8.551  -1.294  -0.583  1.00  0.00    -0.014 A 
BRANCH  39  40
ATOM     40  C   UNL     1      -8.569  -2.197  -1.768  1.00  0.00     0.031 A 
ATOM     41  C   UNL     1      -9.091  -3.608  -1.659  1.00  0.00     0.074 A 
ATOM     42  C   UNL     1      -8.039  -1.778  -2.935  1.00  0.00     0.049 A 
ATOM     43  N   UNL     1      -9.152  -4.538  -2.581  1.00  0.00    -0.248 NA
ATOM     44  C   UNL     1      -9.568  -4.048  -0.339  1.00  0.00     0.031 C 
ATOM     45  C   UNL     1      -7.417  -0.472  -3.158  1.00  0.00     0.029 A 
ATOM     46  N   UNL     1      -7.941  -2.405  -4.153  1.00  0.00    -0.354 N 
ATOM     47  C   UNL     1      -9.633  -5.675  -1.943  1.00  0.00     0.074 A 
ATOM     48  C   UNL     1      -9.803  -5.336  -0.548  1.00  0.00     0.031 C 
ATOM     49  C   UNL     1      -7.056  -0.372  -4.446  1.00  0.00     0.029 A 
ATOM     50  C   UNL     1      -7.382  -1.619  -5.132  1.00  0.00     0.049 A 
ATOM     51  H   UNL     1      -8.242  -3.329  -4.310  1.00  0.00     0.167 HD
ATOM     52  C   UNL     1      -9.932  -6.885  -2.473  1.00  0.00     0.031 A 
ATOM     53  C   UNL     1      -7.162  -1.862  -6.439  1.00  0.00     0.031 A 
ATOM     54  C   UNL     1      -9.823  -7.202  -3.872  1.00  0.00     0.049 A 
ATOM     55  C   UNL     1      -7.561  -3.186  -7.025  1.00  0.00     0.074 A 
ATOM     56  C   UNL     1     -10.230  -8.354  -4.523  1.00  0.00     0.029 A 
ATOM     57  N   UNL     1      -9.272  -6.369  -4.832  1.00  0.00    -0.354 N 
ATOM     58  N   UNL     1      -8.111  -4.214  -6.428  1.00  0.00    -0.248 NA
ATOM     59  C   UNL     1      -7.316  -3.384  -8.461  1.00  0.00     0.031 C 
ATOM     60  C   UNL     1      -9.874  -8.240  -5.869  1.00  0.00     0.029 A 
ATOM     61  C   UNL     1      -9.299  -6.995  -6.066  1.00  0.00     0.049 A 
ATOM     62  H   UNL     1      -8.915  -5.468  -4.661  1.00  0.00     0.167 HD
ATOM     63  C   UNL     1      -8.286  -5.178  -7.412  1.00  0.00     0.074 A 
ATOM     64  C   UNL     1      -7.800  -4.606  -8.651  1.00  0.00     0.031 C 
ATOM     65  C   UNL     1      -8.801  -6.425  -7.292  1.00  0.00     0.031 A 
BRANCH  52  66
ATOM     66  C   UNL     1     -10.429  -7.963  -1.546  1.00  0.00    -0.014 A 
ATOM     67  C   UNL     1      -9.655  -9.117  -1.341  1.00  0.00     0.009 A 
ATOM     68  C   UNL     1     -11.691  -7.880  -0.938  1.00  0.00     0.009 A 
ATOM     69  C   UNL     1     -10.132 -10.161  -0.545  1.00  0.00     0.001 A 
ATOM     70  C   UNL     1     -12.152  -8.911  -0.117  1.00  0.00     0.001 A 
ATOM     71  C   UNL     1     -11.376 -10.053   0.073  1.00  0.00     0.000 A 
ENDBRANCH  52  66
BRANCH  53  72
ATOM     72  C   UNL     1      -6.583  -0.783  -7.281  1.00  0.00    -0.014 A 
ATOM     73  C   UNL     1      -5.236  -0.411  -7.147  1.00  0.00     0.009 A 
ATOM     74  C   UNL     1      -7.406  -0.051  -8.150  1.00  0.00     0.009 A 
ATOM     75  C   UNL     1      -4.733   0.692  -7.840  1.00  0.00     0.001 A 
ATOM     76  C   UNL     1      -6.895   1.038  -8.860  1.00  0.00     0.001 A 
ATOM     77  C   UNL     1      -5.563   1.416  -8.695  1.00  0.00     0.000 A 
ENDBRANCH  53  72
BRANCH  65  78
ATOM     78  C   UNL     1      -8.866  -7.286  -8.521  1.00  0.00    -0.014 A 
ATOM     79  C   UNL     1     -10.111  -7.598  -9.091  1.00  0.00     0.009 A 
ATOM     80  C   UNL     1      -7.711  -7.895  -9.032  1.00  0.00     0.009 A 
ATOM     81  C   UNL     1     -10.202  -8.523 -10.132  1.00  0.00     0.001 A 
ATOM     82  C   UNL     1      -7.802  -8.801 -10.091  1.00  0.00     0.001 A 
ATOM     83  C   UNL     1      -9.047  -9.123 -10.631  1.00  0.00     0.000 A 
ENDBRANCH  65  78
ENDBRANCH  39  40
ENDBRANCH  32  34
ENDBRANCH  31  32
ENDBRANCH  30  31
ENDBRANCH   1  30
TORSDOF 14
