REMARK SMILES Cc1coc2cc3c(cc12)[C@@H](C)[C@H](CCC(=O)N[C@@H](Cc1c[nH]c2ccccc12)C(=O)OCCOC(=O)c1ccc(-c2c4nc(c(-c5ccccc5)c5ccc([nH]5)c(-c5ccccc5)c5nc(c(-c6ccccc6)c6ccc2[nH]6)C=C5)C=C4)cc1)C(=O)O3
REMARK SMILES IDX 33 1 32 2 30 3 31 4 19 5 18 6 16 7 17 8 15 10 14 11 13 12
REMARK SMILES IDX 1 13 2 14 3 15 10 16 4 17 5 18 9 19 6 20 8 21 7 22 11 23
REMARK SMILES IDX 88 24 12 25 86 26 87 27 20 28 21 29 22 30 29 31 23 32 24 33
REMARK SMILES IDX 28 34 25 36 27 37 26 38 34 39 35 40 36 41 37 42 38 43 39 44
REMARK SMILES IDX 85 45 40 46 84 47 41 48 42 49 43 50 78 51 44 52 83 53 77 54
REMARK SMILES IDX 79 55 45 56 82 57 76 58 75 59 46 61 68 62 53 63 67 64 54 65
REMARK SMILES IDX 57 66 66 67 80 68 55 69 56 70 65 72 81 73 58 74 47 75 48 76
REMARK SMILES IDX 52 77 49 78 51 79 50 80 69 81 70 82 74 83 71 84 73 85 72 86
REMARK SMILES IDX 59 87 60 88 64 89 61 90 63 91 62 92
REMARK H PARENT 18 9 23 35 79 60 57 71
REMARK Flexibility Score: inf
ROOT
ATOM      1  C   UNL     1      -2.768   4.621  10.629  1.00  0.00     0.274 C 
ENDROOT
BRANCH   1   2
ATOM      2  O   UNL     1      -2.800   4.455   9.197  1.00  0.00    -0.461 OA
BRANCH   2   3
ATOM      3  C   UNL     1      -2.624   3.184   8.753  1.00  0.00     0.329 C 
ATOM      4  O   UNL     1      -2.425   2.215   9.479  1.00  0.00    -0.250 OA
BRANCH   3   5
ATOM      5  C   UNL     1      -2.610   3.080   7.224  1.00  0.00     0.196 C 
BRANCH   5   6
ATOM      6  N   UNL     1      -3.208   4.232   6.529  1.00  0.00    -0.342 N 
ATOM      7  C   UNL     1      -4.288   4.444   5.725  1.00  0.00     0.220 C 
ATOM      8  O   UNL     1      -4.551   5.627   5.474  1.00  0.00    -0.275 OA
ATOM      9  H   UNL     1      -2.697   5.059   6.683  1.00  0.00     0.164 HD
BRANCH   7  10
ATOM     10  C   UNL     1      -5.208   3.372   5.097  1.00  0.00     0.101 C 
BRANCH  10  11
ATOM     11  C   UNL     1      -4.746   2.321   4.071  1.00  0.00     0.026 C 
BRANCH  11  12
ATOM     12  C   UNL     1      -3.250   2.074   4.027  1.00  0.00     0.107 C 
ATOM     13  C   UNL     1       1.032  -0.059  -1.296  1.00  0.00     0.048 C 
ATOM     14  C   UNL     1       0.842   1.256  -0.651  1.00  0.00    -0.005 A 
ATOM     15  C   UNL     1       1.535   2.421  -0.911  1.00  0.00     0.199 A 
ATOM     16  C   UNL     1      -0.146   1.597   0.314  1.00  0.00     0.024 A 
ATOM     17  O   UNL     1       0.971   3.472  -0.271  1.00  0.00    -0.464 OA
ATOM     18  C   UNL     1      -0.089   2.981   0.414  1.00  0.00     0.137 A 
ATOM     19  C   UNL     1      -1.092   0.886   1.083  1.00  0.00     0.020 A 
ATOM     20  C   UNL     1      -1.008   3.749   1.091  1.00  0.00     0.095 A 
ATOM     21  C   UNL     1      -1.971   1.617   1.888  1.00  0.00    -0.001 A 
ATOM     22  C   UNL     1      -1.977   3.021   1.768  1.00  0.00     0.138 A 
ATOM     23  C   UNL     1      -2.787   0.988   3.012  1.00  0.00     0.034 C 
ATOM     24  O   UNL     1      -2.912   3.770   2.440  1.00  0.00    -0.426 OA
ATOM     25  C   UNL     1      -1.927  -0.011   3.798  1.00  0.00     0.014 C 
ATOM     26  C   UNL     1      -2.551   3.373   3.679  1.00  0.00     0.314 C 
ATOM     27  O   UNL     1      -1.723   3.970   4.349  1.00  0.00    -0.251 OA
ENDBRANCH  11  12
ENDBRANCH  10  11
ENDBRANCH   7  10
ENDBRANCH   5   6
BRANCH   5  28
ATOM     28  C   UNL     1      -1.200   2.587   6.811  1.00  0.00     0.074 C 
BRANCH  28  29
ATOM     29  C   UNL     1      -0.015   3.451   7.035  1.00  0.00    -0.020 A 
ATOM     30  C   UNL     1       0.735   4.085   6.066  1.00  0.00     0.087 A 
ATOM     31  C   UNL     1       0.648   3.681   8.277  1.00  0.00     0.003 A 
ATOM     32  N   UNL     1       1.671   4.855   6.693  1.00  0.00    -0.361 N 
ATOM     33  C   UNL     1       1.579   4.690   8.054  1.00  0.00     0.046 A 
ATOM     34  C   UNL     1       0.513   3.165   9.581  1.00  0.00     0.010 A 
ATOM     35  H   UNL     1       2.318   5.442   6.238  1.00  0.00     0.166 HD
ATOM     36  C   UNL     1       2.243   5.336   9.098  1.00  0.00     0.026 A 
ATOM     37  C   UNL     1       1.161   3.800  10.639  1.00  0.00     0.001 A 
ATOM     38  C   UNL     1       1.980   4.898  10.401  1.00  0.00     0.002 A 
ENDBRANCH  28  29
ENDBRANCH   5  28
ENDBRANCH   3   5
ENDBRANCH   2   3
ENDBRANCH   1   2
BRANCH   1  39
ATOM     39  C   UNL     1      -4.195   4.639  11.180  1.00  0.00     0.275 C 
BRANCH  39  40
ATOM     40  O   UNL     1      -4.730   3.300  11.132  1.00  0.00    -0.458 OA
BRANCH  40  41
ATOM     41  C   UNL     1      -5.746   3.089  10.265  1.00  0.00     0.338 C 
ATOM     42  O   UNL     1      -6.493   3.938   9.790  1.00  0.00    -0.246 OA
BRANCH  41  43
ATOM     43  C   UNL     1      -5.536   1.754   9.656  1.00  0.00     0.060 A 
ATOM     44  C   UNL     1      -5.066   0.629  10.336  1.00  0.00     0.016 A 
ATOM     45  C   UNL     1      -5.553   1.746   8.272  1.00  0.00     0.016 A 
ATOM     46  C   UNL     1      -4.430  -0.409   9.623  1.00  0.00     0.010 A 
ATOM     47  C   UNL     1      -4.903   0.730   7.579  1.00  0.00     0.010 A 
ATOM     48  C   UNL     1      -4.236  -0.303   8.243  1.00  0.00    -0.014 A 
BRANCH  48  49
ATOM     49  C   UNL     1      -3.531  -1.314   7.424  1.00  0.00     0.031 A 
ATOM     50  C   UNL     1      -4.468  -2.223   6.715  1.00  0.00     0.074 A 
ATOM     51  C   UNL     1      -2.212  -1.445   7.130  1.00  0.00     0.049 A 
ATOM     52  N   UNL     1      -4.710  -3.438   7.069  1.00  0.00    -0.248 NA
ATOM     53  C   UNL     1      -5.324  -1.737   5.627  1.00  0.00     0.031 C 
ATOM     54  C   UNL     1      -1.066  -0.630   7.511  1.00  0.00     0.029 A 
ATOM     55  N   UNL     1      -1.622  -2.348   6.279  1.00  0.00    -0.354 N 
ATOM     56  C   UNL     1      -5.680  -3.915   6.203  1.00  0.00     0.074 A 
ATOM     57  C   UNL     1      -6.142  -2.775   5.455  1.00  0.00     0.031 C 
ATOM     58  C   UNL     1      -0.010  -0.874   6.685  1.00  0.00     0.029 A 
ATOM     59  C   UNL     1      -0.316  -2.039   5.870  1.00  0.00     0.049 A 
ATOM     60  H   UNL     1      -2.087  -3.161   5.975  1.00  0.00     0.167 HD
ATOM     61  C   UNL     1      -5.912  -5.247   6.061  1.00  0.00     0.031 A 
ATOM     62  C   UNL     1       0.438  -2.724   4.961  1.00  0.00     0.031 A 
ATOM     63  C   UNL     1      -5.161  -6.013   7.026  1.00  0.00     0.049 A 
ATOM     64  C   UNL     1      -0.074  -4.113   4.998  1.00  0.00     0.074 A 
ATOM     65  C   UNL     1      -5.166  -6.086   8.406  1.00  0.00     0.029 A 
ATOM     66  N   UNL     1      -3.944  -6.515   6.623  1.00  0.00    -0.354 N 
ATOM     67  N   UNL     1       0.074  -4.884   6.034  1.00  0.00    -0.248 NA
ATOM     68  C   UNL     1      -1.109  -4.508   4.058  1.00  0.00     0.031 C 
ATOM     69  C   UNL     1      -3.791  -6.154   8.771  1.00  0.00     0.029 A 
ATOM     70  C   UNL     1      -3.031  -6.207   7.601  1.00  0.00     0.049 A 
ATOM     71  H   UNL     1      -3.762  -7.004   5.788  1.00  0.00     0.167 HD
ATOM     72  C   UNL     1      -1.134  -5.549   6.134  1.00  0.00     0.074 A 
ATOM     73  C   UNL     1      -1.769  -5.383   4.824  1.00  0.00     0.031 C 
ATOM     74  C   UNL     1      -1.640  -5.896   7.353  1.00  0.00     0.031 A 
BRANCH  61  75
ATOM     75  C   UNL     1      -6.586  -5.889   4.885  1.00  0.00    -0.014 A 
ATOM     76  C   UNL     1      -6.795  -5.253   3.649  1.00  0.00     0.009 A 
ATOM     77  C   UNL     1      -6.858  -7.267   4.941  1.00  0.00     0.009 A 
ATOM     78  C   UNL     1      -7.253  -5.948   2.527  1.00  0.00     0.001 A 
ATOM     79  C   UNL     1      -7.274  -7.976   3.810  1.00  0.00     0.001 A 
ATOM     80  C   UNL     1      -7.471  -7.316   2.603  1.00  0.00     0.000 A 
ENDBRANCH  61  75
BRANCH  62  81
ATOM     81  C   UNL     1       1.508  -2.372   3.984  1.00  0.00    -0.014 A 
ATOM     82  C   UNL     1       1.576  -1.092   3.414  1.00  0.00     0.009 A 
ATOM     83  C   UNL     1       2.252  -3.390   3.346  1.00  0.00     0.009 A 
ATOM     84  C   UNL     1       2.268  -0.862   2.213  1.00  0.00     0.001 A 
ATOM     85  C   UNL     1       2.943  -3.162   2.145  1.00  0.00     0.001 A 
ATOM     86  C   UNL     1       2.925  -1.902   1.561  1.00  0.00     0.000 A 
ENDBRANCH  62  81
BRANCH  74  87
ATOM     87  C   UNL     1      -0.789  -5.636   8.585  1.00  0.00    -0.014 A 
ATOM     88  C   UNL     1      -0.606  -6.671   9.510  1.00  0.00     0.009 A 
ATOM     89  C   UNL     1      -0.379  -4.344   8.964  1.00  0.00     0.009 A 
ATOM     90  C   UNL     1      -0.074  -6.416  10.779  1.00  0.00     0.001 A 
ATOM     91  C   UNL     1       0.171  -4.087  10.224  1.00  0.00     0.001 A 
ATOM     92  C   UNL     1       0.306  -5.124  11.139  1.00  0.00     0.000 A 
ENDBRANCH  74  87
ENDBRANCH  48  49
ENDBRANCH  41  43
ENDBRANCH  40  41
ENDBRANCH  39  40
ENDBRANCH   1  39
TORSDOF 17
