REMARK SMILES C#CCN(CC(=O)OCCOC(=O)c1ccc(-c2c3nc(c(-c4ccccc4)c4ccc([nH]4)c(-c4ccccc4)c4nc(c(-c5ccccc5)c5ccc2[nH]5)C=C4)C=C3)cc1)C(=O)[C@H](c1ccc(Cl)cc1)C(C)C
REMARK SMILES IDX 9 1 8 2 6 3 7 4 5 5 4 6 3 7 2 8 1 9 62 10 63 11 64 12 72 13
REMARK SMILES IDX 73 14 74 15 65 16 66 17 71 18 67 19 70 20 68 21 69 22 10 23
REMARK SMILES IDX 11 24 12 25 13 26 14 27 15 28 61 29 16 30 60 31 17 32 18 33
REMARK SMILES IDX 19 34 54 35 20 36 59 37 53 38 55 39 21 40 58 41 52 42 51 43
REMARK SMILES IDX 22 45 44 46 29 47 43 48 30 49 33 50 42 51 56 52 31 53 32 54
REMARK SMILES IDX 41 56 57 57 34 58 23 59 24 60 28 61 25 62 27 63 26 64 45 65
REMARK SMILES IDX 46 66 50 67 47 68 49 69 48 70 35 71 36 72 40 73 37 74 39 75
REMARK SMILES IDX 38 76
REMARK H PARENT 55 44 33 55
REMARK Flexibility Score: inf
ROOT
ATOM      1  C   UNL     1       2.226  -1.522  -0.697  1.00  0.00     0.274 C 
ENDROOT
BRANCH   1   2
ATOM      2  O   UNL     1       1.441  -2.710  -0.386  1.00  0.00    -0.461 OA
BRANCH   2   3
ATOM      3  C   UNL     1       0.476  -2.537   0.559  1.00  0.00     0.325 C 
ATOM      4  O   UNL     1       0.537  -1.684   1.446  1.00  0.00    -0.250 OA
BRANCH   3   5
ATOM      5  C   UNL     1      -0.724  -3.524   0.477  1.00  0.00     0.243 C 
BRANCH   5   6
ATOM      6  N   UNL     1      -1.073  -4.494  -0.621  1.00  0.00    -0.320 N 
BRANCH   6   7
ATOM      7  C   UNL     1      -0.830  -5.878  -0.198  1.00  0.00     0.210 C 
BRANCH   7   8
ATOM      8  C   UNL     1      -2.106  -6.581   0.044  1.00  0.00    -0.085 C 
ATOM      9  C   UNL     1      -3.139  -7.176   0.190  1.00  0.00     0.006 C 
ENDBRANCH   7   8
ENDBRANCH   6   7
BRANCH   6  10
ATOM     10  C   UNL     1      -1.569  -4.396  -1.942  1.00  0.00     0.231 C 
ATOM     11  O   UNL     1      -1.367  -5.404  -2.662  1.00  0.00    -0.274 OA
BRANCH  10  12
ATOM     12  C   UNL     1      -2.470  -3.314  -2.713  1.00  0.00     0.111 C 
BRANCH  12  13
ATOM     13  C   UNL     1      -3.996  -3.633  -2.772  1.00  0.00    -0.000 C 
ATOM     14  C   UNL     1      -4.762  -2.652  -3.679  1.00  0.00     0.008 C 
ATOM     15  C   UNL     1      -4.319  -5.018  -3.342  1.00  0.00     0.008 C 
ENDBRANCH  12  13
BRANCH  12  16
ATOM     16  C   UNL     1      -2.269  -1.842  -2.432  1.00  0.00    -0.035 A 
ATOM     17  C   UNL     1      -1.522  -0.709  -3.661  1.00  0.00     0.006 A 
ATOM     18  C   UNL     1      -2.254  -1.377  -0.676  1.00  0.00     0.006 A 
ATOM     19  C   UNL     1      -0.921   0.949  -3.133  1.00  0.00     0.021 A 
ATOM     20  C   UNL     1      -1.594   0.240  -0.153  1.00  0.00     0.021 A 
ATOM     21  C   UNL     1      -1.030   1.431  -1.378  1.00  0.00     0.041 A 
ATOM     22  Cl  UNL     1      -0.453   2.960  -0.849  1.00  0.00    -0.084 Cl
ENDBRANCH  12  16
ENDBRANCH  10  12
ENDBRANCH   6  10
ENDBRANCH   5   6
ENDBRANCH   3   5
ENDBRANCH   2   3
ENDBRANCH   1   2
BRANCH   1  23
ATOM     23  C   UNL     1       1.779  -0.850  -2.013  1.00  0.00     0.275 C 
BRANCH  23  24
ATOM     24  O   UNL     1       0.626   0.045  -1.833  1.00  0.00    -0.458 OA
BRANCH  24  25
ATOM     25  C   UNL     1      -0.718  -0.604  -1.813  1.00  0.00     0.338 C 
ATOM     26  O   UNL     1      -0.344  -1.800  -1.685  1.00  0.00    -0.246 OA
BRANCH  25  27
ATOM     27  C   UNL     1      -2.669   0.243  -2.074  1.00  0.00     0.060 A 
ATOM     28  C   UNL     1      -3.870   0.163  -1.145  1.00  0.00     0.016 A 
ATOM     29  C   UNL     1      -3.332   0.923  -3.274  1.00  0.00     0.016 A 
ATOM     30  C   UNL     1      -5.232   0.207  -1.438  1.00  0.00     0.010 A 
ATOM     31  C   UNL     1      -4.708   1.205  -3.510  1.00  0.00     0.010 A 
ATOM     32  C   UNL     1      -5.660   0.788  -2.607  1.00  0.00    -0.014 A 
BRANCH  32  33
ATOM     33  C   UNL     1      -7.077   1.146  -2.675  1.00  0.00     0.031 A 
ATOM     34  C   UNL     1      -8.018   0.465  -3.609  1.00  0.00     0.074 A 
ATOM     35  C   UNL     1      -7.478   2.020  -1.732  1.00  0.00     0.049 A 
ATOM     36  N   UNL     1      -9.317   0.578  -3.675  1.00  0.00    -0.248 NA
ATOM     37  C   UNL     1      -7.448  -0.478  -4.583  1.00  0.00     0.031 C 
ATOM     38  C   UNL     1      -6.588   2.657  -0.743  1.00  0.00     0.029 A 
ATOM     39  N   UNL     1      -8.712   2.488  -1.405  1.00  0.00    -0.354 N 
ATOM     40  C   UNL     1      -9.721  -0.282  -4.686  1.00  0.00     0.074 A 
ATOM     41  C   UNL     1      -8.534  -0.928  -5.199  1.00  0.00     0.031 C 
ATOM     42  C   UNL     1      -7.316   3.370   0.117  1.00  0.00     0.029 A 
ATOM     43  C   UNL     1      -8.686   3.370  -0.355  1.00  0.00     0.049 A 
ATOM     44  H   UNL     1      -9.537   2.222  -1.872  1.00  0.00     0.167 HD
ATOM     45  C   UNL     1     -10.974  -0.459  -5.165  1.00  0.00     0.031 A 
ATOM     46  C   UNL     1      -9.653   4.165   0.119  1.00  0.00     0.031 A 
ATOM     47  C   UNL     1     -12.093   0.327  -4.711  1.00  0.00     0.049 A 
ATOM     48  C   UNL     1     -10.983   4.067  -0.550  1.00  0.00     0.074 A 
ATOM     49  C   UNL     1     -13.398   0.320  -5.165  1.00  0.00     0.029 A 
ATOM     50  N   UNL     1     -12.014   1.304  -3.723  1.00  0.00    -0.354 N 
ATOM     51  N   UNL     1     -11.360   3.249  -1.506  1.00  0.00    -0.248 NA
ATOM     52  C   UNL     1     -12.013   4.996  -0.092  1.00  0.00     0.031 C 
ATOM     53  C   UNL     1     -14.079   1.359  -4.523  1.00  0.00     0.029 A 
ATOM     54  C   UNL     1     -13.232   1.944  -3.592  1.00  0.00     0.049 A 
ATOM     55  H   UNL     1     -11.209   1.509  -3.196  1.00  0.00     0.167 HD
ATOM     56  C   UNL     1     -12.687   3.548  -1.752  1.00  0.00     0.074 A 
ATOM     57  C   UNL     1     -13.047   4.606  -0.823  1.00  0.00     0.031 C 
ATOM     58  C   UNL     1     -13.534   3.003  -2.659  1.00  0.00     0.031 A 
BRANCH  45  59
ATOM     59  C   UNL     1     -11.166  -1.425  -6.302  1.00  0.00    -0.014 A 
ATOM     60  C   UNL     1     -11.063  -2.813  -6.122  1.00  0.00     0.009 A 
ATOM     61  C   UNL     1     -11.484  -0.933  -7.578  1.00  0.00     0.009 A 
ATOM     62  C   UNL     1     -11.257  -3.684  -7.199  1.00  0.00     0.001 A 
ATOM     63  C   UNL     1     -11.701  -1.805  -8.647  1.00  0.00     0.001 A 
ATOM     64  C   UNL     1     -11.581  -3.180  -8.459  1.00  0.00     0.000 A 
ENDBRANCH  45  59
BRANCH  46  65
ATOM     65  C   UNL     1      -9.342   5.158   1.177  1.00  0.00    -0.014 A 
ATOM     66  C   UNL     1      -9.951   5.088   2.434  1.00  0.00     0.009 A 
ATOM     67  C   UNL     1      -8.391   6.169   0.939  1.00  0.00     0.009 A 
ATOM     68  C   UNL     1      -9.638   6.027   3.420  1.00  0.00     0.001 A 
ATOM     69  C   UNL     1      -8.047   7.077   1.939  1.00  0.00     0.001 A 
ATOM     70  C   UNL     1      -8.683   7.015   3.175  1.00  0.00     0.000 A 
ENDBRANCH  46  65
BRANCH  58  71
ATOM     71  C   UNL     1     -14.941   3.519  -2.634  1.00  0.00    -0.014 A 
ATOM     72  C   UNL     1     -15.254   4.822  -3.046  1.00  0.00     0.009 A 
ATOM     73  C   UNL     1     -15.968   2.667  -2.200  1.00  0.00     0.009 A 
ATOM     74  C   UNL     1     -16.569   5.279  -2.976  1.00  0.00     0.001 A 
ATOM     75  C   UNL     1     -17.287   3.111  -2.177  1.00  0.00     0.001 A 
ATOM     76  C   UNL     1     -17.584   4.421  -2.550  1.00  0.00     0.000 A 
ENDBRANCH  58  71
ENDBRANCH  32  33
ENDBRANCH  25  27
ENDBRANCH  24  25
ENDBRANCH  23  24
ENDBRANCH   1  23
TORSDOF 18
