REMARK SMILES NC(=O)c1c(-c2ccc(Cl)cc2)csc1NC(=O)[C@H]1[C@@H](C(=O)OCCOC(=O)c2ccc(-c3c4nc(c(-c5ccccc5)c5ccc([nH]5)c(-c5ccccc5)c5nc(c(-c6ccccc6)c6ccc3[nH]6)C=C5)C=C4)cc2)[C@@H]2CC[C@H]1O2
REMARK SMILES IDX 24 1 23 2 21 3 22 4 20 5 19 6 80 7 77 8 79 9 81 10 78 11
REMARK SMILES IDX 17 12 16 13 18 15 15 16 4 17 5 18 13 19 14 20 2 21 1 22 3 25
REMARK SMILES IDX 6 26 7 27 12 28 8 29 11 30 9 31 10 32 25 33 26 34 27 35
REMARK SMILES IDX 28 36 29 37 30 38 76 39 31 40 75 41 32 42 33 43 34 44 69 45
REMARK SMILES IDX 35 46 74 47 68 48 70 49 36 50 73 51 67 52 66 53 37 55 59 56
REMARK SMILES IDX 44 57 58 58 45 59 48 60 57 61 71 62 46 63 47 64 56 66 72 67
REMARK SMILES IDX 49 68 38 69 39 70 43 71 40 72 42 73 41 74 60 75 61 76 65 77
REMARK SMILES IDX 62 78 64 79 63 80 50 81 51 82 55 83 52 84 54 85 53 86
REMARK H PARENT 16 14 1 23 1 24 70 54 48 65
REMARK Flexibility Score: inf
ROOT
ATOM      1  C   UNL     1       3.694   7.186  -1.540  1.00  0.00     0.274 C 
ENDROOT
BRANCH   1   2
ATOM      2  O   UNL     1       2.258   7.263  -1.667  1.00  0.00    -0.462 OA
BRANCH   2   3
ATOM      3  C   UNL     1       1.569   6.755  -0.618  1.00  0.00     0.312 C 
ATOM      4  O   UNL     1       2.083   6.282   0.392  1.00  0.00    -0.252 OA
BRANCH   3   5
ATOM      5  C   UNL     1       0.072   6.886  -0.732  1.00  0.00     0.143 C 
ATOM      6  C   UNL     1      -0.709   5.948  -1.662  1.00  0.00     0.124 C 
ATOM      7  C   UNL     1      -1.799   6.894  -2.118  1.00  0.00     0.132 C 
ATOM      8  C   UNL     1      -0.441   8.274  -1.147  1.00  0.00     0.133 C 
ATOM      9  C   UNL     1      -2.653   7.480  -0.981  1.00  0.00     0.035 C 
ATOM     10  O   UNL     1      -0.998   8.046  -2.458  1.00  0.00    -0.373 OA
ATOM     11  C   UNL     1      -1.743   8.569  -0.407  1.00  0.00     0.036 C 
BRANCH   6  12
ATOM     12  C   UNL     1       0.188   5.181  -2.646  1.00  0.00     0.231 C 
ATOM     13  N   UNL     1       0.588   5.475  -3.908  1.00  0.00    -0.317 N 
ATOM     14  H   UNL     1       1.376   4.944  -4.165  1.00  0.00     0.170 HD
ATOM     15  O   UNL     1       0.767   4.190  -2.155  1.00  0.00    -0.274 OA
BRANCH  13  16
ATOM     16  C   UNL     1       0.193   6.316  -4.934  1.00  0.00     0.108 A 
ATOM     17  C   UNL     1       0.914   6.639  -6.092  1.00  0.00     0.082 A 
ATOM     18  C   UNL     1       0.205   7.665  -6.841  1.00  0.00     0.007 A 
ATOM     19  C   UNL     1      -1.011   7.971  -6.267  1.00  0.00     0.076 A 
ATOM     20  S   UNL     1      -1.411   6.813  -5.107  1.00  0.00    -0.125 S 
BRANCH  17  21
ATOM     21  C   UNL     1       2.177   5.973  -6.410  1.00  0.00     0.252 C 
ATOM     22  N   UNL     1       2.939   6.493  -7.412  1.00  0.00    -0.365 N 
ATOM     23  H   UNL     1       3.795   6.069  -7.651  1.00  0.00     0.159 HD
ATOM     24  H   UNL     1       2.634   7.293  -7.898  1.00  0.00     0.159 HD
ATOM     25  O   UNL     1       2.565   4.968  -5.816  1.00  0.00    -0.269 OA
ENDBRANCH  17  21
BRANCH  18  26
ATOM     26  C   UNL     1       0.447   8.239  -8.152  1.00  0.00    -0.017 A 
ATOM     27  C   UNL     1       0.792   9.586  -8.304  1.00  0.00     0.010 A 
ATOM     28  C   UNL     1       0.152   7.456  -9.276  1.00  0.00     0.010 A 
ATOM     29  C   UNL     1       0.820  10.151  -9.583  1.00  0.00     0.021 A 
ATOM     30  C   UNL     1       0.176   8.023 -10.548  1.00  0.00     0.021 A 
ATOM     31  C   UNL     1       0.502   9.370 -10.695  1.00  0.00     0.041 A 
ATOM     32  Cl  UNL     1       0.481  10.079 -12.262  1.00  0.00    -0.084 Cl
ENDBRANCH  18  26
ENDBRANCH  13  16
ENDBRANCH   6  12
ENDBRANCH   3   5
ENDBRANCH   2   3
ENDBRANCH   1   2
BRANCH   1  33
ATOM     33  C   UNL     1       4.295   8.515  -1.077  1.00  0.00     0.275 C 
BRANCH  33  34
ATOM     34  O   UNL     1       3.791   8.899   0.216  1.00  0.00    -0.458 OA
BRANCH  34  35
ATOM     35  C   UNL     1       2.862   9.880   0.203  1.00  0.00     0.338 C 
ATOM     36  O   UNL     1       2.439  10.499  -0.758  1.00  0.00    -0.246 OA
BRANCH  35  37
ATOM     37  C   UNL     1       2.323  10.074   1.555  1.00  0.00     0.060 A 
ATOM     38  C   UNL     1       1.157   9.396   1.913  1.00  0.00     0.016 A 
ATOM     39  C   UNL     1       2.879  11.023   2.410  1.00  0.00     0.016 A 
ATOM     40  C   UNL     1       0.508   9.694   3.105  1.00  0.00     0.010 A 
ATOM     41  C   UNL     1       2.254  11.288   3.632  1.00  0.00     0.010 A 
ATOM     42  C   UNL     1       1.052  10.643   3.977  1.00  0.00    -0.014 A 
BRANCH  42  43
ATOM     43  C   UNL     1       0.343  10.986   5.232  1.00  0.00     0.031 A 
ATOM     44  C   UNL     1      -0.275  12.345   5.397  1.00  0.00     0.074 A 
ATOM     45  C   UNL     1       0.251  10.076   6.220  1.00  0.00     0.049 A 
ATOM     46  N   UNL     1      -0.830  12.878   6.455  1.00  0.00    -0.248 NA
ATOM     47  C   UNL     1      -0.263  13.222   4.215  1.00  0.00     0.031 C 
ATOM     48  C   UNL     1       0.759   8.704   6.158  1.00  0.00     0.029 A 
ATOM     49  N   UNL     1      -0.299  10.173   7.473  1.00  0.00    -0.354 N 
ATOM     50  C   UNL     1      -1.208  14.161   6.078  1.00  0.00     0.074 A 
ATOM     51  C   UNL     1      -0.803  14.332   4.699  1.00  0.00     0.031 C 
ATOM     52  C   UNL     1       0.498   8.088   7.322  1.00  0.00     0.029 A 
ATOM     53  C   UNL     1      -0.138   9.038   8.229  1.00  0.00     0.049 A 
ATOM     54  H   UNL     1      -0.763  10.978   7.798  1.00  0.00     0.167 HD
ATOM     55  C   UNL     1      -1.836  15.108   6.815  1.00  0.00     0.031 A 
ATOM     56  C   UNL     1      -0.433   8.801   9.521  1.00  0.00     0.031 A 
ATOM     57  C   UNL     1      -2.232  14.932   8.188  1.00  0.00     0.049 A 
ATOM     58  C   UNL     1      -1.054   9.897  10.341  1.00  0.00     0.074 A 
ATOM     59  C   UNL     1      -2.876  15.829   9.022  1.00  0.00     0.029 A 
ATOM     60  N   UNL     1      -2.019  13.779   8.928  1.00  0.00    -0.354 N 
ATOM     61  N   UNL     1      -1.399  11.108   9.977  1.00  0.00    -0.248 NA
ATOM     62  C   UNL     1      -1.325   9.591  11.752  1.00  0.00     0.031 C 
ATOM     63  C   UNL     1      -3.003  15.239  10.284  1.00  0.00     0.029 A 
ATOM     64  C   UNL     1      -2.497  13.950  10.217  1.00  0.00     0.049 A 
ATOM     65  H   UNL     1      -1.592  12.960   8.588  1.00  0.00     0.167 HD
ATOM     66  C   UNL     1      -1.951  11.700  11.105  1.00  0.00     0.074 A 
ATOM     67  C   UNL     1      -1.911  10.708  12.160  1.00  0.00     0.031 C 
ATOM     68  C   UNL     1      -2.448  12.953  11.255  1.00  0.00     0.031 A 
BRANCH  55  69
ATOM     69  C   UNL     1      -2.092  16.438   6.161  1.00  0.00    -0.014 A 
ATOM     70  C   UNL     1      -3.054  16.585   5.149  1.00  0.00     0.009 A 
ATOM     71  C   UNL     1      -1.375  17.568   6.584  1.00  0.00     0.009 A 
ATOM     72  C   UNL     1      -3.267  17.829   4.551  1.00  0.00     0.001 A 
ATOM     73  C   UNL     1      -1.611  18.817   6.005  1.00  0.00     0.001 A 
ATOM     74  C   UNL     1      -2.549  18.944   4.983  1.00  0.00     0.000 A 
ENDBRANCH  55  69
BRANCH  56  75
ATOM     75  C   UNL     1      -0.105   7.485  10.129  1.00  0.00    -0.014 A 
ATOM     76  C   UNL     1      -1.123   6.604  10.523  1.00  0.00     0.009 A 
ATOM     77  C   UNL     1       1.233   7.106  10.326  1.00  0.00     0.009 A 
ATOM     78  C   UNL     1      -0.808   5.383  11.124  1.00  0.00     0.001 A 
ATOM     79  C   UNL     1       1.545   5.872  10.898  1.00  0.00     0.001 A 
ATOM     80  C   UNL     1       0.524   5.016  11.305  1.00  0.00     0.000 A 
ENDBRANCH  56  75
BRANCH  68  81
ATOM     81  C   UNL     1      -3.026  13.305  12.597  1.00  0.00    -0.014 A 
ATOM     82  C   UNL     1      -2.205  13.507  13.717  1.00  0.00     0.009 A 
ATOM     83  C   UNL     1      -4.413  13.470  12.731  1.00  0.00     0.009 A 
ATOM     84  C   UNL     1      -2.767  13.835  14.953  1.00  0.00     0.001 A 
ATOM     85  C   UNL     1      -4.969  13.828  13.960  1.00  0.00     0.001 A 
ATOM     86  C   UNL     1      -4.146  14.000  15.071  1.00  0.00     0.000 A 
ENDBRANCH  68  81
ENDBRANCH  42  43
ENDBRANCH  35  37
ENDBRANCH  34  35
ENDBRANCH  33  34
ENDBRANCH   1  33
TORSDOF 15
