REMARK SMILES O=C(N[C@@H](Cc1ccc(O)cc1)C(=O)N[C@@H](CO)C(=O)OCCOC(=O)c1ccc(-c2c3nc(c(-c4ccccc4)c4ccc([nH]4)c(-c4ccccc4)c4nc(c(-c5ccccc5)c5ccc2[nH]5)C=C4)C=C3)cc1)c1ccc(F)cc1
REMARK SMILES IDX 21 1 19 2 20 3 16 4 15 5 13 6 14 7 4 9 3 10 1 11 2 12 75 14
REMARK SMILES IDX 76 15 81 16 77 17 80 18 78 19 79 20 5 21 6 22 7 23 12 24
REMARK SMILES IDX 8 25 11 26 9 27 10 28 17 30 18 31 22 33 23 34 24 35 25 36
REMARK SMILES IDX 26 37 27 38 28 39 74 40 29 41 73 42 30 43 31 44 32 45 67 46
REMARK SMILES IDX 33 47 72 48 66 49 68 50 34 51 71 52 65 53 64 54 35 56 57 57
REMARK SMILES IDX 42 58 56 59 43 60 46 61 55 62 69 63 44 64 45 65 54 67 70 68
REMARK SMILES IDX 47 69 36 70 37 71 41 72 38 73 40 74 39 75 58 76 59 77 63 78
REMARK SMILES IDX 60 79 62 80 61 81 48 82 49 83 53 84 50 85 52 86 51 87
REMARK H PARENT 15 8 3 13 10 29 18 32 68 55 46 66
REMARK Flexibility Score: inf
ROOT
ATOM      1  O   UNL     1       5.200   4.972  -4.115  1.00  0.00    -0.460 OA
ENDROOT
BRANCH   1   2
ATOM      2  C   UNL     1       5.349   5.052  -2.763  1.00  0.00     0.331 C 
ATOM      3  O   UNL     1       6.406   5.330  -2.211  1.00  0.00    -0.250 OA
BRANCH   2   4
ATOM      4  C   UNL     1       4.043   4.641  -2.032  1.00  0.00     0.218 C 
BRANCH   4   5
ATOM      5  N   UNL     1       4.402   4.058  -0.748  1.00  0.00    -0.339 N 
ATOM      6  C   UNL     1       4.510   2.765  -0.357  1.00  0.00     0.243 C 
ATOM      7  O   UNL     1       5.185   2.599   0.670  1.00  0.00    -0.273 OA
ATOM      8  H   UNL     1       4.601   4.715  -0.042  1.00  0.00     0.164 HD
BRANCH   6   9
ATOM      9  C   UNL     1       3.732   1.543  -0.957  1.00  0.00     0.176 C 
BRANCH   9  10
ATOM     10  N   UNL     1       2.392   1.392  -0.394  1.00  0.00    -0.340 N 
ATOM     11  O   UNL     1       0.722   0.357   0.705  1.00  0.00    -0.269 OA
ATOM     12  C   UNL     1       1.928   0.440   0.488  1.00  0.00     0.251 C 
ATOM     13  H   UNL     1       1.731   2.062  -0.684  1.00  0.00     0.164 HD
BRANCH  12  14
ATOM     14  C   UNL     1       2.845  -0.527   1.149  1.00  0.00     0.040 A 
ATOM     15  C   UNL     1       3.945  -0.100   1.904  1.00  0.00     0.017 A 
ATOM     16  C   UNL     1       2.551  -1.896   1.073  1.00  0.00     0.017 A 
ATOM     17  C   UNL     1       4.790  -1.035   2.509  1.00  0.00     0.040 A 
ATOM     18  C   UNL     1       3.387  -2.829   1.698  1.00  0.00     0.040 A 
ATOM     19  C   UNL     1       4.505  -2.391   2.398  1.00  0.00     0.123 A 
ATOM     20  F   UNL     1       5.311  -3.285   2.987  1.00  0.00    -0.207 F 
ENDBRANCH  12  14
ENDBRANCH   9  10
BRANCH   9  21
ATOM     21  C   UNL     1       3.849   1.067  -2.420  1.00  0.00     0.070 C 
BRANCH  21  22
ATOM     22  C   UNL     1       3.014   1.562  -3.593  1.00  0.00    -0.045 A 
ATOM     23  C   UNL     1       3.556   2.546  -4.428  1.00  0.00     0.007 A 
ATOM     24  C   UNL     1       1.871   0.914  -4.067  1.00  0.00     0.007 A 
ATOM     25  C   UNL     1       3.001   2.945  -5.641  1.00  0.00     0.046 A 
ATOM     26  C   UNL     1       1.325   1.259  -5.321  1.00  0.00     0.046 A 
ATOM     27  C   UNL     1       1.887   2.274  -6.092  1.00  0.00     0.115 A 
BRANCH  27  28
ATOM     28  O   UNL     1       1.358   2.553  -7.315  1.00  0.00    -0.508 OA
ATOM     29  H   UNL     1       1.728   3.233  -7.842  1.00  0.00     0.293 HD
ENDBRANCH  27  28
ENDBRANCH  21  22
ENDBRANCH   9  21
ENDBRANCH   6   9
ENDBRANCH   4   5
BRANCH   4  30
ATOM     30  C   UNL     1       3.028   5.772  -1.930  1.00  0.00     0.193 C 
BRANCH  30  31
ATOM     31  O   UNL     1       3.600   6.934  -1.352  1.00  0.00    -0.394 OA
ATOM     32  H   UNL     1       3.906   6.732  -0.454  1.00  0.00     0.210 HD
ENDBRANCH  30  31
ENDBRANCH   4  30
ENDBRANCH   2   4
ENDBRANCH   1   2
BRANCH   1  33
ATOM     33  C   UNL     1       6.378   5.076  -4.949  1.00  0.00     0.274 C 
BRANCH  33  34
ATOM     34  C   UNL     1       7.389   3.910  -4.837  1.00  0.00     0.275 C 
BRANCH  34  35
ATOM     35  O   UNL     1       6.814   2.623  -5.179  1.00  0.00    -0.458 OA
BRANCH  35  36
ATOM     36  C   UNL     1       7.716   1.608  -5.386  1.00  0.00     0.338 C 
ATOM     37  O   UNL     1       8.930   1.749  -5.437  1.00  0.00    -0.246 OA
BRANCH  36  38
ATOM     38  C   UNL     1       7.060   0.259  -5.455  1.00  0.00     0.060 A 
ATOM     39  C   UNL     1       5.708   0.124  -5.189  1.00  0.00     0.016 A 
ATOM     40  C   UNL     1       7.779  -0.915  -5.693  1.00  0.00     0.016 A 
ATOM     41  C   UNL     1       5.090  -1.114  -5.020  1.00  0.00     0.010 A 
ATOM     42  C   UNL     1       7.139  -2.177  -5.627  1.00  0.00     0.010 A 
ATOM     43  C   UNL     1       5.787  -2.295  -5.253  1.00  0.00    -0.014 A 
BRANCH  43  44
ATOM     44  C   UNL     1       5.103  -3.608  -5.040  1.00  0.00     0.031 A 
ATOM     45  C   UNL     1       5.638  -4.580  -4.019  1.00  0.00     0.074 A 
ATOM     46  C   UNL     1       3.938  -3.911  -5.655  1.00  0.00     0.049 A 
ATOM     47  N   UNL     1       5.305  -5.829  -3.807  1.00  0.00    -0.248 NA
ATOM     48  C   UNL     1       6.667  -4.069  -3.102  1.00  0.00     0.031 C 
ATOM     49  C   UNL     1       3.182  -3.025  -6.543  1.00  0.00     0.029 A 
ATOM     50  N   UNL     1       3.163  -5.049  -5.598  1.00  0.00    -0.354 N 
ATOM     51  C   UNL     1       6.125  -6.271  -2.775  1.00  0.00     0.074 A 
ATOM     52  C   UNL     1       6.953  -5.149  -2.387  1.00  0.00     0.031 C 
ATOM     53  C   UNL     1       2.037  -3.627  -6.902  1.00  0.00     0.029 A 
ATOM     54  C   UNL     1       2.029  -4.987  -6.374  1.00  0.00     0.049 A 
ATOM     55  H   UNL     1       3.399  -5.834  -5.053  1.00  0.00     0.167 HD
ATOM     56  C   UNL     1       6.199  -7.503  -2.216  1.00  0.00     0.031 A 
ATOM     57  C   UNL     1       1.114  -5.928  -6.684  1.00  0.00     0.031 A 
ATOM     58  C   UNL     1       5.370  -8.619  -2.589  1.00  0.00     0.049 A 
ATOM     59  C   UNL     1       1.300  -7.329  -6.168  1.00  0.00     0.074 A 
ATOM     60  C   UNL     1       5.433  -9.931  -2.151  1.00  0.00     0.029 A 
ATOM     61  N   UNL     1       4.312  -8.546  -3.480  1.00  0.00    -0.354 N 
ATOM     62  N   UNL     1       2.183  -7.784  -5.314  1.00  0.00    -0.248 NA
ATOM     63  C   UNL     1       0.387  -8.355  -6.695  1.00  0.00     0.031 C 
ATOM     64  C   UNL     1       4.440 -10.662  -2.814  1.00  0.00     0.029 A 
ATOM     65  C   UNL     1       3.727  -9.793  -3.624  1.00  0.00     0.049 A 
ATOM     66  H   UNL     1       4.019  -7.729  -3.944  1.00  0.00     0.167 HD
ATOM     67  C   UNL     1       1.935  -9.146  -5.203  1.00  0.00     0.074 A 
ATOM     68  C   UNL     1       0.799  -9.439  -6.051  1.00  0.00     0.031 C 
ATOM     69  C   UNL     1       2.601 -10.075  -4.474  1.00  0.00     0.031 A 
BRANCH  56  70
ATOM     70  C   UNL     1       7.290  -7.728  -1.208  1.00  0.00    -0.014 A 
ATOM     71  C   UNL     1       7.203  -7.237   0.103  1.00  0.00     0.009 A 
ATOM     72  C   UNL     1       8.434  -8.447  -1.593  1.00  0.00     0.009 A 
ATOM     73  C   UNL     1       8.261  -7.429   0.997  1.00  0.00     0.001 A 
ATOM     74  C   UNL     1       9.477  -8.658  -0.691  1.00  0.00     0.001 A 
ATOM     75  C   UNL     1       9.395  -8.139   0.600  1.00  0.00     0.000 A 
ENDBRANCH  56  70
BRANCH  57  76
ATOM     76  C   UNL     1      -0.004  -5.615  -7.618  1.00  0.00    -0.014 A 
ATOM     77  C   UNL     1      -1.338  -5.657  -7.186  1.00  0.00     0.009 A 
ATOM     78  C   UNL     1       0.259  -5.301  -8.963  1.00  0.00     0.009 A 
ATOM     79  C   UNL     1      -2.382  -5.403  -8.081  1.00  0.00     0.001 A 
ATOM     80  C   UNL     1      -0.783  -5.013  -9.846  1.00  0.00     0.001 A 
ATOM     81  C   UNL     1      -2.103  -5.073  -9.407  1.00  0.00     0.000 A 
ENDBRANCH  57  76
BRANCH  69  82
ATOM     82  C   UNL     1       2.108 -11.491  -4.551  1.00  0.00    -0.014 A 
ATOM     83  C   UNL     1       2.354 -12.281  -5.684  1.00  0.00     0.009 A 
ATOM     84  C   UNL     1       1.421 -12.052  -3.464  1.00  0.00     0.009 A 
ATOM     85  C   UNL     1       1.899 -13.600  -5.737  1.00  0.00     0.001 A 
ATOM     86  C   UNL     1       0.986 -13.377  -3.510  1.00  0.00     0.001 A 
ATOM     87  C   UNL     1       1.219 -14.148  -4.649  1.00  0.00     0.000 A 
ENDBRANCH  69  82
ENDBRANCH  43  44
ENDBRANCH  36  38
ENDBRANCH  35  36
ENDBRANCH  34  35
ENDBRANCH  33  34
ENDBRANCH   1  33
TORSDOF 20
