REMARK SMILES Cc1ccc(NC(=O)CN2C(=O)S/C(=C\c3cc(Cl)c(OCC(=O)OCCOC(=O)c4ccc(-c5c6nc(c(-c7ccccc7)c7ccc([nH]7)c(-c7ccccc7)c7nc(c(-c8ccccc8)c8ccc5[nH]8)C=C7)C=C6)cc4)c(Cl)c3)C2=O)cc1
REMARK SMILES IDX 23 1 24 2 22 3 21 4 20 5 16 6 17 7 81 8 18 9 79 10 19 11
REMARK SMILES IDX 80 12 15 13 10 14 11 15 82 16 12 17 13 18 14 19 83 20 9 21
REMARK SMILES IDX 7 22 6 23 8 25 5 26 1 27 2 28 3 29 85 30 4 31 84 32 25 33
REMARK SMILES IDX 26 34 27 35 28 36 29 37 30 38 31 39 32 40 78 41 33 42 77 43
REMARK SMILES IDX 34 44 35 45 36 46 71 47 37 48 76 49 70 50 72 51 38 52 75 53
REMARK SMILES IDX 69 54 68 55 39 57 61 58 46 59 60 60 47 61 50 62 59 63 73 64
REMARK SMILES IDX 48 65 49 66 58 68 74 69 51 70 40 71 41 72 45 73 42 74 44 75
REMARK SMILES IDX 43 76 62 77 63 78 67 79 64 80 66 81 65 82 52 83 53 84 57 85
REMARK SMILES IDX 54 86 56 87 55 88
REMARK H PARENT 6 24 72 56 50 67
REMARK Flexibility Score: inf
ROOT
ATOM      1  C   UNL     1      -7.905  -4.153 -10.325  1.00  0.00     0.344 C 
ATOM      2  O   UNL     1      -8.700  -4.000  -9.367  1.00  0.00    -0.248 OA
ENDROOT
BRANCH   1   3
ATOM      3  C   UNL     1      -6.478  -2.758 -11.250  1.00  0.00     0.352 C 
BRANCH   3   4
ATOM      4  O   UNL     1      -5.380  -1.679 -10.844  1.00  0.00    -0.479 OA
BRANCH   4   5
ATOM      5  C   UNL     1      -4.402  -1.795  -9.873  1.00  0.00     0.157 A 
ATOM      6  C   UNL     1      -2.831  -2.271  -7.469  1.00  0.00    -0.021 A 
ATOM      7  C   UNL     1      -2.469  -2.828  -8.711  1.00  0.00     0.032 A 
ATOM      8  C   UNL     1      -3.891  -1.358  -7.539  1.00  0.00     0.032 A 
ATOM      9  C   UNL     1      -3.255  -2.603  -9.895  1.00  0.00     0.085 A 
ATOM     10  C   UNL     1      -4.576  -1.036  -8.719  1.00  0.00     0.085 A 
ATOM     11  Cl  UNL     1      -2.725  -3.334 -11.369  1.00  0.00    -0.080 Cl
ATOM     12  Cl  UNL     1      -5.677   0.298  -8.649  1.00  0.00    -0.080 Cl
BRANCH   6  13
ATOM     13  C   UNL     1      -2.267  -2.733  -6.133  1.00  0.00     0.029 C 
ATOM     14  N   UNL     1      -3.026  -2.171  -2.606  1.00  0.00    -0.259 N 
ATOM     15  C   UNL     1      -3.848  -1.231  -3.152  1.00  0.00     0.294 C 
ATOM     16  C   UNL     1      -2.229  -2.827  -3.540  1.00  0.00     0.268 C 
ATOM     17  O   UNL     1      -4.959  -0.889  -2.789  1.00  0.00    -0.261 OA
ATOM     18  S   UNL     1      -3.076  -0.603  -4.572  1.00  0.00    -0.022 SA
ATOM     19  C   UNL     1      -2.406  -2.163  -4.908  1.00  0.00     0.083 C 
ATOM     20  O   UNL     1      -1.567  -3.835  -3.342  1.00  0.00    -0.268 OA
BRANCH  14  21
ATOM     21  C   UNL     1      -3.352  -2.674  -1.272  1.00  0.00     0.230 C 
BRANCH  21  22
ATOM     22  C   UNL     1      -3.787  -1.542  -0.303  1.00  0.00     0.244 C 
ATOM     23  N   UNL     1      -3.003  -0.445  -0.067  1.00  0.00    -0.325 N 
ATOM     24  H   UNL     1      -3.503   0.377   0.145  1.00  0.00     0.169 HD
ATOM     25  O   UNL     1      -4.896  -1.581   0.242  1.00  0.00    -0.273 OA
BRANCH  23  26
ATOM     26  C   UNL     1      -1.611  -0.292  -0.076  1.00  0.00     0.041 A 
ATOM     27  C   UNL     1       2.662   0.282  -0.017  1.00  0.00     0.044 C 
ATOM     28  C   UNL     1       1.173   0.113  -0.006  1.00  0.00    -0.051 A 
ATOM     29  C   UNL     1       0.636  -1.174   0.079  1.00  0.00     0.005 A 
ATOM     30  C   UNL     1       0.304   1.205  -0.083  1.00  0.00     0.005 A 
ATOM     31  C   UNL     1      -0.744  -1.371   0.058  1.00  0.00     0.026 A 
ATOM     32  C   UNL     1      -1.082   1.004  -0.105  1.00  0.00     0.026 A 
ENDBRANCH  23  26
ENDBRANCH  21  22
ENDBRANCH  14  21
ENDBRANCH   6  13
ENDBRANCH   4   5
ENDBRANCH   3   4
ENDBRANCH   1   3
BRANCH   1  33
ATOM     33  O   UNL     1      -7.982  -5.551 -10.668  1.00  0.00    -0.460 OA
BRANCH  33  34
ATOM     34  C   UNL     1      -8.240  -6.470  -9.599  1.00  0.00     0.274 C 
BRANCH  34  35
ATOM     35  C   UNL     1      -6.965  -6.626  -8.764  1.00  0.00     0.275 C 
BRANCH  35  36
ATOM     36  O   UNL     1      -6.632  -5.544  -7.847  1.00  0.00    -0.458 OA
BRANCH  36  37
ATOM     37  C   UNL     1      -6.063  -4.331  -8.055  1.00  0.00     0.338 C 
ATOM     38  O   UNL     1      -5.689  -3.635  -7.121  1.00  0.00    -0.246 OA
BRANCH  37  39
ATOM     39  C   UNL     1      -6.158  -3.713  -9.399  1.00  0.00     0.060 A 
ATOM     40  C   UNL     1      -7.356  -2.335  -9.418  1.00  0.00     0.016 A 
ATOM     41  C   UNL     1      -5.937  -4.721 -10.877  1.00  0.00     0.016 A 
ATOM     42  C   UNL     1      -8.508  -2.170 -10.792  1.00  0.00     0.010 A 
ATOM     43  C   UNL     1      -7.085  -4.506 -12.279  1.00  0.00     0.010 A 
ATOM     44  C   UNL     1      -8.430  -3.320 -12.156  1.00  0.00    -0.014 A 
BRANCH  44  45
ATOM     45  C   UNL     1      -9.692  -3.860 -12.730  1.00  0.00     0.031 A 
ATOM     46  C   UNL     1      -9.806  -3.805 -14.196  1.00  0.00     0.074 A 
ATOM     47  C   UNL     1     -10.630  -4.529 -11.991  1.00  0.00     0.049 A 
ATOM     48  N   UNL     1     -10.921  -3.753 -14.832  1.00  0.00    -0.248 NA
ATOM     49  C   UNL     1      -8.644  -3.698 -15.076  1.00  0.00     0.031 C 
ATOM     50  C   UNL     1     -11.685  -5.428 -12.488  1.00  0.00     0.029 A 
ATOM     51  N   UNL     1     -10.887  -4.556 -10.621  1.00  0.00    -0.354 N 
ATOM     52  C   UNL     1     -10.634  -3.950 -16.163  1.00  0.00     0.074 A 
ATOM     53  C   UNL     1      -9.218  -3.724 -16.282  1.00  0.00     0.031 C 
ATOM     54  C   UNL     1     -12.585  -5.665 -11.513  1.00  0.00     0.029 A 
ATOM     55  C   UNL     1     -12.233  -4.833 -10.382  1.00  0.00     0.049 A 
ATOM     56  H   UNL     1     -10.213  -4.400  -9.920  1.00  0.00     0.167 HD
ATOM     57  C   UNL     1     -11.598  -4.466 -16.973  1.00  0.00     0.031 A 
ATOM     58  C   UNL     1     -13.084  -3.995  -9.713  1.00  0.00     0.031 A 
ATOM     59  C   UNL     1     -12.834  -4.675 -16.218  1.00  0.00     0.049 A 
ATOM     60  C   UNL     1     -14.105  -3.413 -10.672  1.00  0.00     0.074 A 
ATOM     61  C   UNL     1     -13.391  -5.801 -15.636  1.00  0.00     0.029 A 
ATOM     62  N   UNL     1     -13.464  -3.580 -15.643  1.00  0.00    -0.354 N 
ATOM     63  N   UNL     1     -13.985  -3.531 -11.967  1.00  0.00    -0.248 NA
ATOM     64  C   UNL     1     -15.313  -2.673 -10.307  1.00  0.00     0.031 C 
ATOM     65  C   UNL     1     -14.319  -5.364 -14.649  1.00  0.00     0.029 A 
ATOM     66  C   UNL     1     -14.356  -3.979 -14.666  1.00  0.00     0.049 A 
ATOM     67  H   UNL     1     -13.297  -2.643 -15.897  1.00  0.00     0.167 HD
ATOM     68  C   UNL     1     -15.044  -2.959 -12.600  1.00  0.00     0.074 A 
ATOM     69  C   UNL     1     -15.849  -2.421 -11.518  1.00  0.00     0.031 C 
ATOM     70  C   UNL     1     -15.154  -2.981 -13.960  1.00  0.00     0.031 A 
BRANCH  57  71
ATOM     71  C   UNL     1     -11.368  -5.041 -18.350  1.00  0.00    -0.014 A 
ATOM     72  C   UNL     1     -12.369  -5.848 -18.924  1.00  0.00     0.009 A 
ATOM     73  C   UNL     1     -10.207  -4.869 -19.124  1.00  0.00     0.009 A 
ATOM     74  C   UNL     1     -12.206  -6.472 -20.168  1.00  0.00     0.001 A 
ATOM     75  C   UNL     1     -10.029  -5.500 -20.364  1.00  0.00     0.001 A 
ATOM     76  C   UNL     1     -11.030  -6.304 -20.886  1.00  0.00     0.000 A 
ENDBRANCH  57  71
BRANCH  58  77
ATOM     77  C   UNL     1     -12.444  -3.312  -8.556  1.00  0.00    -0.014 A 
ATOM     78  C   UNL     1     -12.083  -4.139  -7.469  1.00  0.00     0.009 A 
ATOM     79  C   UNL     1     -11.765  -2.100  -8.733  1.00  0.00     0.009 A 
ATOM     80  C   UNL     1     -10.927  -3.879  -6.732  1.00  0.00     0.001 A 
ATOM     81  C   UNL     1     -10.625  -1.828  -7.965  1.00  0.00     0.001 A 
ATOM     82  C   UNL     1     -10.174  -2.744  -7.012  1.00  0.00     0.000 A 
ENDBRANCH  58  77
BRANCH  70  83
ATOM     83  C   UNL     1     -16.072  -2.105 -14.770  1.00  0.00    -0.014 A 
ATOM     84  C   UNL     1     -16.677  -0.944 -14.280  1.00  0.00     0.009 A 
ATOM     85  C   UNL     1     -16.237  -2.372 -16.149  1.00  0.00     0.009 A 
ATOM     86  C   UNL     1     -17.472  -0.139 -15.103  1.00  0.00     0.001 A 
ATOM     87  C   UNL     1     -16.960  -1.530 -16.990  1.00  0.00     0.001 A 
ATOM     88  C   UNL     1     -17.604  -0.425 -16.458  1.00  0.00     0.000 A 
ENDBRANCH  70  83
ENDBRANCH  44  45
ENDBRANCH  37  39
ENDBRANCH  36  37
ENDBRANCH  35  36
ENDBRANCH  34  35
ENDBRANCH  33  34
ENDBRANCH   1  33
TORSDOF 17
