REMARK SMILES COc1ccccc1N1C(=O)CC[C@H]1CC(=O)OCCOC(=O)c1ccc(-c2c3nc(c(-c4ccccc4)c4ccc([nH]4)c(-c4ccccc4)c4nc(c(-c5ccccc5)c5ccc2[nH]5)C=C4)C=C3)cc1
REMARK SMILES IDX 19 1 18 2 16 3 17 4 15 5 14 6 9 7 10 8 11 9 12 10 13 11 8 12
REMARK SMILES IDX 3 13 4 14 5 15 7 16 6 17 2 18 1 19 20 20 21 21 22 22 23 23
REMARK SMILES IDX 24 24 25 25 71 26 26 27 70 28 27 29 28 30 29 31 64 32 30 33
REMARK SMILES IDX 69 34 63 35 65 36 31 37 68 38 62 39 61 40 32 42 54 43 39 44
REMARK SMILES IDX 53 45 40 46 43 47 52 48 66 49 41 50 42 51 51 53 67 54 44 55
REMARK SMILES IDX 33 56 34 57 38 58 35 59 37 60 36 61 55 62 56 63 60 64 57 65
REMARK SMILES IDX 59 66 58 67 45 68 46 69 50 70 47 71 49 72 48 73
REMARK H PARENT 65 41 43 52
REMARK Flexibility Score: inf
ROOT
ATOM      1  C   UNL     1       5.806  -0.510   4.674  1.00  0.00     0.274 C 
ENDROOT
BRANCH   1   2
ATOM      2  O   UNL     1       5.136  -0.622   3.395  1.00  0.00    -0.462 OA
BRANCH   2   3
ATOM      3  C   UNL     1       5.155  -1.839   2.800  1.00  0.00     0.308 C 
ATOM      4  O   UNL     1       5.881  -2.765   3.152  1.00  0.00    -0.252 OA
BRANCH   3   5
ATOM      5  C   UNL     1       4.080  -2.036   1.748  1.00  0.00     0.148 C 
BRANCH   5   6
ATOM      6  C   UNL     1       3.834  -0.975   0.675  1.00  0.00     0.102 C 
ATOM      7  N   UNL     1       3.252   0.293   1.077  1.00  0.00    -0.305 N 
ATOM      8  C   UNL     1       3.818   1.364   0.376  1.00  0.00     0.227 C 
ATOM      9  O   UNL     1       3.531   2.550   0.431  1.00  0.00    -0.275 OA
ATOM     10  C   UNL     1       4.764   0.778  -0.644  1.00  0.00     0.103 C 
ATOM     11  C   UNL     1       5.116  -0.573  -0.049  1.00  0.00     0.036 C 
BRANCH   7  12
ATOM     12  C   UNL     1       2.056   0.441   1.831  1.00  0.00     0.086 A 
ATOM     13  C   UNL     1       0.955  -0.424   1.696  1.00  0.00     0.142 A 
ATOM     14  C   UNL     1      -0.148  -0.337   2.554  1.00  0.00     0.048 A 
ATOM     15  C   UNL     1      -0.189   0.653   3.533  1.00  0.00     0.004 A 
ATOM     16  C   UNL     1       1.963   1.476   2.773  1.00  0.00     0.030 A 
ATOM     17  C   UNL     1       0.858   1.569   3.631  1.00  0.00     0.002 A 
BRANCH  13  18
ATOM     18  O   UNL     1       0.875  -1.341   0.675  1.00  0.00    -0.495 OA
ATOM     19  C   UNL     1       0.411  -0.671  -0.504  1.00  0.00     0.278 C 
ENDBRANCH  13  18
ENDBRANCH   7  12
ENDBRANCH   5   6
ENDBRANCH   3   5
ENDBRANCH   2   3
ENDBRANCH   1   2
BRANCH   1  20
ATOM     20  C   UNL     1       4.807  -0.251   5.816  1.00  0.00     0.275 C 
BRANCH  20  21
ATOM     21  O   UNL     1       3.973  -1.399   6.110  1.00  0.00    -0.458 OA
BRANCH  21  22
ATOM     22  C   UNL     1       2.920  -1.486   5.285  1.00  0.00     0.338 C 
ATOM     23  O   UNL     1       2.690  -0.733   4.338  1.00  0.00    -0.246 OA
BRANCH  22  24
ATOM     24  C   UNL     1       1.986  -2.569   5.516  1.00  0.00     0.060 A 
ATOM     25  C   UNL     1       2.010  -3.648   4.628  1.00  0.00     0.016 A 
ATOM     26  C   UNL     1       0.890  -2.342   6.352  1.00  0.00     0.016 A 
ATOM     27  C   UNL     1       0.921  -4.507   4.568  1.00  0.00     0.010 A 
ATOM     28  C   UNL     1      -0.185  -3.229   6.319  1.00  0.00     0.010 A 
ATOM     29  C   UNL     1      -0.174  -4.312   5.426  1.00  0.00    -0.014 A 
BRANCH  29  30
ATOM     30  C   UNL     1      -1.213  -5.356   5.513  1.00  0.00     0.031 A 
ATOM     31  C   UNL     1      -2.567  -5.196   4.899  1.00  0.00     0.074 A 
ATOM     32  C   UNL     1      -0.885  -6.469   6.191  1.00  0.00     0.049 A 
ATOM     33  N   UNL     1      -3.578  -6.027   4.930  1.00  0.00    -0.248 NA
ATOM     34  C   UNL     1      -2.826  -3.953   4.158  1.00  0.00     0.031 C 
ATOM     35  C   UNL     1       0.419  -6.713   6.816  1.00  0.00     0.029 A 
ATOM     36  N   UNL     1      -1.607  -7.596   6.468  1.00  0.00    -0.354 N 
ATOM     37  C   UNL     1      -4.600  -5.409   4.222  1.00  0.00     0.074 A 
ATOM     38  C   UNL     1      -4.088  -4.127   3.779  1.00  0.00     0.031 C 
ATOM     39  C   UNL     1       0.408  -7.920   7.394  1.00  0.00     0.029 A 
ATOM     40  C   UNL     1      -0.912  -8.510   7.218  1.00  0.00     0.049 A 
ATOM     41  H   UNL     1      -2.531  -7.737   6.160  1.00  0.00     0.167 HD
ATOM     42  C   UNL     1      -5.848  -5.876   3.974  1.00  0.00     0.031 A 
ATOM     43  C   UNL     1      -1.301  -9.688   7.732  1.00  0.00     0.031 A 
ATOM     44  C   UNL     1      -6.343  -7.149   4.436  1.00  0.00     0.049 A 
ATOM     45  C   UNL     1      -2.694 -10.161   7.471  1.00  0.00     0.074 A 
ATOM     46  C   UNL     1      -7.582  -7.726   4.219  1.00  0.00     0.029 A 
ATOM     47  N   UNL     1      -5.621  -8.040   5.218  1.00  0.00    -0.354 N 
ATOM     48  N   UNL     1      -3.644  -9.574   6.785  1.00  0.00    -0.248 NA
ATOM     49  C   UNL     1      -3.068 -11.455   8.051  1.00  0.00     0.031 C 
ATOM     50  C   UNL     1      -7.624  -8.947   4.904  1.00  0.00     0.029 A 
ATOM     51  C   UNL     1      -6.396  -9.149   5.514  1.00  0.00     0.049 A 
ATOM     52  H   UNL     1      -4.694  -7.903   5.519  1.00  0.00     0.167 HD
ATOM     53  C   UNL     1      -4.732 -10.428   6.845  1.00  0.00     0.074 A 
ATOM     54  C   UNL     1      -4.316 -11.582   7.620  1.00  0.00     0.031 C 
ATOM     55  C   UNL     1      -5.966 -10.271   6.308  1.00  0.00     0.031 A 
BRANCH  42  56
ATOM     56  C   UNL     1      -6.782  -4.992   3.195  1.00  0.00    -0.014 A 
ATOM     57  C   UNL     1      -6.653  -4.841   1.806  1.00  0.00     0.009 A 
ATOM     58  C   UNL     1      -7.841  -4.348   3.853  1.00  0.00     0.009 A 
ATOM     59  C   UNL     1      -7.555  -4.044   1.095  1.00  0.00     0.001 A 
ATOM     60  C   UNL     1      -8.751  -3.566   3.138  1.00  0.00     0.001 A 
ATOM     61  C   UNL     1      -8.604  -3.410   1.760  1.00  0.00     0.000 A 
ENDBRANCH  42  56
BRANCH  43  62
ATOM     62  C   UNL     1      -0.340 -10.464   8.549  1.00  0.00    -0.014 A 
ATOM     63  C   UNL     1       0.306 -11.585   8.011  1.00  0.00     0.009 A 
ATOM     64  C   UNL     1       0.005 -10.026   9.837  1.00  0.00     0.009 A 
ATOM     65  C   UNL     1       1.283 -12.253   8.751  1.00  0.00     0.001 A 
ATOM     66  C   UNL     1       0.998 -10.682  10.564  1.00  0.00     0.001 A 
ATOM     67  C   UNL     1       1.634 -11.797  10.021  1.00  0.00     0.000 A 
ENDBRANCH  43  62
BRANCH  55  68
ATOM     68  C   UNL     1      -6.939 -11.385   6.550  1.00  0.00    -0.014 A 
ATOM     69  C   UNL     1      -7.572 -11.527   7.794  1.00  0.00     0.009 A 
ATOM     70  C   UNL     1      -7.217 -12.304   5.528  1.00  0.00     0.009 A 
ATOM     71  C   UNL     1      -8.443 -12.594   8.021  1.00  0.00     0.001 A 
ATOM     72  C   UNL     1      -8.102 -13.358   5.753  1.00  0.00     0.001 A 
ATOM     73  C   UNL     1      -8.707 -13.508   7.001  1.00  0.00     0.000 A 
ENDBRANCH  55  68
ENDBRANCH  29  30
ENDBRANCH  22  24
ENDBRANCH  21  22
ENDBRANCH  20  21
ENDBRANCH   1  20
TORSDOF 14
