REMARK SMILES O=C(OCCOC(=O)c1sccc1S(=O)(=O)Nc1ccc(-c2nc3ccccc3n2C(F)F)cc1)c1ccc(-c2c3nc(c(-c4ccccc4)c4ccc([nH]4)c(-c4ccccc4)c4nc(c(-c5ccccc5)c5ccc2[nH]5)C=C4)C=C3)cc1
REMARK SMILES IDX 6 1 5 2 4 3 3 4 2 5 1 6 36 7 37 8 83 9 38 10 82 11 39 12
REMARK SMILES IDX 40 13 41 14 76 15 42 16 81 17 75 18 77 19 43 20 80 21 74 22
REMARK SMILES IDX 73 23 44 25 66 26 51 27 65 28 52 29 55 30 64 31 78 32 53 33
REMARK SMILES IDX 54 34 63 36 79 37 56 38 45 39 46 40 50 41 47 42 49 43 48 44
REMARK SMILES IDX 67 45 68 46 72 47 69 48 71 49 70 50 57 51 58 52 62 53 59 54
REMARK SMILES IDX 61 55 60 56 7 57 8 58 9 59 10 60 13 61 11 62 12 63 14 64
REMARK SMILES IDX 15 65 16 66 17 67 18 69 19 70 35 71 20 72 34 73 21 74 22 75
REMARK SMILES IDX 23 76 30 77 24 78 29 79 25 80 28 81 26 82 27 83 31 84 32 85
REMARK SMILES IDX 33 86
REMARK H PARENT 77 24 55 35 17 68
REMARK Flexibility Score: inf
ROOT
ATOM      1  O   UNL     1       5.051  -1.454  -0.788  1.00  0.00    -0.458 OA
ENDROOT
BRANCH   1   2
ATOM      2  C   UNL     1       5.651  -0.567   0.172  1.00  0.00     0.275 C 
BRANCH   2   3
ATOM      3  C   UNL     1       5.564   0.928  -0.117  1.00  0.00     0.275 C 
BRANCH   3   4
ATOM      4  O   UNL     1       4.317   1.523   0.287  1.00  0.00    -0.458 OA
BRANCH   4   5
ATOM      5  C   UNL     1       3.432   2.161  -0.511  1.00  0.00     0.338 C 
ATOM      6  O   UNL     1       2.735   3.080  -0.099  1.00  0.00    -0.246 OA
BRANCH   5   7
ATOM      7  C   UNL     1       3.162   1.659  -1.863  1.00  0.00     0.060 A 
ATOM      8  C   UNL     1       4.125   1.718  -2.865  1.00  0.00     0.016 A 
ATOM      9  C   UNL     1       1.839   1.287  -2.162  1.00  0.00     0.016 A 
ATOM     10  C   UNL     1       3.781   1.362  -4.156  1.00  0.00     0.010 A 
ATOM     11  C   UNL     1       1.481   0.969  -3.468  1.00  0.00     0.010 A 
ATOM     12  C   UNL     1       2.455   1.031  -4.464  1.00  0.00    -0.014 A 
BRANCH  12  13
ATOM     13  C   UNL     1       2.158   0.927  -5.885  1.00  0.00     0.031 A 
ATOM     14  C   UNL     1       2.711  -0.214  -6.650  1.00  0.00     0.074 A 
ATOM     15  C   UNL     1       1.516   1.904  -6.546  1.00  0.00     0.049 A 
ATOM     16  N   UNL     1       3.668  -0.193  -7.523  1.00  0.00    -0.248 NA
ATOM     17  C   UNL     1       2.123  -1.536  -6.418  1.00  0.00     0.031 C 
ATOM     18  C   UNL     1       0.681   2.972  -5.997  1.00  0.00     0.029 A 
ATOM     19  N   UNL     1       1.446   2.095  -7.895  1.00  0.00    -0.354 N 
ATOM     20  C   UNL     1       3.721  -1.474  -8.060  1.00  0.00     0.074 A 
ATOM     21  C   UNL     1       2.806  -2.282  -7.287  1.00  0.00     0.031 C 
ATOM     22  C   UNL     1       0.031   3.582  -7.012  1.00  0.00     0.029 A 
ATOM     23  C   UNL     1       0.514   3.039  -8.272  1.00  0.00     0.049 A 
ATOM     24  H   UNL     1       2.007   1.605  -8.538  1.00  0.00     0.167 HD
ATOM     25  C   UNL     1       4.387  -1.770  -9.209  1.00  0.00     0.031 A 
ATOM     26  C   UNL     1       0.119   3.325  -9.531  1.00  0.00     0.031 A 
ATOM     27  C   UNL     1       5.309  -0.750  -9.615  1.00  0.00     0.049 A 
ATOM     28  C   UNL     1       1.174   2.894 -10.475  1.00  0.00     0.074 A 
ATOM     29  C   UNL     1       6.453  -0.190  -9.085  1.00  0.00     0.029 A 
ATOM     30  N   UNL     1       4.945   0.059 -10.662  1.00  0.00    -0.354 N 
ATOM     31  N   UNL     1       2.331   3.480 -10.592  1.00  0.00    -0.248 NA
ATOM     32  C   UNL     1       1.076   1.589 -11.111  1.00  0.00     0.031 C 
ATOM     33  C   UNL     1       6.476   1.153  -9.564  1.00  0.00     0.029 A 
ATOM     34  C   UNL     1       5.331   1.336 -10.342  1.00  0.00     0.049 A 
ATOM     35  H   UNL     1       4.491  -0.224 -11.489  1.00  0.00     0.167 HD
ATOM     36  C   UNL     1       3.211   2.473 -10.957  1.00  0.00     0.074 A 
ATOM     37  C   UNL     1       2.360   1.381 -11.411  1.00  0.00     0.031 C 
ATOM     38  C   UNL     1       4.527   2.515 -10.594  1.00  0.00     0.031 A 
BRANCH  25  39
ATOM     39  C   UNL     1       3.989  -2.891 -10.127  1.00  0.00    -0.014 A 
ATOM     40  C   UNL     1       4.891  -3.349 -11.102  1.00  0.00     0.009 A 
ATOM     41  C   UNL     1       2.660  -3.351 -10.216  1.00  0.00     0.009 A 
ATOM     42  C   UNL     1       4.481  -4.226 -12.114  1.00  0.00     0.001 A 
ATOM     43  C   UNL     1       2.258  -4.256 -11.201  1.00  0.00     0.001 A 
ATOM     44  C   UNL     1       3.167  -4.684 -12.159  1.00  0.00     0.000 A 
ENDBRANCH  25  39
BRANCH  26  45
ATOM     45  C   UNL     1      -1.222   3.768  -9.950  1.00  0.00    -0.014 A 
ATOM     46  C   UNL     1      -1.431   4.397 -11.183  1.00  0.00     0.009 A 
ATOM     47  C   UNL     1      -2.353   3.371  -9.210  1.00  0.00     0.009 A 
ATOM     48  C   UNL     1      -2.731   4.612 -11.660  1.00  0.00     0.001 A 
ATOM     49  C   UNL     1      -3.648   3.594  -9.680  1.00  0.00     0.001 A 
ATOM     50  C   UNL     1      -3.836   4.207 -10.912  1.00  0.00     0.000 A 
ENDBRANCH  26  45
BRANCH  38  51
ATOM     51  C   UNL     1       5.072   3.826 -10.082  1.00  0.00    -0.014 A 
ATOM     52  C   UNL     1       4.565   4.447  -8.927  1.00  0.00     0.009 A 
ATOM     53  C   UNL     1       6.207   4.382 -10.693  1.00  0.00     0.009 A 
ATOM     54  C   UNL     1       5.148   5.613  -8.423  1.00  0.00     0.001 A 
ATOM     55  C   UNL     1       6.803   5.536 -10.175  1.00  0.00     0.001 A 
ATOM     56  C   UNL     1       6.269   6.155  -9.046  1.00  0.00     0.000 A 
ENDBRANCH  38  51
ENDBRANCH  12  13
ENDBRANCH   5   7
ENDBRANCH   4   5
ENDBRANCH   3   4
ENDBRANCH   2   3
ENDBRANCH   1   2
BRANCH   1  57
ATOM     57  C   UNL     1       3.704  -1.577  -0.727  1.00  0.00     0.349 C 
ATOM     58  O   UNL     1       2.948  -0.775  -0.188  1.00  0.00    -0.245 OA
BRANCH  57  59
ATOM     59  C   UNL     1       3.274  -2.791  -1.353  1.00  0.00     0.133 A 
ATOM     60  S   UNL     1       2.496  -2.674  -2.874  1.00  0.00    -0.136 S 
ATOM     61  C   UNL     1       3.285  -4.090  -0.885  1.00  0.00     0.113 A 
ATOM     62  C   UNL     1       2.222  -4.356  -2.949  1.00  0.00     0.067 A 
ATOM     63  C   UNL     1       2.699  -5.000  -1.829  1.00  0.00     0.035 A 
BRANCH  61  64
ATOM     64  S   UNL     1       3.907  -4.650   0.635  1.00  0.00     0.263 S 
ATOM     65  O   UNL     1       2.840  -5.469   1.166  1.00  0.00    -0.201 OA
ATOM     66  O   UNL     1       5.177  -5.232   0.258  1.00  0.00    -0.201 OA
BRANCH  64  67
ATOM     67  N   UNL     1       4.269  -3.444   1.728  1.00  0.00    -0.280 N 
ATOM     68  H   UNL     1       5.219  -3.307   1.948  1.00  0.00     0.180 HD
BRANCH  67  69
ATOM     69  C   UNL     1       3.319  -2.591   2.374  1.00  0.00     0.049 A 
ATOM     70  C   UNL     1       3.850  -1.609   3.221  1.00  0.00     0.027 A 
ATOM     71  C   UNL     1       1.989  -2.488   1.995  1.00  0.00     0.027 A 
ATOM     72  C   UNL     1       3.128  -0.442   3.523  1.00  0.00     0.014 A 
ATOM     73  C   UNL     1       1.282  -1.313   2.284  1.00  0.00     0.014 A 
ATOM     74  C   UNL     1       1.877  -0.224   2.953  1.00  0.00     0.018 A 
BRANCH  74  75
ATOM     75  C   UNL     1       1.149   1.063   2.916  1.00  0.00     0.145 A 
ATOM     76  N   UNL     1      -0.177   1.087   2.854  1.00  0.00    -0.228 NA
ATOM     77  N   UNL     1       1.638   2.352   2.716  1.00  0.00    -0.266 N 
ATOM     78  C   UNL     1      -0.535   2.331   2.425  1.00  0.00     0.089 A 
ATOM     79  C   UNL     1       0.577   3.147   2.301  1.00  0.00     0.074 A 
ATOM     80  C   UNL     1      -1.806   2.825   2.098  1.00  0.00     0.030 A 
ATOM     81  C   UNL     1       0.482   4.467   1.833  1.00  0.00     0.029 A 
ATOM     82  C   UNL     1      -1.919   4.135   1.621  1.00  0.00     0.002 A 
ATOM     83  C   UNL     1      -0.788   4.939   1.484  1.00  0.00     0.002 A 
BRANCH  77  84
ATOM     84  C   UNL     1       2.945   2.903   3.046  1.00  0.00     0.451 C 
ATOM     85  F   UNL     1       3.978   2.031   2.945  1.00  0.00    -0.185 F 
ATOM     86  F   UNL     1       3.300   3.985   2.299  1.00  0.00    -0.185 F 
ENDBRANCH  77  84
ENDBRANCH  74  75
ENDBRANCH  67  69
ENDBRANCH  64  67
ENDBRANCH  61  64
ENDBRANCH  57  59
ENDBRANCH   1  57
TORSDOF 16
