REMARK SMILES CC(C)c1ccc(O[C@H](C)C(=O)Nc2ccccc2C(=O)OCCOC(=O)c2ccc(-c3c4nc(c(-c5ccccc5)c5ccc([nH]5)c(-c5ccccc5)c5nc(c(-c6ccccc6)c6ccc3[nH]6)C=C5)C=C4)cc2)cc1
REMARK SMILES IDX 22 1 20 2 21 3 19 4 14 5 15 6 16 7 18 8 17 9 13 10 11 11
REMARK SMILES IDX 12 12 9 14 10 15 8 16 7 17 4 18 5 19 77 20 6 21 76 22 2 23
REMARK SMILES IDX 1 24 3 25 23 26 24 27 25 28 26 29 27 30 28 31 29 32 75 33
REMARK SMILES IDX 30 34 74 35 31 36 32 37 33 38 68 39 34 40 73 41 67 42 69 43
REMARK SMILES IDX 35 44 72 45 66 46 65 47 36 49 58 50 43 51 57 52 44 53 47 54
REMARK SMILES IDX 56 55 70 56 45 57 46 58 55 60 71 61 48 62 37 63 38 64 42 65
REMARK SMILES IDX 39 66 41 67 40 68 59 69 60 70 64 71 61 72 63 73 62 74 49 75
REMARK SMILES IDX 50 76 54 77 51 78 53 79 52 80
REMARK H PARENT 13 13 69 48 47 59
REMARK Flexibility Score: inf
ROOT
ATOM      1  O   UNL     1      -4.386  -0.294   4.003  1.00  0.00    -0.458 OA
ENDROOT
BRANCH   1   2
ATOM      2  C   UNL     1      -4.051  -0.213   2.699  1.00  0.00     0.340 C 
ATOM      3  O   UNL     1      -4.468   0.628   1.914  1.00  0.00    -0.246 OA
BRANCH   2   4
ATOM      4  C   UNL     1      -3.134  -1.272   2.261  1.00  0.00     0.083 A 
ATOM      5  C   UNL     1      -3.506  -2.624   2.266  1.00  0.00     0.055 A 
ATOM      6  C   UNL     1      -2.571  -3.584   1.860  1.00  0.00     0.027 A 
ATOM      7  C   UNL     1      -1.331  -3.193   1.341  1.00  0.00     0.002 A 
ATOM      8  C   UNL     1      -1.877  -0.889   1.770  1.00  0.00     0.018 A 
ATOM      9  C   UNL     1      -0.988  -1.846   1.285  1.00  0.00     0.001 A 
BRANCH   5  10
ATOM     10  N   UNL     1      -4.772  -3.088   2.670  1.00  0.00    -0.322 N 
ATOM     11  C   UNL     1      -6.019  -2.625   2.315  1.00  0.00     0.265 C 
ATOM     12  O   UNL     1      -6.946  -2.808   3.112  1.00  0.00    -0.270 OA
ATOM     13  H   UNL     1      -4.765  -3.850   3.293  1.00  0.00     0.170 HD
BRANCH  11  14
ATOM     14  C   UNL     1      -6.294  -2.076   0.876  1.00  0.00     0.259 C 
ATOM     15  C   UNL     1      -7.186  -0.836   0.950  1.00  0.00     0.064 C 
BRANCH  14  16
ATOM     16  O   UNL     1      -5.103  -2.006   0.100  1.00  0.00    -0.481 OA
BRANCH  16  17
ATOM     17  C   UNL     1      -5.076  -1.336  -1.082  1.00  0.00     0.120 A 
ATOM     18  C   UNL     1      -4.349   0.010  -3.448  1.00  0.00    -0.045 A 
ATOM     19  C   UNL     1      -4.617   0.719  -2.274  1.00  0.00     0.008 A 
ATOM     20  C   UNL     1      -4.510  -1.386  -3.432  1.00  0.00     0.008 A 
ATOM     21  C   UNL     1      -4.965   0.048  -1.105  1.00  0.00     0.047 A 
ATOM     22  C   UNL     1      -4.857  -2.057  -2.252  1.00  0.00     0.047 A 
BRANCH  18  23
ATOM     23  C   UNL     1      -3.893   0.716  -4.712  1.00  0.00     0.013 C 
ATOM     24  C   UNL     1      -5.104   1.169  -5.525  1.00  0.00     0.012 C 
ATOM     25  C   UNL     1      -2.955   1.902  -4.445  1.00  0.00     0.012 C 
ENDBRANCH  18  23
ENDBRANCH  16  17
ENDBRANCH  14  16
ENDBRANCH  11  14
ENDBRANCH   5  10
ENDBRANCH   2   4
ENDBRANCH   1   2
BRANCH   1  26
ATOM     26  C   UNL     1      -5.498   0.550   4.370  1.00  0.00     0.275 C 
BRANCH  26  27
ATOM     27  C   UNL     1      -5.132   1.997   4.732  1.00  0.00     0.275 C 
BRANCH  27  28
ATOM     28  O   UNL     1      -4.570   2.746   3.636  1.00  0.00    -0.458 OA
BRANCH  28  29
ATOM     29  C   UNL     1      -3.219   2.795   3.628  1.00  0.00     0.338 C 
ATOM     30  O   UNL     1      -2.457   2.304   4.445  1.00  0.00    -0.246 OA
BRANCH  29  31
ATOM     31  C   UNL     1      -2.706   3.529   2.459  1.00  0.00     0.060 A 
ATOM     32  C   UNL     1      -2.422   2.830   1.285  1.00  0.00     0.016 A 
ATOM     33  C   UNL     1      -2.249   4.835   2.624  1.00  0.00     0.016 A 
ATOM     34  C   UNL     1      -1.587   3.379   0.320  1.00  0.00     0.010 A 
ATOM     35  C   UNL     1      -1.468   5.416   1.621  1.00  0.00     0.010 A 
ATOM     36  C   UNL     1      -1.086   4.671   0.490  1.00  0.00    -0.014 A 
BRANCH  36  37
ATOM     37  C   UNL     1      -0.076   5.215  -0.448  1.00  0.00     0.031 A 
ATOM     38  C   UNL     1       1.295   5.545   0.070  1.00  0.00     0.074 A 
ATOM     39  C   UNL     1      -0.376   5.414  -1.744  1.00  0.00     0.049 A 
ATOM     40  N   UNL     1       2.231   6.280  -0.470  1.00  0.00    -0.248 NA
ATOM     41  C   UNL     1       1.653   4.981   1.383  1.00  0.00     0.031 C 
ATOM     42  C   UNL     1      -1.630   5.034  -2.396  1.00  0.00     0.029 A 
ATOM     43  N   UNL     1       0.356   6.003  -2.743  1.00  0.00    -0.354 N 
ATOM     44  C   UNL     1       3.256   6.329   0.467  1.00  0.00     0.074 A 
ATOM     45  C   UNL     1       2.837   5.537   1.601  1.00  0.00     0.031 C 
ATOM     46  C   UNL     1      -1.580   5.402  -3.686  1.00  0.00     0.029 A 
ATOM     47  C   UNL     1      -0.335   6.122  -3.923  1.00  0.00     0.049 A 
ATOM     48  H   UNL     1       1.284   6.310  -2.626  1.00  0.00     0.167 HD
ATOM     49  C   UNL     1       4.432   6.997   0.387  1.00  0.00     0.031 A 
ATOM     50  C   UNL     1      -0.030   6.797  -5.047  1.00  0.00     0.031 A 
ATOM     51  C   UNL     1       4.840   7.756  -0.765  1.00  0.00     0.049 A 
ATOM     52  C   UNL     1       1.247   7.586  -5.092  1.00  0.00     0.074 A 
ATOM     53  C   UNL     1       6.000   8.485  -0.956  1.00  0.00     0.029 A 
ATOM     54  N   UNL     1       4.098   7.867  -1.932  1.00  0.00    -0.354 N 
ATOM     55  N   UNL     1       2.176   7.705  -4.174  1.00  0.00    -0.248 NA
ATOM     56  C   UNL     1       1.508   8.350  -6.319  1.00  0.00     0.031 C 
ATOM     57  C   UNL     1       5.940   9.071  -2.224  1.00  0.00     0.029 A 
ATOM     58  C   UNL     1       4.769   8.662  -2.844  1.00  0.00     0.049 A 
ATOM     59  H   UNL     1       3.223   7.444  -2.088  1.00  0.00     0.167 HD
ATOM     60  C   UNL     1       3.144   8.537  -4.719  1.00  0.00     0.074 A 
ATOM     61  C   UNL     1       2.692   8.885  -6.052  1.00  0.00     0.031 C 
ATOM     62  C   UNL     1       4.301   8.977  -4.168  1.00  0.00     0.031 A 
BRANCH  49  63
ATOM     63  C   UNL     1       5.320   6.990   1.599  1.00  0.00    -0.014 A 
ATOM     64  C   UNL     1       6.026   5.844   1.996  1.00  0.00     0.009 A 
ATOM     65  C   UNL     1       5.464   8.168   2.351  1.00  0.00     0.009 A 
ATOM     66  C   UNL     1       6.829   5.870   3.140  1.00  0.00     0.001 A 
ATOM     67  C   UNL     1       6.289   8.199   3.477  1.00  0.00     0.001 A 
ATOM     68  C   UNL     1       6.962   7.047   3.877  1.00  0.00     0.000 A 
ENDBRANCH  49  63
BRANCH  50  69
ATOM     69  C   UNL     1      -0.984   6.808  -6.186  1.00  0.00    -0.014 A 
ATOM     70  C   UNL     1      -0.670   6.156  -7.387  1.00  0.00     0.009 A 
ATOM     71  C   UNL     1      -2.224   7.460  -6.074  1.00  0.00     0.009 A 
ATOM     72  C   UNL     1      -1.570   6.169  -8.456  1.00  0.00     0.001 A 
ATOM     73  C   UNL     1      -3.135   7.444  -7.131  1.00  0.00     0.001 A 
ATOM     74  C   UNL     1      -2.804   6.806  -8.325  1.00  0.00     0.000 A 
ENDBRANCH  50  69
BRANCH  62  75
ATOM     75  C   UNL     1       5.186   9.831  -5.028  1.00  0.00    -0.014 A 
ATOM     76  C   UNL     1       4.878  11.175  -5.285  1.00  0.00     0.009 A 
ATOM     77  C   UNL     1       6.376   9.290  -5.540  1.00  0.00     0.009 A 
ATOM     78  C   UNL     1       5.737  11.956  -6.061  1.00  0.00     0.001 A 
ATOM     79  C   UNL     1       7.244  10.080  -6.294  1.00  0.00     0.001 A 
ATOM     80  C   UNL     1       6.920  11.410  -6.559  1.00  0.00     0.000 A 
ENDBRANCH  62  75
ENDBRANCH  36  37
ENDBRANCH  29  31
ENDBRANCH  28  29
ENDBRANCH  27  28
ENDBRANCH  26  27
ENDBRANCH   1  26
TORSDOF 16
