REMARK SMILES Cc1nc2nc(CNC(=O)OC(C)(C)C)nn2c(C)c1CCC(=O)OCCOC(=O)c1ccc(-c2c3nc(c(-c4ccccc4)c4ccc([nH]4)c(-c4ccccc4)c4nc(c(-c5ccccc5)c5ccc2[nH]5)C=C4)C=C3)cc1
REMARK SMILES IDX 23 1 24 2 22 3 21 4 20 5 1 6 2 7 3 8 4 9 18 10 5 11 17 12
REMARK SMILES IDX 19 13 6 14 16 15 7 16 8 17 9 18 10 20 11 21 12 22 13 23
REMARK SMILES IDX 14 24 15 25 25 26 26 27 27 28 28 29 29 30 30 31 31 32 32 33
REMARK SMILES IDX 78 34 33 35 77 36 34 37 35 38 36 39 71 40 37 41 76 42 70 43
REMARK SMILES IDX 72 44 38 45 75 46 69 47 68 48 39 50 61 51 46 52 60 53 47 54
REMARK SMILES IDX 50 55 59 56 73 57 48 58 49 59 58 61 74 62 51 63 40 64 41 65
REMARK SMILES IDX 45 66 42 67 44 68 43 69 62 70 63 71 67 72 64 73 66 74 65 75
REMARK SMILES IDX 52 76 53 77 57 78 54 79 56 80 55 81
REMARK H PARENT 8 19 72 49 50 60
REMARK Flexibility Score: inf
ROOT
ATOM      1  C   UNL     1       3.118  -3.741   2.180  1.00  0.00     0.306 C 
ATOM      2  O   UNL     1       4.134  -4.430   2.196  1.00  0.00    -0.252 OA
ENDROOT
BRANCH   1   3
ATOM      3  C   UNL     1       2.816  -2.757   1.057  1.00  0.00     0.127 C 
BRANCH   3   4
ATOM      4  C   UNL     1       1.357  -2.450   0.656  1.00  0.00     0.051 C 
BRANCH   4   5
ATOM      5  C   UNL     1       0.565  -1.688   1.684  1.00  0.00    -0.005 A 
ATOM      6  C   UNL     1       1.102   0.577   0.545  1.00  0.00     0.067 C 
ATOM      7  C   UNL     1       0.700  -0.179   1.795  1.00  0.00     0.046 A 
ATOM      8  N   UNL     1       0.393   0.525   2.848  1.00  0.00    -0.216 NA
ATOM      9  C   UNL     1      -0.189  -0.160   3.873  1.00  0.00     0.252 A 
ATOM     10  C   UNL     1      -0.324  -2.215   2.556  1.00  0.00     0.048 A 
ATOM     11  N   UNL     1      -0.431   0.197   5.120  1.00  0.00    -0.192 NA
ATOM     12  N   UNL     1      -0.664  -1.458   3.678  1.00  0.00    -0.201 N 
ATOM     13  C   UNL     1      -0.857  -3.615   2.545  1.00  0.00     0.067 C 
ATOM     14  C   UNL     1      -1.093  -0.886   5.641  1.00  0.00     0.172 A 
ATOM     15  N   UNL     1      -1.326  -1.874   4.778  1.00  0.00    -0.148 NA
BRANCH  14  16
ATOM     16  C   UNL     1      -1.579  -1.002   7.043  1.00  0.00     0.199 C 
BRANCH  16  17
ATOM     17  N   UNL     1      -0.681  -0.390   7.991  1.00  0.00    -0.314 N 
ATOM     18  C   UNL     1      -1.096   0.267   9.104  1.00  0.00     0.408 C 
ATOM     19  H   UNL     1       0.287  -0.451   7.822  1.00  0.00     0.167 HD
ATOM     20  O   UNL     1      -0.306   0.739   9.914  1.00  0.00    -0.225 OA
BRANCH  18  21
ATOM     21  O   UNL     1      -2.443   0.342   9.170  1.00  0.00    -0.444 OA
BRANCH  21  22
ATOM     22  C   UNL     1      -3.110   1.210  10.113  1.00  0.00     0.106 C 
ATOM     23  C   UNL     1      -2.900   0.734  11.551  1.00  0.00     0.056 C 
ATOM     24  C   UNL     1      -2.677   2.665   9.904  1.00  0.00     0.056 C 
ATOM     25  C   UNL     1      -4.601   1.088   9.761  1.00  0.00     0.056 C 
ENDBRANCH  21  22
ENDBRANCH  18  21
ENDBRANCH  16  17
ENDBRANCH  14  16
ENDBRANCH   4   5
ENDBRANCH   3   4
ENDBRANCH   1   3
BRANCH   1  26
ATOM     26  O   UNL     1       2.183  -3.742   3.166  1.00  0.00    -0.462 OA
BRANCH  26  27
ATOM     27  C   UNL     1       2.332  -4.744   4.190  1.00  0.00     0.274 C 
BRANCH  27  28
ATOM     28  C   UNL     1       1.487  -5.983   3.901  1.00  0.00     0.275 C 
BRANCH  28  29
ATOM     29  O   UNL     1       2.018  -6.826   2.867  1.00  0.00    -0.458 OA
BRANCH  29  30
ATOM     30  C   UNL     1       1.588  -6.529   1.622  1.00  0.00     0.338 C 
ATOM     31  O   UNL     1       1.659  -5.458   1.047  1.00  0.00    -0.246 OA
BRANCH  30  32
ATOM     32  C   UNL     1       0.768  -7.594   1.057  1.00  0.00     0.060 A 
ATOM     33  C   UNL     1       0.294  -7.392  -0.247  1.00  0.00     0.016 A 
ATOM     34  C   UNL     1       0.322  -8.652   1.854  1.00  0.00     0.016 A 
ATOM     35  C   UNL     1      -0.693  -8.219  -0.729  1.00  0.00     0.010 A 
ATOM     36  C   UNL     1      -0.662  -9.483   1.368  1.00  0.00     0.010 A 
ATOM     37  C   UNL     1      -1.177  -9.242   0.096  1.00  0.00    -0.014 A 
BRANCH  37  38
ATOM     38  C   UNL     1      -2.018 -10.245  -0.523  1.00  0.00     0.031 A 
ATOM     39  C   UNL     1      -1.263 -10.989  -1.563  1.00  0.00     0.074 A 
ATOM     40  C   UNL     1      -3.264 -10.539  -0.113  1.00  0.00     0.049 A 
ATOM     41  N   UNL     1      -1.415 -10.896  -2.841  1.00  0.00    -0.248 NA
ATOM     42  C   UNL     1      -0.049 -11.725  -1.157  1.00  0.00     0.031 C 
ATOM     43  C   UNL     1      -3.966 -10.031   1.068  1.00  0.00     0.029 A 
ATOM     44  N   UNL     1      -4.138 -11.448  -0.620  1.00  0.00    -0.354 N 
ATOM     45  C   UNL     1      -0.467 -11.752  -3.389  1.00  0.00     0.074 A 
ATOM     46  C   UNL     1       0.473 -12.046  -2.341  1.00  0.00     0.031 C 
ATOM     47  C   UNL     1      -5.042 -10.816   1.320  1.00  0.00     0.029 A 
ATOM     48  C   UNL     1      -5.186 -11.772   0.235  1.00  0.00     0.049 A 
ATOM     49  H   UNL     1      -4.037 -11.843  -1.516  1.00  0.00     0.167 HD
ATOM     50  C   UNL     1      -0.732 -12.416  -4.546  1.00  0.00     0.031 A 
ATOM     51  C   UNL     1      -6.073 -12.781   0.055  1.00  0.00     0.031 A 
ATOM     52  C   UNL     1      -1.875 -11.847  -5.213  1.00  0.00     0.049 A 
ATOM     53  C   UNL     1      -6.063 -13.117  -1.383  1.00  0.00     0.074 A 
ATOM     54  C   UNL     1      -2.141 -10.723  -5.961  1.00  0.00     0.029 A 
ATOM     55  N   UNL     1      -3.070 -12.319  -4.735  1.00  0.00    -0.354 N 
ATOM     56  N   UNL     1      -6.508 -12.309  -2.300  1.00  0.00    -0.248 NA
ATOM     57  C   UNL     1      -5.228 -14.213  -1.861  1.00  0.00     0.031 C 
ATOM     58  C   UNL     1      -3.523 -10.432  -5.755  1.00  0.00     0.029 A 
ATOM     59  C   UNL     1      -4.078 -11.417  -4.940  1.00  0.00     0.049 A 
ATOM     60  H   UNL     1      -3.188 -13.195  -4.300  1.00  0.00     0.167 HD
ATOM     61  C   UNL     1      -5.662 -12.517  -3.370  1.00  0.00     0.074 A 
ATOM     62  C   UNL     1      -5.032 -13.809  -3.120  1.00  0.00     0.031 C 
ATOM     63  C   UNL     1      -5.310 -11.483  -4.185  1.00  0.00     0.031 A 
BRANCH  50  64
ATOM     64  C   UNL     1      -0.348 -13.862  -4.768  1.00  0.00    -0.014 A 
ATOM     65  C   UNL     1      -0.687 -14.465  -5.991  1.00  0.00     0.009 A 
ATOM     66  C   UNL     1       0.056 -14.728  -3.731  1.00  0.00     0.009 A 
ATOM     67  C   UNL     1      -0.669 -15.858  -6.149  1.00  0.00     0.001 A 
ATOM     68  C   UNL     1       0.106 -16.114  -3.893  1.00  0.00     0.001 A 
ATOM     69  C   UNL     1      -0.278 -16.681  -5.098  1.00  0.00     0.000 A 
ENDBRANCH  50  64
BRANCH  51  70
ATOM     70  C   UNL     1      -6.784 -13.647   1.018  1.00  0.00    -0.014 A 
ATOM     71  C   UNL     1      -7.918 -14.371   0.608  1.00  0.00     0.009 A 
ATOM     72  C   UNL     1      -6.154 -14.034   2.212  1.00  0.00     0.009 A 
ATOM     73  C   UNL     1      -8.359 -15.491   1.324  1.00  0.00     0.001 A 
ATOM     74  C   UNL     1      -6.597 -15.154   2.929  1.00  0.00     0.001 A 
ATOM     75  C   UNL     1      -7.683 -15.895   2.471  1.00  0.00     0.000 A 
ENDBRANCH  51  70
BRANCH  63  76
ATOM     76  C   UNL     1      -6.186 -10.263  -4.173  1.00  0.00    -0.014 A 
ATOM     77  C   UNL     1      -6.308  -9.393  -3.077  1.00  0.00     0.009 A 
ATOM     78  C   UNL     1      -6.846  -9.938  -5.366  1.00  0.00     0.009 A 
ATOM     79  C   UNL     1      -7.086  -8.233  -3.176  1.00  0.00     0.001 A 
ATOM     80  C   UNL     1      -7.603  -8.772  -5.471  1.00  0.00     0.001 A 
ATOM     81  C   UNL     1      -7.726  -7.922  -4.375  1.00  0.00     0.000 A 
ENDBRANCH  63  76
ENDBRANCH  37  38
ENDBRANCH  30  32
ENDBRANCH  29  30
ENDBRANCH  28  29
ENDBRANCH  27  28
ENDBRANCH  26  27
ENDBRANCH   1  26
TORSDOF 17
