REMARK SMILES Cc1ccc(C(F)(F)F)cc1-c1ccc(/C=C/C(=O)OCCOC(=O)c2ccc(-c3c4nc(c(-c5ccccc5)c5ccc([nH]5)c(-c5ccccc5)c5nc(c(-c6ccccc6)c6ccc3[nH]6)C=C5)C=C4)cc2)s1
REMARK SMILES IDX 21 1 20 2 18 3 19 4 17 5 16 6 15 7 12 8 13 9 74 10 14 11
REMARK SMILES IDX 11 12 1 13 2 14 3 15 4 16 10 17 5 18 6 19 7 20 8 21 9 22
REMARK SMILES IDX 22 23 23 24 24 25 25 26 26 27 27 28 73 29 28 30 72 31 29 32
REMARK SMILES IDX 30 33 31 34 66 35 32 36 71 37 65 38 67 39 33 40 70 41 64 42
REMARK SMILES IDX 63 43 34 45 56 46 41 47 55 48 42 49 45 50 54 51 68 52 43 53
REMARK SMILES IDX 44 54 53 56 69 57 46 58 35 59 36 60 40 61 37 62 39 63 38 64
REMARK SMILES IDX 57 65 58 66 62 67 59 68 61 69 60 70 47 71 48 72 52 73 49 74
REMARK SMILES IDX 51 75 50 76
REMARK H PARENT 67 44 45 55
REMARK Flexibility Score: inf
ROOT
ATOM      1  C   UNL     1       3.211  10.940   2.916  1.00  0.00     0.275 C 
ENDROOT
BRANCH   1   2
ATOM      2  O   UNL     1       3.598   9.654   2.421  1.00  0.00    -0.459 OA
BRANCH   2   3
ATOM      3  C   UNL     1       2.760   8.534   2.826  1.00  0.00     0.330 C 
ATOM      4  O   UNL     1       2.293   8.856   3.945  1.00  0.00    -0.247 OA
BRANCH   3   5
ATOM      5  C   UNL     1       2.458   6.775   1.635  1.00  0.00     0.095 C 
ATOM      6  C   UNL     1       2.684   6.124   0.418  1.00  0.00     0.026 C 
BRANCH   6   7
ATOM      7  C   UNL     1       2.237   4.790   0.041  1.00  0.00     0.028 A 
ATOM      8  C   UNL     1       1.150   2.528  -0.236  1.00  0.00     0.035 A 
ATOM      9  C   UNL     1       1.981   2.854  -1.287  1.00  0.00     0.021 A 
ATOM     10  S   UNL     1       1.111   3.799   0.915  1.00  0.00    -0.136 S 
ATOM     11  C   UNL     1       2.619   4.117  -1.113  1.00  0.00     0.020 A 
BRANCH   8  12
ATOM     12  C   UNL     1       0.394   1.271  -0.049  1.00  0.00    -0.005 A 
ATOM     13  C   UNL     1       2.551  -0.131   0.058  1.00  0.00     0.045 C 
ATOM     14  C   UNL     1       1.052   0.022   0.041  1.00  0.00    -0.042 A 
ATOM     15  C   UNL     1       0.297  -1.165   0.083  1.00  0.00     0.005 A 
ATOM     16  C   UNL     1      -1.094  -1.131   0.064  1.00  0.00     0.013 A 
ATOM     17  C   UNL     1      -1.017   1.287  -0.052  1.00  0.00     0.023 A 
ATOM     18  C   UNL     1      -1.768   0.094   0.005  1.00  0.00     0.056 A 
BRANCH  18  19
ATOM     19  C   UNL     1      -3.278   0.092  -0.022  1.00  0.00     0.416 C 
ATOM     20  F   UNL     1      -3.774  -0.543  -1.122  1.00  0.00    -0.166 F 
ATOM     21  F   UNL     1      -3.817  -0.555   1.050  1.00  0.00    -0.166 F 
ATOM     22  F   UNL     1      -3.832   1.335  -0.027  1.00  0.00    -0.166 F 
ENDBRANCH  18  19
ENDBRANCH   8  12
ENDBRANCH   6   7
ENDBRANCH   3   5
ENDBRANCH   2   3
ENDBRANCH   1   2
BRANCH   1  23
ATOM     23  C   UNL     1       1.957  11.387   2.152  1.00  0.00     0.275 C 
BRANCH  23  24
ATOM     24  O   UNL     1       0.743  10.624   2.428  1.00  0.00    -0.458 OA
BRANCH  24  25
ATOM     25  C   UNL     1       0.255   9.643   1.609  1.00  0.00     0.338 C 
ATOM     26  O   UNL     1      -0.904   9.579   1.234  1.00  0.00    -0.246 OA
BRANCH  25  27
ATOM     27  C   UNL     1       1.119   8.443   1.553  1.00  0.00     0.060 A 
ATOM     28  C   UNL     1       0.982   7.390   3.034  1.00  0.00     0.016 A 
ATOM     29  C   UNL     1       2.702   8.651   0.697  1.00  0.00     0.016 A 
ATOM     30  C   UNL     1       2.498   6.654   3.767  1.00  0.00     0.010 A 
ATOM     31  C   UNL     1       4.213   7.893   1.408  1.00  0.00     0.010 A 
ATOM     32  C   UNL     1       4.089   6.963   2.971  1.00  0.00    -0.014 A 
BRANCH  32  33
ATOM     33  C   UNL     1       5.326   7.012   3.716  1.00  0.00     0.031 A 
ATOM     34  C   UNL     1       6.403   6.222   3.117  1.00  0.00     0.074 A 
ATOM     35  C   UNL     1       5.450   7.883   4.750  1.00  0.00     0.049 A 
ATOM     36  N   UNL     1       7.461   5.874   3.740  1.00  0.00    -0.248 NA
ATOM     37  C   UNL     1       6.339   5.661   1.762  1.00  0.00     0.031 C 
ATOM     38  C   UNL     1       6.659   8.362   5.422  1.00  0.00     0.029 A 
ATOM     39  N   UNL     1       4.462   8.487   5.513  1.00  0.00    -0.354 N 
ATOM     40  C   UNL     1       8.336   5.373   2.807  1.00  0.00     0.074 A 
ATOM     41  C   UNL     1       7.556   5.133   1.627  1.00  0.00     0.031 C 
ATOM     42  C   UNL     1       6.328   8.875   6.626  1.00  0.00     0.029 A 
ATOM     43  C   UNL     1       4.903   8.667   6.820  1.00  0.00     0.049 A 
ATOM     44  H   UNL     1       3.575   8.751   5.177  1.00  0.00     0.167 HD
ATOM     45  C   UNL     1       9.654   5.391   3.127  1.00  0.00     0.031 A 
ATOM     46  C   UNL     1       4.354   7.961   7.857  1.00  0.00     0.031 A 
ATOM     47  C   UNL     1       9.803   5.756   4.539  1.00  0.00     0.049 A 
ATOM     48  C   UNL     1       5.307   6.854   8.289  1.00  0.00     0.074 A 
ATOM     49  C   UNL     1      10.056   6.964   5.167  1.00  0.00     0.029 A 
ATOM     50  N   UNL     1       9.188   4.943   5.490  1.00  0.00    -0.354 N 
ATOM     51  N   UNL     1       6.276   6.401   7.532  1.00  0.00    -0.248 NA
ATOM     52  C   UNL     1       5.312   6.239   9.614  1.00  0.00     0.031 C 
ATOM     53  C   UNL     1       9.468   6.902   6.470  1.00  0.00     0.029 A 
ATOM     54  C   UNL     1       8.892   5.653   6.642  1.00  0.00     0.049 A 
ATOM     55  H   UNL     1       8.989   3.988   5.359  1.00  0.00     0.167 HD
ATOM     56  C   UNL     1       7.065   5.544   8.245  1.00  0.00     0.074 A 
ATOM     57  C   UNL     1       6.405   5.457   9.539  1.00  0.00     0.031 C 
ATOM     58  C   UNL     1       8.213   4.986   7.755  1.00  0.00     0.031 A 
BRANCH  45  59
ATOM     59  C   UNL     1      10.775   5.344   2.123  1.00  0.00    -0.014 A 
ATOM     60  C   UNL     1      12.070   5.680   2.553  1.00  0.00     0.009 A 
ATOM     61  C   UNL     1      10.635   5.071   0.749  1.00  0.00     0.009 A 
ATOM     62  C   UNL     1      13.152   5.754   1.665  1.00  0.00     0.001 A 
ATOM     63  C   UNL     1      11.713   5.141  -0.146  1.00  0.00     0.001 A 
ATOM     64  C   UNL     1      12.973   5.485   0.314  1.00  0.00     0.000 A 
ENDBRANCH  45  59
BRANCH  46  65
ATOM     65  C   UNL     1       2.858   7.937   7.811  1.00  0.00    -0.014 A 
ATOM     66  C   UNL     1       2.222   9.201   7.850  1.00  0.00     0.009 A 
ATOM     67  C   UNL     1       2.134   6.856   7.297  1.00  0.00     0.009 A 
ATOM     68  C   UNL     1       1.026   9.429   7.163  1.00  0.00     0.001 A 
ATOM     69  C   UNL     1       0.900   7.082   6.657  1.00  0.00     0.001 A 
ATOM     70  C   UNL     1       0.389   8.374   6.526  1.00  0.00     0.000 A 
ENDBRANCH  46  65
BRANCH  58  71
ATOM     71  C   UNL     1       8.860   3.755   8.344  1.00  0.00    -0.014 A 
ATOM     72  C   UNL     1       8.198   2.864   9.195  1.00  0.00     0.009 A 
ATOM     73  C   UNL     1      10.151   3.375   7.913  1.00  0.00     0.009 A 
ATOM     74  C   UNL     1       8.826   1.709   9.671  1.00  0.00     0.001 A 
ATOM     75  C   UNL     1      10.747   2.180   8.312  1.00  0.00     0.001 A 
ATOM     76  C   UNL     1      10.095   1.362   9.220  1.00  0.00     0.000 A 
ENDBRANCH  58  71
ENDBRANCH  32  33
ENDBRANCH  25  27
ENDBRANCH  24  25
ENDBRANCH  23  24
ENDBRANCH   1  23
TORSDOF 14
