REMARK SMILES CCC[N@H+]1CCC[C@H]([C@@H](C)Nc2cccc(C(=O)OCCOC(=O)c3ccc(-c4c5nc(c(-c6ccccc6)c6ccc([nH]6)c(-c6ccccc6)c6nc(c(-c7ccccc7)c7ccc4[nH]7)C=C6)C=C5)cc3)c2)C1
REMARK SMILES IDX 19 1 17 2 18 3 16 4 12 5 13 6 73 7 14 8 15 9 11 10 9 12
REMARK SMILES IDX 10 13 8 14 4 15 5 16 74 17 6 19 7 20 3 21 2 22 1 23 20 24
REMARK SMILES IDX 21 25 22 26 23 27 24 28 25 29 26 30 72 31 27 32 71 33 28 34
REMARK SMILES IDX 29 35 30 36 65 37 31 38 70 39 64 40 66 41 32 42 69 43 63 44
REMARK SMILES IDX 62 45 33 47 55 48 40 49 54 50 41 51 44 52 53 53 67 54 42 55
REMARK SMILES IDX 43 56 52 58 68 59 45 60 34 61 35 62 39 63 36 64 38 65 37 66
REMARK SMILES IDX 56 67 57 68 61 69 58 70 60 71 59 72 46 73 47 74 51 75 48 76
REMARK SMILES IDX 50 77 49 78
REMARK H PARENT 11 11 4 18 66 46 44 57
REMARK Flexibility Score: inf
ROOT
ATOM      1  O   UNL     1      -4.124   1.759   6.156  1.00  0.00    -0.458 OA
ENDROOT
BRANCH   1   2
ATOM      2  C   UNL     1      -3.613   0.537   5.860  1.00  0.00     0.338 C 
ATOM      3  O   UNL     1      -3.403  -0.370   6.648  1.00  0.00    -0.246 OA
BRANCH   2   4
ATOM      4  C   UNL     1      -3.437   0.391   4.392  1.00  0.00     0.062 A 
ATOM      5  C   UNL     1      -3.146   1.355   2.173  1.00  0.00     0.035 A 
ATOM      6  C   UNL     1      -3.196   0.065   1.634  1.00  0.00     0.026 A 
ATOM      7  C   UNL     1      -3.317   1.504   3.555  1.00  0.00     0.041 A 
ATOM      8  C   UNL     1      -3.309  -1.056   2.459  1.00  0.00     0.003 A 
ATOM      9  C   UNL     1      -3.389  -0.893   3.840  1.00  0.00     0.016 A 
BRANCH   5  10
ATOM     10  N   UNL     1      -2.826   2.427   1.349  1.00  0.00    -0.382 N 
ATOM     11  H   UNL     1      -3.200   2.476   0.440  1.00  0.00     0.160 HD
BRANCH  10  12
ATOM     12  C   UNL     1      -1.932   3.484   1.831  1.00  0.00     0.084 C 
ATOM     13  C   UNL     1      -2.702   4.804   1.723  1.00  0.00     0.031 C 
BRANCH  12  14
ATOM     14  C   UNL     1      -0.596   3.504   1.030  1.00  0.00     0.066 C 
ATOM     15  N   UNL     1       0.617   1.678   2.274  1.00  0.00    -0.335 N 
ATOM     16  C   UNL     1       1.539   2.659   2.872  1.00  0.00     0.262 C 
ATOM     17  C   UNL     1       0.120   2.131   0.972  1.00  0.00     0.267 C 
ATOM     18  H   UNL     1      -0.230   1.589   2.836  1.00  0.00     0.348 HD
ATOM     19  C   UNL     1       0.957   4.070   2.949  1.00  0.00     0.062 C 
ATOM     20  C   UNL     1       0.407   4.525   1.599  1.00  0.00     0.017 C 
BRANCH  15  21
ATOM     21  C   UNL     1       1.263   0.349   2.274  1.00  0.00     0.261 C 
BRANCH  21  22
ATOM     22  C   UNL     1       0.674  -0.779   1.410  1.00  0.00     0.058 C 
ATOM     23  C   UNL     1       1.197  -0.796  -0.022  1.00  0.00     0.010 C 
ENDBRANCH  21  22
ENDBRANCH  15  21
ENDBRANCH  12  14
ENDBRANCH  10  12
ENDBRANCH   5  10
ENDBRANCH   2   4
ENDBRANCH   1   2
BRANCH   1  24
ATOM     24  C   UNL     1      -4.501   1.986   7.528  1.00  0.00     0.275 C 
BRANCH  24  25
ATOM     25  C   UNL     1      -6.014   1.858   7.688  1.00  0.00     0.275 C 
BRANCH  25  26
ATOM     26  O   UNL     1      -6.402   0.487   7.486  1.00  0.00    -0.458 OA
BRANCH  26  27
ATOM     27  C   UNL     1      -7.264   0.254   6.474  1.00  0.00     0.338 C 
ATOM     28  O   UNL     1      -7.827   1.067   5.759  1.00  0.00    -0.246 OA
BRANCH  27  29
ATOM     29  C   UNL     1      -7.428  -1.198   6.324  1.00  0.00     0.060 A 
ATOM     30  C   UNL     1      -6.414  -1.930   5.710  1.00  0.00     0.016 A 
ATOM     31  C   UNL     1      -8.617  -1.818   6.699  1.00  0.00     0.016 A 
ATOM     32  C   UNL     1      -6.592  -3.281   5.427  1.00  0.00     0.010 A 
ATOM     33  C   UNL     1      -8.778  -3.187   6.462  1.00  0.00     0.010 A 
ATOM     34  C   UNL     1      -7.777  -3.925   5.800  1.00  0.00    -0.014 A 
BRANCH  34  35
ATOM     35  C   UNL     1      -8.007  -5.346   5.431  1.00  0.00     0.031 A 
ATOM     36  C   UNL     1      -9.099  -5.693   4.457  1.00  0.00     0.074 A 
ATOM     37  C   UNL     1      -7.236  -6.325   5.941  1.00  0.00     0.049 A 
ATOM     38  N   UNL     1      -9.575  -6.868   4.131  1.00  0.00    -0.248 NA
ATOM     39  C   UNL     1      -9.744  -4.567   3.761  1.00  0.00     0.031 C 
ATOM     40  C   UNL     1      -6.097  -6.132   6.840  1.00  0.00     0.029 A 
ATOM     41  N   UNL     1      -7.296  -7.686   5.767  1.00  0.00    -0.354 N 
ATOM     42  C   UNL     1     -10.609  -6.620   3.237  1.00  0.00     0.074 A 
ATOM     43  C   UNL     1     -10.688  -5.185   3.067  1.00  0.00     0.031 C 
ATOM     44  C   UNL     1      -5.551  -7.327   7.117  1.00  0.00     0.029 A 
ATOM     45  C   UNL     1      -6.341  -8.373   6.476  1.00  0.00     0.049 A 
ATOM     46  H   UNL     1      -7.960  -8.127   5.189  1.00  0.00     0.167 HD
ATOM     47  C   UNL     1     -11.424  -7.507   2.618  1.00  0.00     0.031 A 
ATOM     48  C   UNL     1      -6.145  -9.697   6.623  1.00  0.00     0.031 A 
ATOM     49  C   UNL     1     -11.325  -8.935   2.756  1.00  0.00     0.049 A 
ATOM     50  C   UNL     1      -7.086 -10.662   5.958  1.00  0.00     0.074 A 
ATOM     51  C   UNL     1     -12.114  -9.915   2.179  1.00  0.00     0.029 A 
ATOM     52  N   UNL     1     -10.364  -9.587   3.510  1.00  0.00    -0.354 N 
ATOM     53  N   UNL     1      -8.107 -10.413   5.175  1.00  0.00    -0.248 NA
ATOM     54  C   UNL     1      -6.856 -12.092   6.214  1.00  0.00     0.031 C 
ATOM     55  C   UNL     1     -11.645 -11.162   2.606  1.00  0.00     0.029 A 
ATOM     56  C   UNL     1     -10.541 -10.957   3.418  1.00  0.00     0.049 A 
ATOM     57  H   UNL     1      -9.659  -9.143   4.035  1.00  0.00     0.167 HD
ATOM     58  C   UNL     1      -8.634 -11.652   4.837  1.00  0.00     0.074 A 
ATOM     59  C   UNL     1      -7.810 -12.652   5.484  1.00  0.00     0.031 C 
ATOM     60  C   UNL     1      -9.711 -11.936   4.065  1.00  0.00     0.031 A 
BRANCH  47  61
ATOM     61  C   UNL     1     -12.527  -6.950   1.766  1.00  0.00    -0.014 A 
ATOM     62  C   UNL     1     -12.273  -6.420   0.493  1.00  0.00     0.009 A 
ATOM     63  C   UNL     1     -13.848  -6.984   2.241  1.00  0.00     0.009 A 
ATOM     64  C   UNL     1     -13.319  -5.908  -0.278  1.00  0.00     0.001 A 
ATOM     65  C   UNL     1     -14.894  -6.493   1.459  1.00  0.00     0.001 A 
ATOM     66  C   UNL     1     -14.628  -5.948   0.204  1.00  0.00     0.000 A 
ENDBRANCH  47  61
BRANCH  48  67
ATOM     67  C   UNL     1      -5.035 -10.194   7.476  1.00  0.00    -0.014 A 
ATOM     68  C   UNL     1      -3.918 -10.816   6.900  1.00  0.00     0.009 A 
ATOM     69  C   UNL     1      -5.094 -10.056   8.871  1.00  0.00     0.009 A 
ATOM     70  C   UNL     1      -2.888 -11.305   7.707  1.00  0.00     0.001 A 
ATOM     71  C   UNL     1      -4.051 -10.523   9.674  1.00  0.00     0.001 A 
ATOM     72  C   UNL     1      -2.953 -11.153   9.092  1.00  0.00     0.000 A 
ENDBRANCH  48  67
BRANCH  60  73
ATOM     73  C   UNL     1     -10.037 -13.385   3.854  1.00  0.00    -0.014 A 
ATOM     74  C   UNL     1     -10.668 -14.137   4.856  1.00  0.00     0.009 A 
ATOM     75  C   UNL     1      -9.740 -13.993   2.625  1.00  0.00     0.009 A 
ATOM     76  C   UNL     1     -10.972 -15.483   4.639  1.00  0.00     0.001 A 
ATOM     77  C   UNL     1     -10.064 -15.333   2.404  1.00  0.00     0.001 A 
ATOM     78  C   UNL     1     -10.672 -16.078   3.413  1.00  0.00     0.000 A 
ENDBRANCH  60  73
ENDBRANCH  34  35
ENDBRANCH  27  29
ENDBRANCH  26  27
ENDBRANCH  25  26
ENDBRANCH  24  25
ENDBRANCH   1  24
TORSDOF 16
