REMARK SMILES CCCC1(C(=O)OCCOC(=O)c2ccc(-c3c4nc(c(-c5ccccc5)c5ccc([nH]5)c(-c5ccccc5)c5nc(c(-c6ccccc6)c6ccc3[nH]6)C=C5)C=C4)cc2)CC[NH+]([C@H](C)[C@H](C)O)CC1
REMARK SMILES IDX 8 1 7 2 5 3 6 4 4 5 61 6 70 7 62 8 69 9 63 10 3 12 2 13 1 14
REMARK SMILES IDX 64 15 65 16 66 17 67 18 68 19 9 21 10 22 11 23 12 24 13 25
REMARK SMILES IDX 14 26 60 27 15 28 59 29 16 30 17 31 18 32 53 33 19 34 58 35
REMARK SMILES IDX 52 36 54 37 20 38 57 39 51 40 50 41 21 43 43 44 28 45 42 46
REMARK SMILES IDX 29 47 32 48 41 49 55 50 30 51 31 52 40 54 56 55 33 56 22 57
REMARK SMILES IDX 23 58 27 59 24 60 26 61 25 62 44 63 45 64 49 65 46 66 48 67
REMARK SMILES IDX 47 68 34 69 35 70 39 71 36 72 38 73 37 74
REMARK H PARENT 63 11 68 20 54 42 32 53
REMARK Flexibility Score: inf
ROOT
ATOM      1  C   UNL     1       1.655  -8.157  -5.405  1.00  0.00     0.274 C 
ENDROOT
BRANCH   1   2
ATOM      2  O   UNL     1       1.188  -6.970  -4.730  1.00  0.00    -0.462 OA
BRANCH   2   3
ATOM      3  C   UNL     1       0.159  -6.279  -5.290  1.00  0.00     0.312 C 
ATOM      4  O   UNL     1      -0.453  -6.650  -6.286  1.00  0.00    -0.252 OA
BRANCH   3   5
ATOM      5  C   UNL     1      -0.061  -4.900  -4.632  1.00  0.00     0.079 C 
ATOM      6  C   UNL     1       0.685  -4.773  -3.287  1.00  0.00     0.080 C 
ATOM      7  C   UNL     1       0.528  -3.921  -5.692  1.00  0.00     0.080 C 
ATOM      8  C   UNL     1       0.948  -3.330  -2.880  1.00  0.00     0.263 C 
ATOM      9  C   UNL     1       0.918  -2.546  -5.156  1.00  0.00     0.263 C 
ATOM     10  N   UNL     1       1.657  -2.556  -3.896  1.00  0.00    -0.331 N 
ATOM     11  H   UNL     1       1.657  -1.599  -3.542  1.00  0.00     0.348 HD
BRANCH   5  12
ATOM     12  C   UNL     1      -1.590  -4.600  -4.487  1.00  0.00     0.019 C 
BRANCH  12  13
ATOM     13  C   UNL     1      -2.339  -5.181  -3.276  1.00  0.00    -0.002 C 
ATOM     14  C   UNL     1      -2.461  -4.235  -2.088  1.00  0.00     0.004 C 
ENDBRANCH  12  13
ENDBRANCH   5  12
BRANCH  10  15
ATOM     15  C   UNL     1       3.126  -2.717  -3.994  1.00  0.00     0.209 C 
ATOM     16  C   UNL     1       3.668  -4.111  -4.346  1.00  0.00     0.078 C 
BRANCH  15  17
ATOM     17  C   UNL     1       3.854  -2.165  -2.718  1.00  0.00     0.169 C 
ATOM     18  C   UNL     1       3.836  -0.642  -2.660  1.00  0.00     0.045 C 
BRANCH  17  19
ATOM     19  O   UNL     1       5.219  -2.593  -2.648  1.00  0.00    -0.387 OA
ATOM     20  H   UNL     1       5.711  -2.230  -3.401  1.00  0.00     0.211 HD
ENDBRANCH  17  19
ENDBRANCH  15  17
ENDBRANCH  10  15
ENDBRANCH   3   5
ENDBRANCH   2   3
ENDBRANCH   1   2
BRANCH   1  21
ATOM     21  C   UNL     1       1.294  -9.396  -4.595  1.00  0.00     0.275 C 
BRANCH  21  22
ATOM     22  O   UNL     1      -0.136  -9.527  -4.601  1.00  0.00    -0.458 OA
BRANCH  22  23
ATOM     23  C   UNL     1      -0.734  -9.620  -3.393  1.00  0.00     0.338 C 
ATOM     24  O   UNL     1      -0.202  -9.769  -2.308  1.00  0.00    -0.246 OA
BRANCH  23  25
ATOM     25  C   UNL     1      -2.189  -9.452  -3.567  1.00  0.00     0.060 A 
ATOM     26  C   UNL     1      -2.675  -8.420  -4.366  1.00  0.00     0.016 A 
ATOM     27  C   UNL     1      -3.074 -10.232  -2.826  1.00  0.00     0.016 A 
ATOM     28  C   UNL     1      -4.024  -8.085  -4.333  1.00  0.00     0.010 A 
ATOM     29  C   UNL     1      -4.445  -9.958  -2.878  1.00  0.00     0.010 A 
ATOM     30  C   UNL     1      -4.932  -8.844  -3.586  1.00  0.00    -0.014 A 
BRANCH  30  31
ATOM     31  C   UNL     1      -6.355  -8.417  -3.469  1.00  0.00     0.031 A 
ATOM     32  C   UNL     1      -6.964  -8.200  -2.106  1.00  0.00     0.074 A 
ATOM     33  C   UNL     1      -7.107  -8.175  -4.561  1.00  0.00     0.049 A 
ATOM     34  N   UNL     1      -8.223  -8.067  -1.775  1.00  0.00    -0.248 NA
ATOM     35  C   UNL     1      -6.037  -8.152  -0.963  1.00  0.00     0.031 C 
ATOM     36  C   UNL     1      -6.655  -8.266  -5.951  1.00  0.00     0.029 A 
ATOM     37  N   UNL     1      -8.419  -7.779  -4.668  1.00  0.00    -0.354 N 
ATOM     38  C   UNL     1      -8.246  -8.029  -0.386  1.00  0.00     0.074 A 
ATOM     39  C   UNL     1      -6.875  -8.120   0.064  1.00  0.00     0.031 C 
ATOM     40  C   UNL     1      -7.646  -7.871  -6.764  1.00  0.00     0.029 A 
ATOM     41  C   UNL     1      -8.836  -7.605  -5.965  1.00  0.00     0.049 A 
ATOM     42  H   UNL     1      -9.003  -7.635  -3.889  1.00  0.00     0.167 HD
ATOM     43  C   UNL     1      -9.317  -7.946   0.439  1.00  0.00     0.031 A 
ATOM     44  C   UNL     1     -10.050  -7.311  -6.466  1.00  0.00     0.031 A 
ATOM     45  C   UNL     1     -10.672  -7.760  -0.007  1.00  0.00     0.049 A 
ATOM     46  C   UNL     1     -11.219  -7.179  -5.536  1.00  0.00     0.074 A 
ATOM     47  C   UNL     1     -11.826  -7.660   0.751  1.00  0.00     0.029 A 
ATOM     48  N   UNL     1     -11.047  -7.604  -1.331  1.00  0.00    -0.354 N 
ATOM     49  N   UNL     1     -11.246  -7.275  -4.229  1.00  0.00    -0.248 NA
ATOM     50  C   UNL     1     -12.529  -6.932  -6.153  1.00  0.00     0.031 C 
ATOM     51  C   UNL     1     -12.904  -7.460  -0.118  1.00  0.00     0.029 A 
ATOM     52  C   UNL     1     -12.415  -7.404  -1.413  1.00  0.00     0.049 A 
ATOM     53  H   UNL     1     -10.433  -7.632  -2.100  1.00  0.00     0.167 HD
ATOM     54  C   UNL     1     -12.577  -7.118  -3.869  1.00  0.00     0.074 A 
ATOM     55  C   UNL     1     -13.320  -6.883  -5.090  1.00  0.00     0.031 C 
ATOM     56  C   UNL     1     -13.136  -7.182  -2.636  1.00  0.00     0.031 A 
BRANCH  43  57
ATOM     57  C   UNL     1      -9.070  -8.120   1.910  1.00  0.00    -0.014 A 
ATOM     58  C   UNL     1      -8.509  -7.104   2.696  1.00  0.00     0.009 A 
ATOM     59  C   UNL     1      -9.433  -9.333   2.520  1.00  0.00     0.009 A 
ATOM     60  C   UNL     1      -8.288  -7.311   4.060  1.00  0.00     0.001 A 
ATOM     61  C   UNL     1      -9.232  -9.528   3.887  1.00  0.00     0.001 A 
ATOM     62  C   UNL     1      -8.652  -8.520   4.654  1.00  0.00     0.000 A 
ENDBRANCH  43  57
BRANCH  44  63
ATOM     63  C   UNL     1     -10.227  -7.191  -7.935  1.00  0.00    -0.014 A 
ATOM     64  C   UNL     1     -10.433  -5.937  -8.528  1.00  0.00     0.009 A 
ATOM     65  C   UNL     1     -10.160  -8.329  -8.754  1.00  0.00     0.009 A 
ATOM     66  C   UNL     1     -10.572  -5.827  -9.913  1.00  0.00     0.001 A 
ATOM     67  C   UNL     1     -10.271  -8.212 -10.140  1.00  0.00     0.001 A 
ATOM     68  C   UNL     1     -10.482  -6.962 -10.718  1.00  0.00     0.000 A 
ENDBRANCH  44  63
BRANCH  56  69
ATOM     69  C   UNL     1     -14.621  -6.991  -2.557  1.00  0.00    -0.014 A 
ATOM     70  C   UNL     1     -15.497  -8.029  -2.908  1.00  0.00     0.009 A 
ATOM     71  C   UNL     1     -15.147  -5.772  -2.106  1.00  0.00     0.009 A 
ATOM     72  C   UNL     1     -16.878  -7.838  -2.835  1.00  0.00     0.001 A 
ATOM     73  C   UNL     1     -16.527  -5.590  -2.018  1.00  0.00     0.001 A 
ATOM     74  C   UNL     1     -17.391  -6.620  -2.389  1.00  0.00     0.000 A 
ENDBRANCH  56  69
ENDBRANCH  30  31
ENDBRANCH  23  25
ENDBRANCH  22  23
ENDBRANCH  21  22
ENDBRANCH   1  21
TORSDOF 16
