REMARK SMILES Cc1ccc(N2C(=O)C[C@H](Sc3ccccc3C(=O)OCCOC(=O)c3ccc(-c4c5nc(c(-c6ccccc6)c6ccc([nH]6)c(-c6ccccc6)c6nc(c(-c7ccccc7)c7ccc4[nH]7)C=C6)C=C5)cc3)C2=O)cc1
REMARK SMILES IDX 21 1 20 2 18 3 19 4 17 5 12 6 13 7 14 8 16 9 15 10 11 11
REMARK SMILES IDX 10 12 6 13 7 14 74 15 8 16 9 17 75 18 5 19 1 20 2 21 3 22
REMARK SMILES IDX 77 23 4 24 76 25 22 26 23 27 24 28 25 29 26 30 27 31 73 32
REMARK SMILES IDX 28 33 72 34 29 35 30 36 31 37 66 38 32 39 71 40 65 41 67 42
REMARK SMILES IDX 33 43 70 44 64 45 63 46 34 48 56 49 41 50 55 51 42 52 45 53
REMARK SMILES IDX 54 54 68 55 43 56 44 57 53 59 69 60 46 61 35 62 36 63 40 64
REMARK SMILES IDX 37 65 39 66 38 67 57 68 58 69 62 70 59 71 61 72 60 73 47 74
REMARK SMILES IDX 48 75 52 76 49 77 51 78 50 79
REMARK H PARENT 67 47 45 58
REMARK Flexibility Score: inf
ROOT
ATOM      1  C   UNL     1      -4.341   4.135  -2.153  1.00  0.00     0.275 C 
ENDROOT
BRANCH   1   2
ATOM      2  O   UNL     1      -3.951   3.601  -0.863  1.00  0.00    -0.458 OA
BRANCH   2   3
ATOM      3  C   UNL     1      -4.871   3.744   0.132  1.00  0.00     0.339 C 
ATOM      4  O   UNL     1      -5.940   4.330   0.037  1.00  0.00    -0.246 OA
BRANCH   3   5
ATOM      5  C   UNL     1      -4.306   3.430   1.460  1.00  0.00     0.073 A 
ATOM      6  C   UNL     1      -4.475   2.237   2.208  1.00  0.00     0.023 A 
ATOM      7  C   UNL     1      -4.136   2.283   3.575  1.00  0.00     0.016 A 
ATOM      8  C   UNL     1      -3.699   3.465   4.186  1.00  0.00     0.001 A 
ATOM      9  C   UNL     1      -3.820   4.601   2.081  1.00  0.00     0.017 A 
ATOM     10  C   UNL     1      -3.543   4.625   3.441  1.00  0.00     0.001 A 
BRANCH   6  11
ATOM     11  S   UNL     1      -5.518   0.843   1.758  1.00  0.00    -0.111 SA
BRANCH  11  12
ATOM     12  C   UNL     1      -4.517  -0.671   1.446  1.00  0.00     0.151 C 
ATOM     13  N   UNL     1      -2.524  -0.566   0.262  1.00  0.00    -0.250 N 
ATOM     14  C   UNL     1      -3.392  -1.144  -0.624  1.00  0.00     0.235 C 
ATOM     15  C   UNL     1      -3.038  -0.455   1.539  1.00  0.00     0.247 C 
ATOM     16  O   UNL     1      -3.163  -1.542  -1.760  1.00  0.00    -0.274 OA
ATOM     17  C   UNL     1      -4.719  -1.314   0.068  1.00  0.00     0.126 C 
ATOM     18  O   UNL     1      -2.442  -0.328   2.575  1.00  0.00    -0.273 OA
BRANCH  13  19
ATOM     19  C   UNL     1      -1.160  -0.394   0.026  1.00  0.00     0.052 A 
ATOM     20  C   UNL     1       3.086   0.173  -0.077  1.00  0.00     0.044 C 
ATOM     21  C   UNL     1       1.599  -0.014  -0.085  1.00  0.00    -0.051 A 
ATOM     22  C   UNL     1       1.065  -1.310  -0.059  1.00  0.00     0.005 A 
ATOM     23  C   UNL     1       0.737   1.089  -0.094  1.00  0.00     0.005 A 
ATOM     24  C   UNL     1      -0.314  -1.502  -0.018  1.00  0.00     0.027 A 
ATOM     25  C   UNL     1      -0.641   0.901  -0.023  1.00  0.00     0.027 A 
ENDBRANCH  13  19
ENDBRANCH  11  12
ENDBRANCH   6  11
ENDBRANCH   3   5
ENDBRANCH   2   3
ENDBRANCH   1   2
BRANCH   1  26
ATOM     26  C   UNL     1      -3.998   3.188  -3.327  1.00  0.00     0.275 C 
BRANCH  26  27
ATOM     27  O   UNL     1      -4.755   1.968  -3.463  1.00  0.00    -0.458 OA
BRANCH  27  28
ATOM     28  C   UNL     1      -5.244   1.460  -2.321  1.00  0.00     0.338 C 
ATOM     29  O   UNL     1      -4.559   1.056  -1.389  1.00  0.00    -0.246 OA
BRANCH  28  30
ATOM     30  C   UNL     1      -6.666   1.823  -2.193  1.00  0.00     0.060 A 
ATOM     31  C   UNL     1      -7.261   1.688  -0.936  1.00  0.00     0.016 A 
ATOM     32  C   UNL     1      -7.228   2.640  -3.169  1.00  0.00     0.016 A 
ATOM     33  C   UNL     1      -8.267   2.538  -0.541  1.00  0.00     0.010 A 
ATOM     34  C   UNL     1      -8.226   3.495  -2.799  1.00  0.00     0.010 A 
ATOM     35  C   UNL     1      -8.723   3.438  -1.491  1.00  0.00    -0.014 A 
BRANCH  35  36
ATOM     36  C   UNL     1      -9.996   4.084  -1.317  1.00  0.00     0.031 A 
ATOM     37  C   UNL     1     -10.059   5.349  -0.579  1.00  0.00     0.074 A 
ATOM     38  C   UNL     1     -10.961   3.376  -1.945  1.00  0.00     0.049 A 
ATOM     39  N   UNL     1     -11.053   5.716   0.150  1.00  0.00    -0.248 NA
ATOM     40  C   UNL     1      -8.926   6.282  -0.505  1.00  0.00     0.031 C 
ATOM     41  C   UNL     1     -12.324   3.706  -2.291  1.00  0.00     0.029 A 
ATOM     42  N   UNL     1     -10.863   2.000  -2.254  1.00  0.00    -0.354 N 
ATOM     43  C   UNL     1     -10.865   7.062   0.392  1.00  0.00     0.074 A 
ATOM     44  C   UNL     1      -9.464   7.311   0.160  1.00  0.00     0.031 C 
ATOM     45  C   UNL     1     -13.005   2.548  -2.436  1.00  0.00     0.029 A 
ATOM     46  C   UNL     1     -12.116   1.459  -2.020  1.00  0.00     0.049 A 
ATOM     47  H   UNL     1     -10.064   1.521  -2.573  1.00  0.00     0.167 HD
ATOM     48  C   UNL     1     -11.959   7.873   0.455  1.00  0.00     0.031 A 
ATOM     49  C   UNL     1     -12.318   0.619  -0.961  1.00  0.00     0.031 A 
ATOM     50  C   UNL     1     -13.171   7.080   0.272  1.00  0.00     0.049 A 
ATOM     51  C   UNL     1     -13.296   1.256  -0.011  1.00  0.00     0.074 A 
ATOM     52  C   UNL     1     -13.863   6.762  -0.887  1.00  0.00     0.029 A 
ATOM     53  N   UNL     1     -13.533   6.137   1.226  1.00  0.00    -0.354 N 
ATOM     54  N   UNL     1     -13.308   2.529   0.273  1.00  0.00    -0.248 NA
ATOM     55  C   UNL     1     -14.334   0.493   0.667  1.00  0.00     0.031 C 
ATOM     56  C   UNL     1     -14.569   5.557  -0.651  1.00  0.00     0.029 A 
ATOM     57  C   UNL     1     -14.309   5.151   0.646  1.00  0.00     0.049 A 
ATOM     58  H   UNL     1     -13.275   6.168   2.176  1.00  0.00     0.167 HD
ATOM     59  C   UNL     1     -14.396   2.779   1.063  1.00  0.00     0.074 A 
ATOM     60  C   UNL     1     -14.980   1.472   1.319  1.00  0.00     0.031 C 
ATOM     61  C   UNL     1     -14.787   4.030   1.432  1.00  0.00     0.031 A 
BRANCH  48  62
ATOM     62  C   UNL     1     -11.898   9.362   0.212  1.00  0.00    -0.014 A 
ATOM     63  C   UNL     1     -12.956   9.982  -0.481  1.00  0.00     0.009 A 
ATOM     64  C   UNL     1     -10.830  10.194   0.587  1.00  0.00     0.009 A 
ATOM     65  C   UNL     1     -12.920  11.329  -0.855  1.00  0.00     0.001 A 
ATOM     66  C   UNL     1     -10.778  11.544   0.199  1.00  0.00     0.001 A 
ATOM     67  C   UNL     1     -11.819  12.108  -0.531  1.00  0.00     0.000 A 
ENDBRANCH  48  62
BRANCH  49  68
ATOM     68  C   UNL     1     -11.163  -0.206  -0.467  1.00  0.00    -0.014 A 
ATOM     69  C   UNL     1     -10.501  -1.095  -1.340  1.00  0.00     0.009 A 
ATOM     70  C   UNL     1     -10.590   0.007   0.798  1.00  0.00     0.009 A 
ATOM     71  C   UNL     1      -9.292  -1.708  -0.979  1.00  0.00     0.001 A 
ATOM     72  C   UNL     1      -9.386  -0.615   1.162  1.00  0.00     0.001 A 
ATOM     73  C   UNL     1      -8.733  -1.464   0.271  1.00  0.00     0.000 A 
ENDBRANCH  49  68
BRANCH  61  74
ATOM     74  C   UNL     1     -15.770   4.302   2.526  1.00  0.00    -0.014 A 
ATOM     75  C   UNL     1     -15.925   3.458   3.632  1.00  0.00     0.009 A 
ATOM     76  C   UNL     1     -16.452   5.535   2.544  1.00  0.00     0.009 A 
ATOM     77  C   UNL     1     -16.778   3.802   4.682  1.00  0.00     0.001 A 
ATOM     78  C   UNL     1     -17.260   5.906   3.615  1.00  0.00     0.001 A 
ATOM     79  C   UNL     1     -17.437   5.029   4.677  1.00  0.00     0.000 A 
ENDBRANCH  61  74
ENDBRANCH  35  36
ENDBRANCH  28  30
ENDBRANCH  27  28
ENDBRANCH  26  27
ENDBRANCH   1  26
TORSDOF 14
