REMARK SMILES COc1cccc(-c2c(C(=O)OCCOC(=O)c3ccc(-c4c5nc(c(-c6ccccc6)c6ccc([nH]6)c(-c6ccccc6)c6nc(c(-c7ccccc7)c7ccc4[nH]7)C=C6)C=C5)cc3)nnn2-c2ccc(OC(F)(F)F)cc2)c1
REMARK SMILES IDX 13 1 12 2 10 3 11 4 9 5 8 6 68 7 66 8 67 9 7 10 3 11 4 12
REMARK SMILES IDX 80 13 5 14 6 15 2 16 1 17 69 18 70 19 79 20 71 21 78 22
REMARK SMILES IDX 72 23 73 24 74 25 75 26 76 27 77 28 14 29 15 30 16 31 17 32
REMARK SMILES IDX 18 33 19 34 65 35 20 36 64 37 21 38 22 39 23 40 58 41 24 42
REMARK SMILES IDX 63 43 57 44 59 45 25 46 62 47 56 48 55 49 26 51 48 52 33 53
REMARK SMILES IDX 47 54 34 55 37 56 46 57 60 58 35 59 36 60 45 62 61 63 38 64
REMARK SMILES IDX 27 65 28 66 32 67 29 68 31 69 30 70 49 71 50 72 54 73 51 74
REMARK SMILES IDX 53 75 52 76 39 77 40 78 44 79 41 80 43 81 42 82
REMARK H PARENT 59 50 37 61
REMARK Flexibility Score: inf
ROOT
ATOM      1  C   UNL     1       1.818  -6.987   2.986  1.00  0.00     0.275 C 
ENDROOT
BRANCH   1   2
ATOM      2  O   UNL     1       2.445  -5.711   3.185  1.00  0.00    -0.457 OA
BRANCH   2   3
ATOM      3  C   UNL     1       3.758  -5.707   3.563  1.00  0.00     0.361 C 
ATOM      4  O   UNL     1       4.365  -6.713   3.922  1.00  0.00    -0.244 OA
BRANCH   3   5
ATOM      5  C   UNL     1       4.386  -4.400   3.426  1.00  0.00     0.198 A 
ATOM      6  C   UNL     1       3.797  -3.145   3.324  1.00  0.00     0.109 A 
ATOM      7  N   UNL     1       4.894  -2.289   3.291  1.00  0.00    -0.212 N 
ATOM      8  N   UNL     1       5.751  -4.268   3.279  1.00  0.00    -0.122 NA
ATOM      9  N   UNL     1       6.030  -2.988   3.082  1.00  0.00    -0.061 NA
BRANCH   6  10
ATOM     10  C   UNL     1       2.401  -2.706   3.237  1.00  0.00     0.007 A 
ATOM     11  C   UNL     1       0.688  -1.339   2.172  1.00  0.00     0.119 A 
ATOM     12  C   UNL     1      -0.229  -1.766   3.134  1.00  0.00     0.046 A 
ATOM     13  C   UNL     1       1.997  -1.824   2.215  1.00  0.00     0.056 A 
ATOM     14  C   UNL     1       0.149  -2.669   4.127  1.00  0.00     0.005 A 
ATOM     15  C   UNL     1       1.463  -3.127   4.186  1.00  0.00     0.011 A 
BRANCH  11  16
ATOM     16  O   UNL     1       0.192  -0.430   1.279  1.00  0.00    -0.497 OA
ATOM     17  C   UNL     1       0.964  -0.174   0.113  1.00  0.00     0.278 C 
ENDBRANCH  11  16
ENDBRANCH   6  10
BRANCH   7  18
ATOM     18  C   UNL     1       4.930  -0.901   3.560  1.00  0.00     0.067 A 
ATOM     19  C   UNL     1       5.815  -0.068   2.876  1.00  0.00     0.032 A 
ATOM     20  C   UNL     1       4.081  -0.372   4.539  1.00  0.00     0.032 A 
ATOM     21  C   UNL     1       5.786   1.309   3.130  1.00  0.00     0.049 A 
ATOM     22  C   UNL     1       4.088   0.995   4.813  1.00  0.00     0.049 A 
ATOM     23  C   UNL     1       4.924   1.848   4.095  1.00  0.00     0.129 A 
BRANCH  23  24
ATOM     24  O   UNL     1       4.994   3.204   4.239  1.00  0.00    -0.406 OA
BRANCH  24  25
ATOM     25  C   UNL     1       4.164   3.799   5.224  1.00  0.00     0.573 C 
ATOM     26  F   UNL     1       2.858   3.553   4.982  1.00  0.00    -0.132 F 
ATOM     27  F   UNL     1       4.484   3.356   6.459  1.00  0.00    -0.132 F 
ATOM     28  F   UNL     1       4.347   5.138   5.198  1.00  0.00    -0.132 F 
ENDBRANCH  24  25
ENDBRANCH  23  24
ENDBRANCH   7  18
ENDBRANCH   3   5
ENDBRANCH   2   3
ENDBRANCH   1   2
BRANCH   1  29
ATOM     29  C   UNL     1       2.000  -7.458   1.550  1.00  0.00     0.275 C 
BRANCH  29  30
ATOM     30  O   UNL     1       3.351  -7.860   1.326  1.00  0.00    -0.458 OA
BRANCH  30  31
ATOM     31  C   UNL     1       4.178  -6.899   0.853  1.00  0.00     0.338 C 
ATOM     32  O   UNL     1       3.919  -5.715   0.716  1.00  0.00    -0.246 OA
BRANCH  31  33
ATOM     33  C   UNL     1       5.395  -7.532   0.330  1.00  0.00     0.060 A 
ATOM     34  C   UNL     1       6.332  -6.690  -0.277  1.00  0.00     0.016 A 
ATOM     35  C   UNL     1       5.428  -8.923   0.157  1.00  0.00     0.016 A 
ATOM     36  C   UNL     1       7.149  -7.221  -1.251  1.00  0.00     0.010 A 
ATOM     37  C   UNL     1       6.233  -9.449  -0.825  1.00  0.00     0.010 A 
ATOM     38  C   UNL     1       7.007  -8.573  -1.580  1.00  0.00    -0.014 A 
BRANCH  38  39
ATOM     39  C   UNL     1       7.654  -9.050  -2.780  1.00  0.00     0.031 A 
ATOM     40  C   UNL     1       9.104  -9.277  -2.672  1.00  0.00     0.074 A 
ATOM     41  C   UNL     1       6.967  -9.353  -3.895  1.00  0.00     0.049 A 
ATOM     42  N   UNL     1      10.044  -8.632  -3.275  1.00  0.00    -0.248 NA
ATOM     43  C   UNL     1       9.566 -10.288  -1.714  1.00  0.00     0.031 C 
ATOM     44  C   UNL     1       5.519  -9.461  -4.085  1.00  0.00     0.029 A 
ATOM     45  N   UNL     1       7.471  -9.741  -5.094  1.00  0.00    -0.354 N 
ATOM     46  C   UNL     1      11.229  -9.236  -2.881  1.00  0.00     0.074 A 
ATOM     47  C   UNL     1      10.888 -10.168  -1.832  1.00  0.00     0.031 C 
ATOM     48  C   UNL     1       5.276 -10.101  -5.253  1.00  0.00     0.029 A 
ATOM     49  C   UNL     1       6.540 -10.312  -5.942  1.00  0.00     0.049 A 
ATOM     50  H   UNL     1       8.418  -9.626  -5.340  1.00  0.00     0.167 HD
ATOM     51  C   UNL     1      12.388  -9.069  -3.571  1.00  0.00     0.031 A 
ATOM     52  C   UNL     1       6.814 -10.971  -7.091  1.00  0.00     0.031 A 
ATOM     53  C   UNL     1      12.322  -7.977  -4.503  1.00  0.00     0.049 A 
ATOM     54  C   UNL     1       8.162 -10.550  -7.544  1.00  0.00     0.074 A 
ATOM     55  C   UNL     1      12.137  -6.613  -4.394  1.00  0.00     0.029 A 
ATOM     56  N   UNL     1      12.085  -8.283  -5.823  1.00  0.00    -0.354 N 
ATOM     57  N   UNL     1       8.428  -9.350  -7.973  1.00  0.00    -0.248 NA
ATOM     58  C   UNL     1       9.319 -11.325  -7.119  1.00  0.00     0.031 C 
ATOM     59  C   UNL     1      11.344  -6.256  -5.525  1.00  0.00     0.029 A 
ATOM     60  C   UNL     1      11.119  -7.417  -6.267  1.00  0.00     0.049 A 
ATOM     61  H   UNL     1      12.526  -8.989  -6.348  1.00  0.00     0.167 HD
ATOM     62  C   UNL     1       9.692  -9.063  -7.476  1.00  0.00     0.074 A 
ATOM     63  C   UNL     1      10.237 -10.354  -7.065  1.00  0.00     0.031 C 
ATOM     64  C   UNL     1      10.061  -7.780  -7.184  1.00  0.00     0.031 A 
BRANCH  51  65
ATOM     65  C   UNL     1      13.458 -10.118  -3.642  1.00  0.00    -0.014 A 
ATOM     66  C   UNL     1      14.703  -9.787  -4.200  1.00  0.00     0.009 A 
ATOM     67  C   UNL     1      13.195 -11.483  -3.420  1.00  0.00     0.009 A 
ATOM     68  C   UNL     1      15.621 -10.781  -4.557  1.00  0.00     0.001 A 
ATOM     69  C   UNL     1      14.126 -12.474  -3.736  1.00  0.00     0.001 A 
ATOM     70  C   UNL     1      15.331 -12.123  -4.328  1.00  0.00     0.000 A 
ENDBRANCH  51  65
BRANCH  52  71
ATOM     71  C   UNL     1       6.100 -12.131  -7.658  1.00  0.00    -0.014 A 
ATOM     72  C   UNL     1       6.268 -12.498  -9.000  1.00  0.00     0.009 A 
ATOM     73  C   UNL     1       5.442 -13.037  -6.805  1.00  0.00     0.009 A 
ATOM     74  C   UNL     1       5.819 -13.742  -9.463  1.00  0.00     0.001 A 
ATOM     75  C   UNL     1       4.991 -14.276  -7.267  1.00  0.00     0.001 A 
ATOM     76  C   UNL     1       5.193 -14.634  -8.595  1.00  0.00     0.000 A 
ENDBRANCH  52  71
BRANCH  64  77
ATOM     77  C   UNL     1       9.114  -6.677  -7.590  1.00  0.00    -0.014 A 
ATOM     78  C   UNL     1       7.816  -6.571  -7.057  1.00  0.00     0.009 A 
ATOM     79  C   UNL     1       9.584  -5.638  -8.404  1.00  0.00     0.009 A 
ATOM     80  C   UNL     1       6.999  -5.477  -7.360  1.00  0.00     0.001 A 
ATOM     81  C   UNL     1       8.774  -4.535  -8.691  1.00  0.00     0.001 A 
ATOM     82  C   UNL     1       7.482  -4.457  -8.175  1.00  0.00     0.000 A 
ENDBRANCH  64  77
ENDBRANCH  38  39
ENDBRANCH  31  33
ENDBRANCH  30  31
ENDBRANCH  29  30
ENDBRANCH   1  29
TORSDOF 16
