REMARK SMILES O=C(OCCOC(=O)[C@H]1CCCN1C(=S)Nc1ccccc1)c1ccc(-c2c3nc(c(-c4ccccc4)c4ccc([nH]4)c(-c4ccccc4)c4nc(c(-c5ccccc5)c5ccc2[nH]5)C=C4)C=C3)cc1
REMARK SMILES IDX 5 1 4 2 3 3 2 4 1 5 23 6 24 7 70 8 25 9 69 10 26 11 27 12
REMARK SMILES IDX 28 13 63 14 29 15 68 16 62 17 64 18 30 19 67 20 61 21 60 22
REMARK SMILES IDX 31 24 53 25 38 26 52 27 39 28 42 29 51 30 65 31 40 32 41 33
REMARK SMILES IDX 50 35 66 36 43 37 32 38 33 39 37 40 34 41 36 42 35 43 54 44
REMARK SMILES IDX 55 45 59 46 56 47 58 48 57 49 44 50 45 51 49 52 46 53 48 54
REMARK SMILES IDX 47 55 6 56 7 57 8 58 9 59 10 60 13 61 11 62 12 63 14 64
REMARK SMILES IDX 15 65 16 66 17 68 18 69 22 70 19 71 21 72 20 73
REMARK H PARENT 64 23 42 34 16 67
REMARK Flexibility Score: inf
ROOT
ATOM      1  C   UNL     1      -0.929   1.901   0.883  1.00  0.00     0.274 C 
ENDROOT
BRANCH   1   2
ATOM      2  C   UNL     1      -1.484   1.668   2.285  1.00  0.00     0.275 C 
BRANCH   2   3
ATOM      3  O   UNL     1      -0.963   2.521   3.317  1.00  0.00    -0.458 OA
BRANCH   3   4
ATOM      4  C   UNL     1       0.288   2.621   3.819  1.00  0.00     0.338 C 
ATOM      5  O   UNL     1       0.561   3.594   4.520  1.00  0.00    -0.246 OA
BRANCH   4   6
ATOM      6  C   UNL     1       1.381   1.631   3.553  1.00  0.00     0.060 A 
ATOM      7  C   UNL     1       1.210   0.285   3.215  1.00  0.00     0.016 A 
ATOM      8  C   UNL     1       2.696   2.096   3.731  1.00  0.00     0.016 A 
ATOM      9  C   UNL     1       2.320  -0.553   3.014  1.00  0.00     0.010 A 
ATOM     10  C   UNL     1       3.805   1.270   3.523  1.00  0.00     0.010 A 
ATOM     11  C   UNL     1       3.626  -0.071   3.174  1.00  0.00    -0.014 A 
BRANCH  11  12
ATOM     12  C   UNL     1       4.779  -1.007   3.144  1.00  0.00     0.031 A 
ATOM     13  C   UNL     1       5.356  -1.472   4.442  1.00  0.00     0.074 A 
ATOM     14  C   UNL     1       5.312  -1.443   1.987  1.00  0.00     0.049 A 
ATOM     15  N   UNL     1       6.290  -2.359   4.656  1.00  0.00    -0.248 NA
ATOM     16  C   UNL     1       4.824  -0.839   5.660  1.00  0.00     0.031 C 
ATOM     17  C   UNL     1       4.899  -0.985   0.676  1.00  0.00     0.029 A 
ATOM     18  N   UNL     1       6.306  -2.346   1.711  1.00  0.00    -0.354 N 
ATOM     19  C   UNL     1       6.457  -2.392   6.030  1.00  0.00     0.074 A 
ATOM     20  C   UNL     1       5.573  -1.397   6.595  1.00  0.00     0.031 C 
ATOM     21  C   UNL     1       5.602  -1.606  -0.280  1.00  0.00     0.029 A 
ATOM     22  C   UNL     1       6.532  -2.520   0.362  1.00  0.00     0.049 A 
ATOM     23  H   UNL     1       6.810  -2.824   2.409  1.00  0.00     0.167 HD
ATOM     24  C   UNL     1       7.261  -3.199   6.760  1.00  0.00     0.031 A 
ATOM     25  C   UNL     1       7.388  -3.330  -0.285  1.00  0.00     0.031 A 
ATOM     26  C   UNL     1       8.166  -4.154   6.186  1.00  0.00     0.049 A 
ATOM     27  C   UNL     1       8.258  -4.230   0.539  1.00  0.00     0.074 A 
ATOM     28  C   UNL     1       9.017  -5.038   6.822  1.00  0.00     0.029 A 
ATOM     29  N   UNL     1       8.346  -4.333   4.820  1.00  0.00    -0.354 N 
ATOM     30  N   UNL     1       8.336  -4.321   1.845  1.00  0.00    -0.248 NA
ATOM     31  C   UNL     1       9.143  -5.146  -0.189  1.00  0.00     0.031 C 
ATOM     32  C   UNL     1       9.728  -5.739   5.838  1.00  0.00     0.029 A 
ATOM     33  C   UNL     1       9.292  -5.316   4.591  1.00  0.00     0.049 A 
ATOM     34  H   UNL     1       7.870  -3.834   4.118  1.00  0.00     0.167 HD
ATOM     35  C   UNL     1       9.264  -5.317   2.100  1.00  0.00     0.074 A 
ATOM     36  C   UNL     1       9.707  -5.812   0.809  1.00  0.00     0.031 C 
ATOM     37  C   UNL     1       9.709  -5.782   3.292  1.00  0.00     0.031 A 
BRANCH  24  38
ATOM     38  C   UNL     1       7.171  -3.028   8.248  1.00  0.00    -0.014 A 
ATOM     39  C   UNL     1       6.013  -3.422   8.944  1.00  0.00     0.009 A 
ATOM     40  C   UNL     1       8.188  -2.360   8.942  1.00  0.00     0.009 A 
ATOM     41  C   UNL     1       5.846  -3.084  10.288  1.00  0.00     0.001 A 
ATOM     42  C   UNL     1       8.029  -2.049  10.295  1.00  0.00     0.001 A 
ATOM     43  C   UNL     1       6.852  -2.393  10.960  1.00  0.00     0.000 A 
ENDBRANCH  24  38
BRANCH  25  44
ATOM     44  C   UNL     1       7.437  -3.351  -1.773  1.00  0.00    -0.014 A 
ATOM     45  C   UNL     1       6.929  -4.445  -2.492  1.00  0.00     0.009 A 
ATOM     46  C   UNL     1       7.983  -2.272  -2.485  1.00  0.00     0.009 A 
ATOM     47  C   UNL     1       6.992  -4.469  -3.889  1.00  0.00     0.001 A 
ATOM     48  C   UNL     1       8.023  -2.288  -3.882  1.00  0.00     0.001 A 
ATOM     49  C   UNL     1       7.536  -3.390  -4.583  1.00  0.00     0.000 A 
ENDBRANCH  25  44
BRANCH  37  50
ATOM     50  C   UNL     1      10.691  -6.912   3.236  1.00  0.00    -0.014 A 
ATOM     51  C   UNL     1      12.029  -6.698   2.875  1.00  0.00     0.009 A 
ATOM     52  C   UNL     1      10.263  -8.209   3.557  1.00  0.00     0.009 A 
ATOM     53  C   UNL     1      12.916  -7.772   2.805  1.00  0.00     0.001 A 
ATOM     54  C   UNL     1      11.158  -9.276   3.509  1.00  0.00     0.001 A 
ATOM     55  C   UNL     1      12.480  -9.059   3.125  1.00  0.00     0.000 A 
ENDBRANCH  37  50
ENDBRANCH  11  12
ENDBRANCH   4   6
ENDBRANCH   3   4
ENDBRANCH   2   3
ENDBRANCH   1   2
BRANCH   1  56
ATOM     56  O   UNL     1       0.314   2.615   0.871  1.00  0.00    -0.461 OA
BRANCH  56  57
ATOM     57  C   UNL     1       0.288   3.835   0.254  1.00  0.00     0.328 C 
ATOM     58  O   UNL     1      -0.737   4.384  -0.131  1.00  0.00    -0.250 OA
BRANCH  57  59
ATOM     59  C   UNL     1       1.696   4.327  -0.128  1.00  0.00     0.194 C 
ATOM     60  C   UNL     1       1.815   5.845  -0.190  1.00  0.00     0.039 C 
ATOM     61  N   UNL     1       2.836   3.941   0.713  1.00  0.00    -0.335 N 
ATOM     62  C   UNL     1       2.324   6.208   1.195  1.00  0.00     0.024 C 
ATOM     63  C   UNL     1       3.275   5.069   1.534  1.00  0.00     0.120 C 
BRANCH  61  64
ATOM     64  C   UNL     1       3.614   2.856   0.339  1.00  0.00     0.174 C 
ATOM     65  S   UNL     1       5.286   2.831   0.309  1.00  0.00    -0.041 S 
BRANCH  64  66
ATOM     66  N   UNL     1       2.852   1.734   0.126  1.00  0.00    -0.333 N 
ATOM     67  H   UNL     1       2.429   1.354   0.930  1.00  0.00     0.169 HD
BRANCH  66  68
ATOM     68  C   UNL     1       2.589   1.048  -1.068  1.00  0.00     0.040 A 
ATOM     69  C   UNL     1       1.853  -0.140  -0.970  1.00  0.00     0.026 A 
ATOM     70  C   UNL     1       2.957   1.536  -2.317  1.00  0.00     0.026 A 
ATOM     71  C   UNL     1       1.468  -0.829  -2.116  1.00  0.00     0.002 A 
ATOM     72  C   UNL     1       2.538   0.864  -3.467  1.00  0.00     0.002 A 
ATOM     73  C   UNL     1       1.794  -0.314  -3.366  1.00  0.00     0.000 A 
ENDBRANCH  66  68
ENDBRANCH  64  66
ENDBRANCH  61  64
ENDBRANCH  57  59
ENDBRANCH  56  57
ENDBRANCH   1  56
TORSDOF 14
