REMARK SMILES C[C@H](O)[C@H](C)C(C)(C)C(=O)OCCOC(=O)c1ccc(-c2c3nc(c(-c4ccccc4)c4ccc([nH]4)c(-c4ccccc4)c4nc(c(-c5ccccc5)c5ccc2[nH]5)C=C4)C=C3)cc1
REMARK SMILES IDX 12 1 11 2 9 3 10 4 6 5 7 6 8 7 4 8 5 9 2 10 1 11 3 12 13 14
REMARK SMILES IDX 14 15 15 16 16 17 17 18 18 19 64 20 19 21 63 22 20 23 21 24
REMARK SMILES IDX 22 25 57 26 23 27 62 28 56 29 58 30 24 31 61 32 55 33 54 34
REMARK SMILES IDX 25 36 47 37 32 38 46 39 33 40 36 41 45 42 59 43 34 44 35 45
REMARK SMILES IDX 44 47 60 48 37 49 26 50 27 51 31 52 28 53 30 54 29 55 48 56
REMARK SMILES IDX 49 57 53 58 50 59 52 60 51 61 38 62 39 63 43 64 40 65 42 66
REMARK SMILES IDX 41 67
REMARK H PARENT 3 13 58 35 36 46
REMARK Flexibility Score: inf
ROOT
ATOM      1  C   UNL     1      -1.037  -2.522  -5.311  1.00  0.00     0.274 C 
ENDROOT
BRANCH   1   2
ATOM      2  O   UNL     1      -1.747  -2.598  -4.056  1.00  0.00    -0.462 OA
BRANCH   2   3
ATOM      3  C   UNL     1      -1.016  -2.422  -2.922  1.00  0.00     0.311 C 
ATOM      4  O   UNL     1       0.167  -2.097  -2.921  1.00  0.00    -0.252 OA
BRANCH   3   5
ATOM      5  C   UNL     1      -1.792  -2.792  -1.645  1.00  0.00     0.067 C 
ATOM      6  C   UNL     1      -1.172  -4.126  -1.164  1.00  0.00     0.024 C 
ATOM      7  C   UNL     1      -3.276  -3.096  -1.952  1.00  0.00     0.024 C 
BRANCH   5   8
ATOM      8  C   UNL     1      -1.659  -1.682  -0.515  1.00  0.00     0.031 C 
ATOM      9  C   UNL     1      -0.212  -1.487  -0.013  1.00  0.00     0.011 C 
BRANCH   8  10
ATOM     10  C   UNL     1      -2.301  -0.312  -0.878  1.00  0.00     0.115 C 
ATOM     11  C   UNL     1      -2.174   0.749   0.214  1.00  0.00     0.038 C 
BRANCH  10  12
ATOM     12  O   UNL     1      -3.697  -0.469  -1.113  1.00  0.00    -0.393 OA
ATOM     13  H   UNL     1      -4.130  -0.766  -0.298  1.00  0.00     0.210 HD
ENDBRANCH  10  12
ENDBRANCH   8  10
ENDBRANCH   5   8
ENDBRANCH   3   5
ENDBRANCH   2   3
ENDBRANCH   1   2
BRANCH   1  14
ATOM     14  C   UNL     1      -1.271  -1.181  -5.997  1.00  0.00     0.275 C 
BRANCH  14  15
ATOM     15  O   UNL     1      -0.619  -0.142  -5.247  1.00  0.00    -0.458 OA
BRANCH  15  16
ATOM     16  C   UNL     1      -1.377   0.937  -4.956  1.00  0.00     0.338 C 
ATOM     17  O   UNL     1      -2.521   1.155  -5.319  1.00  0.00    -0.246 OA
BRANCH  16  18
ATOM     18  C   UNL     1      -0.654   1.852  -4.046  1.00  0.00     0.060 A 
ATOM     19  C   UNL     1       0.071   1.351  -2.969  1.00  0.00     0.016 A 
ATOM     20  C   UNL     1      -0.883   3.225  -4.146  1.00  0.00     0.016 A 
ATOM     21  C   UNL     1       0.393   2.191  -1.901  1.00  0.00     0.010 A 
ATOM     22  C   UNL     1      -0.449   4.081  -3.127  1.00  0.00     0.010 A 
ATOM     23  C   UNL     1       0.111   3.565  -1.944  1.00  0.00    -0.014 A 
BRANCH  23  24
ATOM     24  C   UNL     1       0.257   4.431  -0.730  1.00  0.00     0.031 A 
ATOM     25  C   UNL     1      -0.906   5.286  -0.266  1.00  0.00     0.074 A 
ATOM     26  C   UNL     1       1.378   4.437   0.020  1.00  0.00     0.049 A 
ATOM     27  N   UNL     1      -0.913   6.284   0.584  1.00  0.00    -0.248 NA
ATOM     28  C   UNL     1      -2.226   4.997  -0.851  1.00  0.00     0.031 C 
ATOM     29  C   UNL     1       2.575   3.630  -0.212  1.00  0.00     0.029 A 
ATOM     30  N   UNL     1       1.674   5.138   1.167  1.00  0.00    -0.354 N 
ATOM     31  C   UNL     1      -2.200   6.810   0.543  1.00  0.00     0.074 A 
ATOM     32  C   UNL     1      -2.957   6.002  -0.388  1.00  0.00     0.031 C 
ATOM     33  C   UNL     1       3.431   3.806   0.806  1.00  0.00     0.029 A 
ATOM     34  C   UNL     1       2.899   4.826   1.704  1.00  0.00     0.049 A 
ATOM     35  H   UNL     1       1.064   5.801   1.565  1.00  0.00     0.167 HD
ATOM     36  C   UNL     1      -2.705   7.877   1.208  1.00  0.00     0.031 A 
ATOM     37  C   UNL     1       3.546   5.325   2.773  1.00  0.00     0.031 A 
ATOM     38  C   UNL     1      -2.002   8.614   2.224  1.00  0.00     0.049 A 
ATOM     39  C   UNL     1       2.954   6.474   3.537  1.00  0.00     0.074 A 
ATOM     40  C   UNL     1      -2.426   9.721   2.940  1.00  0.00     0.029 A 
ATOM     41  N   UNL     1      -0.750   8.279   2.710  1.00  0.00    -0.354 N 
ATOM     42  N   UNL     1       1.807   7.079   3.360  1.00  0.00    -0.248 NA
ATOM     43  C   UNL     1       3.773   7.035   4.622  1.00  0.00     0.031 C 
ATOM     44  C   UNL     1      -1.425  10.060   3.858  1.00  0.00     0.029 A 
ATOM     45  C   UNL     1      -0.394   9.145   3.730  1.00  0.00     0.049 A 
ATOM     46  H   UNL     1      -0.196   7.536   2.380  1.00  0.00     0.167 HD
ATOM     47  C   UNL     1       1.775   8.105   4.295  1.00  0.00     0.074 A 
ATOM     48  C   UNL     1       2.997   8.014   5.066  1.00  0.00     0.031 C 
ATOM     49  C   UNL     1       0.827   9.053   4.481  1.00  0.00     0.031 A 
BRANCH  36  50
ATOM     50  C   UNL     1      -4.076   8.352   0.821  1.00  0.00    -0.014 A 
ATOM     51  C   UNL     1      -5.237   7.694   1.248  1.00  0.00     0.009 A 
ATOM     52  C   UNL     1      -4.199   9.520   0.050  1.00  0.00     0.009 A 
ATOM     53  C   UNL     1      -6.496   8.183   0.887  1.00  0.00     0.001 A 
ATOM     54  C   UNL     1      -5.457  10.019  -0.289  1.00  0.00     0.001 A 
ATOM     55  C   UNL     1      -6.605   9.346   0.124  1.00  0.00     0.000 A 
ENDBRANCH  36  50
BRANCH  37  56
ATOM     56  C   UNL     1       4.874   4.780   3.155  1.00  0.00    -0.014 A 
ATOM     57  C   UNL     1       5.011   3.999   4.311  1.00  0.00     0.009 A 
ATOM     58  C   UNL     1       6.007   5.042   2.369  1.00  0.00     0.009 A 
ATOM     59  C   UNL     1       6.262   3.498   4.679  1.00  0.00     0.001 A 
ATOM     60  C   UNL     1       7.250   4.517   2.724  1.00  0.00     0.001 A 
ATOM     61  C   UNL     1       7.377   3.751   3.882  1.00  0.00     0.000 A 
ENDBRANCH  37  56
BRANCH  49  62
ATOM     62  C   UNL     1       1.079  10.064   5.560  1.00  0.00    -0.014 A 
ATOM     63  C   UNL     1       1.977  11.123   5.353  1.00  0.00     0.009 A 
ATOM     64  C   UNL     1       0.407   9.966   6.787  1.00  0.00     0.009 A 
ATOM     65  C   UNL     1       2.221  12.048   6.369  1.00  0.00     0.001 A 
ATOM     66  C   UNL     1       0.641  10.902   7.795  1.00  0.00     0.001 A 
ATOM     67  C   UNL     1       1.553  11.937   7.588  1.00  0.00     0.000 A 
ENDBRANCH  49  62
ENDBRANCH  23  24
ENDBRANCH  16  18
ENDBRANCH  15  16
ENDBRANCH  14  15
ENDBRANCH   1  14
TORSDOF 14
