REMARK SMILES Cc1ccnc(C(=O)c2[nH]c3ccc(F)cc3c2CC(=O)OCCOC(=O)c2ccc(-c3c4nc(c(-c5ccccc5)c5ccc([nH]5)c(-c5ccccc5)c5nc(c(-c6ccccc6)c6ccc3[nH]6)C=C5)C=C4)cc2)c1
REMARK SMILES IDX 23 1 22 2 20 3 21 4 19 5 18 6 9 7 10 8 11 9 17 11 12 12
REMARK SMILES IDX 16 13 13 14 14 15 15 16 7 17 8 18 6 19 1 20 2 21 3 22 76 23
REMARK SMILES IDX 4 24 5 25 24 26 25 27 26 28 27 29 28 30 29 31 75 32 30 33
REMARK SMILES IDX 74 34 31 35 32 36 33 37 68 38 34 39 73 40 67 41 69 42 35 43
REMARK SMILES IDX 72 44 66 45 65 46 36 48 58 49 43 50 57 51 44 52 47 53 56 54
REMARK SMILES IDX 70 55 45 56 46 57 55 59 71 60 48 61 37 62 38 63 42 64 39 65
REMARK SMILES IDX 41 66 40 67 59 68 60 69 64 70 61 71 63 72 62 73 49 74 50 75
REMARK SMILES IDX 54 76 51 77 53 78 52 79
REMARK H PARENT 10 10 69 47 47 58
REMARK Flexibility Score: inf
ROOT
ATOM      1  C   UNL     1      -2.928  -1.919  -2.130  1.00  0.00     0.274 C 
ENDROOT
BRANCH   1   2
ATOM      2  O   UNL     1      -1.982  -2.847  -1.556  1.00  0.00    -0.462 OA
BRANCH   2   3
ATOM      3  C   UNL     1      -1.109  -3.415  -2.429  1.00  0.00     0.310 C 
ATOM      4  O   UNL     1      -1.234  -3.356  -3.652  1.00  0.00    -0.252 OA
BRANCH   3   5
ATOM      5  C   UNL     1       0.140  -3.989  -1.797  1.00  0.00     0.161 C 
BRANCH   5   6
ATOM      6  C   UNL     1       0.091  -4.391  -0.354  1.00  0.00     0.000 A 
ATOM      7  C   UNL     1       0.778  -3.825   0.725  1.00  0.00     0.093 A 
ATOM      8  N   UNL     1       0.659  -4.710   1.775  1.00  0.00    -0.352 N 
ATOM      9  C   UNL     1      -0.034  -5.836   1.398  1.00  0.00     0.046 A 
ATOM     10  H   UNL     1       1.021  -4.556   2.678  1.00  0.00     0.167 HD
ATOM     11  C   UNL     1      -0.478  -5.627   0.095  1.00  0.00     0.007 A 
ATOM     12  C   UNL     1      -0.247  -7.039   2.084  1.00  0.00     0.030 A 
ATOM     13  C   UNL     1      -1.219  -6.643  -0.543  1.00  0.00     0.049 A 
ATOM     14  C   UNL     1      -0.957  -8.045   1.421  1.00  0.00     0.041 A 
ATOM     15  C   UNL     1      -1.444  -7.836   0.138  1.00  0.00     0.123 A 
ATOM     16  F   UNL     1      -2.119  -8.819  -0.475  1.00  0.00    -0.207 F 
BRANCH   7  17
ATOM     17  C   UNL     1       1.744  -2.728   0.770  1.00  0.00     0.227 C 
ATOM     18  O   UNL     1       2.915  -2.949   0.463  1.00  0.00    -0.285 OA
BRANCH  17  19
ATOM     19  C   UNL     1       1.359  -1.338   1.242  1.00  0.00     0.113 A 
ATOM     20  C   UNL     1      -1.658   0.892   1.830  1.00  0.00     0.044 C 
ATOM     21  C   UNL     1      -0.244   0.399   1.722  1.00  0.00    -0.047 A 
ATOM     22  C   UNL     1       0.795   1.327   1.641  1.00  0.00     0.023 A 
ATOM     23  C   UNL     1       0.050  -0.967   1.558  1.00  0.00     0.036 A 
ATOM     24  C   UNL     1       2.077   0.866   1.408  1.00  0.00     0.112 A 
ATOM     25  N   UNL     1       2.380  -0.431   1.209  1.00  0.00    -0.253 NA
ENDBRANCH  17  19
ENDBRANCH   7  17
ENDBRANCH   5   6
ENDBRANCH   3   5
ENDBRANCH   2   3
ENDBRANCH   1   2
BRANCH   1  26
ATOM     26  C   UNL     1      -2.470  -0.462  -1.943  1.00  0.00     0.275 C 
BRANCH  26  27
ATOM     27  O   UNL     1      -1.306  -0.114  -2.732  1.00  0.00    -0.458 OA
BRANCH  27  28
ATOM     28  C   UNL     1      -0.150  -0.474  -2.136  1.00  0.00     0.338 C 
ATOM     29  O   UNL     1      -0.057  -1.085  -1.090  1.00  0.00    -0.246 OA
BRANCH  28  30
ATOM     30  C   UNL     1       1.073  -0.174  -2.868  1.00  0.00     0.060 A 
ATOM     31  C   UNL     1       1.596  -1.168  -3.696  1.00  0.00     0.016 A 
ATOM     32  C   UNL     1       1.848   0.921  -2.479  1.00  0.00     0.016 A 
ATOM     33  C   UNL     1       2.909  -1.066  -4.142  1.00  0.00     0.010 A 
ATOM     34  C   UNL     1       3.145   1.054  -2.976  1.00  0.00     0.010 A 
ATOM     35  C   UNL     1       3.678   0.064  -3.816  1.00  0.00    -0.014 A 
BRANCH  35  36
ATOM     36  C   UNL     1       4.936   0.300  -4.556  1.00  0.00     0.031 A 
ATOM     37  C   UNL     1       6.290   0.129  -3.943  1.00  0.00     0.074 A 
ATOM     38  C   UNL     1       4.805   0.679  -5.841  1.00  0.00     0.049 A 
ATOM     39  N   UNL     1       7.461   0.290  -4.508  1.00  0.00    -0.248 NA
ATOM     40  C   UNL     1       6.348  -0.262  -2.528  1.00  0.00     0.031 C 
ATOM     41  C   UNL     1       3.524   0.874  -6.529  1.00  0.00     0.029 A 
ATOM     42  N   UNL     1       5.743   0.950  -6.798  1.00  0.00    -0.354 N 
ATOM     43  C   UNL     1       8.400   0.025  -3.521  1.00  0.00     0.074 A 
ATOM     44  C   UNL     1       7.660  -0.290  -2.314  1.00  0.00     0.031 C 
ATOM     45  C   UNL     1       3.757   1.198  -7.806  1.00  0.00     0.029 A 
ATOM     46  C   UNL     1       5.197   1.283  -8.011  1.00  0.00     0.049 A 
ATOM     47  H   UNL     1       6.713   0.910  -6.633  1.00  0.00     0.167 HD
ATOM     48  C   UNL     1       9.752   0.045  -3.623  1.00  0.00     0.031 A 
ATOM     49  C   UNL     1       5.784   1.632  -9.168  1.00  0.00     0.031 A 
ATOM     50  C   UNL     1      10.475   0.364  -4.831  1.00  0.00     0.049 A 
ATOM     51  C   UNL     1       7.275   1.673  -9.239  1.00  0.00     0.074 A 
ATOM     52  C   UNL     1      11.844   0.369  -5.041  1.00  0.00     0.029 A 
ATOM     53  N   UNL     1       9.889   0.742  -6.030  1.00  0.00    -0.354 N 
ATOM     54  N   UNL     1       8.148   1.393  -8.303  1.00  0.00    -0.248 NA
ATOM     55  C   UNL     1       7.861   2.078 -10.521  1.00  0.00     0.031 C 
ATOM     56  C   UNL     1      12.088   0.795  -6.352  1.00  0.00     0.029 A 
ATOM     57  C   UNL     1      10.869   1.012  -6.973  1.00  0.00     0.049 A 
ATOM     58  H   UNL     1       8.920   0.809  -6.188  1.00  0.00     0.167 HD
ATOM     59  C   UNL     1       9.392   1.580  -8.884  1.00  0.00     0.074 A 
ATOM     60  C   UNL     1       9.157   1.979 -10.259  1.00  0.00     0.031 C 
ATOM     61  C   UNL     1      10.618   1.434  -8.327  1.00  0.00     0.031 A 
BRANCH  48  62
ATOM     62  C   UNL     1      10.555  -0.264  -2.390  1.00  0.00    -0.014 A 
ATOM     63  C   UNL     1      10.684  -1.577  -1.915  1.00  0.00     0.009 A 
ATOM     64  C   UNL     1      11.263   0.764  -1.745  1.00  0.00     0.009 A 
ATOM     65  C   UNL     1      11.492  -1.853  -0.808  1.00  0.00     0.001 A 
ATOM     66  C   UNL     1      12.084   0.483  -0.651  1.00  0.00     0.001 A 
ATOM     67  C   UNL     1      12.195  -0.825  -0.180  1.00  0.00     0.000 A 
ENDBRANCH  48  62
BRANCH  49  68
ATOM     68  C   UNL     1       4.932   1.969 -10.332  1.00  0.00    -0.014 A 
ATOM     69  C   UNL     1       4.789   1.064 -11.392  1.00  0.00     0.009 A 
ATOM     70  C   UNL     1       4.194   3.163 -10.345  1.00  0.00     0.009 A 
ATOM     71  C   UNL     1       3.923   1.353 -12.448  1.00  0.00     0.001 A 
ATOM     72  C   UNL     1       3.312   3.437 -11.389  1.00  0.00     0.001 A 
ATOM     73  C   UNL     1       3.180   2.533 -12.442  1.00  0.00     0.000 A 
ENDBRANCH  49  68
BRANCH  61  74
ATOM     74  C   UNL     1      11.791   1.711  -9.219  1.00  0.00    -0.014 A 
ATOM     75  C   UNL     1      12.150   3.028  -9.548  1.00  0.00     0.009 A 
ATOM     76  C   UNL     1      12.540   0.646  -9.741  1.00  0.00     0.009 A 
ATOM     77  C   UNL     1      13.217   3.270 -10.414  1.00  0.00     0.001 A 
ATOM     78  C   UNL     1      13.620   0.893 -10.588  1.00  0.00     0.001 A 
ATOM     79  C   UNL     1      13.952   2.204 -10.932  1.00  0.00     0.000 A 
ENDBRANCH  61  74
ENDBRANCH  35  36
ENDBRANCH  28  30
ENDBRANCH  27  28
ENDBRANCH  26  27
ENDBRANCH   1  26
TORSDOF 14
