REMARK SMILES C[NH2+]CCCC(=O)NC[C@@H]1CC[C@H](C(=O)OCCOC(=O)c2ccc(-c3c4nc(c(-c5ccccc5)c5ccc([nH]5)c(-c5ccccc5)c5nc(c(-c6ccccc6)c6ccc3[nH]6)C=C5)C=C4)cc2)O1
REMARK SMILES IDX 14 1 15 2 13 3 10 4 11 5 70 6 12 7 9 8 8 9 6 10 7 11 5 13
REMARK SMILES IDX 4 14 3 15 2 16 1 17 16 20 17 21 18 22 19 23 20 24 21 25
REMARK SMILES IDX 22 26 23 27 69 28 24 29 68 30 25 31 26 32 27 33 62 34 28 35
REMARK SMILES IDX 67 36 61 37 63 38 29 39 66 40 60 41 59 42 30 44 52 45 37 46
REMARK SMILES IDX 51 47 38 48 41 49 50 50 64 51 39 52 40 53 49 55 65 56 42 57
REMARK SMILES IDX 31 58 32 59 36 60 33 61 35 62 34 63 53 64 54 65 58 66 55 67
REMARK SMILES IDX 57 68 56 69 43 70 44 71 48 72 45 73 47 74 46 75
REMARK H PARENT 8 12 2 18 2 19 63 43 41 54
REMARK Flexibility Score: inf
ROOT
ATOM      1  C   UNL     1       1.034   0.020  -5.656  1.00  0.00     0.335 C 
ATOM      2  O   UNL     1       1.544   0.612  -6.600  1.00  0.00    -0.249 OA
ENDROOT
BRANCH   1   3
ATOM      3  C   UNL     1      -0.483   0.015  -5.385  1.00  0.00     0.228 C 
ATOM      4  C   UNL     1      -1.271   1.123  -3.492  1.00  0.00     0.138 C 
ATOM      5  C   UNL     1      -0.864  -0.287  -3.089  1.00  0.00     0.037 C 
ATOM      6  O   UNL     1      -0.928   1.277  -4.882  1.00  0.00    -0.361 OA
ATOM      7  C   UNL     1      -0.961  -1.033  -4.396  1.00  0.00     0.047 C 
BRANCH   4   8
ATOM      8  C   UNL     1      -0.599   2.254  -2.701  1.00  0.00     0.147 C 
BRANCH   8   9
ATOM      9  N   UNL     1      -1.595   3.166  -2.158  1.00  0.00    -0.353 N 
ATOM     10  C   UNL     1      -1.804   3.581  -0.882  1.00  0.00     0.220 C 
ATOM     11  O   UNL     1      -2.793   4.274  -0.642  1.00  0.00    -0.275 OA
ATOM     12  H   UNL     1      -2.217   3.542  -2.823  1.00  0.00     0.163 HD
BRANCH  10  13
ATOM     13  C   UNL     1      -0.830   3.207   0.215  1.00  0.00     0.106 C 
BRANCH  13  14
ATOM     14  C   UNL     1      -1.293   2.010   1.051  1.00  0.00     0.071 C 
BRANCH  14  15
ATOM     15  C   UNL     1      -1.070   0.636   0.415  1.00  0.00     0.260 C 
BRANCH  15  16
ATOM     16  N   UNL     1       0.337   0.325   0.147  1.00  0.00    -0.349 N 
ATOM     17  C   UNL     1       0.893  -0.614   1.111  1.00  0.00     0.330 C 
ATOM     18  H   UNL     1       0.411  -0.080  -0.786  1.00  0.00     0.346 HD
ATOM     19  H   UNL     1       0.866   1.194   0.221  1.00  0.00     0.346 HD
ENDBRANCH  15  16
ENDBRANCH  14  15
ENDBRANCH  13  14
ENDBRANCH  10  13
ENDBRANCH   8   9
ENDBRANCH   4   8
ENDBRANCH   1   3
BRANCH   1  20
ATOM     20  O   UNL     1       1.725  -0.706  -4.734  1.00  0.00    -0.460 OA
BRANCH  20  21
ATOM     21  C   UNL     1       3.143  -0.847  -4.938  1.00  0.00     0.274 C 
BRANCH  21  22
ATOM     22  C   UNL     1       3.473  -2.286  -5.330  1.00  0.00     0.275 C 
BRANCH  22  23
ATOM     23  O   UNL     1       2.806  -2.623  -6.561  1.00  0.00    -0.458 OA
BRANCH  23  24
ATOM     24  C   UNL     1       1.793  -3.513  -6.453  1.00  0.00     0.338 C 
ATOM     25  O   UNL     1       1.422  -4.116  -5.463  1.00  0.00    -0.246 OA
BRANCH  24  26
ATOM     26  C   UNL     1       1.079  -3.568  -7.735  1.00  0.00     0.060 A 
ATOM     27  C   UNL     1       0.037  -2.666  -7.943  1.00  0.00     0.016 A 
ATOM     28  C   UNL     1       1.360  -4.555  -8.676  1.00  0.00     0.016 A 
ATOM     29  C   UNL     1      -0.745  -2.742  -9.089  1.00  0.00     0.010 A 
ATOM     30  C   UNL     1       0.592  -4.618  -9.842  1.00  0.00     0.010 A 
ATOM     31  C   UNL     1      -0.474  -3.721 -10.050  1.00  0.00    -0.014 A 
BRANCH  31  32
ATOM     32  C   UNL     1      -1.344  -3.843 -11.242  1.00  0.00     0.031 A 
ATOM     33  C   UNL     1      -2.243  -5.035 -11.389  1.00  0.00     0.074 A 
ATOM     34  C   UNL     1      -1.339  -2.882 -12.185  1.00  0.00     0.049 A 
ATOM     35  N   UNL     1      -2.961  -5.408 -12.417  1.00  0.00    -0.248 NA
ATOM     36  C   UNL     1      -2.342  -5.930 -10.225  1.00  0.00     0.031 C 
ATOM     37  C   UNL     1      -0.559  -1.645 -12.132  1.00  0.00     0.029 A 
ATOM     38  N   UNL     1      -2.012  -2.804 -13.378  1.00  0.00    -0.354 N 
ATOM     39  C   UNL     1      -3.555  -6.606 -12.045  1.00  0.00     0.074 A 
ATOM     40  C   UNL     1      -3.121  -6.894 -10.694  1.00  0.00     0.031 C 
ATOM     41  C   UNL     1      -0.800  -0.929 -13.242  1.00  0.00     0.029 A 
ATOM     42  C   UNL     1      -1.699  -1.685 -14.108  1.00  0.00     0.049 A 
ATOM     43  H   UNL     1      -2.657  -3.484 -13.680  1.00  0.00     0.167 HD
ATOM     44  C   UNL     1      -4.378  -7.400 -12.769  1.00  0.00     0.031 A 
ATOM     45  C   UNL     1      -2.059  -1.328 -15.355  1.00  0.00     0.031 A 
ATOM     46  C   UNL     1      -4.829  -7.098 -14.101  1.00  0.00     0.049 A 
ATOM     47  C   UNL     1      -2.945  -2.239 -16.154  1.00  0.00     0.074 A 
ATOM     48  C   UNL     1      -5.677  -7.830 -14.913  1.00  0.00     0.029 A 
ATOM     49  N   UNL     1      -4.471  -5.963 -14.813  1.00  0.00    -0.354 N 
ATOM     50  N   UNL     1      -3.470  -3.389 -15.807  1.00  0.00    -0.248 NA
ATOM     51  C   UNL     1      -3.274  -1.811 -17.521  1.00  0.00     0.031 C 
ATOM     52  C   UNL     1      -5.803  -7.155 -16.133  1.00  0.00     0.029 A 
ATOM     53  C   UNL     1      -5.065  -5.984 -16.064  1.00  0.00     0.049 A 
ATOM     54  H   UNL     1      -3.882  -5.249 -14.479  1.00  0.00     0.167 HD
ATOM     55  C   UNL     1      -4.196  -3.821 -16.909  1.00  0.00     0.074 A 
ATOM     56  C   UNL     1      -4.059  -2.800 -17.929  1.00  0.00     0.031 C 
ATOM     57  C   UNL     1      -4.907  -4.963 -17.065  1.00  0.00     0.031 A 
BRANCH  44  58
ATOM     58  C   UNL     1      -4.796  -8.701 -12.149  1.00  0.00    -0.014 A 
ATOM     59  C   UNL     1      -5.755  -8.755 -11.127  1.00  0.00     0.009 A 
ATOM     60  C   UNL     1      -4.218  -9.896 -12.606  1.00  0.00     0.009 A 
ATOM     61  C   UNL     1      -6.102  -9.979 -10.551  1.00  0.00     0.001 A 
ATOM     62  C   UNL     1      -4.583 -11.120 -12.044  1.00  0.00     0.001 A 
ATOM     63  C   UNL     1      -5.518 -11.160 -11.011  1.00  0.00     0.000 A 
ENDBRANCH  44  58
BRANCH  45  64
ATOM     64  C   UNL     1      -1.527  -0.071 -15.939  1.00  0.00    -0.014 A 
ATOM     65  C   UNL     1      -2.354   1.048 -16.105  1.00  0.00     0.009 A 
ATOM     66  C   UNL     1      -0.175   0.019 -16.309  1.00  0.00     0.009 A 
ATOM     67  C   UNL     1      -1.838   2.232 -16.638  1.00  0.00     0.001 A 
ATOM     68  C   UNL     1       0.343   1.211 -16.818  1.00  0.00     0.001 A 
ATOM     69  C   UNL     1      -0.490   2.315 -16.987  1.00  0.00     0.000 A 
ENDBRANCH  45  64
BRANCH  57  70
ATOM     70  C   UNL     1      -5.600  -5.159 -18.381  1.00  0.00    -0.014 A 
ATOM     71  C   UNL     1      -4.883  -5.557 -19.520  1.00  0.00     0.009 A 
ATOM     72  C   UNL     1      -6.988  -4.981 -18.472  1.00  0.00     0.009 A 
ATOM     73  C   UNL     1      -5.544  -5.750 -20.734  1.00  0.00     0.001 A 
ATOM     74  C   UNL     1      -7.649  -5.194 -19.682  1.00  0.00     0.001 A 
ATOM     75  C   UNL     1      -6.926  -5.572 -20.813  1.00  0.00     0.000 A 
ENDBRANCH  57  70
ENDBRANCH  31  32
ENDBRANCH  24  26
ENDBRANCH  23  24
ENDBRANCH  22  23
ENDBRANCH  21  22
ENDBRANCH  20  21
ENDBRANCH   1  20
TORSDOF 17
