REMARK SMILES O=C(CCN1C(=O)S/C(=C\c2ccc(F)cc2)C1=O)Nc1ccc(O)cc1C(=O)OCCOC(=O)c1ccc(-c2c3nc(c(-c4ccccc4)c4ccc([nH]4)c(-c4ccccc4)c4nc(c(-c5ccccc5)c5ccc2[nH]5)C=C4)C=C3)cc1
REMARK SMILES IDX 30 1 28 2 29 3 27 4 21 5 22 6 23 7 26 8 24 9 20 10 1 11 2 12
REMARK SMILES IDX 3 14 4 15 5 16 6 17 18 18 7 19 8 20 9 21 19 22 10 23 11 24
REMARK SMILES IDX 12 25 17 26 13 27 16 28 14 29 15 30 25 31 31 33 32 34 33 35
REMARK SMILES IDX 34 36 35 37 36 38 37 39 83 40 38 41 82 42 39 43 40 44 41 45
REMARK SMILES IDX 76 46 42 47 81 48 75 49 77 50 43 51 80 52 74 53 73 54 44 56
REMARK SMILES IDX 66 57 51 58 65 59 52 60 55 61 64 62 78 63 53 64 54 65 63 67
REMARK SMILES IDX 79 68 56 69 45 70 46 71 50 72 47 73 49 74 48 75 67 76 68 77
REMARK SMILES IDX 72 78 69 79 71 80 70 81 57 82 58 83 62 84 59 85 61 86 60 87
REMARK H PARENT 20 13 25 32 77 55 55 66
REMARK Flexibility Score: inf
ROOT
ATOM      1  O   UNL     1       3.607  -0.577   2.915  1.00  0.00    -0.458 OA
ENDROOT
BRANCH   1   2
ATOM      2  C   UNL     1       3.512  -1.936   2.922  1.00  0.00     0.340 C 
ATOM      3  O   UNL     1       4.311  -2.690   3.453  1.00  0.00    -0.246 OA
BRANCH   2   4
ATOM      4  C   UNL     1       2.280  -2.418   2.225  1.00  0.00     0.087 A 
ATOM      5  C   UNL     1       1.662  -1.735   1.154  1.00  0.00     0.056 A 
ATOM      6  C   UNL     1       0.498  -2.281   0.593  1.00  0.00     0.031 A 
ATOM      7  C   UNL     1      -0.044  -3.481   1.071  1.00  0.00     0.048 A 
ATOM      8  C   UNL     1       1.768  -3.658   2.646  1.00  0.00     0.064 A 
ATOM      9  C   UNL     1       0.601  -4.163   2.091  1.00  0.00     0.116 A 
BRANCH   5  10
ATOM     10  N   UNL     1       2.299  -0.592   0.617  1.00  0.00    -0.325 N 
ATOM     11  O   UNL     1       0.900   0.090  -1.092  1.00  0.00    -0.275 OA
ATOM     12  C   UNL     1       1.982   0.130  -0.508  1.00  0.00     0.226 C 
ATOM     13  H   UNL     1       3.081  -0.268   1.120  1.00  0.00     0.169 HD
BRANCH  12  14
ATOM     14  C   UNL     1       3.118   0.973  -1.094  1.00  0.00     0.122 C 
BRANCH  14  15
ATOM     15  C   UNL     1       4.251   1.441  -0.182  1.00  0.00     0.140 C 
BRANCH  15  16
ATOM     16  N   UNL     1       5.401   0.557   0.069  1.00  0.00    -0.268 N 
ATOM     17  C   UNL     1       6.518   1.087   0.680  1.00  0.00     0.293 C 
ATOM     18  C   UNL     1       5.429  -0.803  -0.123  1.00  0.00     0.268 C 
ATOM     19  O   UNL     1       6.689   2.254   0.995  1.00  0.00    -0.261 OA
ATOM     20  S   UNL     1       7.656  -0.183   1.111  1.00  0.00    -0.022 SA
ATOM     21  C   UNL     1       6.568  -1.409   0.622  1.00  0.00     0.083 C 
ATOM     22  O   UNL     1       4.606  -1.467  -0.735  1.00  0.00    -0.268 OA
ATOM     23  C   UNL     1       6.549  -2.711   0.936  1.00  0.00     0.029 C 
BRANCH  23  24
ATOM     24  C   UNL     1       7.417  -3.471   1.849  1.00  0.00    -0.024 A 
ATOM     25  C   UNL     1       7.516  -3.149   3.211  1.00  0.00     0.011 A 
ATOM     26  C   UNL     1       8.004  -4.658   1.393  1.00  0.00     0.011 A 
ATOM     27  C   UNL     1       8.175  -3.998   4.103  1.00  0.00     0.040 A 
ATOM     28  C   UNL     1       8.674  -5.504   2.283  1.00  0.00     0.040 A 
ATOM     29  C   UNL     1       8.745  -5.171   3.630  1.00  0.00     0.123 A 
ATOM     30  F   UNL     1       9.352  -6.003   4.486  1.00  0.00    -0.207 F 
ENDBRANCH  23  24
ENDBRANCH  15  16
ENDBRANCH  14  15
ENDBRANCH  12  14
ENDBRANCH   5  10
BRANCH   9  31
ATOM     31  O   UNL     1       0.122  -5.338   2.585  1.00  0.00    -0.508 OA
ATOM     32  H   UNL     1      -0.664  -5.709   2.234  1.00  0.00     0.293 HD
ENDBRANCH   9  31
ENDBRANCH   2   4
ENDBRANCH   1   2
BRANCH   1  33
ATOM     33  C   UNL     1       4.785   0.008   3.512  1.00  0.00     0.275 C 
BRANCH  33  34
ATOM     34  C   UNL     1       4.574   0.636   4.885  1.00  0.00     0.275 C 
BRANCH  34  35
ATOM     35  O   UNL     1       4.302  -0.365   5.868  1.00  0.00    -0.458 OA
BRANCH  35  36
ATOM     36  C   UNL     1       2.984  -0.580   6.050  1.00  0.00     0.338 C 
ATOM     37  O   UNL     1       2.052   0.008   5.527  1.00  0.00    -0.246 OA
BRANCH  36  38
ATOM     38  C   UNL     1       2.788  -1.762   6.883  1.00  0.00     0.060 A 
ATOM     39  C   UNL     1       2.396  -2.922   6.222  1.00  0.00     0.016 A 
ATOM     40  C   UNL     1       2.751  -1.674   8.270  1.00  0.00     0.016 A 
ATOM     41  C   UNL     1       1.844  -3.973   6.928  1.00  0.00     0.010 A 
ATOM     42  C   UNL     1       2.232  -2.750   8.992  1.00  0.00     0.010 A 
ATOM     43  C   UNL     1       1.712  -3.871   8.314  1.00  0.00    -0.014 A 
BRANCH  43  44
ATOM     44  C   UNL     1       0.835  -4.834   9.012  1.00  0.00     0.031 A 
ATOM     45  C   UNL     1      -0.479  -4.344   9.557  1.00  0.00     0.074 A 
ATOM     46  C   UNL     1       1.158  -6.137   9.068  1.00  0.00     0.049 A 
ATOM     47  N   UNL     1      -1.335  -4.956  10.332  1.00  0.00    -0.248 NA
ATOM     48  C   UNL     1      -0.876  -2.974   9.188  1.00  0.00     0.031 C 
ATOM     49  C   UNL     1       2.347  -6.744   8.468  1.00  0.00     0.029 A 
ATOM     50  N   UNL     1       0.495  -7.189   9.642  1.00  0.00    -0.354 N 
ATOM     51  C   UNL     1      -2.329  -4.023  10.600  1.00  0.00     0.074 A 
ATOM     52  C   UNL     1      -1.977  -2.807   9.904  1.00  0.00     0.031 C 
ATOM     53  C   UNL     1       2.314  -8.069   8.681  1.00  0.00     0.029 A 
ATOM     54  C   UNL     1       1.146  -8.388   9.495  1.00  0.00     0.049 A 
ATOM     55  H   UNL     1      -0.364  -7.095  10.113  1.00  0.00     0.167 HD
ATOM     56  C   UNL     1      -3.434  -4.172  11.368  1.00  0.00     0.031 A 
ATOM     57  C   UNL     1       0.847  -9.600   9.995  1.00  0.00     0.031 A 
ATOM     58  C   UNL     1      -3.793  -5.407  12.010  1.00  0.00     0.049 A 
ATOM     59  C   UNL     1      -0.370  -9.737  10.865  1.00  0.00     0.074 A 
ATOM     60  C   UNL     1      -4.870  -5.676  12.834  1.00  0.00     0.029 A 
ATOM     61  N   UNL     1      -3.088  -6.594  11.867  1.00  0.00    -0.354 N 
ATOM     62  N   UNL     1      -1.249  -8.825  11.206  1.00  0.00    -0.248 NA
ATOM     63  C   UNL     1      -0.629 -11.068  11.428  1.00  0.00     0.031 C 
ATOM     64  C   UNL     1      -4.802  -7.022  13.212  1.00  0.00     0.029 A 
ATOM     65  C   UNL     1      -3.708  -7.600  12.585  1.00  0.00     0.049 A 
ATOM     66  H   UNL     1      -2.268  -6.703  11.335  1.00  0.00     0.167 HD
ATOM     67  C   UNL     1      -2.176  -9.473  12.010  1.00  0.00     0.074 A 
ATOM     68  C   UNL     1      -1.760 -10.861  12.088  1.00  0.00     0.031 C 
ATOM     69  C   UNL     1      -3.270  -8.971  12.633  1.00  0.00     0.031 A 
BRANCH  56  70
ATOM     70  C   UNL     1      -4.286  -2.955  11.596  1.00  0.00    -0.014 A 
ATOM     71  C   UNL     1      -5.092  -2.414  10.583  1.00  0.00     0.009 A 
ATOM     72  C   UNL     1      -4.272  -2.334  12.856  1.00  0.00     0.009 A 
ATOM     73  C   UNL     1      -5.838  -1.255  10.817  1.00  0.00     0.001 A 
ATOM     74  C   UNL     1      -5.040  -1.193  13.095  1.00  0.00     0.001 A 
ATOM     75  C   UNL     1      -5.813  -0.648  12.072  1.00  0.00     0.000 A 
ENDBRANCH  56  70
BRANCH  57  76
ATOM     76  C   UNL     1       1.735 -10.757   9.717  1.00  0.00    -0.014 A 
ATOM     77  C   UNL     1       1.304 -11.809   8.896  1.00  0.00     0.009 A 
ATOM     78  C   UNL     1       3.029 -10.807  10.260  1.00  0.00     0.009 A 
ATOM     79  C   UNL     1       2.145 -12.894   8.637  1.00  0.00     0.001 A 
ATOM     80  C   UNL     1       3.878 -11.878   9.976  1.00  0.00     0.001 A 
ATOM     81  C   UNL     1       3.433 -12.924   9.171  1.00  0.00     0.000 A 
ENDBRANCH  57  76
BRANCH  69  82
ATOM     82  C   UNL     1      -4.109  -9.943  13.407  1.00  0.00    -0.014 A 
ATOM     83  C   UNL     1      -3.689 -10.441  14.649  1.00  0.00     0.009 A 
ATOM     84  C   UNL     1      -5.350 -10.347  12.890  1.00  0.00     0.009 A 
ATOM     85  C   UNL     1      -4.481 -11.357  15.343  1.00  0.00     0.001 A 
ATOM     86  C   UNL     1      -6.151 -11.242  13.598  1.00  0.00     0.001 A 
ATOM     87  C   UNL     1      -5.711 -11.754  14.818  1.00  0.00     0.000 A 
ENDBRANCH  69  82
ENDBRANCH  43  44
ENDBRANCH  36  38
ENDBRANCH  35  36
ENDBRANCH  34  35
ENDBRANCH  33  34
ENDBRANCH   1  33
TORSDOF 17
