REMARK SMILES O=C(OCCOC(=O)[C@@]1(CCc2ccccc2)CCC[N@@H+](Cc2cccnc2)C1)c1ccc(-c2c3nc(c(-c4ccccc4)c4ccc([nH]4)c(-c4ccccc4)c4nc(c(-c5ccccc5)c5ccc2[nH]5)C=C4)C=C3)cc1
REMARK SMILES IDX 5 1 4 2 3 3 2 4 1 5 30 6 31 7 77 8 32 9 76 10 33 11 34 12
REMARK SMILES IDX 35 13 70 14 36 15 75 16 69 17 71 18 37 19 74 20 68 21 67 22
REMARK SMILES IDX 38 24 60 25 45 26 59 27 46 28 49 29 58 30 72 31 47 32 48 33
REMARK SMILES IDX 57 35 73 36 50 37 39 38 40 39 44 40 41 41 43 42 42 43 61 44
REMARK SMILES IDX 62 45 66 46 63 47 65 48 64 49 51 50 52 51 56 52 53 53 55 54
REMARK SMILES IDX 54 55 6 56 7 57 8 58 9 59 18 60 29 61 19 62 21 63 20 64
REMARK SMILES IDX 10 66 11 67 12 68 13 69 17 70 14 71 16 72 15 73 22 74 23 75
REMARK SMILES IDX 24 76 28 77 25 78 27 79 26 80
REMARK H PARENT 71 23 49 34 21 65
REMARK Flexibility Score: inf
ROOT
ATOM      1  C   UNL     1       2.071   3.145   4.933  1.00  0.00     0.274 C 
ENDROOT
BRANCH   1   2
ATOM      2  C   UNL     1       0.604   3.568   5.117  1.00  0.00     0.275 C 
BRANCH   2   3
ATOM      3  O   UNL     1      -0.324   2.489   5.029  1.00  0.00    -0.458 OA
BRANCH   3   4
ATOM      4  C   UNL     1      -0.748   1.862   3.918  1.00  0.00     0.338 C 
ATOM      5  O   UNL     1      -1.369   0.801   4.072  1.00  0.00    -0.246 OA
BRANCH   4   6
ATOM      6  C   UNL     1      -0.460   2.305   2.506  1.00  0.00     0.060 A 
ATOM      7  C   UNL     1       0.351   3.351   2.042  1.00  0.00     0.016 A 
ATOM      8  C   UNL     1      -0.963   1.444   1.537  1.00  0.00     0.016 A 
ATOM      9  C   UNL     1       0.789   3.418   0.701  1.00  0.00     0.010 A 
ATOM     10  C   UNL     1      -0.463   1.467   0.238  1.00  0.00     0.010 A 
ATOM     11  C   UNL     1       0.475   2.408  -0.202  1.00  0.00    -0.014 A 
BRANCH  11  12
ATOM     12  C   UNL     1       1.097   2.257  -1.561  1.00  0.00     0.031 A 
ATOM     13  C   UNL     1       0.223   1.828  -2.722  1.00  0.00     0.074 A 
ATOM     14  C   UNL     1       2.438   2.292  -1.748  1.00  0.00     0.049 A 
ATOM     15  N   UNL     1       0.557   1.280  -3.863  1.00  0.00    -0.248 NA
ATOM     16  C   UNL     1      -1.231   1.905  -2.509  1.00  0.00     0.031 C 
ATOM     17  C   UNL     1       3.462   2.546  -0.729  1.00  0.00     0.029 A 
ATOM     18  N   UNL     1       3.180   2.079  -2.889  1.00  0.00    -0.354 N 
ATOM     19  C   UNL     1      -0.635   0.797  -4.397  1.00  0.00     0.074 A 
ATOM     20  C   UNL     1      -1.661   1.038  -3.412  1.00  0.00     0.031 C 
ATOM     21  C   UNL     1       4.683   2.507  -1.292  1.00  0.00     0.029 A 
ATOM     22  C   UNL     1       4.538   2.219  -2.712  1.00  0.00     0.049 A 
ATOM     23  H   UNL     1       2.775   1.847  -3.755  1.00  0.00     0.167 HD
ATOM     24  C   UNL     1      -0.872   0.265  -5.621  1.00  0.00     0.031 A 
ATOM     25  C   UNL     1       5.546   2.157  -3.604  1.00  0.00     0.031 A 
ATOM     26  C   UNL     1       0.105   0.285  -6.675  1.00  0.00     0.049 A 
ATOM     27  C   UNL     1       5.207   1.923  -5.051  1.00  0.00     0.074 A 
ATOM     28  C   UNL     1      -0.061   0.013  -8.021  1.00  0.00     0.029 A 
ATOM     29  N   UNL     1       1.419   0.692  -6.506  1.00  0.00    -0.354 N 
ATOM     30  N   UNL     1       4.070   1.536  -5.577  1.00  0.00    -0.248 NA
ATOM     31  C   UNL     1       6.266   2.188  -6.035  1.00  0.00     0.031 C 
ATOM     32  C   UNL     1       1.145   0.296  -8.673  1.00  0.00     0.029 A 
ATOM     33  C   UNL     1       2.051   0.759  -7.732  1.00  0.00     0.049 A 
ATOM     34  H   UNL     1       1.839   0.903  -5.641  1.00  0.00     0.167 HD
ATOM     35  C   UNL     1       4.259   1.568  -6.952  1.00  0.00     0.074 A 
ATOM     36  C   UNL     1       5.616   2.019  -7.178  1.00  0.00     0.031 C 
ATOM     37  C   UNL     1       3.385   1.255  -7.938  1.00  0.00     0.031 A 
BRANCH  24  38
ATOM     38  C   UNL     1      -2.251  -0.281  -5.908  1.00  0.00    -0.014 A 
ATOM     39  C   UNL     1      -3.400   0.525  -5.842  1.00  0.00     0.009 A 
ATOM     40  C   UNL     1      -2.407  -1.633  -6.253  1.00  0.00     0.009 A 
ATOM     41  C   UNL     1      -4.673  -0.025  -6.006  1.00  0.00     0.001 A 
ATOM     42  C   UNL     1      -3.678  -2.170  -6.478  1.00  0.00     0.001 A 
ATOM     43  C   UNL     1      -4.811  -1.372  -6.328  1.00  0.00     0.000 A 
ENDBRANCH  24  38
BRANCH  25  44
ATOM     44  C   UNL     1       6.944   2.477  -3.204  1.00  0.00    -0.014 A 
ATOM     45  C   UNL     1       7.486   3.737  -3.514  1.00  0.00     0.009 A 
ATOM     46  C   UNL     1       7.755   1.537  -2.554  1.00  0.00     0.009 A 
ATOM     47  C   UNL     1       8.822   4.031  -3.231  1.00  0.00     0.001 A 
ATOM     48  C   UNL     1       9.086   1.844  -2.247  1.00  0.00     0.001 A 
ATOM     49  C   UNL     1       9.622   3.084  -2.597  1.00  0.00     0.000 A 
ENDBRANCH  25  44
BRANCH  37  50
ATOM     50  C   UNL     1       3.832   1.483  -9.351  1.00  0.00    -0.014 A 
ATOM     51  C   UNL     1       4.776   0.649  -9.968  1.00  0.00     0.009 A 
ATOM     52  C   UNL     1       3.259   2.532 -10.088  1.00  0.00     0.009 A 
ATOM     53  C   UNL     1       5.166   0.886 -11.287  1.00  0.00     0.001 A 
ATOM     54  C   UNL     1       3.631   2.749 -11.415  1.00  0.00     0.001 A 
ATOM     55  C   UNL     1       4.591   1.932 -12.009  1.00  0.00     0.000 A 
ENDBRANCH  37  50
ENDBRANCH  11  12
ENDBRANCH   4   6
ENDBRANCH   3   4
ENDBRANCH   2   3
ENDBRANCH   1   2
BRANCH   1  56
ATOM     56  O   UNL     1       2.308   2.103   3.951  1.00  0.00    -0.461 OA
BRANCH  56  57
ATOM     57  C   UNL     1       2.515   0.855   4.457  1.00  0.00     0.317 C 
ATOM     58  O   UNL     1       2.450   0.621   5.670  1.00  0.00    -0.251 OA
BRANCH  57  59
ATOM     59  C   UNL     1       2.923  -0.240   3.429  1.00  0.00     0.117 C 
ATOM     60  C   UNL     1       4.419  -0.534   3.714  1.00  0.00     0.030 C 
ATOM     61  C   UNL     1       2.113  -1.481   3.837  1.00  0.00     0.281 C 
ATOM     62  C   UNL     1       4.889  -1.877   3.162  1.00  0.00     0.063 C 
ATOM     63  N   UNL     1       2.563  -2.676   3.151  1.00  0.00    -0.330 N 
ATOM     64  C   UNL     1       3.933  -3.032   3.497  1.00  0.00     0.262 C 
ATOM     65  H   UNL     1       2.557  -2.354   2.184  1.00  0.00     0.348 HD
BRANCH  59  66
ATOM     66  C   UNL     1       2.665   0.166   1.927  1.00  0.00     0.029 C 
BRANCH  66  67
ATOM     67  C   UNL     1       2.483  -0.865   0.759  1.00  0.00     0.037 C 
BRANCH  67  68
ATOM     68  C   UNL     1       1.114  -1.321   0.247  1.00  0.00    -0.048 A 
ATOM     69  C   UNL     1      -0.000  -1.569   1.058  1.00  0.00     0.004 A 
ATOM     70  C   UNL     1       0.945  -1.577  -1.128  1.00  0.00     0.004 A 
ATOM     71  C   UNL     1      -1.215  -2.054   0.550  1.00  0.00     0.000 A 
ATOM     72  C   UNL     1      -0.278  -2.032  -1.651  1.00  0.00     0.000 A 
ATOM     73  C   UNL     1      -1.358  -2.277  -0.810  1.00  0.00     0.000 A 
ENDBRANCH  67  68
ENDBRANCH  66  67
ENDBRANCH  59  66
BRANCH  63  74
ATOM     74  C   UNL     1       1.647  -3.793   2.914  1.00  0.00     0.300 C 
BRANCH  74  75
ATOM     75  C   UNL     1       0.555  -4.178   3.886  1.00  0.00     0.025 A 
ATOM     76  C   UNL     1      -0.335  -3.308   4.524  1.00  0.00     0.013 A 
ATOM     77  C   UNL     1       0.259  -5.536   4.021  1.00  0.00     0.120 A 
ATOM     78  C   UNL     1      -1.386  -3.795   5.296  1.00  0.00     0.021 A 
ATOM     79  N   UNL     1      -0.759  -6.048   4.754  1.00  0.00    -0.264 NA
ATOM     80  C   UNL     1      -1.553  -5.161   5.384  1.00  0.00     0.111 A 
ENDBRANCH  74  75
ENDBRANCH  63  74
ENDBRANCH  57  59
ENDBRANCH  56  57
ENDBRANCH   1  56
TORSDOF 16
