REMARK SMILES Cc1ccc2cc(C[N@H+]3CC[NH2+][C@H](C(=O)OCCOC(=O)c4ccc(-c5c6nc(c(-c7ccccc7)c7ccc([nH]7)c(-c7ccccc7)c7nc(c(-c8ccccc8)c8ccc5[nH]8)C=C7)C=C6)cc4)C3)c(N3CCOCC3)nc2c1
REMARK SMILES IDX 17 1 16 2 14 3 15 4 13 5 9 6 10 7 70 8 11 10 12 11 8 14 7 15
REMARK SMILES IDX 1 16 2 17 3 18 80 19 4 20 79 21 5 22 78 23 6 24 71 25 72 26
REMARK SMILES IDX 73 27 77 28 74 29 76 30 75 31 18 32 19 33 20 34 21 35 22 36
REMARK SMILES IDX 23 37 69 38 24 39 68 40 25 41 26 42 27 43 62 44 28 45 67 46
REMARK SMILES IDX 61 47 63 48 29 49 66 50 60 51 59 52 30 54 52 55 37 56 51 57
REMARK SMILES IDX 38 58 41 59 50 60 64 61 39 62 40 63 49 65 65 66 42 67 31 68
REMARK SMILES IDX 32 69 36 70 33 71 35 72 34 73 53 74 54 75 58 76 55 77 57 78
REMARK SMILES IDX 56 79 43 80 44 81 48 82 45 83 47 84 46 85
REMARK H PARENT 9 9 12 12 12 13 63 53 41 64
REMARK Flexibility Score: inf
ROOT
ATOM      1  C   UNL     1       2.483  -4.656   2.826  1.00  0.00     0.274 C 
ENDROOT
BRANCH   1   2
ATOM      2  O   UNL     1       1.404  -4.227   3.688  1.00  0.00    -0.457 OA
BRANCH   2   3
ATOM      3  C   UNL     1       0.103  -4.435   3.287  1.00  0.00     0.371 C 
ATOM      4  O   UNL     1      -0.224  -5.105   2.318  1.00  0.00    -0.245 OA
BRANCH   3   5
ATOM      5  C   UNL     1      -0.834  -3.617   4.194  1.00  0.00     0.348 C 
ATOM      6  N   UNL     1      -1.270  -3.020   6.619  1.00  0.00    -0.321 N 
ATOM      7  C   UNL     1      -2.641  -2.678   6.207  1.00  0.00     0.324 C 
ATOM      8  C   UNL     1      -0.645  -3.952   5.689  1.00  0.00     0.341 C 
ATOM      9  H   UNL     1      -1.414  -3.506   7.504  1.00  0.00     0.348 HD
ATOM     10  C   UNL     1      -2.938  -2.620   4.675  1.00  0.00     0.323 C 
ATOM     11  N   UNL     1      -2.279  -3.667   3.850  1.00  0.00    -0.325 N 
ATOM     12  H   UNL     1      -2.414  -3.473   2.858  1.00  0.00     0.347 HD
ATOM     13  H   UNL     1      -2.674  -4.589   4.035  1.00  0.00     0.347 HD
BRANCH   6  14
ATOM     14  C   UNL     1      -0.390  -1.942   7.092  1.00  0.00     0.303 C 
BRANCH  14  15
ATOM     15  C   UNL     1      -0.049  -0.850   6.102  1.00  0.00     0.049 A 
ATOM     16  C   UNL     1       0.343   1.586   0.133  1.00  0.00     0.044 C 
ATOM     17  C   UNL     1       0.522   0.919   1.464  1.00  0.00    -0.049 A 
ATOM     18  C   UNL     1       1.333  -0.210   1.549  1.00  0.00     0.004 A 
ATOM     19  C   UNL     1      -0.141   1.377   2.622  1.00  0.00     0.032 A 
ATOM     20  C   UNL     1       1.515  -0.831   2.776  1.00  0.00     0.010 A 
ATOM     21  C   UNL     1      -0.034   0.726   3.854  1.00  0.00     0.073 A 
ATOM     22  C   UNL     1       0.831  -0.378   3.914  1.00  0.00     0.001 A 
ATOM     23  N   UNL     1      -0.767   1.113   4.926  1.00  0.00    -0.230 NA
ATOM     24  C   UNL     1       0.886  -1.106   5.098  1.00  0.00     0.023 A 
ATOM     25  C   UNL     1      -0.770   0.345   6.044  1.00  0.00     0.138 A 
BRANCH  25  26
ATOM     26  N   UNL     1      -1.538   0.719   7.126  1.00  0.00    -0.352 N 
ATOM     27  C   UNL     1      -0.876   1.006   8.407  1.00  0.00     0.146 C 
ATOM     28  C   UNL     1      -2.798   1.428   6.940  1.00  0.00     0.146 C 
ATOM     29  C   UNL     1      -1.853   0.664   9.545  1.00  0.00     0.181 C 
ATOM     30  C   UNL     1      -3.711   1.066   8.130  1.00  0.00     0.181 C 
ATOM     31  O   UNL     1      -3.096   1.374   9.398  1.00  0.00    -0.378 OA
ENDBRANCH  25  26
ENDBRANCH  14  15
ENDBRANCH   6  14
ENDBRANCH   3   5
ENDBRANCH   2   3
ENDBRANCH   1   2
BRANCH   1  32
ATOM     32  C   UNL     1       3.496  -5.525   3.579  1.00  0.00     0.275 C 
BRANCH  32  33
ATOM     33  O   UNL     1       2.930  -6.825   3.801  1.00  0.00    -0.458 OA
BRANCH  33  34
ATOM     34  C   UNL     1       2.360  -6.987   5.016  1.00  0.00     0.338 C 
ATOM     35  O   UNL     1       2.498  -6.290   6.005  1.00  0.00    -0.246 OA
BRANCH  34  36
ATOM     36  C   UNL     1       1.232  -7.907   4.826  1.00  0.00     0.060 A 
ATOM     37  C   UNL     1       1.351  -9.251   4.507  1.00  0.00     0.016 A 
ATOM     38  C   UNL     1      -0.023  -7.321   4.948  1.00  0.00     0.016 A 
ATOM     39  C   UNL     1       0.181  -9.992   4.317  1.00  0.00     0.010 A 
ATOM     40  C   UNL     1      -1.187  -8.034   4.753  1.00  0.00     0.010 A 
ATOM     41  C   UNL     1      -1.089  -9.384   4.440  1.00  0.00    -0.014 A 
BRANCH  41  42
ATOM     42  C   UNL     1      -2.325 -10.183   4.414  1.00  0.00     0.031 A 
ATOM     43  C   UNL     1      -3.273 -10.119   3.260  1.00  0.00     0.074 A 
ATOM     44  C   UNL     1      -2.602 -10.910   5.511  1.00  0.00     0.049 A 
ATOM     45  N   UNL     1      -4.289 -10.899   3.003  1.00  0.00    -0.248 NA
ATOM     46  C   UNL     1      -3.082  -9.034   2.282  1.00  0.00     0.031 C 
ATOM     47  C   UNL     1      -1.806 -10.897   6.743  1.00  0.00     0.029 A 
ATOM     48  N   UNL     1      -3.597 -11.813   5.762  1.00  0.00    -0.354 N 
ATOM     49  C   UNL     1      -4.842 -10.421   1.823  1.00  0.00     0.074 A 
ATOM     50  C   UNL     1      -4.096  -9.241   1.449  1.00  0.00     0.031 C 
ATOM     51  C   UNL     1      -2.292 -11.820   7.585  1.00  0.00     0.029 A 
ATOM     52  C   UNL     1      -3.426 -12.480   6.951  1.00  0.00     0.049 A 
ATOM     53  H   UNL     1      -4.356 -11.969   5.155  1.00  0.00     0.167 HD
ATOM     54  C   UNL     1      -5.861 -10.955   1.111  1.00  0.00     0.031 A 
ATOM     55  C   UNL     1      -4.072 -13.555   7.439  1.00  0.00     0.031 A 
ATOM     56  C   UNL     1      -6.581 -12.130   1.527  1.00  0.00     0.049 A 
ATOM     57  C   UNL     1      -5.135 -14.186   6.588  1.00  0.00     0.074 A 
ATOM     58  C   UNL     1      -7.584 -12.811   0.860  1.00  0.00     0.029 A 
ATOM     59  N   UNL     1      -6.368 -12.798   2.725  1.00  0.00    -0.354 N 
ATOM     60  N   UNL     1      -5.563 -13.819   5.404  1.00  0.00    -0.248 NA
ATOM     61  C   UNL     1      -5.780 -15.391   7.120  1.00  0.00     0.031 C 
ATOM     62  C   UNL     1      -8.003 -13.867   1.672  1.00  0.00     0.029 A 
ATOM     63  C   UNL     1      -7.225 -13.878   2.820  1.00  0.00     0.049 A 
ATOM     64  H   UNL     1      -5.705 -12.540   3.406  1.00  0.00     0.167 HD
ATOM     65  C   UNL     1      -6.514 -14.759   5.037  1.00  0.00     0.074 A 
ATOM     66  C   UNL     1      -6.583 -15.724   6.118  1.00  0.00     0.031 C 
ATOM     67  C   UNL     1      -7.266 -14.817   3.912  1.00  0.00     0.031 A 
BRANCH  54  68
ATOM     68  C   UNL     1      -6.225 -10.326  -0.206  1.00  0.00    -0.014 A 
ATOM     69  C   UNL     1      -7.487  -9.740  -0.390  1.00  0.00     0.009 A 
ATOM     70  C   UNL     1      -5.359 -10.425  -1.307  1.00  0.00     0.009 A 
ATOM     71  C   UNL     1      -7.880  -9.282  -1.651  1.00  0.00     0.001 A 
ATOM     72  C   UNL     1      -5.744  -9.945  -2.560  1.00  0.00     0.001 A 
ATOM     73  C   UNL     1      -7.008  -9.384  -2.734  1.00  0.00     0.000 A 
ENDBRANCH  54  68
BRANCH  55  74
ATOM     74  C   UNL     1      -3.610 -14.163   8.711  1.00  0.00    -0.014 A 
ATOM     75  C   UNL     1      -3.796 -13.506   9.938  1.00  0.00     0.009 A 
ATOM     76  C   UNL     1      -2.893 -15.370   8.692  1.00  0.00     0.009 A 
ATOM     77  C   UNL     1      -3.261 -14.037  11.114  1.00  0.00     0.001 A 
ATOM     78  C   UNL     1      -2.384 -15.912   9.873  1.00  0.00     0.001 A 
ATOM     79  C   UNL     1      -2.560 -15.241  11.082  1.00  0.00     0.000 A 
ENDBRANCH  55  74
BRANCH  67  80
ATOM     80  C   UNL     1      -8.231 -15.958   3.788  1.00  0.00    -0.014 A 
ATOM     81  C   UNL     1      -7.997 -16.967   2.841  1.00  0.00     0.009 A 
ATOM     82  C   UNL     1      -9.421 -15.975   4.530  1.00  0.00     0.009 A 
ATOM     83  C   UNL     1      -8.945 -17.968   2.630  1.00  0.00     0.001 A 
ATOM     84  C   UNL     1     -10.355 -16.992   4.335  1.00  0.00     0.001 A 
ATOM     85  C   UNL     1     -10.121 -17.981   3.379  1.00  0.00     0.000 A 
ENDBRANCH  67  80
ENDBRANCH  41  42
ENDBRANCH  34  36
ENDBRANCH  33  34
ENDBRANCH  32  33
ENDBRANCH   1  32
TORSDOF 14
