REMARK SMILES CC[C@@H](Oc1ccccc1/C=C1/SC(Nc2ccc(F)cc2)=[NH+]C1=O)C(=O)OCCOC(=O)c1ccc(-c2c3nc(c(-c4ccccc4)c4ccc([nH]4)c(-c4ccccc4)c4nc(c(-c5ccccc5)c5ccc2[nH]5)C=C4)C=C3)cc1
REMARK SMILES IDX 29 1 28 2 26 3 27 4 3 5 2 6 1 7 4 8 5 9 6 10 10 11 7 12 9 13
REMARK SMILES IDX 8 14 11 15 12 16 13 17 24 18 14 19 23 20 25 21 15 22 16 25
REMARK SMILES IDX 17 26 22 27 18 28 21 29 19 30 20 31 30 32 31 33 32 34 33 35
REMARK SMILES IDX 34 36 35 37 81 38 36 39 80 40 37 41 38 42 39 43 74 44 40 45
REMARK SMILES IDX 79 46 73 47 75 48 41 49 78 50 72 51 71 52 42 54 64 55 49 56
REMARK SMILES IDX 63 57 50 58 53 59 62 60 76 61 51 62 52 63 61 65 77 66 54 67
REMARK SMILES IDX 43 68 44 69 48 70 45 71 47 72 46 73 65 74 66 75 70 76 67 77
REMARK SMILES IDX 69 78 68 79 55 80 56 81 60 82 57 83 59 84 58 85
REMARK H PARENT 23 23 15 24 75 53 53 64
REMARK Flexibility Score: inf
ROOT
ATOM      1  C   UNL     1      -1.112   1.597   4.798  1.00  0.00     0.274 C 
ENDROOT
BRANCH   1   2
ATOM      2  O   UNL     1      -0.647   1.394   3.451  1.00  0.00    -0.459 OA
BRANCH   2   3
ATOM      3  C   UNL     1       0.447   2.120   3.079  1.00  0.00     0.347 C 
ATOM      4  O   UNL     1       1.011   2.955   3.778  1.00  0.00    -0.248 OA
BRANCH   3   5
ATOM      5  C   UNL     1       0.946   1.723   1.691  1.00  0.00     0.282 C 
BRANCH   5   6
ATOM      6  C   UNL     1       1.118   0.196   1.606  1.00  0.00     0.054 C 
ATOM      7  C   UNL     1       2.229  -0.240   0.660  1.00  0.00     0.008 C 
ENDBRANCH   5   6
BRANCH   5   8
ATOM      8  O   UNL     1      -0.059   2.183   0.782  1.00  0.00    -0.478 OA
BRANCH   8   9
ATOM      9  C   UNL     1       0.421   2.514  -0.458  1.00  0.00     0.127 A 
ATOM     10  C   UNL     1       1.130   3.705  -0.622  1.00  0.00     0.047 A 
ATOM     11  C   UNL     1       0.122   1.686  -1.559  1.00  0.00     0.018 A 
ATOM     12  C   UNL     1       1.609   4.051  -1.883  1.00  0.00     0.004 A 
ATOM     13  C   UNL     1       0.628   2.037  -2.814  1.00  0.00     0.012 A 
ATOM     14  C   UNL     1       1.366   3.215  -2.974  1.00  0.00     0.001 A 
BRANCH  11  15
ATOM     15  C   UNL     1      -0.551   0.386  -1.386  1.00  0.00     0.036 C 
ATOM     16  C   UNL     1      -1.687   0.187  -0.702  1.00  0.00     0.110 C 
ATOM     17  S   UNL     1      -2.148  -1.359  -0.075  1.00  0.00     0.006 SA
ATOM     18  C   UNL     1      -2.638   1.222  -0.187  1.00  0.00     0.346 C 
ATOM     19  C   UNL     1      -3.251  -0.552   1.020  1.00  0.00     0.322 C 
ATOM     20  N   UNL     1      -3.408   0.716   0.834  1.00  0.00    -0.199 N 
ATOM     21  O   UNL     1      -2.759   2.339  -0.654  1.00  0.00    -0.240 OA
ATOM     22  N   UNL     1      -3.863  -1.314   1.972  1.00  0.00    -0.235 N 
ATOM     23  H   UNL     1      -4.021   1.268   1.371  1.00  0.00     0.316 HD
ATOM     24  H   UNL     1      -3.380  -2.093   2.333  1.00  0.00     0.313 HD
BRANCH  22  25
ATOM     25  C   UNL     1      -5.149  -1.040   2.462  1.00  0.00     0.125 A 
ATOM     26  C   UNL     1      -5.463  -1.243   3.810  1.00  0.00     0.055 A 
ATOM     27  C   UNL     1      -6.128  -0.488   1.617  1.00  0.00     0.055 A 
ATOM     28  C   UNL     1      -6.728  -0.893   4.298  1.00  0.00     0.043 A 
ATOM     29  C   UNL     1      -7.393  -0.158   2.096  1.00  0.00     0.043 A 
ATOM     30  C   UNL     1      -7.679  -0.358   3.436  1.00  0.00     0.123 A 
ATOM     31  F   UNL     1      -8.887  -0.024   3.906  1.00  0.00    -0.207 F 
ENDBRANCH  22  25
ENDBRANCH  11  15
ENDBRANCH   8   9
ENDBRANCH   5   8
ENDBRANCH   3   5
ENDBRANCH   2   3
ENDBRANCH   1   2
BRANCH   1  32
ATOM     32  C   UNL     1      -0.578   0.491   5.707  1.00  0.00     0.275 C 
BRANCH  32  33
ATOM     33  O   UNL     1       0.862   0.528   5.720  1.00  0.00    -0.458 OA
BRANCH  33  34
ATOM     34  C   UNL     1       1.487  -0.614   5.361  1.00  0.00     0.338 C 
ATOM     35  O   UNL     1       0.982  -1.691   5.094  1.00  0.00    -0.246 OA
BRANCH  34  36
ATOM     36  C   UNL     1       2.938  -0.375   5.288  1.00  0.00     0.060 A 
ATOM     37  C   UNL     1       3.458   0.458   4.296  1.00  0.00     0.016 A 
ATOM     38  C   UNL     1       3.793  -1.083   6.128  1.00  0.00     0.016 A 
ATOM     39  C   UNL     1       4.830   0.532   4.087  1.00  0.00     0.010 A 
ATOM     40  C   UNL     1       5.175  -0.938   5.977  1.00  0.00     0.010 A 
ATOM     41  C   UNL     1       5.704  -0.153   4.937  1.00  0.00    -0.014 A 
BRANCH  41  42
ATOM     42  C   UNL     1       7.169  -0.062   4.730  1.00  0.00     0.031 A 
ATOM     43  C   UNL     1       7.955  -1.293   4.378  1.00  0.00     0.074 A 
ATOM     44  C   UNL     1       7.794   1.123   4.866  1.00  0.00     0.049 A 
ATOM     45  N   UNL     1       9.252  -1.455   4.315  1.00  0.00    -0.248 NA
ATOM     46  C   UNL     1       7.181  -2.504   4.062  1.00  0.00     0.031 C 
ATOM     47  C   UNL     1       7.140   2.402   5.151  1.00  0.00     0.029 A 
ATOM     48  N   UNL     1       9.126   1.441   4.788  1.00  0.00    -0.354 N 
ATOM     49  C   UNL     1       9.450  -2.792   3.994  1.00  0.00     0.074 A 
ATOM     50  C   UNL     1       8.141  -3.400   3.885  1.00  0.00     0.031 C 
ATOM     51  C   UNL     1       8.070   3.367   5.214  1.00  0.00     0.029 A 
ATOM     52  C   UNL     1       9.387   2.764   5.049  1.00  0.00     0.049 A 
ATOM     53  H   UNL     1       9.827   0.785   4.568  1.00  0.00     0.167 HD
ATOM     54  C   UNL     1      10.618  -3.452   3.811  1.00  0.00     0.031 A 
ATOM     55  C   UNL     1      10.558   3.413   5.185  1.00  0.00     0.031 A 
ATOM     56  C   UNL     1      11.916  -2.840   3.909  1.00  0.00     0.049 A 
ATOM     57  C   UNL     1      11.840   2.645   5.044  1.00  0.00     0.074 A 
ATOM     58  C   UNL     1      13.161  -3.421   3.735  1.00  0.00     0.029 A 
ATOM     59  N   UNL     1      12.137  -1.504   4.205  1.00  0.00    -0.354 N 
ATOM     60  N   UNL     1      12.015   1.375   4.767  1.00  0.00    -0.248 NA
ATOM     61  C   UNL     1      13.086   3.398   5.241  1.00  0.00     0.031 C 
ATOM     62  C   UNL     1      14.135  -2.445   3.970  1.00  0.00     0.029 A 
ATOM     63  C   UNL     1      13.496  -1.245   4.237  1.00  0.00     0.049 A 
ATOM     64  H   UNL     1      11.431  -0.837   4.367  1.00  0.00     0.167 HD
ATOM     65  C   UNL     1      13.389   1.182   4.737  1.00  0.00     0.074 A 
ATOM     66  C   UNL     1      14.000   2.468   5.007  1.00  0.00     0.031 C 
ATOM     67  C   UNL     1      14.084   0.041   4.508  1.00  0.00     0.031 A 
BRANCH  54  68
ATOM     68  C   UNL     1      10.542  -4.926   3.528  1.00  0.00    -0.014 A 
ATOM     69  C   UNL     1      10.100  -5.414   2.289  1.00  0.00     0.009 A 
ATOM     70  C   UNL     1      10.947  -5.842   4.513  1.00  0.00     0.009 A 
ATOM     71  C   UNL     1      10.033  -6.790   2.054  1.00  0.00     0.001 A 
ATOM     72  C   UNL     1      10.905  -7.215   4.266  1.00  0.00     0.001 A 
ATOM     73  C   UNL     1      10.439  -7.688   3.040  1.00  0.00     0.000 A 
ENDBRANCH  54  68
BRANCH  55  74
ATOM     74  C   UNL     1      10.569   4.861   5.517  1.00  0.00    -0.014 A 
ATOM     75  C   UNL     1      10.993   5.808   4.573  1.00  0.00     0.009 A 
ATOM     76  C   UNL     1      10.152   5.304   6.783  1.00  0.00     0.009 A 
ATOM     77  C   UNL     1      11.018   7.166   4.897  1.00  0.00     0.001 A 
ATOM     78  C   UNL     1      10.149   6.665   7.093  1.00  0.00     0.001 A 
ATOM     79  C   UNL     1      10.591   7.594   6.153  1.00  0.00     0.000 A 
ENDBRANCH  55  74
BRANCH  67  80
ATOM     80  C   UNL     1      15.582   0.145   4.502  1.00  0.00    -0.014 A 
ATOM     81  C   UNL     1      16.306   0.305   5.693  1.00  0.00     0.009 A 
ATOM     82  C   UNL     1      16.278   0.050   3.287  1.00  0.00     0.009 A 
ATOM     83  C   UNL     1      17.698   0.400   5.663  1.00  0.00     0.001 A 
ATOM     84  C   UNL     1      17.672   0.118   3.264  1.00  0.00     0.001 A 
ATOM     85  C   UNL     1      18.380   0.302   4.450  1.00  0.00     0.000 A 
ENDBRANCH  67  80
ENDBRANCH  41  42
ENDBRANCH  34  36
ENDBRANCH  33  34
ENDBRANCH  32  33
ENDBRANCH   1  32
TORSDOF 16
