REMARK SMILES CN1C(=O)C[C@H](C(=O)OCCOC(=O)c2ccc(-c3c4nc(c(-c5ccccc5)c5ccc([nH]5)c(-c5ccccc5)c5nc(c(-c6ccccc6)c6ccc3[nH]6)C=C5)C=C4)cc2)C12CC[NH+](Cc1cnn(-c3ccccc3F)c1)CC2
REMARK SMILES IDX 10 1 9 2 7 3 8 4 6 5 1 6 2 7 3 8 63 9 4 10 5 11 64 12 81 13
REMARK SMILES IDX 65 14 80 15 66 16 67 18 68 19 69 20 79 21 70 22 71 23 72 24
REMARK SMILES IDX 73 25 77 26 74 27 76 28 78 29 75 30 11 31 12 32 13 33 14 34
REMARK SMILES IDX 15 35 16 36 62 37 17 38 61 39 18 40 19 41 20 42 55 43 21 44
REMARK SMILES IDX 60 45 54 46 56 47 22 48 59 49 53 50 52 51 23 53 45 54 30 55
REMARK SMILES IDX 44 56 31 57 34 58 43 59 57 60 32 61 33 62 42 64 58 65 35 66
REMARK SMILES IDX 24 67 25 68 29 69 26 70 28 71 27 72 46 73 47 74 51 75 48 76
REMARK SMILES IDX 50 77 49 78 36 79 37 80 41 81 38 82 40 83 39 84
REMARK H PARENT 66 17 56 52 34 63
REMARK Flexibility Score: inf
ROOT
ATOM      1  C   UNL     1      -4.093  -0.681  -4.426  1.00  0.00     0.274 C 
ENDROOT
BRANCH   1   2
ATOM      2  O   UNL     1      -2.846  -0.251  -3.834  1.00  0.00    -0.462 OA
BRANCH   2   3
ATOM      3  C   UNL     1      -1.726  -0.836  -4.330  1.00  0.00     0.311 C 
ATOM      4  O   UNL     1      -1.723  -1.639  -5.255  1.00  0.00    -0.252 OA
BRANCH   3   5
ATOM      5  C   UNL     1      -0.460  -0.400  -3.626  1.00  0.00     0.134 C 
ATOM      6  C   UNL     1       1.412  -0.021  -0.400  1.00  0.00     0.147 C 
ATOM      7  N   UNL     1       0.743   0.053  -1.684  1.00  0.00    -0.339 N 
ATOM      8  C   UNL     1       0.661   1.265  -2.350  1.00  0.00     0.223 C 
ATOM      9  C   UNL     1      -0.190  -0.976  -2.212  1.00  0.00     0.067 C 
ATOM     10  O   UNL     1       1.234   2.303  -2.064  1.00  0.00    -0.275 OA
ATOM     11  C   UNL     1      -0.316   1.111  -3.470  1.00  0.00     0.118 C 
ATOM     12  C   UNL     1       0.505  -2.349  -2.328  1.00  0.00     0.091 C 
ATOM     13  C   UNL     1      -1.424  -1.064  -1.288  1.00  0.00     0.091 C 
ATOM     14  C   UNL     1      -0.461  -3.502  -2.580  1.00  0.00     0.265 C 
ATOM     15  C   UNL     1      -2.302  -2.305  -1.485  1.00  0.00     0.265 C 
ATOM     16  N   UNL     1      -1.585  -3.556  -1.659  1.00  0.00    -0.331 N 
ATOM     17  H   UNL     1      -2.254  -4.120  -2.183  1.00  0.00     0.348 HD
BRANCH  16  18
ATOM     18  C   UNL     1      -1.446  -4.407  -0.479  1.00  0.00     0.302 C 
BRANCH  18  19
ATOM     19  C   UNL     1      -0.652  -3.782   0.609  1.00  0.00     0.045 A 
ATOM     20  C   UNL     1      -1.123  -3.040   1.710  1.00  0.00     0.145 A 
ATOM     21  C   UNL     1       0.712  -3.820   0.809  1.00  0.00     0.124 A 
ATOM     22  N   UNL     1      -0.141  -2.588   2.489  1.00  0.00    -0.176 NA
ATOM     23  N   UNL     1       1.002  -2.993   1.871  1.00  0.00    -0.237 N 
BRANCH  23  24
ATOM     24  C   UNL     1       2.265  -2.523   2.312  1.00  0.00     0.100 A 
ATOM     25  C   UNL     1       2.350  -1.799   3.512  1.00  0.00     0.031 A 
ATOM     26  C   UNL     1       3.425  -2.714   1.556  1.00  0.00     0.148 A 
ATOM     27  C   UNL     1       3.580  -1.297   3.948  1.00  0.00     0.002 A 
ATOM     28  C   UNL     1       4.649  -2.201   1.986  1.00  0.00     0.041 A 
ATOM     29  F   UNL     1       3.407  -3.333   0.368  1.00  0.00    -0.205 F 
ATOM     30  C   UNL     1       4.729  -1.497   3.185  1.00  0.00     0.003 A 
ENDBRANCH  23  24
ENDBRANCH  18  19
ENDBRANCH  16  18
ENDBRANCH   3   5
ENDBRANCH   2   3
ENDBRANCH   1   2
BRANCH   1  31
ATOM     31  C   UNL     1      -5.181   0.349  -4.125  1.00  0.00     0.275 C 
BRANCH  31  32
ATOM     32  O   UNL     1      -4.891   1.527  -4.894  1.00  0.00    -0.458 OA
BRANCH  32  33
ATOM     33  C   UNL     1      -4.166   2.460  -4.239  1.00  0.00     0.338 C 
ATOM     34  O   UNL     1      -3.976   2.566  -3.042  1.00  0.00    -0.246 OA
BRANCH  33  35
ATOM     35  C   UNL     1      -3.413   3.211  -5.246  1.00  0.00     0.060 A 
ATOM     36  C   UNL     1      -2.220   2.651  -5.701  1.00  0.00     0.016 A 
ATOM     37  C   UNL     1      -3.805   4.479  -5.652  1.00  0.00     0.016 A 
ATOM     38  C   UNL     1      -1.340   3.401  -6.464  1.00  0.00     0.010 A 
ATOM     39  C   UNL     1      -2.970   5.191  -6.515  1.00  0.00     0.010 A 
ATOM     40  C   UNL     1      -1.713   4.676  -6.895  1.00  0.00    -0.014 A 
BRANCH  40  41
ATOM     41  C   UNL     1      -0.779   5.499  -7.699  1.00  0.00     0.031 A 
ATOM     42  C   UNL     1      -0.353   6.842  -7.180  1.00  0.00     0.074 A 
ATOM     43  C   UNL     1      -0.326   5.059  -8.888  1.00  0.00     0.049 A 
ATOM     44  N   UNL     1       0.200   7.838  -7.820  1.00  0.00    -0.248 NA
ATOM     45  C   UNL     1      -0.609   7.104  -5.755  1.00  0.00     0.031 C 
ATOM     46  C   UNL     1      -0.592   3.741  -9.471  1.00  0.00     0.029 A 
ATOM     47  N   UNL     1       0.451   5.686  -9.829  1.00  0.00    -0.354 N 
ATOM     48  C   UNL     1       0.293   8.870  -6.894  1.00  0.00     0.074 A 
ATOM     49  C   UNL     1      -0.259   8.378  -5.651  1.00  0.00     0.031 C 
ATOM     50  C   UNL     1       0.018   3.655 -10.662  1.00  0.00     0.029 A 
ATOM     51  C   UNL     1       0.632   4.941 -10.968  1.00  0.00     0.049 A 
ATOM     52  H   UNL     1       0.840   6.582  -9.700  1.00  0.00     0.167 HD
ATOM     53  C   UNL     1       0.784  10.118  -7.076  1.00  0.00     0.031 A 
ATOM     54  C   UNL     1       1.171   5.276 -12.154  1.00  0.00     0.031 A 
ATOM     55  C   UNL     1       1.362  10.577  -8.311  1.00  0.00     0.049 A 
ATOM     56  C   UNL     1       1.669   6.676 -12.352  1.00  0.00     0.074 A 
ATOM     57  C   UNL     1       1.882  11.822  -8.616  1.00  0.00     0.029 A 
ATOM     58  N   UNL     1       1.514   9.791  -9.444  1.00  0.00    -0.354 N 
ATOM     59  N   UNL     1       1.670   7.678 -11.506  1.00  0.00    -0.248 NA
ATOM     60  C   UNL     1       2.224   6.998 -13.673  1.00  0.00     0.031 C 
ATOM     61  C   UNL     1       2.318  11.798  -9.946  1.00  0.00     0.029 A 
ATOM     62  C   UNL     1       2.113  10.524 -10.453  1.00  0.00     0.049 A 
ATOM     63  H   UNL     1       1.236   8.849  -9.520  1.00  0.00     0.167 HD
ATOM     64  C   UNL     1       2.233   8.748 -12.187  1.00  0.00     0.074 A 
ATOM     65  C   UNL     1       2.580   8.265 -13.509  1.00  0.00     0.031 C 
ATOM     66  C   UNL     1       2.440  10.018 -11.761  1.00  0.00     0.031 A 
BRANCH  53  67
ATOM     67  C   UNL     1       0.659  11.081  -5.928  1.00  0.00    -0.014 A 
ATOM     68  C   UNL     1       1.436  10.951  -4.766  1.00  0.00     0.009 A 
ATOM     69  C   UNL     1      -0.262  12.137  -6.013  1.00  0.00     0.009 A 
ATOM     70  C   UNL     1       1.261  11.833  -3.697  1.00  0.00     0.001 A 
ATOM     71  C   UNL     1      -0.414  13.035  -4.954  1.00  0.00     0.001 A 
ATOM     72  C   UNL     1       0.338  12.874  -3.792  1.00  0.00     0.000 A 
ENDBRANCH  53  67
BRANCH  54  73
ATOM     73  C   UNL     1       1.193   4.281 -13.258  1.00  0.00    -0.014 A 
ATOM     74  C   UNL     1       2.399   3.700 -13.672  1.00  0.00     0.009 A 
ATOM     75  C   UNL     1      -0.003   3.879 -13.876  1.00  0.00     0.009 A 
ATOM     76  C   UNL     1       2.408   2.742 -14.689  1.00  0.00     0.001 A 
ATOM     77  C   UNL     1       0.006   2.900 -14.871  1.00  0.00     0.001 A 
ATOM     78  C   UNL     1       1.212   2.337 -15.281  1.00  0.00     0.000 A 
ENDBRANCH  54  73
BRANCH  66  79
ATOM     79  C   UNL     1       3.098  10.956 -12.729  1.00  0.00    -0.014 A 
ATOM     80  C   UNL     1       2.389  11.493 -13.814  1.00  0.00     0.009 A 
ATOM     81  C   UNL     1       4.437  11.326 -12.533  1.00  0.00     0.009 A 
ATOM     82  C   UNL     1       3.021  12.363 -14.704  1.00  0.00     0.001 A 
ATOM     83  C   UNL     1       5.058  12.215 -13.411  1.00  0.00     0.001 A 
ATOM     84  C   UNL     1       4.352  12.726 -14.499  1.00  0.00     0.000 A 
ENDBRANCH  66  79
ENDBRANCH  40  41
ENDBRANCH  33  35
ENDBRANCH  32  33
ENDBRANCH  31  32
ENDBRANCH   1  31
TORSDOF 14
