REMARK SMILES Cc1cc(C(=O)N2C[C@@H](C(=O)OCCOC(=O)c3ccc(-c4c5nc(c(-c6ccccc6)c6ccc([nH]6)c(-c6ccccc6)c6nc(c(-c7ccccc7)c7ccc4[nH]7)C=C6)C=C5)cc3)[C@H](C3CC3)C2)sc1C
REMARK SMILES IDX 13 1 12 2 10 3 11 4 9 5 7 6 8 7 70 8 66 9 5 10 6 11 4 12
REMARK SMILES IDX 1 13 2 14 3 15 72 16 71 17 73 18 67 19 68 20 69 21 14 22
REMARK SMILES IDX 15 23 16 24 17 25 18 26 19 27 65 28 20 29 64 30 21 31 22 32
REMARK SMILES IDX 23 33 58 34 24 35 63 36 57 37 59 38 25 39 62 40 56 41 55 42
REMARK SMILES IDX 26 44 48 45 33 46 47 47 34 48 37 49 46 50 60 51 35 52 36 53
REMARK SMILES IDX 45 55 61 56 38 57 27 58 28 59 32 60 29 61 31 62 30 63 49 64
REMARK SMILES IDX 50 65 54 66 51 67 53 68 52 69 39 70 40 71 44 72 41 73 43 74
REMARK SMILES IDX 42 75
REMARK H PARENT 59 43 37 54
REMARK Flexibility Score: inf
ROOT
ATOM      1  C   UNL     1       7.877   1.627   1.458  1.00  0.00     0.274 C 
ENDROOT
BRANCH   1   2
ATOM      2  O   UNL     1       6.710   1.269   0.687  1.00  0.00    -0.462 OA
BRANCH   2   3
ATOM      3  C   UNL     1       6.528  -0.059   0.455  1.00  0.00     0.311 C 
ATOM      4  O   UNL     1       7.218  -0.952   0.929  1.00  0.00    -0.252 OA
BRANCH   3   5
ATOM      5  C   UNL     1       5.378  -0.295  -0.492  1.00  0.00     0.124 C 
ATOM      6  N   UNL     1       3.486  -1.602  -0.851  1.00  0.00    -0.337 N 
ATOM      7  C   UNL     1       4.170  -0.892   0.210  1.00  0.00     0.135 C 
ATOM      8  C   UNL     1       4.453  -2.163  -1.767  1.00  0.00     0.124 C 
ATOM      9  C   UNL     1       5.747  -1.354  -1.558  1.00  0.00     0.028 C 
BRANCH   6  10
ATOM     10  C   UNL     1       2.161  -2.006  -0.906  1.00  0.00     0.263 C 
ATOM     11  O   UNL     1       1.888  -3.096  -1.416  1.00  0.00    -0.268 OA
BRANCH  10  12
ATOM     12  C   UNL     1       1.106  -1.107  -0.453  1.00  0.00     0.093 A 
ATOM     13  C   UNL     1      -2.541  -0.493   0.279  1.00  0.00     0.045 C 
ATOM     14  C   UNL     1      -1.075  -0.349   0.034  1.00  0.00    -0.037 A 
ATOM     15  C   UNL     1      -0.194  -1.468  -0.144  1.00  0.00     0.029 A 
ATOM     16  C   UNL     1      -0.384   0.844  -0.095  1.00  0.00     0.005 A 
ATOM     17  S   UNL     1       1.256   0.594  -0.501  1.00  0.00    -0.135 S 
ATOM     18  C   UNL     1      -0.902   2.241   0.011  1.00  0.00     0.056 C 
ENDBRANCH  10  12
ENDBRANCH   6  10
BRANCH   9  19
ATOM     19  C   UNL     1       6.295  -0.828  -2.863  1.00  0.00    -0.005 C 
ATOM     20  C   UNL     1       6.295   0.621  -3.296  1.00  0.00     0.004 C 
ATOM     21  C   UNL     1       7.580  -0.036  -2.879  1.00  0.00     0.004 C 
ENDBRANCH   9  19
ENDBRANCH   3   5
ENDBRANCH   2   3
ENDBRANCH   1   2
BRANCH   1  22
ATOM     22  C   UNL     1       7.511   1.992   2.894  1.00  0.00     0.275 C 
BRANCH  22  23
ATOM     23  O   UNL     1       7.026   0.832   3.593  1.00  0.00    -0.458 OA
BRANCH  23  24
ATOM     24  C   UNL     1       5.706   0.828   3.862  1.00  0.00     0.338 C 
ATOM     25  O   UNL     1       4.888   1.708   3.621  1.00  0.00    -0.246 OA
BRANCH  24  26
ATOM     26  C   UNL     1       5.318  -0.458   4.451  1.00  0.00     0.060 A 
ATOM     27  C   UNL     1       5.255  -1.575   3.624  1.00  0.00     0.016 A 
ATOM     28  C   UNL     1       4.843  -0.524   5.758  1.00  0.00     0.016 A 
ATOM     29  C   UNL     1       4.605  -2.727   4.052  1.00  0.00     0.010 A 
ATOM     30  C   UNL     1       4.290  -1.722   6.225  1.00  0.00     0.010 A 
ATOM     31  C   UNL     1       4.118  -2.820   5.362  1.00  0.00    -0.014 A 
BRANCH  31  32
ATOM     32  C   UNL     1       3.373  -4.032   5.800  1.00  0.00     0.031 A 
ATOM     33  C   UNL     1       1.956  -3.908   6.297  1.00  0.00     0.074 A 
ATOM     34  C   UNL     1       3.938  -5.254   5.723  1.00  0.00     0.049 A 
ATOM     35  N   UNL     1       1.210  -4.800   6.899  1.00  0.00    -0.248 NA
ATOM     36  C   UNL     1       1.298  -2.605   6.107  1.00  0.00     0.031 C 
ATOM     37  C   UNL     1       5.275  -5.545   5.201  1.00  0.00     0.029 A 
ATOM     38  N   UNL     1       3.444  -6.487   6.071  1.00  0.00    -0.354 N 
ATOM     39  C   UNL     1       0.029  -4.145   7.227  1.00  0.00     0.074 A 
ATOM     40  C   UNL     1       0.150  -2.786   6.746  1.00  0.00     0.031 C 
ATOM     41  C   UNL     1       5.471  -6.873   5.209  1.00  0.00     0.029 A 
ATOM     42  C   UNL     1       4.316  -7.518   5.822  1.00  0.00     0.049 A 
ATOM     43  H   UNL     1       2.550  -6.619   6.461  1.00  0.00     0.167 HD
ATOM     44  C   UNL     1      -1.054  -4.630   7.881  1.00  0.00     0.031 A 
ATOM     45  C   UNL     1       4.219  -8.834   6.090  1.00  0.00     0.031 A 
ATOM     46  C   UNL     1      -1.204  -5.997   8.302  1.00  0.00     0.049 A 
ATOM     47  C   UNL     1       3.010  -9.350   6.813  1.00  0.00     0.074 A 
ATOM     48  C   UNL     1      -2.260  -6.582   8.980  1.00  0.00     0.029 A 
ATOM     49  N   UNL     1      -0.282  -7.000   8.054  1.00  0.00    -0.354 N 
ATOM     50  N   UNL     1       1.948  -8.696   7.215  1.00  0.00    -0.248 NA
ATOM     51  C   UNL     1       3.001 -10.782   7.143  1.00  0.00     0.031 C 
ATOM     52  C   UNL     1      -1.966  -7.938   9.161  1.00  0.00     0.029 A 
ATOM     53  C   UNL     1      -0.744  -8.201   8.565  1.00  0.00     0.049 A 
ATOM     54  H   UNL     1       0.575  -6.878   7.584  1.00  0.00     0.167 HD
ATOM     55  C   UNL     1       1.146  -9.635   7.848  1.00  0.00     0.074 A 
ATOM     56  C   UNL     1       1.831 -10.908   7.752  1.00  0.00     0.031 C 
ATOM     57  C   UNL     1      -0.046  -9.455   8.464  1.00  0.00     0.031 A 
BRANCH  44  58
ATOM     58  C   UNL     1      -2.143  -3.656   8.226  1.00  0.00    -0.014 A 
ATOM     59  C   UNL     1      -3.047  -3.188   7.261  1.00  0.00     0.009 A 
ATOM     60  C   UNL     1      -2.277  -3.219   9.554  1.00  0.00     0.009 A 
ATOM     61  C   UNL     1      -4.047  -2.278   7.616  1.00  0.00     0.001 A 
ATOM     62  C   UNL     1      -3.290  -2.328   9.910  1.00  0.00     0.001 A 
ATOM     63  C   UNL     1      -4.169  -1.852   8.939  1.00  0.00     0.000 A 
ENDBRANCH  44  58
BRANCH  45  64
ATOM     64  C   UNL     1       5.330  -9.746   5.718  1.00  0.00    -0.014 A 
ATOM     65  C   UNL     1       5.179 -10.658   4.663  1.00  0.00     0.009 A 
ATOM     66  C   UNL     1       6.551  -9.699   6.408  1.00  0.00     0.009 A 
ATOM     67  C   UNL     1       6.227 -11.511   4.313  1.00  0.00     0.001 A 
ATOM     68  C   UNL     1       7.606 -10.535   6.039  1.00  0.00     0.001 A 
ATOM     69  C   UNL     1       7.441 -11.445   4.996  1.00  0.00     0.000 A 
ENDBRANCH  45  64
BRANCH  57  70
ATOM     70  C   UNL     1      -0.687 -10.669   9.066  1.00  0.00    -0.014 A 
ATOM     71  C   UNL     1      -0.237 -11.190  10.289  1.00  0.00     0.009 A 
ATOM     72  C   UNL     1      -1.766 -11.285   8.414  1.00  0.00     0.009 A 
ATOM     73  C   UNL     1      -0.840 -12.324  10.834  1.00  0.00     0.001 A 
ATOM     74  C   UNL     1      -2.378 -12.408   8.971  1.00  0.00     0.001 A 
ATOM     75  C   UNL     1      -1.910 -12.931  10.177  1.00  0.00     0.000 A 
ENDBRANCH  57  70
ENDBRANCH  31  32
ENDBRANCH  24  26
ENDBRANCH  23  24
ENDBRANCH  22  23
ENDBRANCH   1  22
TORSDOF 14
