REMARK SMILES C[C@@H](C(=O)OCCOC(=O)c1ccc(-c2c3nc(c(-c4ccccc4)c4ccc([nH]4)c(-c4ccccc4)c4nc(c(-c5ccccc5)c5ccc2[nH]5)C=C4)C=C3)cc1)c1ccc(C[C@@H]2CCC[C@@H]2O)cc1
REMARK SMILES IDX 6 1 5 2 3 3 4 4 2 5 1 6 59 7 60 8 71 9 61 10 70 11 62 12
REMARK SMILES IDX 63 13 64 14 65 15 68 16 66 17 67 18 69 19 7 21 8 22 9 23
REMARK SMILES IDX 10 24 11 25 12 26 58 27 13 28 57 29 14 30 15 31 16 32 51 33
REMARK SMILES IDX 17 34 56 35 50 36 52 37 18 38 55 39 49 40 48 41 19 43 41 44
REMARK SMILES IDX 26 45 40 46 27 47 30 48 39 49 53 50 28 51 29 52 38 54 54 55
REMARK SMILES IDX 31 56 20 57 21 58 25 59 22 60 24 61 23 62 42 63 43 64 47 65
REMARK SMILES IDX 44 66 46 67 45 68 32 69 33 70 37 71 34 72 36 73 35 74
REMARK H PARENT 69 20 52 42 30 53
REMARK Flexibility Score: inf
ROOT
ATOM      1  C   UNL     1     -13.187   3.781   6.370  1.00  0.00     0.274 C 
ENDROOT
BRANCH   1   2
ATOM      2  O   UNL     1     -11.846   4.272   6.172  1.00  0.00    -0.462 OA
BRANCH   2   3
ATOM      3  C   UNL     1     -10.893   3.351   5.856  1.00  0.00     0.313 C 
ATOM      4  O   UNL     1     -11.100   2.142   5.809  1.00  0.00    -0.252 OA
BRANCH   3   5
ATOM      5  C   UNL     1      -9.517   3.987   5.614  1.00  0.00     0.126 C 
ATOM      6  C   UNL     1      -9.543   5.520   5.659  1.00  0.00     0.025 C 
BRANCH   5   7
ATOM      7  C   UNL     1      -8.854   3.424   4.357  1.00  0.00    -0.034 A 
ATOM      8  C   UNL     1      -8.305   2.131   4.391  1.00  0.00     0.005 A 
ATOM      9  C   UNL     1      -8.800   4.126   3.144  1.00  0.00     0.005 A 
ATOM     10  C   UNL     1      -7.733   1.554   3.252  1.00  0.00     0.004 A 
ATOM     11  C   UNL     1      -8.215   3.554   2.009  1.00  0.00     0.004 A 
ATOM     12  C   UNL     1      -7.680   2.260   2.047  1.00  0.00    -0.048 A 
BRANCH  12  13
ATOM     13  C   UNL     1      -7.127   1.626   0.793  1.00  0.00     0.041 C 
BRANCH  13  14
ATOM     14  C   UNL     1      -5.611   1.702   0.528  1.00  0.00     0.022 C 
ATOM     15  C   UNL     1      -4.739   1.030   1.590  1.00  0.00     0.007 C 
ATOM     16  C   UNL     1      -4.990   3.097   0.426  1.00  0.00     0.117 C 
ATOM     17  C   UNL     1      -4.301   2.140   2.547  1.00  0.00     0.003 C 
ATOM     18  C   UNL     1      -4.616   3.466   1.856  1.00  0.00     0.032 C 
BRANCH  16  19
ATOM     19  O   UNL     1      -5.835   4.059  -0.173  1.00  0.00    -0.393 OA
ATOM     20  H   UNL     1      -6.647   4.147   0.351  1.00  0.00     0.210 HD
ENDBRANCH  16  19
ENDBRANCH  13  14
ENDBRANCH  12  13
ENDBRANCH   5   7
ENDBRANCH   3   5
ENDBRANCH   2   3
ENDBRANCH   1   2
BRANCH   1  21
ATOM     21  C   UNL     1     -14.048   4.130   5.160  1.00  0.00     0.275 C 
BRANCH  21  22
ATOM     22  O   UNL     1     -13.562   3.408   4.016  1.00  0.00    -0.458 OA
BRANCH  22  23
ATOM     23  C   UNL     1     -13.251   4.149   2.927  1.00  0.00     0.338 C 
ATOM     24  O   UNL     1     -13.410   5.348   2.778  1.00  0.00    -0.246 OA
BRANCH  23  25
ATOM     25  C   UNL     1     -12.669   3.278   1.887  1.00  0.00     0.060 A 
ATOM     26  C   UNL     1     -11.680   2.357   2.214  1.00  0.00     0.016 A 
ATOM     27  C   UNL     1     -13.032   3.462   0.551  1.00  0.00     0.016 A 
ATOM     28  C   UNL     1     -10.987   1.698   1.198  1.00  0.00     0.010 A 
ATOM     29  C   UNL     1     -12.388   2.731  -0.457  1.00  0.00     0.010 A 
ATOM     30  C   UNL     1     -11.313   1.876  -0.154  1.00  0.00    -0.014 A 
BRANCH  30  31
ATOM     31  C   UNL     1     -10.488   1.250  -1.236  1.00  0.00     0.031 A 
ATOM     32  C   UNL     1      -9.912   2.098  -2.349  1.00  0.00     0.074 A 
ATOM     33  C   UNL     1     -10.185  -0.066  -1.225  1.00  0.00     0.049 A 
ATOM     34  N   UNL     1      -9.360   1.721  -3.478  1.00  0.00    -0.248 NA
ATOM     35  C   UNL     1      -9.970   3.559  -2.178  1.00  0.00     0.031 C 
ATOM     36  C   UNL     1     -10.580  -1.027  -0.196  1.00  0.00     0.029 A 
ATOM     37  N   UNL     1      -9.441  -0.818  -2.106  1.00  0.00    -0.354 N 
ATOM     38  C   UNL     1      -9.103   2.889  -4.188  1.00  0.00     0.074 A 
ATOM     39  C   UNL     1      -9.528   3.990  -3.351  1.00  0.00     0.031 C 
ATOM     40  C   UNL     1     -10.013  -2.214  -0.458  1.00  0.00     0.029 A 
ATOM     41  C   UNL     1      -9.313  -2.135  -1.734  1.00  0.00     0.049 A 
ATOM     42  H   UNL     1      -9.040  -0.448  -2.925  1.00  0.00     0.167 HD
ATOM     43  C   UNL     1      -8.576   3.033  -5.428  1.00  0.00     0.031 A 
ATOM     44  C   UNL     1      -8.743  -3.182  -2.361  1.00  0.00     0.031 A 
ATOM     45  C   UNL     1      -8.074   1.954  -6.238  1.00  0.00     0.049 A 
ATOM     46  C   UNL     1      -8.167  -3.005  -3.735  1.00  0.00     0.074 A 
ATOM     47  C   UNL     1      -7.527   2.011  -7.510  1.00  0.00     0.029 A 
ATOM     48  N   UNL     1      -8.022   0.629  -5.842  1.00  0.00    -0.354 N 
ATOM     49  N   UNL     1      -8.056  -1.913  -4.449  1.00  0.00    -0.248 NA
ATOM     50  C   UNL     1      -7.673  -4.218  -4.405  1.00  0.00     0.031 C 
ATOM     51  C   UNL     1      -7.165   0.715  -7.892  1.00  0.00     0.029 A 
ATOM     52  C   UNL     1      -7.450  -0.141  -6.842  1.00  0.00     0.049 A 
ATOM     53  H   UNL     1      -8.345   0.284  -4.978  1.00  0.00     0.167 HD
ATOM     54  C   UNL     1      -7.495  -2.308  -5.656  1.00  0.00     0.074 A 
ATOM     55  C   UNL     1      -7.252  -3.733  -5.565  1.00  0.00     0.031 C 
ATOM     56  C   UNL     1      -7.223  -1.557  -6.750  1.00  0.00     0.031 A 
BRANCH  43  57
ATOM     57  C   UNL     1      -8.558   4.415  -6.021  1.00  0.00    -0.014 A 
ATOM     58  C   UNL     1      -7.622   5.380  -5.621  1.00  0.00     0.009 A 
ATOM     59  C   UNL     1      -9.468   4.731  -7.044  1.00  0.00     0.009 A 
ATOM     60  C   UNL     1      -7.617   6.643  -6.218  1.00  0.00     0.001 A 
ATOM     61  C   UNL     1      -9.444   5.985  -7.654  1.00  0.00     0.001 A 
ATOM     62  C   UNL     1      -8.522   6.943  -7.236  1.00  0.00     0.000 A 
ENDBRANCH  43  57
BRANCH  44  63
ATOM     63  C   UNL     1      -8.757  -4.522  -1.720  1.00  0.00    -0.014 A 
ATOM     64  C   UNL     1      -7.571  -5.092  -1.236  1.00  0.00     0.009 A 
ATOM     65  C   UNL     1      -9.960  -5.233  -1.580  1.00  0.00     0.009 A 
ATOM     66  C   UNL     1      -7.589  -6.350  -0.629  1.00  0.00     0.001 A 
ATOM     67  C   UNL     1      -9.979  -6.476  -0.947  1.00  0.00     0.001 A 
ATOM     68  C   UNL     1      -8.793  -7.036  -0.477  1.00  0.00     0.000 A 
ENDBRANCH  44  63
BRANCH  56  69
ATOM     69  C   UNL     1      -6.625  -2.262  -7.931  1.00  0.00    -0.014 A 
ATOM     70  C   UNL     1      -7.417  -3.064  -8.768  1.00  0.00     0.009 A 
ATOM     71  C   UNL     1      -5.262  -2.108  -8.225  1.00  0.00     0.009 A 
ATOM     72  C   UNL     1      -6.848  -3.722  -9.860  1.00  0.00     0.001 A 
ATOM     73  C   UNL     1      -4.700  -2.751  -9.328  1.00  0.00     0.001 A 
ATOM     74  C   UNL     1      -5.491  -3.563 -10.140  1.00  0.00     0.000 A 
ENDBRANCH  56  69
ENDBRANCH  30  31
ENDBRANCH  23  25
ENDBRANCH  22  23
ENDBRANCH  21  22
ENDBRANCH   1  21
TORSDOF 15
