REMARK SMILES CCc1nn(C)c(N[C@@](C)(CC)C(=O)OCCOC(=O)c2ccc(-c3c4nc(c(-c5ccccc5)c5ccc([nH]5)c(-c5ccccc5)c5nc(c(-c6ccccc6)c6ccc3[nH]6)C=C5)C=C4)cc2)c1[N+](=O)[O-]
REMARK SMILES IDX 16 1 15 2 13 3 14 4 9 5 10 6 8 7 7 9 3 10 4 11 69 12 5 13
REMARK SMILES IDX 6 14 2 15 1 16 70 17 71 18 72 19 11 20 12 21 17 22 18 23
REMARK SMILES IDX 19 24 20 25 21 26 22 27 68 28 23 29 67 30 24 31 25 32 26 33
REMARK SMILES IDX 61 34 27 35 66 36 60 37 62 38 28 39 65 40 59 41 58 42 29 44
REMARK SMILES IDX 51 45 36 46 50 47 37 48 40 49 49 50 63 51 38 52 39 53 48 55
REMARK SMILES IDX 64 56 41 57 30 58 31 59 35 60 32 61 34 62 33 63 52 64 53 65
REMARK SMILES IDX 57 66 54 67 56 68 55 69 42 70 43 71 47 72 44 73 46 74 45 75
REMARK H PARENT 8 8 62 43 40 54
REMARK Flexibility Score: inf
ROOT
ATOM      1  C   UNL     1       2.238   1.701  -6.099  1.00  0.00     0.274 C 
ENDROOT
BRANCH   1   2
ATOM      2  O   UNL     1       2.303   0.267  -6.113  1.00  0.00    -0.460 OA
BRANCH   2   3
ATOM      3  C   UNL     1       3.530  -0.258  -6.380  1.00  0.00     0.331 C 
ATOM      4  O   UNL     1       4.498   0.411  -6.723  1.00  0.00    -0.249 OA
BRANCH   3   5
ATOM      5  C   UNL     1       3.523  -1.795  -6.278  1.00  0.00     0.134 C 
ATOM      6  C   UNL     1       4.969  -2.326  -6.243  1.00  0.00     0.047 C 
BRANCH   5   7
ATOM      7  N   UNL     1       2.833  -2.408  -5.115  1.00  0.00    -0.349 N 
ATOM      8  H   UNL     1       2.372  -3.253  -5.321  1.00  0.00     0.163 HD
BRANCH   7   9
ATOM      9  C   UNL     1       2.718  -2.011  -3.801  1.00  0.00     0.205 A 
ATOM     10  C   UNL     1       2.021  -1.124  -1.858  1.00  0.00     0.142 A 
ATOM     11  N   UNL     1       1.883  -2.440  -1.713  1.00  0.00    -0.169 NA
ATOM     12  C   UNL     1       2.797  -0.852  -3.017  1.00  0.00     0.334 A 
ATOM     13  N   UNL     1       2.356  -2.961  -2.852  1.00  0.00    -0.246 N 
ATOM     14  C   UNL     1       2.407  -4.404  -2.935  1.00  0.00     0.176 C 
BRANCH  10  15
ATOM     15  C   UNL     1       1.311  -0.213  -0.900  1.00  0.00     0.062 C 
ATOM     16  C   UNL     1       1.887  -0.137   0.497  1.00  0.00     0.011 C 
ENDBRANCH  10  15
BRANCH  12  17
ATOM     17  N   UNL     1       3.429   0.391  -3.280  1.00  0.00     0.068 N 
ATOM     18  O   UNL     1       2.821   1.425  -2.972  1.00  0.00    -0.258 OA
ATOM     19  O   UNL     1       4.585   0.339  -3.713  1.00  0.00    -0.258 OA
ENDBRANCH  12  17
ENDBRANCH   7   9
ENDBRANCH   5   7
BRANCH   5  20
ATOM     20  C   UNL     1       2.899  -2.330  -7.614  1.00  0.00     0.037 C 
ATOM     21  C   UNL     1       1.382  -2.288  -7.754  1.00  0.00     0.007 C 
ENDBRANCH   5  20
ENDBRANCH   3   5
ENDBRANCH   2   3
ENDBRANCH   1   2
BRANCH   1  22
ATOM     22  C   UNL     1       0.846   2.161  -5.652  1.00  0.00     0.275 C 
BRANCH  22  23
ATOM     23  O   UNL     1       0.255   1.267  -4.684  1.00  0.00    -0.458 OA
BRANCH  23  24
ATOM     24  C   UNL     1      -0.529   0.298  -5.224  1.00  0.00     0.338 C 
ATOM     25  O   UNL     1      -0.839   0.175  -6.395  1.00  0.00    -0.246 OA
BRANCH  24  26
ATOM     26  C   UNL     1      -0.885  -0.710  -4.202  1.00  0.00     0.060 A 
ATOM     27  C   UNL     1      -0.634  -2.050  -4.504  1.00  0.00     0.016 A 
ATOM     28  C   UNL     1      -1.521  -0.378  -3.005  1.00  0.00     0.016 A 
ATOM     29  C   UNL     1      -0.979  -3.059  -3.606  1.00  0.00     0.010 A 
ATOM     30  C   UNL     1      -1.898  -1.397  -2.111  1.00  0.00     0.010 A 
ATOM     31  C   UNL     1      -1.621  -2.743  -2.400  1.00  0.00    -0.014 A 
BRANCH  31  32
ATOM     32  C   UNL     1      -2.188  -3.861  -1.597  1.00  0.00     0.031 A 
ATOM     33  C   UNL     1      -3.503  -4.424  -2.039  1.00  0.00     0.074 A 
ATOM     34  C   UNL     1      -1.532  -4.439  -0.572  1.00  0.00     0.049 A 
ATOM     35  N   UNL     1      -4.151  -5.466  -1.590  1.00  0.00    -0.248 NA
ATOM     36  C   UNL     1      -4.179  -3.711  -3.136  1.00  0.00     0.031 C 
ATOM     37  C   UNL     1      -0.257  -3.995  -0.036  1.00  0.00     0.029 A 
ATOM     38  N   UNL     1      -1.830  -5.549   0.184  1.00  0.00    -0.354 N 
ATOM     39  C   UNL     1      -5.312  -5.531  -2.344  1.00  0.00     0.074 A 
ATOM     40  C   UNL     1      -5.282  -4.426  -3.277  1.00  0.00     0.031 C 
ATOM     41  C   UNL     1       0.176  -4.865   0.890  1.00  0.00     0.029 A 
ATOM     42  C   UNL     1      -0.844  -5.888   1.085  1.00  0.00     0.049 A 
ATOM     43  H   UNL     1      -2.669  -6.055   0.089  1.00  0.00     0.167 HD
ATOM     44  C   UNL     1      -6.329  -6.417  -2.254  1.00  0.00     0.031 A 
ATOM     45  C   UNL     1      -0.780  -6.892   1.982  1.00  0.00     0.031 A 
ATOM     46  C   UNL     1      -6.407  -7.461  -1.273  1.00  0.00     0.049 A 
ATOM     47  C   UNL     1      -1.959  -7.819   2.110  1.00  0.00     0.074 A 
ATOM     48  C   UNL     1      -7.436  -8.357  -1.048  1.00  0.00     0.029 A 
ATOM     49  N   UNL     1      -5.422  -7.734  -0.337  1.00  0.00    -0.354 N 
ATOM     50  N   UNL     1      -3.053  -7.869   1.389  1.00  0.00    -0.248 NA
ATOM     51  C   UNL     1      -1.905  -8.815   3.191  1.00  0.00     0.031 C 
ATOM     52  C   UNL     1      -7.094  -9.142   0.058  1.00  0.00     0.029 A 
ATOM     53  C   UNL     1      -5.824  -8.778   0.479  1.00  0.00     0.049 A 
ATOM     54  H   UNL     1      -4.564  -7.257  -0.263  1.00  0.00     0.167 HD
ATOM     55  C   UNL     1      -3.809  -8.906   1.918  1.00  0.00     0.074 A 
ATOM     56  C   UNL     1      -3.037  -9.479   3.001  1.00  0.00     0.031 C 
ATOM     57  C   UNL     1      -5.038  -9.341   1.546  1.00  0.00     0.031 A 
BRANCH  44  58
ATOM     58  C   UNL     1      -7.471  -6.207  -3.203  1.00  0.00    -0.014 A 
ATOM     59  C   UNL     1      -7.342  -6.497  -4.570  1.00  0.00     0.009 A 
ATOM     60  C   UNL     1      -8.667  -5.647  -2.731  1.00  0.00     0.009 A 
ATOM     61  C   UNL     1      -8.376  -6.189  -5.455  1.00  0.00     0.001 A 
ATOM     62  C   UNL     1      -9.709  -5.365  -3.613  1.00  0.00     0.001 A 
ATOM     63  C   UNL     1      -9.558  -5.623  -4.975  1.00  0.00     0.000 A 
ENDBRANCH  44  58
BRANCH  45  64
ATOM     64  C   UNL     1       0.404  -7.062   2.873  1.00  0.00    -0.014 A 
ATOM     65  C   UNL     1       1.203  -8.215   2.795  1.00  0.00     0.009 A 
ATOM     66  C   UNL     1       0.709  -6.103   3.853  1.00  0.00     0.009 A 
ATOM     67  C   UNL     1       2.254  -8.418   3.695  1.00  0.00     0.001 A 
ATOM     68  C   UNL     1       1.781  -6.291   4.728  1.00  0.00     0.001 A 
ATOM     69  C   UNL     1       2.545  -7.454   4.658  1.00  0.00     0.000 A 
ENDBRANCH  45  64
BRANCH  57  70
ATOM     70  C   UNL     1      -5.599 -10.525   2.280  1.00  0.00    -0.014 A 
ATOM     71  C   UNL     1      -6.052 -10.423   3.604  1.00  0.00     0.009 A 
ATOM     72  C   UNL     1      -5.712 -11.755   1.613  1.00  0.00     0.009 A 
ATOM     73  C   UNL     1      -6.576 -11.541   4.257  1.00  0.00     0.001 A 
ATOM     74  C   UNL     1      -6.263 -12.862   2.258  1.00  0.00     0.001 A 
ATOM     75  C   UNL     1      -6.686 -12.757   3.582  1.00  0.00     0.000 A 
ENDBRANCH  57  70
ENDBRANCH  31  32
ENDBRANCH  24  26
ENDBRANCH  23  24
ENDBRANCH  22  23
ENDBRANCH   1  22
TORSDOF 16
