REMARK SMILES O=C(NC(=S)Nc1ccccc1C(=O)OCCOC(=O)c1ccc(-c2c3nc(c(-c4ccccc4)c4ccc([nH]4)c(-c4ccccc4)c4nc(c(-c5ccccc5)c5ccc2[nH]5)C=C4)C=C3)cc1)c1ccc2ccccc2c1
REMARK SMILES IDX 16 1 15 2 13 3 14 4 12 5 7 6 8 7 9 8 11 9 10 10 6 11 4 13
REMARK SMILES IDX 5 14 3 15 1 16 2 17 69 19 70 20 78 21 71 22 77 23 72 24
REMARK SMILES IDX 76 25 73 26 75 27 74 28 17 29 18 30 19 31 20 32 21 33 22 34
REMARK SMILES IDX 68 35 23 36 67 37 24 38 25 39 26 40 61 41 27 42 66 43 60 44
REMARK SMILES IDX 62 45 28 46 65 47 59 48 58 49 29 51 51 52 36 53 50 54 37 55
REMARK SMILES IDX 40 56 49 57 63 58 38 59 39 60 48 62 64 63 41 64 30 65 31 66
REMARK SMILES IDX 35 67 32 68 34 69 33 70 52 71 53 72 57 73 54 74 56 75 55 76
REMARK SMILES IDX 42 77 43 78 47 79 44 80 46 81 45 82
REMARK H PARENT 6 12 3 18 62 50 40 61
REMARK Flexibility Score: inf
ROOT
ATOM      1  C   UNL     1       3.446  -3.156  -0.966  1.00  0.00     0.275 C 
ENDROOT
BRANCH   1   2
ATOM      2  O   UNL     1       4.234  -2.355  -0.045  1.00  0.00    -0.458 OA
BRANCH   2   3
ATOM      3  C   UNL     1       3.467  -1.536   0.701  1.00  0.00     0.340 C 
ATOM      4  O   UNL     1       2.242  -1.535   0.680  1.00  0.00    -0.246 OA
BRANCH   3   5
ATOM      5  C   UNL     1       4.136  -0.453   1.475  1.00  0.00     0.083 A 
ATOM      6  C   UNL     1       5.240   0.796   0.420  1.00  0.00     0.055 A 
ATOM      7  C   UNL     1       5.266   2.740   0.945  1.00  0.00     0.027 A 
ATOM      8  C   UNL     1       4.134   3.126   2.520  1.00  0.00     0.002 A 
ATOM      9  C   UNL     1       2.970  -0.040   3.017  1.00  0.00     0.018 A 
ATOM     10  C   UNL     1       3.011   1.892   3.565  1.00  0.00     0.001 A 
BRANCH   6  11
ATOM     11  N   UNL     1       5.407   0.542  -0.949  1.00  0.00    -0.332 N 
ATOM     12  H   UNL     1       6.322   0.581  -1.309  1.00  0.00     0.169 HD
BRANCH  11  13
ATOM     13  C   UNL     1       4.409   0.248  -1.816  1.00  0.00     0.177 C 
ATOM     14  S   UNL     1       4.818  -0.355  -3.324  1.00  0.00    -0.040 S 
BRANCH  13  15
ATOM     15  N   UNL     1       3.065   0.490  -1.543  1.00  0.00    -0.299 N 
ATOM     16  O   UNL     1       0.967   1.186  -0.978  1.00  0.00    -0.269 OA
ATOM     17  C   UNL     1       2.145   1.083  -0.624  1.00  0.00     0.257 C 
ATOM     18  H   UNL     1       2.538   0.095  -2.275  1.00  0.00     0.172 HD
BRANCH  17  19
ATOM     19  C   UNL     1       2.455   1.668   0.718  1.00  0.00     0.040 A 
ATOM     20  C   UNL     1       3.700   1.714   1.006  1.00  0.00     0.014 A 
ATOM     21  C   UNL     1       3.153   1.305   1.785  1.00  0.00     0.022 A 
ATOM     22  C   UNL     1       5.308   1.407   2.224  1.00  0.00     0.009 A 
ATOM     23  C   UNL     1       4.590   0.864   3.217  1.00  0.00    -0.018 A 
ATOM     24  C   UNL     1       5.828   1.082   3.328  1.00  0.00    -0.018 A 
ATOM     25  C   UNL     1       4.692   0.169   4.698  1.00  0.00     0.009 A 
ATOM     26  C   UNL     1       6.705   1.703   4.303  1.00  0.00     0.009 A 
ATOM     27  C   UNL     1       5.678   0.248   5.738  1.00  0.00     0.001 A 
ATOM     28  C   UNL     1       6.669   1.171   5.555  1.00  0.00     0.001 A 
ENDBRANCH  17  19
ENDBRANCH  13  15
ENDBRANCH  11  13
ENDBRANCH   6  11
ENDBRANCH   3   5
ENDBRANCH   2   3
ENDBRANCH   1   2
BRANCH   1  29
ATOM     29  C   UNL     1       2.977  -4.499  -0.393  1.00  0.00     0.275 C 
BRANCH  29  30
ATOM     30  O   UNL     1       2.003  -4.348   0.658  1.00  0.00    -0.458 OA
BRANCH  30  31
ATOM     31  C   UNL     1       2.521  -4.382   1.905  1.00  0.00     0.338 C 
ATOM     32  O   UNL     1       3.692  -4.551   2.212  1.00  0.00    -0.246 OA
BRANCH  31  33
ATOM     33  C   UNL     1       1.497  -4.141   2.934  1.00  0.00     0.060 A 
ATOM     34  C   UNL     1       0.954  -2.871   3.068  1.00  0.00     0.016 A 
ATOM     35  C   UNL     1       1.300  -5.081   3.941  1.00  0.00     0.016 A 
ATOM     36  C   UNL     1       0.416  -2.470   4.284  1.00  0.00     0.010 A 
ATOM     37  C   UNL     1       0.584  -4.724   5.089  1.00  0.00     0.010 A 
ATOM     38  C   UNL     1       0.190  -3.392   5.306  1.00  0.00    -0.014 A 
BRANCH  38  39
ATOM     39  C   UNL     1      -0.424  -2.958   6.593  1.00  0.00     0.031 A 
ATOM     40  C   UNL     1       0.220  -3.340   7.902  1.00  0.00     0.074 A 
ATOM     41  C   UNL     1      -1.554  -2.220   6.601  1.00  0.00     0.049 A 
ATOM     42  N   UNL     1      -0.284  -3.315   9.110  1.00  0.00    -0.248 NA
ATOM     43  C   UNL     1       1.604  -3.838   7.842  1.00  0.00     0.031 C 
ATOM     44  C   UNL     1      -2.245  -1.690   5.420  1.00  0.00     0.029 A 
ATOM     45  N   UNL     1      -2.328  -1.782   7.648  1.00  0.00    -0.354 N 
ATOM     46  C   UNL     1       0.687  -3.871   9.937  1.00  0.00     0.074 A 
ATOM     47  C   UNL     1       1.807  -4.226   9.093  1.00  0.00     0.031 C 
ATOM     48  C   UNL     1      -3.297  -0.959   5.808  1.00  0.00     0.029 A 
ATOM     49  C   UNL     1      -3.449  -1.095   7.246  1.00  0.00     0.049 A 
ATOM     50  H   UNL     1      -2.102  -1.945   8.592  1.00  0.00     0.167 HD
ATOM     51  C   UNL     1       0.637  -4.076  11.276  1.00  0.00     0.031 A 
ATOM     52  C   UNL     1      -4.529  -0.689   7.936  1.00  0.00     0.031 A 
ATOM     53  C   UNL     1      -0.477  -3.687  12.102  1.00  0.00     0.049 A 
ATOM     54  C   UNL     1      -4.609  -1.015   9.396  1.00  0.00     0.074 A 
ATOM     55  C   UNL     1      -0.638  -3.845  13.468  1.00  0.00     0.029 A 
ATOM     56  N   UNL     1      -1.619  -3.050  11.637  1.00  0.00    -0.354 N 
ATOM     57  N   UNL     1      -3.726  -1.614  10.158  1.00  0.00    -0.248 NA
ATOM     58  C   UNL     1      -5.844  -0.626  10.087  1.00  0.00     0.031 C 
ATOM     59  C   UNL     1      -1.905  -3.363  13.816  1.00  0.00     0.029 A 
ATOM     60  C   UNL     1      -2.499  -2.831  12.683  1.00  0.00     0.049 A 
ATOM     61  H   UNL     1      -1.779  -2.791  10.700  1.00  0.00     0.167 HD
ATOM     62  C   UNL     1      -4.286  -1.649  11.426  1.00  0.00     0.074 A 
ATOM     63  C   UNL     1      -5.575  -0.993  11.331  1.00  0.00     0.031 C 
ATOM     64  C   UNL     1      -3.778  -2.176  12.567  1.00  0.00     0.031 A 
BRANCH  51  65
ATOM     65  C   UNL     1       1.789  -4.811  11.913  1.00  0.00    -0.014 A 
ATOM     66  C   UNL     1       3.074  -4.253  12.002  1.00  0.00     0.009 A 
ATOM     67  C   UNL     1       1.575  -6.093  12.447  1.00  0.00     0.009 A 
ATOM     68  C   UNL     1       4.127  -4.982  12.563  1.00  0.00     0.001 A 
ATOM     69  C   UNL     1       2.619  -6.805  13.040  1.00  0.00     0.001 A 
ATOM     70  C   UNL     1       3.898  -6.255  13.085  1.00  0.00     0.000 A 
ENDBRANCH  51  65
BRANCH  52  71
ATOM     71  C   UNL     1      -5.644   0.003   7.235  1.00  0.00    -0.014 A 
ATOM     72  C   UNL     1      -5.939   1.344   7.519  1.00  0.00     0.009 A 
ATOM     73  C   UNL     1      -6.410  -0.667   6.265  1.00  0.00     0.009 A 
ATOM     74  C   UNL     1      -6.985   1.994   6.859  1.00  0.00     0.001 A 
ATOM     75  C   UNL     1      -7.428  -0.003   5.578  1.00  0.00     0.001 A 
ATOM     76  C   UNL     1      -7.722   1.323   5.884  1.00  0.00     0.000 A 
ENDBRANCH  52  71
BRANCH  64  77
ATOM     77  C   UNL     1      -4.598  -2.006  13.815  1.00  0.00    -0.014 A 
ATOM     78  C   UNL     1      -5.804  -2.698  14.004  1.00  0.00     0.009 A 
ATOM     79  C   UNL     1      -4.138  -1.150  14.828  1.00  0.00     0.009 A 
ATOM     80  C   UNL     1      -6.554  -2.502  15.165  1.00  0.00     0.001 A 
ATOM     81  C   UNL     1      -4.870  -0.986  16.004  1.00  0.00     0.001 A 
ATOM     82  C   UNL     1      -6.083  -1.652  16.166  1.00  0.00     0.000 A 
ENDBRANCH  64  77
ENDBRANCH  38  39
ENDBRANCH  31  33
ENDBRANCH  30  31
ENDBRANCH  29  30
ENDBRANCH   1  29
TORSDOF 15
