REMARK SMILES COc1cc(Cl)c2c(c1)C=C(C(=O)OCCOC(=O)c1ccc(-c3c4nc(c(-c5ccccc5)c5ccc([nH]5)c(-c5ccccc5)c5nc(c(-c6ccccc6)c6ccc3[nH]6)C=C5)C=C4)cc1)[C@@H](C(F)(F)F)O2
REMARK SMILES IDX 16 1 15 2 14 3 12 4 13 5 11 6 3 7 4 8 9 9 5 10 8 11 6 12
REMARK SMILES IDX 7 13 10 14 73 15 68 16 2 17 1 18 69 19 70 20 71 21 72 22
REMARK SMILES IDX 17 23 18 24 19 25 20 26 21 27 67 28 22 29 66 30 23 31 24 32
REMARK SMILES IDX 25 33 60 34 26 35 65 36 59 37 61 38 27 39 64 40 58 41 57 42
REMARK SMILES IDX 28 44 50 45 35 46 49 47 36 48 39 49 48 50 62 51 37 52 38 53
REMARK SMILES IDX 47 55 63 56 40 57 29 58 30 59 34 60 31 61 33 62 32 63 51 64
REMARK SMILES IDX 52 65 56 66 53 67 55 68 54 69 41 70 42 71 46 72 43 73 45 74
REMARK SMILES IDX 44 75
REMARK H PARENT 61 43 39 54
REMARK Flexibility Score: inf
ROOT
ATOM      1  C   UNL     1      -2.341  -0.029  10.390  1.00  0.00     0.275 C 
ENDROOT
BRANCH   1   2
ATOM      2  C   UNL     1      -1.952  -1.473  10.052  1.00  0.00     0.275 C 
BRANCH   2   3
ATOM      3  O   UNL     1      -0.956  -1.525   9.008  1.00  0.00    -0.459 OA
BRANCH   3   4
ATOM      4  C   UNL     1      -1.370  -1.989   7.804  1.00  0.00     0.338 C 
ATOM      5  O   UNL     1      -2.498  -2.363   7.524  1.00  0.00    -0.246 OA
BRANCH   4   6
ATOM      6  C   UNL     1      -0.276  -1.877   6.811  1.00  0.00     0.087 C 
ATOM      7  C   UNL     1       1.017  -0.333   2.441  1.00  0.00     0.121 A 
ATOM      8  C   UNL     1       2.363  -0.449   2.777  1.00  0.00     0.070 A 
ATOM      9  C   UNL     1       0.038  -0.731   3.350  1.00  0.00     0.058 A 
ATOM     10  C   UNL     1       2.720  -0.954   4.032  1.00  0.00     0.087 A 
ATOM     11  C   UNL     1       0.394  -1.246   4.603  1.00  0.00     0.022 A 
ATOM     12  Cl  UNL     1       4.403  -1.062   4.416  1.00  0.00    -0.080 Cl
ATOM     13  C   UNL     1       1.739  -1.333   4.962  1.00  0.00     0.146 A 
ATOM     14  C   UNL     1      -0.643  -1.608   5.553  1.00  0.00     0.027 C 
ATOM     15  O   UNL     1       2.146  -1.751   6.199  1.00  0.00    -0.474 OA
ATOM     16  C   UNL     1       1.161  -2.009   7.239  1.00  0.00     0.316 C 
BRANCH   7  17
ATOM     17  O   UNL     1       0.558   0.251   1.293  1.00  0.00    -0.497 OA
ATOM     18  C   UNL     1       1.209  -0.194   0.107  1.00  0.00     0.278 C 
ENDBRANCH   7  17
BRANCH  16  19
ATOM     19  C   UNL     1       1.439  -3.414   7.800  1.00  0.00     0.430 C 
ATOM     20  F   UNL     1       2.726  -3.541   8.203  1.00  0.00    -0.167 F 
ATOM     21  F   UNL     1       0.667  -3.699   8.875  1.00  0.00    -0.167 F 
ATOM     22  F   UNL     1       1.208  -4.378   6.877  1.00  0.00    -0.167 F 
ENDBRANCH  16  19
ENDBRANCH   4   6
ENDBRANCH   3   4
ENDBRANCH   2   3
ENDBRANCH   1   2
BRANCH   1  23
ATOM     23  O   UNL     1      -3.056   0.595   9.307  1.00  0.00    -0.458 OA
BRANCH  23  24
ATOM     24  C   UNL     1      -2.283   1.294   8.443  1.00  0.00     0.338 C 
ATOM     25  O   UNL     1      -1.080   1.478   8.515  1.00  0.00    -0.246 OA
BRANCH  24  26
ATOM     26  C   UNL     1      -3.075   1.657   7.255  1.00  0.00     0.060 A 
ATOM     27  C   UNL     1      -2.563   1.260   6.019  1.00  0.00     0.016 A 
ATOM     28  C   UNL     1      -4.255   2.400   7.322  1.00  0.00     0.016 A 
ATOM     29  C   UNL     1      -3.241   1.552   4.843  1.00  0.00     0.010 A 
ATOM     30  C   UNL     1      -4.911   2.747   6.134  1.00  0.00     0.010 A 
ATOM     31  C   UNL     1      -4.404   2.325   4.892  1.00  0.00    -0.014 A 
BRANCH  31  32
ATOM     32  C   UNL     1      -5.008   2.782   3.623  1.00  0.00     0.031 A 
ATOM     33  C   UNL     1      -4.480   4.024   2.969  1.00  0.00     0.074 A 
ATOM     34  C   UNL     1      -5.968   2.055   3.025  1.00  0.00     0.049 A 
ATOM     35  N   UNL     1      -4.899   4.627   1.887  1.00  0.00    -0.248 NA
ATOM     36  C   UNL     1      -3.313   4.660   3.603  1.00  0.00     0.031 C 
ATOM     37  C   UNL     1      -6.475   0.769   3.502  1.00  0.00     0.029 A 
ATOM     38  N   UNL     1      -6.679   2.297   1.877  1.00  0.00    -0.354 N 
ATOM     39  C   UNL     1      -4.049   5.710   1.710  1.00  0.00     0.074 A 
ATOM     40  C   UNL     1      -3.090   5.685   2.792  1.00  0.00     0.031 C 
ATOM     41  C   UNL     1      -7.426   0.339   2.655  1.00  0.00     0.029 A 
ATOM     42  C   UNL     1      -7.621   1.337   1.606  1.00  0.00     0.049 A 
ATOM     43  H   UNL     1      -6.527   3.083   1.304  1.00  0.00     0.167 HD
ATOM     44  C   UNL     1      -4.074   6.645   0.734  1.00  0.00     0.031 A 
ATOM     45  C   UNL     1      -8.556   1.286   0.637  1.00  0.00     0.031 A 
ATOM     46  C   UNL     1      -5.047   6.688  -0.321  1.00  0.00     0.049 A 
ATOM     47  C   UNL     1      -8.650   2.409  -0.358  1.00  0.00     0.074 A 
ATOM     48  C   UNL     1      -5.187   7.632  -1.323  1.00  0.00     0.029 A 
ATOM     49  N   UNL     1      -6.048   5.749  -0.507  1.00  0.00    -0.354 N 
ATOM     50  N   UNL     1      -7.886   3.468  -0.478  1.00  0.00    -0.248 NA
ATOM     51  C   UNL     1      -9.739   2.337  -1.344  1.00  0.00     0.031 C 
ATOM     52  C   UNL     1      -6.301   7.285  -2.093  1.00  0.00     0.029 A 
ATOM     53  C   UNL     1      -6.821   6.099  -1.599  1.00  0.00     0.049 A 
ATOM     54  H   UNL     1      -6.188   4.952   0.054  1.00  0.00     0.167 HD
ATOM     55  C   UNL     1      -8.389   4.178  -1.560  1.00  0.00     0.074 A 
ATOM     56  C   UNL     1      -9.520   3.430  -2.067  1.00  0.00     0.031 C 
ATOM     57  C   UNL     1      -7.946   5.345  -2.088  1.00  0.00     0.031 A 
BRANCH  44  58
ATOM     58  C   UNL     1      -3.043   7.731   0.786  1.00  0.00    -0.014 A 
ATOM     59  C   UNL     1      -1.730   7.504   0.346  1.00  0.00     0.009 A 
ATOM     60  C   UNL     1      -3.409   9.016   1.215  1.00  0.00     0.009 A 
ATOM     61  C   UNL     1      -0.801   8.546   0.341  1.00  0.00     0.001 A 
ATOM     62  C   UNL     1      -2.483  10.059   1.192  1.00  0.00     0.001 A 
ATOM     63  C   UNL     1      -1.180   9.823   0.757  1.00  0.00     0.000 A 
ENDBRANCH  44  58
BRANCH  45  64
ATOM     64  C   UNL     1      -9.501   0.142   0.593  1.00  0.00    -0.014 A 
ATOM     65  C   UNL     1      -9.379  -0.848  -0.392  1.00  0.00     0.009 A 
ATOM     66  C   UNL     1     -10.511   0.020   1.560  1.00  0.00     0.009 A 
ATOM     67  C   UNL     1     -10.250  -1.940  -0.405  1.00  0.00     0.001 A 
ATOM     68  C   UNL     1     -11.367  -1.082   1.556  1.00  0.00     0.001 A 
ATOM     69  C   UNL     1     -11.237  -2.061   0.572  1.00  0.00     0.000 A 
ENDBRANCH  45  64
BRANCH  57  70
ATOM     70  C   UNL     1      -8.660   5.886  -3.291  1.00  0.00    -0.014 A 
ATOM     71  C   UNL     1      -9.889   6.550  -3.164  1.00  0.00     0.009 A 
ATOM     72  C   UNL     1      -8.042   5.823  -4.550  1.00  0.00     0.009 A 
ATOM     73  C   UNL     1     -10.491   7.132  -4.282  1.00  0.00     0.001 A 
ATOM     74  C   UNL     1      -8.636   6.424  -5.660  1.00  0.00     0.001 A 
ATOM     75  C   UNL     1      -9.861   7.075  -5.525  1.00  0.00     0.000 A 
ENDBRANCH  57  70
ENDBRANCH  31  32
ENDBRANCH  24  26
ENDBRANCH  23  24
ENDBRANCH   1  23
TORSDOF 13
