REMARK SMILES O=C(OCCOC(=O)[C@@H]1C=C[C@H](NC(=O)c2ccc(Cl)cc2[N+](=O)[O-])C1)c1ccc(-c2c3nc(c(-c4ccccc4)c4ccc([nH]4)c(-c4ccccc4)c4nc(c(-c5ccccc5)c5ccc2[nH]5)C=C4)C=C3)cc1
REMARK SMILES IDX 5 1 4 2 3 3 2 4 1 5 27 6 28 7 74 8 29 9 73 10 30 11 31 12
REMARK SMILES IDX 32 13 67 14 33 15 72 16 66 17 68 18 34 19 71 20 65 21 64 22
REMARK SMILES IDX 35 24 57 25 42 26 56 27 43 28 46 29 55 30 69 31 44 32 45 33
REMARK SMILES IDX 54 35 70 36 47 37 36 38 37 39 41 40 38 41 40 42 39 43 58 44
REMARK SMILES IDX 59 45 63 46 60 47 62 48 61 49 48 50 49 51 53 52 50 53 52 54
REMARK SMILES IDX 51 55 6 56 7 57 8 58 9 59 10 60 26 61 11 62 12 63 13 64
REMARK SMILES IDX 14 65 15 67 16 68 17 69 22 70 18 71 21 72 19 73 20 74 23 75
REMARK SMILES IDX 24 76 25 77
REMARK H PARENT 68 23 46 34 13 66
REMARK Flexibility Score: inf
ROOT
ATOM      1  C   UNL     1       0.177   0.367   4.652  1.00  0.00     0.274 C 
ENDROOT
BRANCH   1   2
ATOM      2  C   UNL     1      -1.148   0.538   3.897  1.00  0.00     0.275 C 
BRANCH   2   3
ATOM      3  O   UNL     1      -1.512  -0.544   3.016  1.00  0.00    -0.458 OA
BRANCH   3   4
ATOM      4  C   UNL     1      -1.190  -0.775   1.721  1.00  0.00     0.338 C 
ATOM      5  O   UNL     1      -1.778  -1.657   1.099  1.00  0.00    -0.246 OA
BRANCH   4   6
ATOM      6  C   UNL     1      -0.022  -0.127   1.053  1.00  0.00     0.060 A 
ATOM      7  C   UNL     1       0.434   1.167   1.304  1.00  0.00     0.016 A 
ATOM      8  C   UNL     1       0.691  -0.915   0.126  1.00  0.00     0.016 A 
ATOM      9  C   UNL     1       1.637   1.617   0.761  1.00  0.00     0.010 A 
ATOM     10  C   UNL     1       1.899  -0.470  -0.423  1.00  0.00     0.010 A 
ATOM     11  C   UNL     1       2.384   0.799  -0.092  1.00  0.00    -0.014 A 
BRANCH  11  12
ATOM     12  C   UNL     1       3.557   1.392  -0.766  1.00  0.00     0.031 A 
ATOM     13  C   UNL     1       3.366   1.885  -2.169  1.00  0.00     0.074 A 
ATOM     14  C   UNL     1       4.703   1.617  -0.094  1.00  0.00     0.049 A 
ATOM     15  N   UNL     1       4.166   2.606  -2.907  1.00  0.00    -0.248 NA
ATOM     16  C   UNL     1       2.089   1.540  -2.818  1.00  0.00     0.031 C 
ATOM     17  C   UNL     1       4.974   1.214   1.288  1.00  0.00     0.029 A 
ATOM     18  N   UNL     1       5.844   2.276  -0.476  1.00  0.00    -0.354 N 
ATOM     19  C   UNL     1       3.474   2.826  -4.090  1.00  0.00     0.074 A 
ATOM     20  C   UNL     1       2.224   2.111  -4.003  1.00  0.00     0.031 C 
ATOM     21  C   UNL     1       6.195   1.655   1.644  1.00  0.00     0.029 A 
ATOM     22  C   UNL     1       6.795   2.360   0.515  1.00  0.00     0.049 A 
ATOM     23  H   UNL     1       5.971   2.653  -1.376  1.00  0.00     0.167 HD
ATOM     24  C   UNL     1       3.833   3.586  -5.149  1.00  0.00     0.031 A 
ATOM     25  C   UNL     1       8.005   2.954   0.504  1.00  0.00     0.031 A 
ATOM     26  C   UNL     1       5.094   4.260  -5.250  1.00  0.00     0.049 A 
ATOM     27  C   UNL     1       8.426   3.704  -0.736  1.00  0.00     0.074 A 
ATOM     28  C   UNL     1       5.593   5.007  -6.299  1.00  0.00     0.029 A 
ATOM     29  N   UNL     1       6.062   4.254  -4.257  1.00  0.00    -0.354 N 
ATOM     30  N   UNL     1       7.748   3.928  -1.838  1.00  0.00    -0.248 NA
ATOM     31  C   UNL     1       9.769   4.299  -0.727  1.00  0.00     0.031 C 
ATOM     32  C   UNL     1       6.888   5.414  -5.959  1.00  0.00     0.029 A 
ATOM     33  C   UNL     1       7.168   4.971  -4.675  1.00  0.00     0.049 A 
ATOM     34  H   UNL     1       5.975   3.807  -3.384  1.00  0.00     0.167 HD
ATOM     35  C   UNL     1       8.572   4.709  -2.640  1.00  0.00     0.074 A 
ATOM     36  C   UNL     1       9.785   4.946  -1.883  1.00  0.00     0.031 C 
ATOM     37  C   UNL     1       8.357   5.185  -3.892  1.00  0.00     0.031 A 
BRANCH  24  38
ATOM     38  C   UNL     1       2.845   3.683  -6.273  1.00  0.00    -0.014 A 
ATOM     39  C   UNL     1       1.654   4.414  -6.126  1.00  0.00     0.009 A 
ATOM     40  C   UNL     1       3.084   3.004  -7.476  1.00  0.00     0.009 A 
ATOM     41  C   UNL     1       0.705   4.431  -7.150  1.00  0.00     0.001 A 
ATOM     42  C   UNL     1       2.145   3.046  -8.508  1.00  0.00     0.001 A 
ATOM     43  C   UNL     1       0.953   3.749  -8.340  1.00  0.00     0.000 A 
ENDBRANCH  24  38
BRANCH  25  44
ATOM     44  C   UNL     1       8.920   2.861   1.678  1.00  0.00    -0.014 A 
ATOM     45  C   UNL     1       9.308   4.005   2.394  1.00  0.00     0.009 A 
ATOM     46  C   UNL     1       9.474   1.623   2.044  1.00  0.00     0.009 A 
ATOM     47  C   UNL     1      10.262   3.918   3.414  1.00  0.00     0.001 A 
ATOM     48  C   UNL     1      10.402   1.534   3.086  1.00  0.00     0.001 A 
ATOM     49  C   UNL     1      10.807   2.683   3.759  1.00  0.00     0.000 A 
ENDBRANCH  25  44
BRANCH  37  50
ATOM     50  C   UNL     1       9.443   6.026  -4.499  1.00  0.00    -0.014 A 
ATOM     51  C   UNL     1      10.661   5.460  -4.906  1.00  0.00     0.009 A 
ATOM     52  C   UNL     1       9.224   7.396  -4.709  1.00  0.00     0.009 A 
ATOM     53  C   UNL     1      11.654   6.259  -5.474  1.00  0.00     0.001 A 
ATOM     54  C   UNL     1      10.205   8.186  -5.309  1.00  0.00     0.001 A 
ATOM     55  C   UNL     1      11.423   7.619  -5.680  1.00  0.00     0.000 A 
ENDBRANCH  37  50
ENDBRANCH  11  12
ENDBRANCH   4   6
ENDBRANCH   3   4
ENDBRANCH   2   3
ENDBRANCH   1   2
BRANCH   1  56
ATOM     56  O   UNL     1       1.254  -0.136   3.841  1.00  0.00    -0.462 OA
BRANCH  56  57
ATOM     57  C   UNL     1       1.345  -1.501   3.802  1.00  0.00     0.312 C 
ATOM     58  O   UNL     1       0.649  -2.245   4.482  1.00  0.00    -0.252 OA
BRANCH  57  59
ATOM     59  C   UNL     1       2.400  -1.949   2.787  1.00  0.00     0.124 C 
ATOM     60  C   UNL     1       2.080  -3.311   2.238  1.00  0.00    -0.014 C 
ATOM     61  C   UNL     1       3.780  -2.222   3.368  1.00  0.00     0.048 C 
ATOM     62  C   UNL     1       2.817  -4.252   2.849  1.00  0.00    -0.006 C 
ATOM     63  C   UNL     1       3.700  -3.650   3.911  1.00  0.00     0.106 C 
BRANCH  63  64
ATOM     64  N   UNL     1       2.991  -3.808   5.176  1.00  0.00    -0.346 N 
ATOM     65  C   UNL     1       3.235  -3.323   6.429  1.00  0.00     0.258 C 
ATOM     66  H   UNL     1       2.186  -4.370   5.115  1.00  0.00     0.164 HD
ATOM     67  O   UNL     1       2.582  -3.671   7.411  1.00  0.00    -0.269 OA
BRANCH  65  68
ATOM     68  C   UNL     1       4.275  -2.315   6.626  1.00  0.00     0.117 A 
ATOM     69  C   UNL     1       3.965  -0.975   6.354  1.00  0.00     0.022 A 
ATOM     70  C   UNL     1       5.542  -2.637   7.098  1.00  0.00     0.283 A 
ATOM     71  C   UNL     1       4.974  -0.010   6.371  1.00  0.00     0.022 A 
ATOM     72  C   UNL     1       6.555  -1.672   7.155  1.00  0.00     0.107 A 
ATOM     73  C   UNL     1       6.269  -0.370   6.745  1.00  0.00     0.047 A 
ATOM     74  Cl  UNL     1       7.524   0.802   6.686  1.00  0.00    -0.084 Cl
BRANCH  70  75
ATOM     75  N   UNL     1       5.835  -3.975   7.570  1.00  0.00     0.063 N 
ATOM     76  O   UNL     1       6.355  -4.067   8.690  1.00  0.00    -0.258 OA
ATOM     77  O   UNL     1       5.616  -4.915   6.796  1.00  0.00    -0.258 OA
ENDBRANCH  70  75
ENDBRANCH  65  68
ENDBRANCH  63  64
ENDBRANCH  57  59
ENDBRANCH  56  57
ENDBRANCH   1  56
TORSDOF 14
