REMARK SMILES CCn1c(N2CCC(C(=O)OCCOC(=O)c3ccc(-c4c5nc(c(-c6ccccc6)c6ccc([nH]6)c(-c6ccccc6)c6nc(c(-c7ccccc7)c7ccc4[nH]7)C=C6)C=C5)cc3)CC2)nc2cc(C)ccc21
REMARK SMILES IDX 12 1 11 2 9 3 10 4 8 5 5 6 6 7 66 8 7 9 65 10 4 11 3 12
REMARK SMILES IDX 74 13 67 14 68 15 73 16 69 17 72 18 70 19 71 20 2 21 1 22
REMARK SMILES IDX 13 23 14 24 15 25 16 26 17 27 18 28 64 29 19 30 63 31 20 32
REMARK SMILES IDX 21 33 22 34 57 35 23 36 62 37 56 38 58 39 24 40 61 41 55 42
REMARK SMILES IDX 54 43 25 45 47 46 32 47 46 48 33 49 36 50 45 51 59 52 34 53
REMARK SMILES IDX 35 54 44 56 60 57 37 58 26 59 27 60 31 61 28 62 30 63 29 64
REMARK SMILES IDX 48 65 49 66 53 67 50 68 52 69 51 70 38 71 39 72 43 73 40 74
REMARK SMILES IDX 42 75 41 76
REMARK H PARENT 58 44 36 55
REMARK Flexibility Score: inf
ROOT
ATOM      1  C   UNL     1      -0.002   9.476   4.215  1.00  0.00     0.274 C 
ENDROOT
BRANCH   1   2
ATOM      2  O   UNL     1      -0.122   8.280   3.417  1.00  0.00    -0.462 OA
BRANCH   2   3
ATOM      3  C   UNL     1       0.138   7.111   4.047  1.00  0.00     0.309 C 
ATOM      4  O   UNL     1       0.519   7.009   5.209  1.00  0.00    -0.252 OA
BRANCH   3   5
ATOM      5  C   UNL     1      -0.156   5.899   3.197  1.00  0.00     0.103 C 
ATOM      6  N   UNL     1      -0.164   3.753   1.322  1.00  0.00    -0.342 N 
ATOM      7  C   UNL     1      -1.240   4.752   1.252  1.00  0.00     0.120 C 
ATOM      8  C   UNL     1       0.520   3.616   2.610  1.00  0.00     0.120 C 
ATOM      9  C   UNL     1      -0.815   6.107   1.835  1.00  0.00     0.037 C 
ATOM     10  C   UNL     1       1.046   4.980   3.048  1.00  0.00     0.037 C 
BRANCH   6  11
ATOM     11  C   UNL     1       0.590   3.566   0.211  1.00  0.00     0.206 A 
ATOM     12  N   UNL     1       1.023   2.304  -0.170  1.00  0.00    -0.310 N 
ATOM     13  C   UNL     1       1.843   2.468  -1.265  1.00  0.00     0.070 A 
ATOM     14  N   UNL     1       0.996   4.490  -0.621  1.00  0.00    -0.213 NA
ATOM     15  C   UNL     1       1.790   3.839  -1.521  1.00  0.00     0.091 A 
ATOM     16  C   UNL     1       2.607   1.609  -2.065  1.00  0.00     0.029 A 
ATOM     17  C   UNL     1       2.504   4.381  -2.602  1.00  0.00     0.034 A 
ATOM     18  C   UNL     1       3.305   2.165  -3.145  1.00  0.00     0.006 A 
ATOM     19  C   UNL     1       3.259   3.533  -3.424  1.00  0.00    -0.049 A 
ATOM     20  C   UNL     1       4.006   4.108  -4.590  1.00  0.00     0.044 C 
BRANCH  12  21
ATOM     21  C   UNL     1       0.563   1.093   0.483  1.00  0.00     0.122 C 
ATOM     22  C   UNL     1       0.876  -0.254  -0.140  1.00  0.00     0.028 C 
ENDBRANCH  12  21
ENDBRANCH   6  11
ENDBRANCH   3   5
ENDBRANCH   2   3
ENDBRANCH   1   2
BRANCH   1  23
ATOM     23  C   UNL     1      -1.382  10.112   4.404  1.00  0.00     0.275 C 
BRANCH  23  24
ATOM     24  O   UNL     1      -2.152   9.291   5.297  1.00  0.00    -0.458 OA
BRANCH  24  25
ATOM     25  C   UNL     1      -3.152   8.561   4.736  1.00  0.00     0.338 C 
ATOM     26  O   UNL     1      -3.718   8.768   3.686  1.00  0.00    -0.246 OA
BRANCH  25  27
ATOM     27  C   UNL     1      -3.152   7.260   5.445  1.00  0.00     0.060 A 
ATOM     28  C   UNL     1      -2.764   7.154   6.785  1.00  0.00     0.016 A 
ATOM     29  C   UNL     1      -3.262   6.122   4.644  1.00  0.00     0.016 A 
ATOM     30  C   UNL     1      -2.294   5.935   7.264  1.00  0.00     0.010 A 
ATOM     31  C   UNL     1      -2.778   4.913   5.123  1.00  0.00     0.010 A 
ATOM     32  C   UNL     1      -2.209   4.840   6.399  1.00  0.00    -0.014 A 
BRANCH  32  33
ATOM     33  C   UNL     1      -1.728   3.557   6.906  1.00  0.00     0.031 A 
ATOM     34  C   UNL     1      -2.816   2.749   7.495  1.00  0.00     0.074 A 
ATOM     35  C   UNL     1      -0.488   3.032   6.812  1.00  0.00     0.049 A 
ATOM     36  N   UNL     1      -2.968   2.489   8.749  1.00  0.00    -0.248 NA
ATOM     37  C   UNL     1      -3.935   2.326   6.642  1.00  0.00     0.031 C 
ATOM     38  C   UNL     1       0.682   3.543   6.115  1.00  0.00     0.029 A 
ATOM     39  N   UNL     1      -0.040   1.826   7.270  1.00  0.00    -0.354 N 
ATOM     40  C   UNL     1      -4.133   1.744   8.837  1.00  0.00     0.074 A 
ATOM     41  C   UNL     1      -4.775   1.838   7.552  1.00  0.00     0.031 C 
ATOM     42  C   UNL     1       1.585   2.545   5.936  1.00  0.00     0.029 A 
ATOM     43  C   UNL     1       1.138   1.379   6.678  1.00  0.00     0.049 A 
ATOM     44  H   UNL     1      -0.513   1.313   7.964  1.00  0.00     0.167 HD
ATOM     45  C   UNL     1      -4.373   0.924   9.893  1.00  0.00     0.031 A 
ATOM     46  C   UNL     1       1.684   0.138   6.786  1.00  0.00     0.031 A 
ATOM     47  C   UNL     1      -3.491   1.197  10.998  1.00  0.00     0.049 A 
ATOM     48  C   UNL     1       1.152  -0.466   8.031  1.00  0.00     0.074 A 
ATOM     49  C   UNL     1      -3.233   2.317  11.764  1.00  0.00     0.029 A 
ATOM     50  N   UNL     1      -2.419   0.356  11.185  1.00  0.00    -0.354 N 
ATOM     51  N   UNL     1       1.468  -0.043   9.221  1.00  0.00    -0.248 NA
ATOM     52  C   UNL     1      -0.082  -1.230   7.937  1.00  0.00     0.031 C 
ATOM     53  C   UNL     1      -1.823   2.311  11.957  1.00  0.00     0.029 A 
ATOM     54  C   UNL     1      -1.315   1.148  11.377  1.00  0.00     0.049 A 
ATOM     55  H   UNL     1      -2.439  -0.628  11.183  1.00  0.00     0.167 HD
ATOM     56  C   UNL     1       0.273  -0.073   9.922  1.00  0.00     0.074 A 
ATOM     57  C   UNL     1      -0.629  -0.889   9.106  1.00  0.00     0.031 C 
ATOM     58  C   UNL     1       0.020   0.799  10.942  1.00  0.00     0.031 A 
BRANCH  45  59
ATOM     59  C   UNL     1      -5.167  -0.346   9.776  1.00  0.00    -0.014 A 
ATOM     60  C   UNL     1      -5.465  -0.966   8.546  1.00  0.00     0.009 A 
ATOM     61  C   UNL     1      -5.428  -1.088  10.938  1.00  0.00     0.009 A 
ATOM     62  C   UNL     1      -6.002  -2.251   8.473  1.00  0.00     0.001 A 
ATOM     63  C   UNL     1      -5.919  -2.396  10.867  1.00  0.00     0.001 A 
ATOM     64  C   UNL     1      -6.207  -2.976   9.636  1.00  0.00     0.000 A 
ENDBRANCH  45  59
BRANCH  46  65
ATOM     65  C   UNL     1       2.294  -0.708   5.726  1.00  0.00    -0.014 A 
ATOM     66  C   UNL     1       1.976  -0.493   4.375  1.00  0.00     0.009 A 
ATOM     67  C   UNL     1       2.927  -1.924   6.055  1.00  0.00     0.009 A 
ATOM     68  C   UNL     1       2.222  -1.473   3.404  1.00  0.00     0.001 A 
ATOM     69  C   UNL     1       3.169  -2.906   5.081  1.00  0.00     0.001 A 
ATOM     70  C   UNL     1       2.798  -2.687   3.759  1.00  0.00     0.000 A 
ENDBRANCH  46  65
BRANCH  58  71
ATOM     71  C   UNL     1       1.138   1.668  11.475  1.00  0.00    -0.014 A 
ATOM     72  C   UNL     1       1.276   1.769  12.870  1.00  0.00     0.009 A 
ATOM     73  C   UNL     1       1.897   2.540  10.674  1.00  0.00     0.009 A 
ATOM     74  C   UNL     1       2.113   2.724  13.448  1.00  0.00     0.001 A 
ATOM     75  C   UNL     1       2.761   3.478  11.253  1.00  0.00     0.001 A 
ATOM     76  C   UNL     1       2.856   3.580  12.640  1.00  0.00     0.000 A 
ENDBRANCH  58  71
ENDBRANCH  32  33
ENDBRANCH  25  27
ENDBRANCH  24  25
ENDBRANCH  23  24
ENDBRANCH   1  23
TORSDOF 13
