REMARK SMILES COc1cccc(N2/C(=[NH+]/C(=O)CCC(=O)OCCOC(=O)c3ccc(-c4c5nc(c(-c6ccccc6)c6ccc([nH]6)c(-c6ccccc6)c6nc(c(-c7ccccc7)c7ccc4[nH]7)C=C6)C=C5)cc3)S[C@@H]3CS(=O)(=O)C[C@H]32)c1
REMARK SMILES IDX 18 1 17 2 15 3 16 4 14 5 13 6 11 7 8 8 9 9 78 10 10 11 71 12
REMARK SMILES IDX 72 13 77 14 73 16 74 17 12 18 75 19 76 20 7 21 3 22 4 23
REMARK SMILES IDX 79 24 5 25 6 26 2 27 1 28 19 29 20 30 21 31 22 32 23 33
REMARK SMILES IDX 24 34 70 35 25 36 69 37 26 38 27 39 28 40 63 41 29 42 68 43
REMARK SMILES IDX 62 44 64 45 30 46 67 47 61 48 60 49 31 51 53 52 38 53 52 54
REMARK SMILES IDX 39 55 42 56 51 57 65 58 40 59 41 60 50 62 66 63 43 64 32 65
REMARK SMILES IDX 33 66 37 67 34 68 36 69 35 70 54 71 55 72 59 73 56 74 58 75
REMARK SMILES IDX 57 76 44 77 45 78 49 79 46 80 48 81 47 82
REMARK H PARENT 10 15 64 50 42 61
REMARK Flexibility Score: inf
ROOT
ATOM      1  C   UNL     1       3.302  -1.595   0.177  1.00  0.00     0.274 C 
ENDROOT
BRANCH   1   2
ATOM      2  O   UNL     1       4.630  -2.106   0.042  1.00  0.00    -0.462 OA
BRANCH   2   3
ATOM      3  C   UNL     1       5.368  -2.280   1.153  1.00  0.00     0.306 C 
ATOM      4  O   UNL     1       5.105  -1.837   2.261  1.00  0.00    -0.252 OA
BRANCH   3   5
ATOM      5  C   UNL     1       6.585  -3.102   0.825  1.00  0.00     0.135 C 
BRANCH   5   6
ATOM      6  C   UNL     1       6.224  -4.438   0.190  1.00  0.00     0.139 C 
BRANCH   6   7
ATOM      7  C   UNL     1       6.084  -4.463  -1.329  1.00  0.00     0.308 C 
ATOM      8  N   UNL     1       3.981  -2.680  -3.767  1.00  0.00    -0.216 N 
ATOM      9  C   UNL     1       5.016  -3.244  -2.997  1.00  0.00     0.319 C 
ATOM     10  C   UNL     1       4.429  -2.083  -5.029  1.00  0.00     0.212 C 
ATOM     11  N   UNL     1       4.956  -3.872  -1.869  1.00  0.00    -0.204 N 
ATOM     12  S   UNL     1       6.562  -2.952  -3.890  1.00  0.00    -0.029 SA
ATOM     13  C   UNL     1       5.634  -2.942  -5.425  1.00  0.00     0.120 C 
ATOM     14  C   UNL     1       3.539  -2.144  -6.252  1.00  0.00     0.188 C 
ATOM     15  H   UNL     1       4.099  -3.929  -1.388  1.00  0.00     0.316 HD
ATOM     16  C   UNL     1       6.211  -2.351  -6.680  1.00  0.00     0.156 C 
ATOM     17  S   UNL     1       4.725  -1.905  -7.587  1.00  0.00     0.155 S 
ATOM     18  O   UNL     1       6.894  -5.126  -1.977  1.00  0.00    -0.247 OA
ATOM     19  O   UNL     1       4.480  -2.906  -8.602  1.00  0.00    -0.229 OA
ATOM     20  O   UNL     1       4.794  -0.491  -7.888  1.00  0.00    -0.229 OA
BRANCH   8  21
ATOM     21  C   UNL     1       2.625  -2.568  -3.434  1.00  0.00     0.132 A 
ATOM     22  C   UNL     1       0.714  -1.253  -2.647  1.00  0.00     0.123 A 
ATOM     23  C   UNL     1      -0.132  -2.333  -2.886  1.00  0.00     0.047 A 
ATOM     24  C   UNL     1       2.074  -1.354  -2.976  1.00  0.00     0.098 A 
ATOM     25  C   UNL     1       0.382  -3.519  -3.408  1.00  0.00     0.008 A 
ATOM     26  C   UNL     1       1.752  -3.640  -3.661  1.00  0.00     0.052 A 
BRANCH  22  27
ATOM     27  O   UNL     1       0.119  -0.111  -2.182  1.00  0.00    -0.497 OA
ATOM     28  C   UNL     1       0.730   0.497  -1.045  1.00  0.00     0.278 C 
ENDBRANCH  22  27
ENDBRANCH   8  21
ENDBRANCH   6   7
ENDBRANCH   5   6
ENDBRANCH   3   5
ENDBRANCH   2   3
ENDBRANCH   1   2
BRANCH   1  29
ATOM     29  C   UNL     1       2.289  -2.735   0.088  1.00  0.00     0.275 C 
BRANCH  29  30
ATOM     30  O   UNL     1       2.162  -3.312   1.387  1.00  0.00    -0.458 OA
BRANCH  30  31
ATOM     31  C   UNL     1       2.630  -4.568   1.528  1.00  0.00     0.338 C 
ATOM     32  O   UNL     1       3.015  -5.354   0.693  1.00  0.00    -0.246 OA
BRANCH  31  33
ATOM     33  C   UNL     1       2.710  -4.767   2.969  1.00  0.00     0.060 A 
ATOM     34  C   UNL     1       3.943  -4.593   3.600  1.00  0.00     0.016 A 
ATOM     35  C   UNL     1       1.546  -5.059   3.676  1.00  0.00     0.016 A 
ATOM     36  C   UNL     1       4.022  -4.739   4.973  1.00  0.00     0.010 A 
ATOM     37  C   UNL     1       1.624  -5.191   5.053  1.00  0.00     0.010 A 
ATOM     38  C   UNL     1       2.867  -5.055   5.696  1.00  0.00    -0.014 A 
BRANCH  38  39
ATOM     39  C   UNL     1       2.978  -5.361   7.129  1.00  0.00     0.031 A 
ATOM     40  C   UNL     1       2.877  -6.789   7.562  1.00  0.00     0.074 A 
ATOM     41  C   UNL     1       3.180  -4.362   8.003  1.00  0.00     0.049 A 
ATOM     42  N   UNL     1       2.882  -7.289   8.767  1.00  0.00    -0.248 NA
ATOM     43  C   UNL     1       2.740  -7.791   6.490  1.00  0.00     0.031 C 
ATOM     44  C   UNL     1       3.326  -2.948   7.652  1.00  0.00     0.029 A 
ATOM     45  N   UNL     1       3.293  -4.388   9.365  1.00  0.00    -0.354 N 
ATOM     46  C   UNL     1       2.732  -8.659   8.601  1.00  0.00     0.074 A 
ATOM     47  C   UNL     1       2.598  -8.909   7.184  1.00  0.00     0.031 C 
ATOM     48  C   UNL     1       3.512  -2.239   8.777  1.00  0.00     0.029 A 
ATOM     49  C   UNL     1       3.447  -3.143   9.920  1.00  0.00     0.049 A 
ATOM     50  H   UNL     1       3.267  -5.218   9.895  1.00  0.00     0.167 HD
ATOM     51  C   UNL     1       2.713  -9.618   9.553  1.00  0.00     0.031 A 
ATOM     52  C   UNL     1       3.499  -2.781  11.214  1.00  0.00     0.031 A 
ATOM     53  C   UNL     1       2.826  -9.335  10.959  1.00  0.00     0.049 A 
ATOM     54  C   UNL     1       3.411  -3.859  12.257  1.00  0.00     0.074 A 
ATOM     55  C   UNL     1       2.822 -10.216  12.023  1.00  0.00     0.029 A 
ATOM     56  N   UNL     1       2.956  -8.058  11.492  1.00  0.00    -0.354 N 
ATOM     57  N   UNL     1       3.283  -5.156  12.096  1.00  0.00    -0.248 NA
ATOM     58  C   UNL     1       3.482  -3.427  13.657  1.00  0.00     0.031 C 
ATOM     59  C   UNL     1       2.886  -9.467  13.203  1.00  0.00     0.029 A 
ATOM     60  C   UNL     1       3.004  -8.125  12.873  1.00  0.00     0.049 A 
ATOM     61  H   UNL     1       3.006  -7.228  10.965  1.00  0.00     0.167 HD
ATOM     62  C   UNL     1       3.279  -5.699  13.373  1.00  0.00     0.074 A 
ATOM     63  C   UNL     1       3.442  -4.589  14.293  1.00  0.00     0.031 C 
ATOM     64  C   UNL     1       3.152  -6.995  13.756  1.00  0.00     0.031 A 
BRANCH  51  65
ATOM     65  C   UNL     1       2.513 -11.037   9.096  1.00  0.00    -0.014 A 
ATOM     66  C   UNL     1       3.487 -11.712   8.341  1.00  0.00     0.009 A 
ATOM     67  C   UNL     1       1.320 -11.706   9.411  1.00  0.00     0.009 A 
ATOM     68  C   UNL     1       3.251 -13.007   7.873  1.00  0.00     0.001 A 
ATOM     69  C   UNL     1       1.101 -13.013   8.971  1.00  0.00     0.001 A 
ATOM     70  C   UNL     1       2.060 -13.658   8.192  1.00  0.00     0.000 A 
ENDBRANCH  51  65
BRANCH  52  71
ATOM     71  C   UNL     1       3.613  -1.345  11.576  1.00  0.00    -0.014 A 
ATOM     72  C   UNL     1       4.779  -0.840  12.169  1.00  0.00     0.009 A 
ATOM     73  C   UNL     1       2.554  -0.462  11.306  1.00  0.00     0.009 A 
ATOM     74  C   UNL     1       4.874   0.514  12.502  1.00  0.00     0.001 A 
ATOM     75  C   UNL     1       2.664   0.896  11.609  1.00  0.00     0.001 A 
ATOM     76  C   UNL     1       3.820   1.381  12.216  1.00  0.00     0.000 A 
ENDBRANCH  52  71
BRANCH  64  77
ATOM     77  C   UNL     1       3.213  -7.270  15.233  1.00  0.00    -0.014 A 
ATOM     78  C   UNL     1       2.173  -6.884  16.092  1.00  0.00     0.009 A 
ATOM     79  C   UNL     1       4.320  -7.951  15.763  1.00  0.00     0.009 A 
ATOM     80  C   UNL     1       2.262  -7.137  17.462  1.00  0.00     0.001 A 
ATOM     81  C   UNL     1       4.388  -8.235  17.127  1.00  0.00     0.001 A 
ATOM     82  C   UNL     1       3.366  -7.816  17.977  1.00  0.00     0.000 A 
ENDBRANCH  64  77
ENDBRANCH  38  39
ENDBRANCH  31  33
ENDBRANCH  30  31
ENDBRANCH  29  30
ENDBRANCH   1  29
TORSDOF 15
