REMARK SMILES O=C(OCCOC(=O)[C@@H]1[C@H](C(=O)Nc2ccc(Cn3cncn3)cc2)[C@@H]2C=C[C@H]1CC2)c1ccc(-c2c3nc(c(-c4ccccc4)c4ccc([nH]4)c(-c4ccccc4)c4nc(c(-c5ccccc5)c5ccc2[nH]5)C=C4)C=C3)cc1
REMARK SMILES IDX 5 1 4 2 3 3 2 4 1 5 32 6 33 7 79 8 34 9 78 10 35 11 36 12
REMARK SMILES IDX 37 13 72 14 38 15 77 16 71 17 73 18 39 19 76 20 70 21 69 22
REMARK SMILES IDX 40 24 62 25 47 26 61 27 48 28 51 29 60 30 74 31 49 32 50 33
REMARK SMILES IDX 59 35 75 36 52 37 41 38 42 39 46 40 43 41 45 42 44 43 63 44
REMARK SMILES IDX 64 45 68 46 65 47 67 48 66 49 53 50 54 51 58 52 55 53 57 54
REMARK SMILES IDX 56 55 6 56 7 57 8 58 9 59 10 60 29 61 26 62 28 63 30 64
REMARK SMILES IDX 27 65 31 66 11 67 12 68 13 69 14 71 15 72 25 73 16 74 24 75
REMARK SMILES IDX 17 76 18 77 19 78 20 79 23 80 21 81 22 82
REMARK H PARENT 73 23 51 34 13 70
REMARK Flexibility Score: inf
ROOT
ATOM      1  C   UNL     1       5.117  -1.427  -2.020  1.00  0.00     0.274 C 
ENDROOT
BRANCH   1   2
ATOM      2  C   UNL     1       5.561  -1.278  -0.548  1.00  0.00     0.275 C 
BRANCH   2   3
ATOM      3  O   UNL     1       4.498  -1.102   0.393  1.00  0.00    -0.458 OA
BRANCH   3   4
ATOM      4  C   UNL     1       3.337  -0.687  -0.125  1.00  0.00     0.338 C 
ATOM      5  O   UNL     1       2.352  -1.393  -0.269  1.00  0.00    -0.246 OA
BRANCH   4   6
ATOM      6  C   UNL     1       3.284   0.778  -0.369  1.00  0.00     0.060 A 
ATOM      7  C   UNL     1       4.637   1.961  -0.617  1.00  0.00     0.016 A 
ATOM      8  C   UNL     1       1.627   1.418  -0.059  1.00  0.00     0.016 A 
ATOM      9  C   UNL     1       4.306   3.749  -0.507  1.00  0.00     0.010 A 
ATOM     10  C   UNL     1       1.369   3.159   0.213  1.00  0.00     0.010 A 
ATOM     11  C   UNL     1       2.668   4.332  -0.022  1.00  0.00    -0.014 A 
BRANCH  11  12
ATOM     12  C   UNL     1       2.322   5.757   0.295  1.00  0.00     0.031 A 
ATOM     13  C   UNL     1       2.634   6.646  -0.833  1.00  0.00     0.074 A 
ATOM     14  C   UNL     1       1.576   6.274   1.314  1.00  0.00     0.049 A 
ATOM     15  N   UNL     1       3.806   7.088  -1.158  1.00  0.00    -0.248 NA
ATOM     16  C   UNL     1       1.601   6.823  -1.874  1.00  0.00     0.031 C 
ATOM     17  C   UNL     1       0.989   5.586   2.450  1.00  0.00     0.029 A 
ATOM     18  N   UNL     1       1.132   7.557   1.548  1.00  0.00    -0.354 N 
ATOM     19  C   UNL     1       3.557   7.821  -2.302  1.00  0.00     0.074 A 
ATOM     20  C   UNL     1       2.383   7.226  -2.880  1.00  0.00     0.031 C 
ATOM     21  C   UNL     1       0.076   6.349   3.096  1.00  0.00     0.029 A 
ATOM     22  C   UNL     1       0.135   7.682   2.535  1.00  0.00     0.049 A 
ATOM     23  H   UNL     1       1.487   8.334   1.058  1.00  0.00     0.167 HD
ATOM     24  C   UNL     1       3.924   9.130  -2.405  1.00  0.00     0.031 A 
ATOM     25  C   UNL     1      -0.538   8.798   2.938  1.00  0.00     0.031 A 
ATOM     26  C   UNL     1       4.697   9.553  -1.257  1.00  0.00     0.049 A 
ATOM     27  C   UNL     1       0.296   9.946   2.550  1.00  0.00     0.074 A 
ATOM     28  C   UNL     1       5.846   9.132  -0.621  1.00  0.00     0.029 A 
ATOM     29  N   UNL     1       4.016  10.332  -0.351  1.00  0.00    -0.354 N 
ATOM     30  N   UNL     1       1.430  10.225   3.119  1.00  0.00    -0.248 NA
ATOM     31  C   UNL     1       0.079  10.536   1.243  1.00  0.00     0.031 C 
ATOM     32  C   UNL     1       5.628   9.372   0.768  1.00  0.00     0.029 A 
ATOM     33  C   UNL     1       4.401  10.017   0.924  1.00  0.00     0.049 A 
ATOM     34  H   UNL     1       3.349  11.018  -0.585  1.00  0.00     0.167 HD
ATOM     35  C   UNL     1       2.252  10.567   2.060  1.00  0.00     0.074 A 
ATOM     36  C   UNL     1       1.337  10.881   0.961  1.00  0.00     0.031 C 
ATOM     37  C   UNL     1       3.576  10.239   2.093  1.00  0.00     0.031 A 
BRANCH  24  38
ATOM     38  C   UNL     1       3.185  10.136  -3.262  1.00  0.00    -0.014 A 
ATOM     39  C   UNL     1       3.791  11.378  -3.498  1.00  0.00     0.009 A 
ATOM     40  C   UNL     1       1.844  10.005  -3.678  1.00  0.00     0.009 A 
ATOM     41  C   UNL     1       3.085  12.427  -4.101  1.00  0.00     0.001 A 
ATOM     42  C   UNL     1       1.151  11.030  -4.322  1.00  0.00     0.001 A 
ATOM     43  C   UNL     1       1.769  12.250  -4.518  1.00  0.00     0.000 A 
ENDBRANCH  24  38
BRANCH  25  44
ATOM     44  C   UNL     1      -1.900   9.040   3.494  1.00  0.00    -0.014 A 
ATOM     45  C   UNL     1      -2.232  10.287   4.070  1.00  0.00     0.009 A 
ATOM     46  C   UNL     1      -2.967   8.196   3.144  1.00  0.00     0.009 A 
ATOM     47  C   UNL     1      -3.566  10.701   4.215  1.00  0.00     0.001 A 
ATOM     48  C   UNL     1      -4.302   8.610   3.292  1.00  0.00     0.001 A 
ATOM     49  C   UNL     1      -4.602   9.870   3.804  1.00  0.00     0.000 A 
ENDBRANCH  25  44
BRANCH  37  50
ATOM     50  C   UNL     1       4.183   9.887   3.435  1.00  0.00    -0.014 A 
ATOM     51  C   UNL     1       3.785   8.794   4.227  1.00  0.00     0.009 A 
ATOM     52  C   UNL     1       5.290  10.639   3.855  1.00  0.00     0.009 A 
ATOM     53  C   UNL     1       4.466   8.483   5.412  1.00  0.00     0.001 A 
ATOM     54  C   UNL     1       5.983  10.315   5.023  1.00  0.00     0.001 A 
ATOM     55  C   UNL     1       5.568   9.240   5.805  1.00  0.00     0.000 A 
ENDBRANCH  37  50
ENDBRANCH  11  12
ENDBRANCH   4   6
ENDBRANCH   3   4
ENDBRANCH   2   3
ENDBRANCH   1   2
BRANCH   1  56
ATOM     56  O   UNL     1       4.524  -0.175  -2.477  1.00  0.00    -0.462 OA
BRANCH  56  57
ATOM     57  C   UNL     1       3.194  -0.197  -2.821  1.00  0.00     0.310 C 
ATOM     58  O   UNL     1       2.643  -1.188  -3.279  1.00  0.00    -0.252 OA
BRANCH  57  59
ATOM     59  C   UNL     1       2.499   1.196  -2.622  1.00  0.00     0.119 C 
ATOM     60  C   UNL     1       2.728   2.533  -1.366  1.00  0.00     0.100 C 
ATOM     61  C   UNL     1       1.007   1.179  -3.197  1.00  0.00     0.026 C 
ATOM     62  C   UNL     1       1.563   3.546  -2.314  1.00  0.00     0.025 C 
ATOM     63  C   UNL     1      -0.092   1.849  -2.377  1.00  0.00    -0.027 C 
ATOM     64  C   UNL     1       1.063   2.118  -4.418  1.00  0.00     0.009 C 
ATOM     65  C   UNL     1       0.132   3.135  -2.075  1.00  0.00    -0.027 C 
ATOM     66  C   UNL     1       1.674   3.451  -3.900  1.00  0.00     0.009 C 
BRANCH  60  67
ATOM     67  C   UNL     1       3.233   2.466   0.783  1.00  0.00     0.228 C 
ATOM     68  O   UNL     1       3.862   3.279   1.555  1.00  0.00    -0.274 OA
ATOM     69  N   UNL     1       3.152   1.396   1.836  1.00  0.00    -0.326 N 
ATOM     70  H   UNL     1       3.945   0.837   2.002  1.00  0.00     0.169 HD
BRANCH  69  71
ATOM     71  C   UNL     1       1.969   1.157   2.607  1.00  0.00     0.041 A 
ATOM     72  C   UNL     1       1.389   2.243   3.237  1.00  0.00     0.026 A 
ATOM     73  C   UNL     1       1.215   0.023   2.336  1.00  0.00     0.026 A 
ATOM     74  C   UNL     1       0.009   2.388   3.176  1.00  0.00     0.008 A 
ATOM     75  C   UNL     1      -0.163   0.164   2.253  1.00  0.00     0.008 A 
ATOM     76  C   UNL     1      -0.764   1.388   2.581  1.00  0.00    -0.026 A 
BRANCH  76  77
ATOM     77  C   UNL     1      -2.259   1.524   2.489  1.00  0.00     0.181 C 
BRANCH  77  78
ATOM     78  N   UNL     1      -2.804   0.712   3.556  1.00  0.00    -0.249 N 
ATOM     79  C   UNL     1      -2.382   0.752   4.859  1.00  0.00     0.220 A 
ATOM     80  N   UNL     1      -3.382  -0.473   3.277  1.00  0.00    -0.160 NA
ATOM     81  N   UNL     1      -2.624  -0.401   5.433  1.00  0.00    -0.224 NA
ATOM     82  C   UNL     1      -3.207  -1.122   4.431  1.00  0.00     0.246 A 
ENDBRANCH  77  78
ENDBRANCH  76  77
ENDBRANCH  69  71
ENDBRANCH  60  67
ENDBRANCH  57  59
ENDBRANCH  56  57
ENDBRANCH   1  56
TORSDOF 15
