REMARK SMILES C[N@@H+](CC(C)(C)C(=O)OCCOC(=O)c1ccc(-c2c3nc(c(-c4ccccc4)c4ccc([nH]4)c(-c4ccccc4)c4nc(c(-c5ccccc5)c5ccc2[nH]5)C=C4)C=C3)cc1)[C@@H]1CCCC[C@@H]1C[NH3+]
REMARK SMILES IDX 9 1 7 2 8 3 4 4 5 5 6 6 3 7 2 8 1 9 63 11 64 12 68 13 65 14
REMARK SMILES IDX 67 15 66 16 69 17 70 18 10 22 11 23 12 24 13 25 14 26 15 27
REMARK SMILES IDX 16 28 62 29 17 30 61 31 18 32 19 33 20 34 55 35 21 36 60 37
REMARK SMILES IDX 54 38 56 39 22 40 59 41 53 42 52 43 23 45 45 46 30 47 44 48
REMARK SMILES IDX 31 49 34 50 43 51 57 52 32 53 33 54 42 56 58 57 35 58 24 59
REMARK SMILES IDX 25 60 29 61 26 62 28 63 27 64 46 65 47 66 51 67 48 68 50 69
REMARK SMILES IDX 49 70 36 71 37 72 41 73 38 74 40 75 39 76
REMARK H PARENT 2 10 70 19 70 20 70 21 56 44 34 55
REMARK Flexibility Score: inf
ROOT
ATOM      1  O   UNL     1      -1.765  -2.071  -2.161  1.00  0.00    -0.461 OA
ENDROOT
BRANCH   1   2
ATOM      2  C   UNL     1      -0.879  -1.886  -1.139  1.00  0.00     0.317 C 
ATOM      3  O   UNL     1       0.322  -1.847  -1.307  1.00  0.00    -0.251 OA
BRANCH   2   4
ATOM      4  C   UNL     1      -1.581  -1.836   0.225  1.00  0.00     0.111 C 
ATOM      5  C   UNL     1      -1.653  -3.259   0.804  1.00  0.00     0.029 C 
ATOM      6  C   UNL     1      -3.062  -1.385   0.032  1.00  0.00     0.029 C 
BRANCH   4   7
ATOM      7  C   UNL     1      -0.939  -0.783   1.197  1.00  0.00     0.280 C 
BRANCH   7   8
ATOM      8  N   UNL     1       0.451  -0.575   1.636  1.00  0.00    -0.334 N 
ATOM      9  C   UNL     1       1.419  -0.165   0.619  1.00  0.00     0.333 C 
ATOM     10  H   UNL     1       0.220   0.248   2.193  1.00  0.00     0.348 HD
BRANCH   8  11
ATOM     11  C   UNL     1       1.060  -1.475   2.627  1.00  0.00     0.192 C 
ATOM     12  C   UNL     1       1.548  -2.803   1.997  1.00  0.00     0.065 C 
ATOM     13  C   UNL     1       0.513  -1.452   4.100  1.00  0.00     0.102 C 
ATOM     14  C   UNL     1       1.637  -4.022   2.894  1.00  0.00     0.006 C 
ATOM     15  C   UNL     1       0.875  -2.724   4.877  1.00  0.00     0.015 C 
ATOM     16  C   UNL     1       0.677  -3.992   4.066  1.00  0.00     0.001 C 
BRANCH  13  17
ATOM     17  C   UNL     1      -0.922  -0.967   4.428  1.00  0.00     0.268 C 
BRANCH  17  18
ATOM     18  N   UNL     1      -2.027  -1.886   4.169  1.00  0.00    -0.357 N 
ATOM     19  H   UNL     1      -2.093  -2.065   3.167  1.00  0.00     0.344 HD
ATOM     20  H   UNL     1      -2.899  -1.470   4.497  1.00  0.00     0.344 HD
ATOM     21  H   UNL     1      -1.863  -2.764   4.662  1.00  0.00     0.344 HD
ENDBRANCH  17  18
ENDBRANCH  13  17
ENDBRANCH   8  11
ENDBRANCH   7   8
ENDBRANCH   4   7
ENDBRANCH   2   4
ENDBRANCH   1   2
BRANCH   1  22
ATOM     22  C   UNL     1      -1.196  -2.103  -3.481  1.00  0.00     0.274 C 
BRANCH  22  23
ATOM     23  C   UNL     1      -1.459  -0.784  -4.207  1.00  0.00     0.275 C 
BRANCH  23  24
ATOM     24  O   UNL     1      -0.816   0.340  -3.564  1.00  0.00    -0.458 OA
BRANCH  24  25
ATOM     25  C   UNL     1      -1.655   1.260  -3.032  1.00  0.00     0.338 C 
ATOM     26  O   UNL     1      -2.876   1.204  -2.982  1.00  0.00    -0.246 OA
BRANCH  25  27
ATOM     27  C   UNL     1      -0.915   2.348  -2.366  1.00  0.00     0.060 A 
ATOM     28  C   UNL     1      -0.699   2.195  -1.005  1.00  0.00     0.016 A 
ATOM     29  C   UNL     1      -0.641   3.573  -2.960  1.00  0.00     0.016 A 
ATOM     30  C   UNL     1      -0.222   3.230  -0.205  1.00  0.00     0.010 A 
ATOM     31  C   UNL     1      -0.153   4.631  -2.166  1.00  0.00     0.010 A 
ATOM     32  C   UNL     1       0.034   4.476  -0.775  1.00  0.00    -0.014 A 
BRANCH  32  33
ATOM     33  C   UNL     1       0.310   5.635   0.121  1.00  0.00     0.031 A 
ATOM     34  C   UNL     1      -0.761   6.679   0.308  1.00  0.00     0.074 A 
ATOM     35  C   UNL     1       1.435   5.713   0.859  1.00  0.00     0.049 A 
ATOM     36  N   UNL     1      -0.708   7.828   0.934  1.00  0.00    -0.248 NA
ATOM     37  C   UNL     1      -2.075   6.375  -0.281  1.00  0.00     0.031 C 
ATOM     38  C   UNL     1       2.489   4.699   0.912  1.00  0.00     0.029 A 
ATOM     39  N   UNL     1       1.870   6.687   1.726  1.00  0.00    -0.354 N 
ATOM     40  C   UNL     1      -1.964   8.402   0.776  1.00  0.00     0.074 A 
ATOM     41  C   UNL     1      -2.757   7.477  -0.005  1.00  0.00     0.031 C 
ATOM     42  C   UNL     1       3.440   5.099   1.774  1.00  0.00     0.029 A 
ATOM     43  C   UNL     1       3.103   6.428   2.276  1.00  0.00     0.049 A 
ATOM     44  H   UNL     1       1.347   7.495   1.934  1.00  0.00     0.167 HD
ATOM     45  C   UNL     1      -2.416   9.596   1.231  1.00  0.00     0.031 A 
ATOM     46  C   UNL     1       3.890   7.192   3.061  1.00  0.00     0.031 A 
ATOM     47  C   UNL     1      -1.631  10.509   2.018  1.00  0.00     0.049 A 
ATOM     48  C   UNL     1       3.418   8.570   3.449  1.00  0.00     0.074 A 
ATOM     49  C   UNL     1      -1.972  11.770   2.479  1.00  0.00     0.029 A 
ATOM     50  N   UNL     1      -0.348  10.251   2.473  1.00  0.00    -0.354 N 
ATOM     51  N   UNL     1       2.269   9.152   3.206  1.00  0.00    -0.248 NA
ATOM     52  C   UNL     1       4.362   9.400   4.212  1.00  0.00     0.031 C 
ATOM     53  C   UNL     1      -0.872  12.294   3.168  1.00  0.00     0.029 A 
ATOM     54  C   UNL     1       0.127  11.334   3.192  1.00  0.00     0.049 A 
ATOM     55  H   UNL     1       0.153   9.419   2.309  1.00  0.00     0.167 HD
ATOM     56  C   UNL     1       2.342  10.404   3.805  1.00  0.00     0.074 A 
ATOM     57  C   UNL     1       3.639  10.487   4.444  1.00  0.00     0.031 C 
ATOM     58  C   UNL     1       1.421  11.399   3.823  1.00  0.00     0.031 A 
BRANCH  45  59
ATOM     59  C   UNL     1      -3.800  10.009   0.808  1.00  0.00    -0.014 A 
ATOM     60  C   UNL     1      -4.950   9.393   1.325  1.00  0.00     0.009 A 
ATOM     61  C   UNL     1      -3.948  11.030  -0.145  1.00  0.00     0.009 A 
ATOM     62  C   UNL     1      -6.217   9.760   0.861  1.00  0.00     0.001 A 
ATOM     63  C   UNL     1      -5.215  11.416  -0.584  1.00  0.00     0.001 A 
ATOM     64  C   UNL     1      -6.348  10.771  -0.091  1.00  0.00     0.000 A 
ENDBRANCH  45  59
BRANCH  46  65
ATOM     65  C   UNL     1       5.242   6.717   3.474  1.00  0.00    -0.014 A 
ATOM     66  C   UNL     1       5.553   6.505   4.827  1.00  0.00     0.009 A 
ATOM     67  C   UNL     1       6.250   6.529   2.515  1.00  0.00     0.009 A 
ATOM     68  C   UNL     1       6.849   6.145   5.209  1.00  0.00     0.001 A 
ATOM     69  C   UNL     1       7.535   6.134   2.896  1.00  0.00     0.001 A 
ATOM     70  C   UNL     1       7.837   5.955   4.244  1.00  0.00     0.000 A 
ENDBRANCH  46  65
BRANCH  58  71
ATOM     71  C   UNL     1       1.768  12.641   4.598  1.00  0.00    -0.014 A 
ATOM     72  C   UNL     1       2.749  13.538   4.146  1.00  0.00     0.009 A 
ATOM     73  C   UNL     1       1.086  12.926   5.791  1.00  0.00     0.009 A 
ATOM     74  C   UNL     1       3.070  14.671   4.897  1.00  0.00     0.001 A 
ATOM     75  C   UNL     1       1.385  14.077   6.522  1.00  0.00     0.001 A 
ATOM     76  C   UNL     1       2.385  14.941   6.081  1.00  0.00     0.000 A 
ENDBRANCH  58  71
ENDBRANCH  32  33
ENDBRANCH  25  27
ENDBRANCH  24  25
ENDBRANCH  23  24
ENDBRANCH  22  23
ENDBRANCH   1  22
TORSDOF 16
