REMARK SMILES CCOc1ccc(-c2nc(C(=O)OCCOC(=O)c3ccc(-c4c5nc(c(-c6ccccc6)c6ccc([nH]6)c(-c6ccccc6)c6nc(c(-c7ccccc7)c7ccc4[nH]7)C=C6)C=C5)cc3)cc(=O)[nH]2)cc1
REMARK SMILES IDX 14 1 13 2 11 3 12 4 10 5 8 6 9 7 70 8 68 9 67 11 69 12 7 13
REMARK SMILES IDX 4 14 5 15 72 16 6 17 71 18 3 19 2 20 1 21 15 22 16 23 17 24
REMARK SMILES IDX 18 25 19 26 20 27 66 28 21 29 65 30 22 31 23 32 24 33 59 34
REMARK SMILES IDX 25 35 64 36 58 37 60 38 26 39 63 40 57 41 56 42 27 44 49 45
REMARK SMILES IDX 34 46 48 47 35 48 38 49 47 50 61 51 36 52 37 53 46 55 62 56
REMARK SMILES IDX 39 57 28 58 29 59 33 60 30 61 32 62 31 63 50 64 51 65 55 66
REMARK SMILES IDX 52 67 54 68 53 69 40 70 41 71 45 72 42 73 44 74 43 75
REMARK H PARENT 70 10 60 43 38 54
REMARK Flexibility Score: inf
ROOT
ATOM      1  C   UNL     1      10.921  -4.315   3.151  1.00  0.00     0.275 C 
ENDROOT
BRANCH   1   2
ATOM      2  O   UNL     1      10.361  -4.170   1.831  1.00  0.00    -0.457 OA
BRANCH   2   3
ATOM      3  C   UNL     1       9.126  -4.712   1.655  1.00  0.00     0.357 C 
ATOM      4  O   UNL     1       8.509  -5.358   2.491  1.00  0.00    -0.244 OA
BRANCH   3   5
ATOM      5  C   UNL     1       8.541  -4.310   0.331  1.00  0.00     0.156 A 
ATOM      6  C   UNL     1       6.675  -3.652  -0.812  1.00  0.00     0.141 A 
ATOM      7  N   UNL     1       7.194  -4.024   0.308  1.00  0.00    -0.223 NA
ATOM      8  N   UNL     1       7.386  -3.577  -1.976  1.00  0.00    -0.306 N 
ATOM      9  C   UNL     1       8.718  -3.864  -2.021  1.00  0.00     0.251 A 
ATOM     10  H   UNL     1       6.924  -3.308  -2.803  1.00  0.00     0.171 HD
ATOM     11  C   UNL     1       9.336  -4.252  -0.744  1.00  0.00     0.107 A 
ATOM     12  O   UNL     1       9.376  -3.802  -3.053  1.00  0.00    -0.269 OA
BRANCH   6  13
ATOM     13  C   UNL     1       5.264  -3.240  -0.863  1.00  0.00     0.018 A 
ATOM     14  C   UNL     1       2.582  -2.526  -0.672  1.00  0.00     0.119 A 
ATOM     15  C   UNL     1       2.947  -3.711  -1.318  1.00  0.00     0.047 A 
ATOM     16  C   UNL     1       3.558  -1.701  -0.115  1.00  0.00     0.047 A 
ATOM     17  C   UNL     1       4.294  -4.071  -1.425  1.00  0.00     0.016 A 
ATOM     18  C   UNL     1       4.903  -2.054  -0.215  1.00  0.00     0.016 A 
BRANCH  14  19
ATOM     19  O   UNL     1       1.248  -2.292  -0.495  1.00  0.00    -0.494 OA
BRANCH  19  20
ATOM     20  C   UNL     1       0.786  -1.060  -1.061  1.00  0.00     0.226 C 
ATOM     21  C   UNL     1       0.560  -0.006   0.011  1.00  0.00     0.049 C 
ENDBRANCH  19  20
ENDBRANCH  14  19
ENDBRANCH   6  13
ENDBRANCH   3   5
ENDBRANCH   2   3
ENDBRANCH   1   2
BRANCH   1  22
ATOM     22  C   UNL     1      10.760  -3.024   3.957  1.00  0.00     0.275 C 
BRANCH  22  23
ATOM     23  O   UNL     1       9.372  -2.776   4.249  1.00  0.00    -0.458 OA
BRANCH  23  24
ATOM     24  C   UNL     1       8.811  -1.738   3.590  1.00  0.00     0.338 C 
ATOM     25  O   UNL     1       9.345  -0.970   2.808  1.00  0.00    -0.246 OA
BRANCH  24  26
ATOM     26  C   UNL     1       7.380  -1.665   3.917  1.00  0.00     0.060 A 
ATOM     27  C   UNL     1       6.493  -2.457   3.195  1.00  0.00     0.016 A 
ATOM     28  C   UNL     1       6.901  -0.722   4.825  1.00  0.00     0.016 A 
ATOM     29  C   UNL     1       5.122  -2.262   3.316  1.00  0.00     0.010 A 
ATOM     30  C   UNL     1       5.518  -0.571   4.994  1.00  0.00     0.010 A 
ATOM     31  C   UNL     1       4.614  -1.312   4.211  1.00  0.00    -0.014 A 
BRANCH  31  32
ATOM     32  C   UNL     1       3.147  -1.075   4.281  1.00  0.00     0.031 A 
ATOM     33  C   UNL     1       2.571   0.262   3.894  1.00  0.00     0.074 A 
ATOM     34  C   UNL     1       2.316  -2.070   4.648  1.00  0.00     0.049 A 
ATOM     35  N   UNL     1       1.332   0.682   3.970  1.00  0.00    -0.248 NA
ATOM     36  C   UNL     1       3.508   1.261   3.355  1.00  0.00     0.031 C 
ATOM     37  C   UNL     1       2.724  -3.432   4.997  1.00  0.00     0.029 A 
ATOM     38  N   UNL     1       0.948  -2.092   4.770  1.00  0.00    -0.354 N 
ATOM     39  C   UNL     1       1.352   2.006   3.549  1.00  0.00     0.074 A 
ATOM     40  C   UNL     1       2.722   2.319   3.205  1.00  0.00     0.031 C 
ATOM     41  C   UNL     1       1.631  -4.168   5.249  1.00  0.00     0.029 A 
ATOM     42  C   UNL     1       0.451  -3.316   5.149  1.00  0.00     0.049 A 
ATOM     43  H   UNL     1       0.379  -1.307   4.603  1.00  0.00     0.167 HD
ATOM     44  C   UNL     1       0.325   2.884   3.465  1.00  0.00     0.031 A 
ATOM     45  C   UNL     1      -0.809  -3.706   5.413  1.00  0.00     0.031 A 
ATOM     46  C   UNL     1      -1.047   2.570   3.762  1.00  0.00     0.049 A 
ATOM     47  C   UNL     1      -1.927  -2.708   5.328  1.00  0.00     0.074 A 
ATOM     48  C   UNL     1      -2.157   3.395   3.683  1.00  0.00     0.029 A 
ATOM     49  N   UNL     1      -1.499   1.331   4.186  1.00  0.00    -0.354 N 
ATOM     50  N   UNL     1      -1.884  -1.450   4.964  1.00  0.00    -0.248 NA
ATOM     51  C   UNL     1      -3.265  -3.182   5.712  1.00  0.00     0.031 C 
ATOM     52  C   UNL     1      -3.277   2.663   4.090  1.00  0.00     0.029 A 
ATOM     53  C   UNL     1      -2.868   1.374   4.388  1.00  0.00     0.049 A 
ATOM     54  H   UNL     1      -0.931   0.539   4.322  1.00  0.00     0.167 HD
ATOM     55  C   UNL     1      -3.187  -0.983   5.072  1.00  0.00     0.074 A 
ATOM     56  C   UNL     1      -4.000  -2.097   5.513  1.00  0.00     0.031 C 
ATOM     57  C   UNL     1      -3.663   0.262   4.834  1.00  0.00     0.031 A 
BRANCH  44  58
ATOM     58  C   UNL     1       0.653   4.296   3.075  1.00  0.00    -0.014 A 
ATOM     59  C   UNL     1       0.909   4.647   1.742  1.00  0.00     0.009 A 
ATOM     60  C   UNL     1       0.659   5.297   4.059  1.00  0.00     0.009 A 
ATOM     61  C   UNL     1       1.188   5.974   1.406  1.00  0.00     0.001 A 
ATOM     62  C   UNL     1       0.919   6.625   3.718  1.00  0.00     0.001 A 
ATOM     63  C   UNL     1       1.190   6.961   2.393  1.00  0.00     0.000 A 
ENDBRANCH  44  58
BRANCH  45  64
ATOM     64  C   UNL     1      -1.079  -5.106   5.828  1.00  0.00    -0.014 A 
ATOM     65  C   UNL     1      -1.731  -5.993   4.960  1.00  0.00     0.009 A 
ATOM     66  C   UNL     1      -0.688  -5.558   7.098  1.00  0.00     0.009 A 
ATOM     67  C   UNL     1      -2.000  -7.303   5.362  1.00  0.00     0.001 A 
ATOM     68  C   UNL     1      -0.935  -6.875   7.488  1.00  0.00     0.001 A 
ATOM     69  C   UNL     1      -1.598  -7.744   6.623  1.00  0.00     0.000 A 
ENDBRANCH  45  64
BRANCH  57  70
ATOM     70  C   UNL     1      -5.133   0.477   5.035  1.00  0.00    -0.014 A 
ATOM     71  C   UNL     1      -5.671   0.613   6.324  1.00  0.00     0.009 A 
ATOM     72  C   UNL     1      -5.985   0.570   3.924  1.00  0.00     0.009 A 
ATOM     73  C   UNL     1      -7.042   0.812   6.497  1.00  0.00     0.001 A 
ATOM     74  C   UNL     1      -7.352   0.788   4.100  1.00  0.00     0.001 A 
ATOM     75  C   UNL     1      -7.880   0.901   5.386  1.00  0.00     0.000 A 
ENDBRANCH  57  70
ENDBRANCH  31  32
ENDBRANCH  24  26
ENDBRANCH  23  24
ENDBRANCH  22  23
ENDBRANCH   1  22
TORSDOF 14
