REMARK SMILES O=C(OCCOC(=O)[C@@H](CCO)NC(=O)c1c(F)ccc([N+](=O)[O-])c1F)c1ccc(-c2c3nc(c(-c4ccccc4)c4ccc([nH]4)c(-c4ccccc4)c4nc(c(-c5ccccc5)c5ccc2[nH]5)C=C4)C=C3)cc1
REMARK SMILES IDX 5 1 4 2 3 3 2 4 1 5 27 6 28 7 74 8 29 9 73 10 30 11 31 12
REMARK SMILES IDX 32 13 67 14 33 15 72 16 66 17 68 18 34 19 71 20 65 21 64 22
REMARK SMILES IDX 35 24 57 25 42 26 56 27 43 28 46 29 55 30 69 31 44 32 45 33
REMARK SMILES IDX 54 35 70 36 47 37 36 38 37 39 41 40 38 41 40 42 39 43 58 44
REMARK SMILES IDX 59 45 63 46 60 47 62 48 61 49 48 50 49 51 53 52 50 53 52 54
REMARK SMILES IDX 51 55 6 56 7 57 8 58 9 59 10 60 11 61 12 62 13 64 14 65
REMARK SMILES IDX 15 67 16 68 17 69 25 70 18 71 19 72 21 73 26 74 20 75 22 76
REMARK SMILES IDX 23 77 24 78
REMARK H PARENT 68 23 46 34 12 63 13 66
REMARK Flexibility Score: inf
ROOT
ATOM      1  C   UNL     1       4.019  -1.376  -2.296  1.00  0.00     0.274 C 
ENDROOT
BRANCH   1   2
ATOM      2  C   UNL     1       4.358  -1.699  -0.825  1.00  0.00     0.275 C 
BRANCH   2   3
ATOM      3  O   UNL     1       3.200  -1.638   0.019  1.00  0.00    -0.458 OA
BRANCH   3   4
ATOM      4  C   UNL     1       2.782  -0.591   0.751  1.00  0.00     0.338 C 
ATOM      5  O   UNL     1       1.837  -0.713   1.527  1.00  0.00    -0.246 OA
BRANCH   4   6
ATOM      6  C   UNL     1       3.341   0.777   0.615  1.00  0.00     0.060 A 
ATOM      7  C   UNL     1       4.606   1.383  -0.544  1.00  0.00     0.016 A 
ATOM      8  C   UNL     1       2.617   1.960   1.781  1.00  0.00     0.016 A 
ATOM      9  C   UNL     1       5.028   3.139  -0.622  1.00  0.00     0.010 A 
ATOM     10  C   UNL     1       3.056   3.708   1.704  1.00  0.00     0.010 A 
ATOM     11  C   UNL     1       4.317   4.288   0.567  1.00  0.00    -0.014 A 
BRANCH  11  12
ATOM     12  C   UNL     1       4.967   5.623   0.673  1.00  0.00     0.031 A 
ATOM     13  C   UNL     1       5.688   6.019   1.937  1.00  0.00     0.074 A 
ATOM     14  C   UNL     1       5.106   6.356  -0.449  1.00  0.00     0.049 A 
ATOM     15  N   UNL     1       6.593   6.949   2.112  1.00  0.00    -0.248 NA
ATOM     16  C   UNL     1       5.413   5.242   3.153  1.00  0.00     0.031 C 
ATOM     17  C   UNL     1       4.490   6.039  -1.736  1.00  0.00     0.029 A 
ATOM     18  N   UNL     1       5.845   7.481  -0.715  1.00  0.00    -0.354 N 
ATOM     19  C   UNL     1       7.008   6.833   3.435  1.00  0.00     0.074 A 
ATOM     20  C   UNL     1       6.281   5.737   4.017  1.00  0.00     0.031 C 
ATOM     21  C   UNL     1       4.942   6.883  -2.673  1.00  0.00     0.029 A 
ATOM     22  C   UNL     1       5.810   7.863  -2.039  1.00  0.00     0.049 A 
ATOM     23  H   UNL     1       6.351   7.969  -0.026  1.00  0.00     0.167 HD
ATOM     24  C   UNL     1       7.873   7.604   4.133  1.00  0.00     0.031 A 
ATOM     25  C   UNL     1       6.392   8.904  -2.665  1.00  0.00     0.031 A 
ATOM     26  C   UNL     1       8.454   8.802   3.600  1.00  0.00     0.049 A 
ATOM     27  C   UNL     1       7.231   9.830  -1.834  1.00  0.00     0.074 A 
ATOM     28  C   UNL     1       9.228   9.749   4.241  1.00  0.00     0.029 A 
ATOM     29  N   UNL     1       8.271   9.239   2.295  1.00  0.00    -0.354 N 
ATOM     30  N   UNL     1       7.590   9.708  -0.577  1.00  0.00    -0.248 NA
ATOM     31  C   UNL     1       7.719  11.049  -2.489  1.00  0.00     0.031 C 
ATOM     32  C   UNL     1       9.444  10.801   3.344  1.00  0.00     0.029 A 
ATOM     33  C   UNL     1       8.879  10.466   2.121  1.00  0.00     0.049 A 
ATOM     34  H   UNL     1       7.780   8.747   1.598  1.00  0.00     0.167 HD
ATOM     35  C   UNL     1       8.337  10.839  -0.284  1.00  0.00     0.074 A 
ATOM     36  C   UNL     1       8.411  11.614  -1.509  1.00  0.00     0.031 C 
ATOM     37  C   UNL     1       8.903  11.214   0.890  1.00  0.00     0.031 A 
BRANCH  24  38
ATOM     38  C   UNL     1       8.091   7.242   5.579  1.00  0.00    -0.014 A 
ATOM     39  C   UNL     1       8.820   6.100   5.952  1.00  0.00     0.009 A 
ATOM     40  C   UNL     1       7.498   8.022   6.584  1.00  0.00     0.009 A 
ATOM     41  C   UNL     1       8.915   5.728   7.297  1.00  0.00     0.001 A 
ATOM     42  C   UNL     1       7.615   7.662   7.928  1.00  0.00     0.001 A 
ATOM     43  C   UNL     1       8.313   6.509   8.283  1.00  0.00     0.000 A 
ENDBRANCH  24  38
BRANCH  25  44
ATOM     44  C   UNL     1       6.132   9.153  -4.113  1.00  0.00    -0.014 A 
ATOM     45  C   UNL     1       7.162   9.115  -5.066  1.00  0.00     0.009 A 
ATOM     46  C   UNL     1       4.822   9.410  -4.559  1.00  0.00     0.009 A 
ATOM     47  C   UNL     1       6.884   9.324  -6.423  1.00  0.00     0.001 A 
ATOM     48  C   UNL     1       4.542   9.579  -5.916  1.00  0.00     0.001 A 
ATOM     49  C   UNL     1       5.574   9.542  -6.848  1.00  0.00     0.000 A 
ENDBRANCH  25  44
BRANCH  37  50
ATOM     50  C   UNL     1       9.652  12.513   0.891  1.00  0.00    -0.014 A 
ATOM     51  C   UNL     1       8.978  13.742   0.822  1.00  0.00     0.009 A 
ATOM     52  C   UNL     1      11.050  12.500   1.009  1.00  0.00     0.009 A 
ATOM     53  C   UNL     1       9.698  14.936   0.832  1.00  0.00     0.001 A 
ATOM     54  C   UNL     1      11.763  13.696   1.052  1.00  0.00     0.001 A 
ATOM     55  C   UNL     1      11.088  14.912   0.952  1.00  0.00     0.000 A 
ENDBRANCH  37  50
ENDBRANCH  11  12
ENDBRANCH   4   6
ENDBRANCH   3   4
ENDBRANCH   2   3
ENDBRANCH   1   2
BRANCH   1  56
ATOM     56  O   UNL     1       3.721   0.023  -2.528  1.00  0.00    -0.461 OA
BRANCH  56  57
ATOM     57  C   UNL     1       2.499   0.463  -2.124  1.00  0.00     0.328 C 
ATOM     58  O   UNL     1       1.524  -0.269  -1.991  1.00  0.00    -0.250 OA
BRANCH  57  59
ATOM     59  C   UNL     1       2.482   1.976  -1.713  1.00  0.00     0.194 C 
BRANCH  59  60
ATOM     60  C   UNL     1       3.040   2.682  -0.179  1.00  0.00     0.065 C 
BRANCH  60  61
ATOM     61  C   UNL     1       4.633   2.306   1.275  1.00  0.00     0.159 C 
BRANCH  61  62
ATOM     62  O   UNL     1       6.164   2.285   1.082  1.00  0.00    -0.396 OA
ATOM     63  H   UNL     1       6.419   1.481   0.604  1.00  0.00     0.210 HD
ENDBRANCH  61  62
ENDBRANCH  60  61
ENDBRANCH  59  60
BRANCH  59  64
ATOM     64  N   UNL     1       2.736   2.908  -2.828  1.00  0.00    -0.338 N 
ATOM     65  C   UNL     1       1.875   3.822  -3.398  1.00  0.00     0.258 C 
ATOM     66  H   UNL     1       3.640   2.873  -3.216  1.00  0.00     0.164 HD
ATOM     67  O   UNL     1       2.294   4.641  -4.211  1.00  0.00    -0.269 OA
BRANCH  65  68
ATOM     68  C   UNL     1       0.437   3.822  -3.084  1.00  0.00     0.118 A 
ATOM     69  C   UNL     1      -0.054   4.206  -1.836  1.00  0.00     0.139 A 
ATOM     70  C   UNL     1      -0.455   3.476  -4.101  1.00  0.00     0.216 A 
ATOM     71  F   UNL     1       0.772   4.608  -0.862  1.00  0.00    -0.206 F 
ATOM     72  C   UNL     1      -1.422   4.167  -1.565  1.00  0.00     0.047 A 
ATOM     73  C   UNL     1      -1.829   3.464  -3.846  1.00  0.00     0.305 A 
ATOM     74  F   UNL     1       0.035   3.136  -5.301  1.00  0.00    -0.198 F 
ATOM     75  C   UNL     1      -2.317   3.791  -2.568  1.00  0.00     0.092 A 
BRANCH  73  76
ATOM     76  N   UNL     1      -2.779   3.114  -4.903  1.00  0.00     0.065 N 
ATOM     77  O   UNL     1      -2.359   2.974  -6.057  1.00  0.00    -0.258 OA
ATOM     78  O   UNL     1      -3.968   2.993  -4.575  1.00  0.00    -0.258 OA
ENDBRANCH  73  76
ENDBRANCH  65  68
ENDBRANCH  59  64
ENDBRANCH  57  59
ENDBRANCH  56  57
ENDBRANCH   1  56
TORSDOF 17
