REMARK SMILES C[C@H]1c2ccc(O)cc2OC(=O)[C@@H]1CC(=O)N[C@@H](CC1=c2ccccc2=NC1)C(=O)OCCOC(=O)c1ccc(-c2c3nc(c(-c4ccccc4)c4ccc([nH]4)c(-c4ccccc4)c4nc(c(-c5ccccc5)c5ccc2[nH]5)C=C4)C=C3)cc1
REMARK SMILES IDX 32 1 31 2 29 3 30 4 18 5 17 6 15 7 16 8 14 10 13 11 1 12
REMARK SMILES IDX 2 13 3 14 4 15 9 16 11 17 5 18 8 19 10 20 12 21 6 22 7 23
REMARK SMILES IDX 19 25 20 26 21 27 28 28 22 29 26 30 27 31 23 32 25 33 24 34
REMARK SMILES IDX 33 35 34 36 35 37 36 38 37 39 38 40 84 41 39 42 83 43 40 44
REMARK SMILES IDX 41 45 42 46 77 47 43 48 82 49 76 50 78 51 44 52 81 53 75 54
REMARK SMILES IDX 74 55 45 57 67 58 52 59 66 60 53 61 56 62 65 63 79 64 54 65
REMARK SMILES IDX 55 66 64 68 80 69 57 70 46 71 47 72 51 73 48 74 50 75 49 76
REMARK SMILES IDX 68 77 69 78 73 79 70 80 72 81 71 82 58 83 59 84 63 85 60 86
REMARK SMILES IDX 62 87 61 88
REMARK H PARENT 17 9 7 24 78 56 56 67
REMARK Flexibility Score: inf
ROOT
ATOM      1  C   UNL     1       1.328  -7.043  -5.131  1.00  0.00     0.274 C 
ENDROOT
BRANCH   1   2
ATOM      2  O   UNL     1       0.624  -6.265  -4.143  1.00  0.00    -0.461 OA
BRANCH   2   3
ATOM      3  C   UNL     1       1.383  -5.357  -3.482  1.00  0.00     0.329 C 
ATOM      4  O   UNL     1       2.583  -5.172  -3.677  1.00  0.00    -0.250 OA
BRANCH   3   5
ATOM      5  C   UNL     1       0.653  -4.676  -2.327  1.00  0.00     0.196 C 
BRANCH   5   6
ATOM      6  N   UNL     1      -0.775  -4.359  -2.444  1.00  0.00    -0.342 N 
ATOM      7  C   UNL     1      -1.458  -3.212  -2.141  1.00  0.00     0.221 C 
ATOM      8  O   UNL     1      -2.685  -3.262  -2.047  1.00  0.00    -0.275 OA
ATOM      9  H   UNL     1      -1.332  -5.090  -2.798  1.00  0.00     0.164 HD
BRANCH   7  10
ATOM     10  C   UNL     1      -0.739  -1.872  -2.026  1.00  0.00     0.116 C 
BRANCH  10  11
ATOM     11  C   UNL     1      -0.500  -1.316  -0.605  1.00  0.00     0.116 C 
ATOM     12  C   UNL     1       0.459   0.629   0.794  1.00  0.00     0.014 C 
ATOM     13  C   UNL     1       0.337  -0.009  -0.596  1.00  0.00     0.034 C 
ATOM     14  C   UNL     1       1.713  -0.330  -1.117  1.00  0.00    -0.001 A 
ATOM     15  C   UNL     1       2.471   0.566  -1.871  1.00  0.00     0.011 A 
ATOM     16  C   UNL     1       2.220  -1.610  -0.879  1.00  0.00     0.138 A 
ATOM     17  C   UNL     1       0.208  -2.313   0.269  1.00  0.00     0.315 C 
ATOM     18  C   UNL     1       3.655   0.127  -2.468  1.00  0.00     0.047 A 
ATOM     19  C   UNL     1       3.361  -2.076  -1.508  1.00  0.00     0.093 A 
ATOM     20  O   UNL     1       1.554  -2.499  -0.022  1.00  0.00    -0.426 OA
ATOM     21  O   UNL     1      -0.357  -2.963   1.139  1.00  0.00    -0.251 OA
ATOM     22  C   UNL     1       4.036  -1.207  -2.341  1.00  0.00     0.119 A 
BRANCH  22  23
ATOM     23  O   UNL     1       5.049  -1.699  -3.100  1.00  0.00    -0.508 OA
ATOM     24  H   UNL     1       5.523  -1.130  -3.674  1.00  0.00     0.293 HD
ENDBRANCH  22  23
ENDBRANCH  10  11
ENDBRANCH   7  10
ENDBRANCH   5   6
BRANCH   5  25
ATOM     25  C   UNL     1       0.998  -5.483  -1.044  1.00  0.00     0.070 C 
BRANCH  25  26
ATOM     26  C   UNL     1       0.262  -6.776  -0.659  1.00  0.00    -0.037 C 
ATOM     27  C   UNL     1      -0.962  -7.047  -1.130  1.00  0.00     0.001 A 
ATOM     28  C   UNL     1       0.196  -6.910   0.857  1.00  0.00     0.174 C 
ATOM     29  C   UNL     1      -1.457  -8.170  -1.889  1.00  0.00     0.010 A 
ATOM     30  C   UNL     1      -1.795  -6.725   0.058  1.00  0.00     0.065 A 
ATOM     31  N   UNL     1      -1.207  -6.603   1.204  1.00  0.00    -0.280 NA
ATOM     32  C   UNL     1      -2.791  -8.359  -1.911  1.00  0.00     0.001 A 
ATOM     33  C   UNL     1      -3.237  -6.627  -0.238  1.00  0.00     0.028 A 
ATOM     34  C   UNL     1      -3.682  -7.426  -1.225  1.00  0.00     0.002 A 
ENDBRANCH  25  26
ENDBRANCH   5  25
ENDBRANCH   3   5
ENDBRANCH   2   3
ENDBRANCH   1   2
BRANCH   1  35
ATOM     35  C   UNL     1       1.086  -6.511  -6.546  1.00  0.00     0.275 C 
BRANCH  35  36
ATOM     36  O   UNL     1       1.707  -5.227  -6.754  1.00  0.00    -0.458 OA
BRANCH  36  37
ATOM     37  C   UNL     1       0.928  -4.158  -6.442  1.00  0.00     0.338 C 
ATOM     38  O   UNL     1      -0.217  -4.186  -6.047  1.00  0.00    -0.246 OA
BRANCH  37  39
ATOM     39  C   UNL     1       1.736  -2.916  -6.470  1.00  0.00     0.060 A 
ATOM     40  C   UNL     1       2.672  -2.627  -7.467  1.00  0.00     0.016 A 
ATOM     41  C   UNL     1       1.504  -1.992  -5.452  1.00  0.00     0.016 A 
ATOM     42  C   UNL     1       3.394  -1.420  -7.424  1.00  0.00     0.010 A 
ATOM     43  C   UNL     1       2.228  -0.803  -5.406  1.00  0.00     0.010 A 
ATOM     44  C   UNL     1       3.198  -0.508  -6.377  1.00  0.00    -0.014 A 
BRANCH  44  45
ATOM     45  C   UNL     1       3.902   0.804  -6.316  1.00  0.00     0.031 A 
ATOM     46  C   UNL     1       5.282   0.949  -5.731  1.00  0.00     0.074 A 
ATOM     47  C   UNL     1       3.227   1.910  -6.672  1.00  0.00     0.049 A 
ATOM     48  N   UNL     1       5.933   2.036  -5.392  1.00  0.00    -0.248 NA
ATOM     49  C   UNL     1       5.984  -0.291  -5.401  1.00  0.00     0.031 C 
ATOM     50  C   UNL     1       1.868   1.926  -7.211  1.00  0.00     0.029 A 
ATOM     51  N   UNL     1       3.596   3.229  -6.638  1.00  0.00    -0.354 N 
ATOM     52  C   UNL     1       7.061   1.605  -4.695  1.00  0.00     0.074 A 
ATOM     53  C   UNL     1       6.982   0.162  -4.651  1.00  0.00     0.031 C 
ATOM     54  C   UNL     1       1.532   3.192  -7.498  1.00  0.00     0.029 A 
ATOM     55  C   UNL     1       2.649   4.072  -7.160  1.00  0.00     0.049 A 
ATOM     56  H   UNL     1       4.456   3.541  -6.274  1.00  0.00     0.167 HD
ATOM     57  C   UNL     1       8.066   2.344  -4.157  1.00  0.00     0.031 A 
ATOM     58  C   UNL     1       2.694   5.398  -7.391  1.00  0.00     0.031 A 
ATOM     59  C   UNL     1       8.213   3.763  -4.389  1.00  0.00     0.049 A 
ATOM     60  C   UNL     1       3.943   6.164  -7.064  1.00  0.00     0.074 A 
ATOM     61  C   UNL     1       9.287   4.580  -4.074  1.00  0.00     0.029 A 
ATOM     62  N   UNL     1       7.292   4.557  -5.053  1.00  0.00    -0.354 N 
ATOM     63  N   UNL     1       5.021   5.750  -6.444  1.00  0.00    -0.248 NA
ATOM     64  C   UNL     1       4.002   7.565  -7.503  1.00  0.00     0.031 C 
ATOM     65  C   UNL     1       9.011   5.868  -4.537  1.00  0.00     0.029 A 
ATOM     66  C   UNL     1       7.788   5.842  -5.188  1.00  0.00     0.049 A 
ATOM     67  H   UNL     1       6.415   4.252  -5.380  1.00  0.00     0.167 HD
ATOM     68  C   UNL     1       5.896   6.829  -6.440  1.00  0.00     0.074 A 
ATOM     69  C   UNL     1       5.231   7.910  -7.138  1.00  0.00     0.031 C 
ATOM     70  C   UNL     1       7.135   6.911  -5.899  1.00  0.00     0.031 A 
BRANCH  57  71
ATOM     71  C   UNL     1       9.137   1.663  -3.328  1.00  0.00    -0.014 A 
ATOM     72  C   UNL     1       9.398   2.112  -2.018  1.00  0.00     0.009 A 
ATOM     73  C   UNL     1       9.974   0.671  -3.860  1.00  0.00     0.009 A 
ATOM     74  C   UNL     1      10.463   1.593  -1.274  1.00  0.00     0.001 A 
ATOM     75  C   UNL     1      11.004   0.112  -3.096  1.00  0.00     0.001 A 
ATOM     76  C   UNL     1      11.257   0.583  -1.810  1.00  0.00     0.000 A 
ENDBRANCH  57  71
BRANCH  58  77
ATOM     77  C   UNL     1       1.567   6.015  -8.132  1.00  0.00    -0.014 A 
ATOM     78  C   UNL     1       0.315   6.207  -7.529  1.00  0.00     0.009 A 
ATOM     79  C   UNL     1       1.714   6.286  -9.502  1.00  0.00     0.009 A 
ATOM     80  C   UNL     1      -0.776   6.629  -8.293  1.00  0.00     0.001 A 
ATOM     81  C   UNL     1       0.630   6.734 -10.255  1.00  0.00     0.001 A 
ATOM     82  C   UNL     1      -0.617   6.893  -9.654  1.00  0.00     0.000 A 
ENDBRANCH  58  77
BRANCH  70  83
ATOM     83  C   UNL     1       7.894   8.203  -6.039  1.00  0.00    -0.014 A 
ATOM     84  C   UNL     1       9.063   8.243  -6.817  1.00  0.00     0.009 A 
ATOM     85  C   UNL     1       7.533   9.338  -5.298  1.00  0.00     0.009 A 
ATOM     86  C   UNL     1       9.866   9.384  -6.833  1.00  0.00     0.001 A 
ATOM     87  C   UNL     1       8.324  10.488  -5.338  1.00  0.00     0.001 A 
ATOM     88  C   UNL     1       9.495  10.507  -6.095  1.00  0.00     0.000 A 
ENDBRANCH  70  83
ENDBRANCH  44  45
ENDBRANCH  37  39
ENDBRANCH  36  37
ENDBRANCH  35  36
ENDBRANCH   1  35
TORSDOF 17
