REMARK SMILES Cc1ccc(OCC(=O)Oc2ccc(C(=O)OCCOC(=O)c3ccc(-c4c5nc(c(-c6ccccc6)c6ccc([nH]6)c(-c6ccccc6)c6nc(c(-c7ccccc7)c7ccc4[nH]7)C=C6)C=C5)cc3)cc2)cc1C
REMARK SMILES IDX 17 1 15 2 16 3 14 4 11 5 12 6 72 7 13 8 71 9 10 10 8 11 9 12
REMARK SMILES IDX 7 13 6 14 5 15 1 16 2 17 3 18 74 19 4 20 73 21 75 22 18 23
REMARK SMILES IDX 19 24 20 25 21 26 22 27 23 28 24 29 70 30 25 31 69 32 26 33
REMARK SMILES IDX 27 34 28 35 63 36 29 37 68 38 62 39 64 40 30 41 67 42 61 43
REMARK SMILES IDX 60 44 31 46 53 47 38 48 52 49 39 50 42 51 51 52 65 53 40 54
REMARK SMILES IDX 41 55 50 57 66 58 43 59 32 60 33 61 37 62 34 63 36 64 35 65
REMARK SMILES IDX 54 66 55 67 59 68 56 69 58 70 57 71 44 72 45 73 49 74 46 75
REMARK SMILES IDX 48 76 47 77
REMARK H PARENT 64 45 42 56
REMARK Flexibility Score: inf
ROOT
ATOM      1  O   UNL     1      -6.259   3.280   6.927  1.00  0.00    -0.458 OA
ENDROOT
BRANCH   1   2
ATOM      2  C   UNL     1      -5.012   2.906   6.550  1.00  0.00     0.338 C 
ATOM      3  O   UNL     1      -3.971   3.167   7.133  1.00  0.00    -0.246 OA
BRANCH   2   4
ATOM      4  C   UNL     1      -5.054   2.034   5.348  1.00  0.00     0.060 A 
ATOM      5  C   UNL     1      -4.991   0.394   3.099  1.00  0.00     0.131 A 
ATOM      6  C   UNL     1      -3.937   0.348   4.006  1.00  0.00     0.048 A 
ATOM      7  C   UNL     1      -6.097   1.216   3.317  1.00  0.00     0.048 A 
ATOM      8  C   UNL     1      -3.959   1.187   5.117  1.00  0.00     0.019 A 
ATOM      9  C   UNL     1      -6.127   2.043   4.446  1.00  0.00     0.019 A 
BRANCH   5  10
ATOM     10  O   UNL     1      -4.881  -0.447   1.988  1.00  0.00    -0.424 OA
BRANCH  10  11
ATOM     11  C   UNL     1      -4.801   0.218   0.770  1.00  0.00     0.349 C 
ATOM     12  O   UNL     1      -5.129   1.378   0.545  1.00  0.00    -0.248 OA
BRANCH  11  13
ATOM     13  C   UNL     1      -4.232  -0.719  -0.287  1.00  0.00     0.352 C 
BRANCH  13  14
ATOM     14  O   UNL     1      -3.000  -1.343   0.044  1.00  0.00    -0.482 OA
BRANCH  14  15
ATOM     15  C   UNL     1      -1.858  -0.590  -0.023  1.00  0.00     0.120 A 
ATOM     16  C   UNL     1       1.955   1.461  -0.080  1.00  0.00     0.044 C 
ATOM     17  C   UNL     1       0.652   0.712  -0.065  1.00  0.00    -0.048 A 
ATOM     18  C   UNL     1      -0.546   1.435  -0.174  1.00  0.00     0.007 A 
ATOM     19  C   UNL     1       0.591  -0.688   0.049  1.00  0.00    -0.045 A 
ATOM     20  C   UNL     1      -1.788   0.792  -0.161  1.00  0.00     0.047 A 
ATOM     21  C   UNL     1      -0.669  -1.318   0.080  1.00  0.00     0.050 A 
ATOM     22  C   UNL     1       1.815  -1.561   0.120  1.00  0.00     0.045 C 
ENDBRANCH  14  15
ENDBRANCH  13  14
ENDBRANCH  11  13
ENDBRANCH  10  11
ENDBRANCH   5  10
ENDBRANCH   2   4
ENDBRANCH   1   2
BRANCH   1  23
ATOM     23  C   UNL     1      -6.338   4.042   8.149  1.00  0.00     0.275 C 
BRANCH  23  24
ATOM     24  C   UNL     1      -6.716   3.142   9.323  1.00  0.00     0.275 C 
BRANCH  24  25
ATOM     25  O   UNL     1      -5.662   2.193   9.564  1.00  0.00    -0.458 OA
BRANCH  25  26
ATOM     26  C   UNL     1      -6.031   0.893   9.604  1.00  0.00     0.338 C 
ATOM     27  O   UNL     1      -7.156   0.431   9.528  1.00  0.00    -0.246 OA
BRANCH  26  28
ATOM     28  C   UNL     1      -4.831   0.056   9.768  1.00  0.00     0.060 A 
ATOM     29  C   UNL     1      -3.886   0.002   8.745  1.00  0.00     0.016 A 
ATOM     30  C   UNL     1      -4.698  -0.758  10.891  1.00  0.00     0.016 A 
ATOM     31  C   UNL     1      -2.830  -0.905   8.813  1.00  0.00     0.010 A 
ATOM     32  C   UNL     1      -3.601  -1.621  10.991  1.00  0.00     0.010 A 
ATOM     33  C   UNL     1      -2.672  -1.727   9.939  1.00  0.00    -0.014 A 
BRANCH  33  34
ATOM     34  C   UNL     1      -1.575  -2.733   9.991  1.00  0.00     0.031 A 
ATOM     35  C   UNL     1      -1.899  -4.202  10.070  1.00  0.00     0.074 A 
ATOM     36  C   UNL     1      -0.285  -2.346   9.947  1.00  0.00     0.049 A 
ATOM     37  N   UNL     1      -1.096  -5.219  10.265  1.00  0.00    -0.248 NA
ATOM     38  C   UNL     1      -3.314  -4.577   9.919  1.00  0.00     0.031 C 
ATOM     39  C   UNL     1       0.186  -0.966   9.821  1.00  0.00     0.029 A 
ATOM     40  N   UNL     1       0.871  -3.088   9.992  1.00  0.00    -0.354 N 
ATOM     41  C   UNL     1      -1.912  -6.342  10.316  1.00  0.00     0.074 A 
ATOM     42  C   UNL     1      -3.272  -5.885  10.130  1.00  0.00     0.031 C 
ATOM     43  C   UNL     1       1.527  -0.964   9.756  1.00  0.00     0.029 A 
ATOM     44  C   UNL     1       2.014  -2.330   9.912  1.00  0.00     0.049 A 
ATOM     45  H   UNL     1       0.879  -4.069  10.074  1.00  0.00     0.167 HD
ATOM     46  C   UNL     1      -1.563  -7.638  10.504  1.00  0.00     0.031 A 
ATOM     47  C   UNL     1       3.311  -2.687   9.986  1.00  0.00     0.031 A 
ATOM     48  C   UNL     1      -0.210  -8.107  10.645  1.00  0.00     0.049 A 
ATOM     49  C   UNL     1       3.673  -4.125  10.218  1.00  0.00     0.074 A 
ATOM     50  C   UNL     1       0.238  -9.404  10.833  1.00  0.00     0.029 A 
ATOM     51  N   UNL     1       0.914  -7.299  10.594  1.00  0.00    -0.354 N 
ATOM     52  N   UNL     1       2.886  -5.167  10.325  1.00  0.00    -0.248 NA
ATOM     53  C   UNL     1       5.104  -4.432  10.359  1.00  0.00     0.031 C 
ATOM     54  C   UNL     1       1.634  -9.376  10.926  1.00  0.00     0.029 A 
ATOM     55  C   UNL     1       2.054  -8.067  10.757  1.00  0.00     0.049 A 
ATOM     56  H   UNL     1       0.903  -6.324  10.462  1.00  0.00     0.167 HD
ATOM     57  C   UNL     1       3.724  -6.252  10.543  1.00  0.00     0.074 A 
ATOM     58  C   UNL     1       5.081  -5.747  10.528  1.00  0.00     0.031 C 
ATOM     59  C   UNL     1       3.397  -7.551  10.746  1.00  0.00     0.031 A 
BRANCH  46  60
ATOM     60  C   UNL     1      -2.674  -8.643  10.609  1.00  0.00    -0.014 A 
ATOM     61  C   UNL     1      -3.382  -9.076   9.479  1.00  0.00     0.009 A 
ATOM     62  C   UNL     1      -2.990  -9.190  11.863  1.00  0.00     0.009 A 
ATOM     63  C   UNL     1      -4.407 -10.017   9.607  1.00  0.00     0.001 A 
ATOM     64  C   UNL     1      -3.999 -10.147  11.985  1.00  0.00     0.001 A 
ATOM     65  C   UNL     1      -4.712 -10.554  10.858  1.00  0.00     0.000 A 
ENDBRANCH  46  60
BRANCH  47  66
ATOM     66  C   UNL     1       4.370  -1.650   9.881  1.00  0.00    -0.014 A 
ATOM     67  C   UNL     1       5.184  -1.576   8.741  1.00  0.00     0.009 A 
ATOM     68  C   UNL     1       4.568  -0.728  10.921  1.00  0.00     0.009 A 
ATOM     69  C   UNL     1       6.184  -0.605   8.650  1.00  0.00     0.001 A 
ATOM     70  C   UNL     1       5.551   0.258  10.815  1.00  0.00     0.001 A 
ATOM     71  C   UNL     1       6.362   0.314   9.684  1.00  0.00     0.000 A 
ENDBRANCH  47  66
BRANCH  59  72
ATOM     72  C   UNL     1       4.528  -8.515  10.951  1.00  0.00    -0.014 A 
ATOM     73  C   UNL     1       5.214  -8.574  12.174  1.00  0.00     0.009 A 
ATOM     74  C   UNL     1       4.893  -9.393   9.919  1.00  0.00     0.009 A 
ATOM     75  C   UNL     1       6.266  -9.475  12.349  1.00  0.00     0.001 A 
ATOM     76  C   UNL     1       5.932 -10.307  10.104  1.00  0.00     0.001 A 
ATOM     77  C   UNL     1       6.622 -10.342  11.316  1.00  0.00     0.000 A 
ENDBRANCH  59  72
ENDBRANCH  33  34
ENDBRANCH  26  28
ENDBRANCH  25  26
ENDBRANCH  24  25
ENDBRANCH  23  24
ENDBRANCH   1  23
TORSDOF 16
