REMARK SMILES C[C@]([NH2+]Cc1nc(-c2ccsc2)no1)(C(=O)OCCOC(=O)c1ccc(-c2c3nc(c(-c4ccccc4)c4ccc([nH]4)c(-c4ccccc4)c4nc(c(-c5ccccc5)c5ccc2[nH]5)C=C4)C=C3)cc1)C(F)(F)F
REMARK SMILES IDX 18 1 17 2 15 3 16 4 2 5 1 6 71 7 72 8 73 9 74 10 3 11 4 14
REMARK SMILES IDX 5 15 6 16 14 17 7 18 13 19 8 20 9 21 12 22 10 23 11 24 19 25
REMARK SMILES IDX 20 26 21 27 22 28 23 29 24 30 70 31 25 32 69 33 26 34 27 35
REMARK SMILES IDX 28 36 63 37 29 38 68 39 62 40 64 41 30 42 67 43 61 44 60 45
REMARK SMILES IDX 31 47 53 48 38 49 52 50 39 51 42 52 51 53 65 54 40 55 41 56
REMARK SMILES IDX 50 58 66 59 43 60 32 61 33 62 37 63 34 64 36 65 35 66 54 67
REMARK SMILES IDX 55 68 59 69 56 70 58 71 57 72 44 73 45 74 49 75 46 76 48 77
REMARK SMILES IDX 47 78
REMARK H PARENT 3 12 3 13 64 46 42 57
REMARK Flexibility Score: inf
ROOT
ATOM      1  C   UNL     1      -2.652   0.915   0.936  1.00  0.00     0.274 C 
ENDROOT
BRANCH   1   2
ATOM      2  O   UNL     1      -1.214   0.923   0.789  1.00  0.00    -0.457 OA
BRANCH   2   3
ATOM      3  C   UNL     1      -0.487   0.481   1.865  1.00  0.00     0.377 C 
ATOM      4  O   UNL     1      -0.993   0.147   2.929  1.00  0.00    -0.244 OA
BRANCH   3   5
ATOM      5  C   UNL     1       1.028   0.579   1.607  1.00  0.00     0.287 C 
ATOM      6  C   UNL     1       1.424   2.020   1.972  1.00  0.00     0.103 C 
BRANCH   5   7
ATOM      7  C   UNL     1       1.714  -0.385   2.614  1.00  0.00     0.455 C 
ATOM      8  F   UNL     1       1.510  -1.682   2.299  1.00  0.00    -0.164 F 
ATOM      9  F   UNL     1       3.064  -0.200   2.581  1.00  0.00    -0.164 F 
ATOM     10  F   UNL     1       1.349  -0.199   3.897  1.00  0.00    -0.164 F 
ENDBRANCH   5   7
BRANCH   5  11
ATOM     11  N   UNL     1       1.299   0.317   0.139  1.00  0.00    -0.317 N 
ATOM     12  H   UNL     1       1.059   1.158  -0.387  1.00  0.00     0.347 HD
ATOM     13  H   UNL     1       0.731  -0.487  -0.129  1.00  0.00     0.347 HD
BRANCH  11  14
ATOM     14  C   UNL     1       2.696  -0.029  -0.156  1.00  0.00     0.363 C 
BRANCH  14  15
ATOM     15  C   UNL     1       2.999  -0.250  -1.603  1.00  0.00     0.282 A 
ATOM     16  N   UNL     1       2.315  -0.847  -2.556  1.00  0.00    -0.186 NA
ATOM     17  O   UNL     1       4.266   0.096  -1.984  1.00  0.00    -0.333 OA
ATOM     18  C   UNL     1       3.249  -0.932  -3.562  1.00  0.00     0.203 A 
ATOM     19  N   UNL     1       4.431  -0.367  -3.285  1.00  0.00    -0.057 NA
BRANCH  18  20
ATOM     20  C   UNL     1       2.980  -1.672  -4.795  1.00  0.00     0.033 A 
ATOM     21  C   UNL     1       1.678  -1.809  -5.363  1.00  0.00     0.024 A 
ATOM     22  C   UNL     1       3.938  -2.326  -5.542  1.00  0.00     0.077 A 
ATOM     23  C   UNL     1       1.698  -2.548  -6.527  1.00  0.00     0.065 A 
ATOM     24  S   UNL     1       3.272  -3.097  -6.917  1.00  0.00    -0.152 S 
ENDBRANCH  18  20
ENDBRANCH  14  15
ENDBRANCH  11  14
ENDBRANCH   5  11
ENDBRANCH   3   5
ENDBRANCH   2   3
ENDBRANCH   1   2
BRANCH   1  25
ATOM     25  C   UNL     1      -3.251  -0.338   0.299  1.00  0.00     0.275 C 
BRANCH  25  26
ATOM     26  O   UNL     1      -2.759  -1.487   1.003  1.00  0.00    -0.458 OA
BRANCH  26  27
ATOM     27  C   UNL     1      -2.662  -2.628   0.285  1.00  0.00     0.338 C 
ATOM     28  O   UNL     1      -3.060  -2.813  -0.857  1.00  0.00    -0.246 OA
BRANCH  27  29
ATOM     29  C   UNL     1      -1.978  -3.656   1.099  1.00  0.00     0.060 A 
ATOM     30  C   UNL     1      -0.938  -3.296   1.955  1.00  0.00     0.016 A 
ATOM     31  C   UNL     1      -2.316  -5.002   0.961  1.00  0.00     0.016 A 
ATOM     32  C   UNL     1      -0.193  -4.268   2.618  1.00  0.00     0.010 A 
ATOM     33  C   UNL     1      -1.621  -5.974   1.695  1.00  0.00     0.010 A 
ATOM     34  C   UNL     1      -0.529  -5.622   2.508  1.00  0.00    -0.014 A 
BRANCH  34  35
ATOM     35  C   UNL     1       0.303  -6.658   3.187  1.00  0.00     0.031 A 
ATOM     36  C   UNL     1       0.987  -7.729   2.376  1.00  0.00     0.074 A 
ATOM     37  C   UNL     1       0.493  -6.627   4.522  1.00  0.00     0.049 A 
ATOM     38  N   UNL     1       1.627  -8.797   2.787  1.00  0.00    -0.248 NA
ATOM     39  C   UNL     1       0.937  -7.590   0.911  1.00  0.00     0.031 C 
ATOM     40  C   UNL     1      -0.055  -5.627   5.440  1.00  0.00     0.029 A 
ATOM     41  N   UNL     1       1.225  -7.457   5.339  1.00  0.00    -0.354 N 
ATOM     42  C   UNL     1       1.998  -9.483   1.637  1.00  0.00     0.074 A 
ATOM     43  C   UNL     1       1.515  -8.713   0.511  1.00  0.00     0.031 C 
ATOM     44  C   UNL     1       0.402  -5.868   6.679  1.00  0.00     0.029 A 
ATOM     45  C   UNL     1       1.208  -7.084   6.661  1.00  0.00     0.049 A 
ATOM     46  H   UNL     1       1.715  -8.243   5.008  1.00  0.00     0.167 HD
ATOM     47  C   UNL     1       2.679 -10.649   1.525  1.00  0.00     0.031 A 
ATOM     48  C   UNL     1       1.750  -7.666   7.747  1.00  0.00     0.031 A 
ATOM     49  C   UNL     1       3.210 -11.395   2.634  1.00  0.00     0.049 A 
ATOM     50  C   UNL     1       2.497  -8.960   7.598  1.00  0.00     0.074 A 
ATOM     51  C   UNL     1       3.896 -12.598   2.616  1.00  0.00     0.029 A 
ATOM     52  N   UNL     1       3.141 -10.994   3.957  1.00  0.00    -0.354 N 
ATOM     53  N   UNL     1       2.758  -9.642   6.510  1.00  0.00    -0.248 NA
ATOM     54  C   UNL     1       3.006  -9.575   8.833  1.00  0.00     0.031 C 
ATOM     55  C   UNL     1       4.224 -12.936   3.934  1.00  0.00     0.029 A 
ATOM     56  C   UNL     1       3.774 -11.924   4.765  1.00  0.00     0.049 A 
ATOM     57  H   UNL     1       2.707 -10.170   4.277  1.00  0.00     0.167 HD
ATOM     58  C   UNL     1       3.455 -10.767   6.929  1.00  0.00     0.074 A 
ATOM     59  C   UNL     1       3.609 -10.659   8.365  1.00  0.00     0.031 C 
ATOM     60  C   UNL     1       3.911 -11.808   6.191  1.00  0.00     0.031 A 
BRANCH  47  61
ATOM     61  C   UNL     1       2.862 -11.212   0.144  1.00  0.00    -0.014 A 
ATOM     62  C   UNL     1       3.803 -10.676  -0.747  1.00  0.00     0.009 A 
ATOM     63  C   UNL     1       2.106 -12.327  -0.251  1.00  0.00     0.009 A 
ATOM     64  C   UNL     1       3.966 -11.232  -2.018  1.00  0.00     0.001 A 
ATOM     65  C   UNL     1       2.287 -12.895  -1.513  1.00  0.00     0.001 A 
ATOM     66  C   UNL     1       3.212 -12.343  -2.397  1.00  0.00     0.000 A 
ENDBRANCH  47  61
BRANCH  48  67
ATOM     67  C   UNL     1       1.562  -7.059   9.091  1.00  0.00    -0.014 A 
ATOM     68  C   UNL     1       2.643  -6.478   9.771  1.00  0.00     0.009 A 
ATOM     69  C   UNL     1       0.300  -7.071   9.705  1.00  0.00     0.009 A 
ATOM     70  C   UNL     1       2.466  -5.939  11.048  1.00  0.00     0.001 A 
ATOM     71  C   UNL     1       0.120  -6.505  10.968  1.00  0.00     0.001 A 
ATOM     72  C   UNL     1       1.205  -5.947  11.642  1.00  0.00     0.000 A 
ENDBRANCH  48  67
BRANCH  60  73
ATOM     73  C   UNL     1       4.625 -12.900   6.931  1.00  0.00    -0.014 A 
ATOM     74  C   UNL     1       3.914 -13.828   7.709  1.00  0.00     0.009 A 
ATOM     75  C   UNL     1       6.021 -13.009   6.844  1.00  0.00     0.009 A 
ATOM     76  C   UNL     1       4.593 -14.822   8.415  1.00  0.00     0.001 A 
ATOM     77  C   UNL     1       6.695 -14.017   7.535  1.00  0.00     0.001 A 
ATOM     78  C   UNL     1       5.982 -14.916   8.327  1.00  0.00     0.000 A 
ENDBRANCH  60  73
ENDBRANCH  34  35
ENDBRANCH  27  29
ENDBRANCH  26  27
ENDBRANCH  25  26
ENDBRANCH   1  25
TORSDOF 16
