REMARK SMILES Cc1ccc(N2CCC[C@@H](Cn3cc(C(=O)OCCOC(=O)c4ccc(-c5c6nc(c(-c7ccccc7)c7ccc([nH]7)c(-c7ccccc7)c7nc(c(-c8ccccc8)c8ccc5[nH]8)C=C7)C=C6)cc4)nn3)C2)nn1
REMARK SMILES IDX 18 1 17 2 15 3 16 4 14 5 12 6 13 7 72 8 71 9 11 10 10 11
REMARK SMILES IDX 6 12 7 13 73 14 8 15 9 16 5 17 1 18 2 19 3 20 75 21 4 22
REMARK SMILES IDX 74 23 19 24 20 25 21 26 22 27 23 28 24 29 70 30 25 31 69 32
REMARK SMILES IDX 26 33 27 34 28 35 63 36 29 37 68 38 62 39 64 40 30 41 67 42
REMARK SMILES IDX 61 43 60 44 31 46 53 47 38 48 52 49 39 50 42 51 51 52 65 53
REMARK SMILES IDX 40 54 41 55 50 57 66 58 43 59 32 60 33 61 37 62 34 63 36 64
REMARK SMILES IDX 35 65 54 66 55 67 59 68 56 69 58 70 57 71 44 72 45 73 49 74
REMARK SMILES IDX 46 75 48 76 47 77
REMARK H PARENT 64 45 42 56
REMARK Flexibility Score: inf
ROOT
ATOM      1  C   UNL     1      -0.916  -1.276  10.310  1.00  0.00     0.275 C 
ENDROOT
BRANCH   1   2
ATOM      2  O   UNL     1      -1.329  -2.183   9.277  1.00  0.00    -0.457 OA
BRANCH   2   3
ATOM      3  C   UNL     1      -1.351  -3.510   9.616  1.00  0.00     0.360 C 
ATOM      4  O   UNL     1      -0.826  -3.969  10.630  1.00  0.00    -0.244 OA
BRANCH   3   5
ATOM      5  C   UNL     1      -2.102  -4.308   8.665  1.00  0.00     0.190 A 
ATOM      6  N   UNL     1      -3.094  -5.016   6.892  1.00  0.00    -0.251 N 
ATOM      7  C   UNL     1      -2.784  -3.867   7.548  1.00  0.00     0.146 A 
ATOM      8  N   UNL     1      -2.886  -6.093   7.669  1.00  0.00    -0.067 NA
ATOM      9  N   UNL     1      -2.242  -5.673   8.752  1.00  0.00    -0.123 NA
BRANCH   6  10
ATOM     10  C   UNL     1      -3.257  -5.172   5.463  1.00  0.00     0.151 C 
BRANCH  10  11
ATOM     11  C   UNL     1      -1.926  -5.085   4.687  1.00  0.00     0.030 C 
ATOM     12  N   UNL     1      -0.080  -3.713   3.967  1.00  0.00    -0.355 N 
ATOM     13  C   UNL     1       0.970  -4.570   4.487  1.00  0.00     0.118 C 
ATOM     14  C   UNL     1      -1.321  -3.663   4.711  1.00  0.00     0.123 C 
ATOM     15  C   UNL     1       0.458  -6.005   4.436  1.00  0.00     0.022 C 
ATOM     16  C   UNL     1      -0.889  -6.137   5.154  1.00  0.00     0.009 C 
BRANCH  12  17
ATOM     17  C   UNL     1       0.186  -2.763   3.011  1.00  0.00     0.151 A 
ATOM     18  C   UNL     1       0.901   0.165   0.037  1.00  0.00     0.069 C 
ATOM     19  C   UNL     1       0.632  -0.895   1.055  1.00  0.00     0.060 A 
ATOM     20  C   UNL     1       0.909  -2.222   0.783  1.00  0.00     0.029 A 
ATOM     21  N   UNL     1       0.138  -0.518   2.251  1.00  0.00    -0.154 NA
ATOM     22  C   UNL     1       0.694  -3.161   1.782  1.00  0.00     0.051 A 
ATOM     23  N   UNL     1      -0.109  -1.464   3.222  1.00  0.00    -0.133 NA
ENDBRANCH  12  17
ENDBRANCH  10  11
ENDBRANCH   6  10
ENDBRANCH   3   5
ENDBRANCH   2   3
ENDBRANCH   1   2
BRANCH   1  24
ATOM     24  C   UNL     1      -2.106  -0.840  11.155  1.00  0.00     0.275 C 
BRANCH  24  25
ATOM     25  O   UNL     1      -2.639  -1.930  11.909  1.00  0.00    -0.458 OA
BRANCH  25  26
ATOM     26  C   UNL     1      -3.660  -2.582  11.309  1.00  0.00     0.338 C 
ATOM     27  O   UNL     1      -3.994  -2.502  10.137  1.00  0.00    -0.246 OA
BRANCH  26  28
ATOM     28  C   UNL     1      -4.505  -3.218  12.319  1.00  0.00     0.060 A 
ATOM     29  C   UNL     1      -5.534  -4.041  11.855  1.00  0.00     0.016 A 
ATOM     30  C   UNL     1      -4.506  -2.681  13.614  1.00  0.00     0.016 A 
ATOM     31  C   UNL     1      -6.676  -4.143  12.619  1.00  0.00     0.010 A 
ATOM     32  C   UNL     1      -5.654  -2.765  14.364  1.00  0.00     0.010 A 
ATOM     33  C   UNL     1      -6.752  -3.422  13.820  1.00  0.00    -0.014 A 
BRANCH  33  34
ATOM     34  C   UNL     1      -7.984  -3.486  14.572  1.00  0.00     0.031 A 
ATOM     35  C   UNL     1      -8.183  -4.801  15.212  1.00  0.00     0.074 A 
ATOM     36  C   UNL     1      -8.835  -2.455  14.726  1.00  0.00     0.049 A 
ATOM     37  N   UNL     1      -9.038  -5.701  14.865  1.00  0.00    -0.248 NA
ATOM     38  C   UNL     1      -7.215  -5.234  16.231  1.00  0.00     0.031 C 
ATOM     39  C   UNL     1      -8.672  -1.048  14.360  1.00  0.00     0.029 A 
ATOM     40  N   UNL     1     -10.046  -2.471  15.339  1.00  0.00    -0.354 N 
ATOM     41  C   UNL     1      -8.832  -6.765  15.729  1.00  0.00     0.074 A 
ATOM     42  C   UNL     1      -7.612  -6.488  16.447  1.00  0.00     0.031 C 
ATOM     43  C   UNL     1      -9.645  -0.315  14.958  1.00  0.00     0.029 A 
ATOM     44  C   UNL     1     -10.576  -1.218  15.615  1.00  0.00     0.049 A 
ATOM     45  H   UNL     1     -10.513  -3.307  15.571  1.00  0.00     0.167 HD
ATOM     46  C   UNL     1      -9.803  -7.687  15.955  1.00  0.00     0.031 A 
ATOM     47  C   UNL     1     -11.681  -0.975  16.365  1.00  0.00     0.031 A 
ATOM     48  C   UNL     1     -10.837  -7.643  14.958  1.00  0.00     0.049 A 
ATOM     49  C   UNL     1     -12.490  -2.217  16.349  1.00  0.00     0.074 A 
ATOM     50  C   UNL     1     -10.883  -7.872  13.598  1.00  0.00     0.029 A 
ATOM     51  N   UNL     1     -11.962  -6.914  15.261  1.00  0.00    -0.354 N 
ATOM     52  N   UNL     1     -13.070  -2.680  15.280  1.00  0.00    -0.248 NA
ATOM     53  C   UNL     1     -12.289  -3.179  17.422  1.00  0.00     0.031 C 
ATOM     54  C   UNL     1     -11.773  -6.881  13.087  1.00  0.00     0.029 A 
ATOM     55  C   UNL     1     -12.264  -6.145  14.166  1.00  0.00     0.049 A 
ATOM     56  H   UNL     1     -12.461  -6.940  16.109  1.00  0.00     0.167 HD
ATOM     57  C   UNL     1     -12.908  -4.054  15.362  1.00  0.00     0.074 A 
ATOM     58  C   UNL     1     -12.504  -4.309  16.744  1.00  0.00     0.031 C 
ATOM     59  C   UNL     1     -12.843  -4.822  14.237  1.00  0.00     0.031 A 
BRANCH  46  60
ATOM     60  C   UNL     1      -9.999  -8.327  17.297  1.00  0.00    -0.014 A 
ATOM     61  C   UNL     1     -10.893  -9.399  17.421  1.00  0.00     0.009 A 
ATOM     62  C   UNL     1      -9.538  -7.731  18.488  1.00  0.00     0.009 A 
ATOM     63  C   UNL     1     -11.328  -9.831  18.680  1.00  0.00     0.001 A 
ATOM     64  C   UNL     1      -9.939  -8.183  19.744  1.00  0.00     0.001 A 
ATOM     65  C   UNL     1     -10.852  -9.222  19.839  1.00  0.00     0.000 A 
ENDBRANCH  46  60
BRANCH  47  66
ATOM     66  C   UNL     1     -11.908   0.075  17.388  1.00  0.00    -0.014 A 
ATOM     67  C   UNL     1     -13.175   0.209  17.986  1.00  0.00     0.009 A 
ATOM     68  C   UNL     1     -10.824   0.716  18.012  1.00  0.00     0.009 A 
ATOM     69  C   UNL     1     -13.337   0.890  19.201  1.00  0.00     0.001 A 
ATOM     70  C   UNL     1     -10.988   1.403  19.222  1.00  0.00     0.001 A 
ATOM     71  C   UNL     1     -12.239   1.469  19.828  1.00  0.00     0.000 A 
ENDBRANCH  47  66
BRANCH  59  72
ATOM     72  C   UNL     1     -13.163  -4.166  12.916  1.00  0.00    -0.014 A 
ATOM     73  C   UNL     1     -12.343  -3.184  12.331  1.00  0.00     0.009 A 
ATOM     74  C   UNL     1     -14.219  -4.692  12.160  1.00  0.00     0.009 A 
ATOM     75  C   UNL     1     -12.579  -2.745  11.023  1.00  0.00     0.001 A 
ATOM     76  C   UNL     1     -14.444  -4.265  10.850  1.00  0.00     0.001 A 
ATOM     77  C   UNL     1     -13.623  -3.295  10.280  1.00  0.00     0.000 A 
ENDBRANCH  59  72
ENDBRANCH  33  34
ENDBRANCH  26  28
ENDBRANCH  25  26
ENDBRANCH  24  25
ENDBRANCH   1  24
TORSDOF 14
