REMARK SMILES CC(C)=C1[C@H]2CC[C@@H]1[C@@H](C(=O)Nc1cc(C)cc(C)c1)[C@@H]2C(=O)OCCOC(=O)c1ccc(-c2c3nc(c(-c4ccccc4)c4ccc([nH]4)c(-c4ccccc4)c4nc(c(-c5ccccc5)c5ccc2[nH]5)C=C4)C=C3)cc1
REMARK SMILES IDX 25 1 24 2 22 3 23 4 21 5 1 6 2 7 3 8 4 9 5 10 8 11 6 12 7 13
REMARK SMILES IDX 9 14 10 15 11 16 12 17 13 19 14 20 20 21 15 22 18 23 16 24
REMARK SMILES IDX 17 25 19 26 26 27 27 28 28 29 29 30 30 31 31 32 77 33 32 34
REMARK SMILES IDX 76 35 33 36 34 37 35 38 70 39 36 40 75 41 69 42 71 43 37 44
REMARK SMILES IDX 74 45 68 46 67 47 38 49 60 50 45 51 59 52 46 53 49 54 58 55
REMARK SMILES IDX 72 56 47 57 48 58 57 60 73 61 50 62 39 63 40 64 44 65 41 66
REMARK SMILES IDX 43 67 42 68 61 69 62 70 66 71 63 72 65 73 64 74 51 75 52 76
REMARK SMILES IDX 56 77 53 78 55 79 54 80
REMARK H PARENT 12 18 71 48 49 59
REMARK Flexibility Score: inf
ROOT
ATOM      1  C   UNL     1      -3.393   4.892  -4.731  1.00  0.00     0.274 C 
ENDROOT
BRANCH   1   2
ATOM      2  O   UNL     1      -2.361   4.548  -3.785  1.00  0.00    -0.462 OA
BRANCH   2   3
ATOM      3  C   UNL     1      -1.662   3.426  -4.080  1.00  0.00     0.310 C 
ATOM      4  O   UNL     1      -1.803   2.772  -5.109  1.00  0.00    -0.252 OA
BRANCH   3   5
ATOM      5  C   UNL     1      -0.753   2.945  -2.978  1.00  0.00     0.119 C 
ATOM      6  C   UNL     1       0.713   0.496   0.765  1.00  0.00     0.039 C 
ATOM      7  C   UNL     1      -0.163   0.614  -0.447  1.00  0.00    -0.077 C 
ATOM      8  C   UNL     1      -0.699  -0.685  -0.990  1.00  0.00     0.039 C 
ATOM      9  C   UNL     1      -0.529   1.789  -0.986  1.00  0.00    -0.064 C 
ATOM     10  C   UNL     1      -1.562   2.031  -2.044  1.00  0.00     0.030 C 
ATOM     11  C   UNL     1      -0.258   3.233  -0.630  1.00  0.00     0.029 C 
ATOM     12  C   UNL     1      -2.568   2.798  -1.154  1.00  0.00     0.009 C 
ATOM     13  C   UNL     1      -1.678   3.560  -0.143  1.00  0.00     0.009 C 
ATOM     14  C   UNL     1      -0.084   3.929  -2.014  1.00  0.00     0.101 C 
BRANCH  14  15
ATOM     15  C   UNL     1       1.332   4.452  -2.281  1.00  0.00     0.228 C 
ATOM     16  O   UNL     1       1.474   5.651  -2.564  1.00  0.00    -0.274 OA
ATOM     17  N   UNL     1       2.488   3.768  -2.092  1.00  0.00    -0.326 N 
ATOM     18  H   UNL     1       3.283   4.347  -2.043  1.00  0.00     0.169 HD
BRANCH  17  19
ATOM     19  C   UNL     1       2.778   2.414  -1.955  1.00  0.00     0.041 A 
ATOM     20  C   UNL     1       2.357   1.469  -2.883  1.00  0.00     0.029 A 
ATOM     21  C   UNL     1       3.633   2.032  -0.920  1.00  0.00     0.029 A 
ATOM     22  C   UNL     1       2.659   0.114  -2.708  1.00  0.00    -0.049 A 
ATOM     23  C   UNL     1       3.963   0.684  -0.734  1.00  0.00    -0.049 A 
ATOM     24  C   UNL     1       2.153  -0.908  -3.682  1.00  0.00     0.044 C 
ATOM     25  C   UNL     1       3.455  -0.272  -1.623  1.00  0.00     0.007 A 
ATOM     26  C   UNL     1       4.758   0.258   0.464  1.00  0.00     0.044 C 
ENDBRANCH  17  19
ENDBRANCH  14  15
ENDBRANCH   3   5
ENDBRANCH   2   3
ENDBRANCH   1   2
BRANCH   1  27
ATOM     27  C   UNL     1      -2.939   5.912  -5.779  1.00  0.00     0.275 C 
BRANCH  27  28
ATOM     28  O   UNL     1      -1.873   5.415  -6.609  1.00  0.00    -0.458 OA
BRANCH  28  29
ATOM     29  C   UNL     1      -0.635   5.647  -6.119  1.00  0.00     0.338 C 
ATOM     30  O   UNL     1      -0.356   6.258  -5.094  1.00  0.00    -0.246 OA
BRANCH  29  31
ATOM     31  C   UNL     1       0.377   4.947  -6.919  1.00  0.00     0.060 A 
ATOM     32  C   UNL     1       1.231   4.052  -6.265  1.00  0.00     0.016 A 
ATOM     33  C   UNL     1       0.551   5.233  -8.274  1.00  0.00     0.016 A 
ATOM     34  C   UNL     1       2.272   3.443  -6.959  1.00  0.00     0.010 A 
ATOM     35  C   UNL     1       1.603   4.629  -8.968  1.00  0.00     0.010 A 
ATOM     36  C   UNL     1       2.477   3.745  -8.311  1.00  0.00    -0.014 A 
BRANCH  36  37
ATOM     37  C   UNL     1       3.658   3.204  -9.021  1.00  0.00     0.031 A 
ATOM     38  C   UNL     1       4.833   4.100  -9.290  1.00  0.00     0.074 A 
ATOM     39  C   UNL     1       3.681   1.920  -9.420  1.00  0.00     0.049 A 
ATOM     40  N   UNL     1       5.906   3.866 -10.001  1.00  0.00    -0.248 NA
ATOM     41  C   UNL     1       4.791   5.437  -8.677  1.00  0.00     0.031 C 
ATOM     42  C   UNL     1       2.631   0.934  -9.163  1.00  0.00     0.029 A 
ATOM     43  N   UNL     1       4.626   1.228 -10.134  1.00  0.00    -0.354 N 
ATOM     44  C   UNL     1       6.655   5.035  -9.945  1.00  0.00     0.074 A 
ATOM     45  C   UNL     1       5.911   5.978  -9.137  1.00  0.00     0.031 C 
ATOM     46  C   UNL     1       2.989  -0.236  -9.718  1.00  0.00     0.029 A 
ATOM     47  C   UNL     1       4.265  -0.067 -10.408  1.00  0.00     0.049 A 
ATOM     48  H   UNL     1       5.481   1.623 -10.423  1.00  0.00     0.167 HD
ATOM     49  C   UNL     1       7.853   5.298 -10.519  1.00  0.00     0.031 A 
ATOM     50  C   UNL     1       4.877  -1.000 -11.162  1.00  0.00     0.031 A 
ATOM     51  C   UNL     1       8.591   4.359 -11.320  1.00  0.00     0.049 A 
ATOM     52  C   UNL     1       6.169  -0.659 -11.851  1.00  0.00     0.074 A 
ATOM     53  C   UNL     1       9.815   4.530 -11.944  1.00  0.00     0.029 A 
ATOM     54  N   UNL     1       8.172   3.069 -11.606  1.00  0.00    -0.354 N 
ATOM     55  N   UNL     1       6.858   0.456 -11.811  1.00  0.00    -0.248 NA
ATOM     56  C   UNL     1       6.762  -1.704 -12.697  1.00  0.00     0.031 C 
ATOM     57  C   UNL     1      10.116   3.356 -12.643  1.00  0.00     0.029 A 
ATOM     58  C   UNL     1       9.103   2.439 -12.414  1.00  0.00     0.049 A 
ATOM     59  H   UNL     1       7.337   2.661 -11.282  1.00  0.00     0.167 HD
ATOM     60  C   UNL     1       7.974   0.240 -12.609  1.00  0.00     0.074 A 
ATOM     61  C   UNL     1       7.878  -1.116 -13.108  1.00  0.00     0.031 C 
ATOM     62  C   UNL     1       8.988   1.090 -12.902  1.00  0.00     0.031 A 
BRANCH  49  63
ATOM     63  C   UNL     1       8.416   6.678 -10.335  1.00  0.00    -0.014 A 
ATOM     64  C   UNL     1       8.962   7.088  -9.110  1.00  0.00     0.009 A 
ATOM     65  C   UNL     1       8.421   7.574 -11.416  1.00  0.00     0.009 A 
ATOM     66  C   UNL     1       9.474   8.380  -8.963  1.00  0.00     0.001 A 
ATOM     67  C   UNL     1       8.954   8.855 -11.273  1.00  0.00     0.001 A 
ATOM     68  C   UNL     1       9.473   9.260 -10.044  1.00  0.00     0.000 A 
ENDBRANCH  49  63
BRANCH  50  69
ATOM     69  C   UNL     1       4.253  -2.336 -11.340  1.00  0.00    -0.014 A 
ATOM     70  C   UNL     1       4.823  -3.474 -10.751  1.00  0.00     0.009 A 
ATOM     71  C   UNL     1       3.087  -2.480 -12.108  1.00  0.00     0.009 A 
ATOM     72  C   UNL     1       4.247  -4.732 -10.943  1.00  0.00     0.001 A 
ATOM     73  C   UNL     1       2.498  -3.734 -12.276  1.00  0.00     0.001 A 
ATOM     74  C   UNL     1       3.083  -4.861 -11.700  1.00  0.00     0.000 A 
ENDBRANCH  50  69
BRANCH  62  75
ATOM     75  C   UNL     1      10.088   0.564 -13.779  1.00  0.00    -0.014 A 
ATOM     76  C   UNL     1       9.902   0.402 -15.160  1.00  0.00     0.009 A 
ATOM     77  C   UNL     1      11.340   0.264 -13.218  1.00  0.00     0.009 A 
ATOM     78  C   UNL     1      10.942  -0.079 -15.959  1.00  0.00     0.001 A 
ATOM     79  C   UNL     1      12.384  -0.193 -14.023  1.00  0.00     0.001 A 
ATOM     80  C   UNL     1      12.181  -0.372 -15.391  1.00  0.00     0.000 A 
ENDBRANCH  62  75
ENDBRANCH  36  37
ENDBRANCH  29  31
ENDBRANCH  28  29
ENDBRANCH  27  28
ENDBRANCH   1  27
TORSDOF 13
