REMARK SMILES Cc1cc(OC(F)(F)F)cc2c1O[C@H](C(F)(F)F)C(C(=O)OCCOC(=O)c1ccc(-c3c4nc(c(-c5ccccc5)c5ccc([nH]5)c(-c5ccccc5)c5nc(c(-c6ccccc6)c6ccc3[nH]6)C=C5)C=C4)cc1)=C2
REMARK SMILES IDX 23 1 22 2 20 3 21 4 19 5 1 6 2 7 3 8 12 9 4 10 11 11 13 12
REMARK SMILES IDX 10 13 76 14 14 15 5 16 6 17 7 18 8 19 9 20 15 21 16 22 17 23
REMARK SMILES IDX 18 24 24 25 25 26 26 27 27 28 28 29 29 30 75 31 30 32 74 33
REMARK SMILES IDX 31 34 32 35 33 36 68 37 34 38 73 39 67 40 69 41 35 42 72 43
REMARK SMILES IDX 66 44 65 45 36 47 58 48 43 49 57 50 44 51 47 52 56 53 70 54
REMARK SMILES IDX 45 55 46 56 55 58 71 59 48 60 37 61 38 62 42 63 39 64 41 65
REMARK SMILES IDX 40 66 59 67 60 68 64 69 61 70 63 71 62 72 49 73 50 74 54 75
REMARK SMILES IDX 51 76 53 77 52 78
REMARK H PARENT 69 46 47 57
REMARK Flexibility Score: inf
ROOT
ATOM      1  C   UNL     1       4.412  -6.995   2.831  1.00  0.00     0.275 C 
ENDROOT
BRANCH   1   2
ATOM      2  O   UNL     1       3.720  -5.823   2.352  1.00  0.00    -0.459 OA
BRANCH   2   3
ATOM      3  C   UNL     1       3.617  -5.710   1.005  1.00  0.00     0.338 C 
ATOM      4  O   UNL     1       4.053  -6.483   0.172  1.00  0.00    -0.246 OA
BRANCH   3   5
ATOM      5  C   UNL     1       2.820  -4.513   0.664  1.00  0.00     0.087 C 
ATOM      6  C   UNL     1       0.943   0.231   0.162  1.00  0.00     0.048 C 
ATOM      7  C   UNL     1       0.668  -1.107  -0.466  1.00  0.00    -0.005 A 
ATOM      8  C   UNL     1      -0.318  -1.222  -1.465  1.00  0.00     0.054 A 
ATOM      9  C   UNL     1       1.375  -2.248  -0.057  1.00  0.00     0.131 A 
ATOM     10  C   UNL     1      -0.586  -2.453  -2.065  1.00  0.00     0.130 A 
ATOM     11  C   UNL     1       1.135  -3.471  -0.680  1.00  0.00     0.021 A 
ATOM     12  O   UNL     1       2.274  -2.094   0.962  1.00  0.00    -0.475 OA
ATOM     13  C   UNL     1       0.150  -3.572  -1.669  1.00  0.00     0.058 A 
ATOM     14  C   UNL     1       1.919  -4.635  -0.316  1.00  0.00     0.027 C 
ATOM     15  C   UNL     1       3.098  -3.218   1.375  1.00  0.00     0.316 C 
BRANCH  10  16
ATOM     16  O   UNL     1      -1.516  -2.707  -3.030  1.00  0.00    -0.406 OA
BRANCH  16  17
ATOM     17  C   UNL     1      -2.232  -1.610  -3.570  1.00  0.00     0.573 C 
ATOM     18  F   UNL     1      -2.975  -1.000  -2.622  1.00  0.00    -0.132 F 
ATOM     19  F   UNL     1      -1.395  -0.714  -4.134  1.00  0.00    -0.132 F 
ATOM     20  F   UNL     1      -3.067  -2.066  -4.529  1.00  0.00    -0.132 F 
ENDBRANCH  16  17
ENDBRANCH  10  16
BRANCH  15  21
ATOM     21  C   UNL     1       4.572  -2.803   1.231  1.00  0.00     0.430 C 
ATOM     22  F   UNL     1       4.816  -1.628   1.860  1.00  0.00    -0.167 F 
ATOM     23  F   UNL     1       5.410  -3.714   1.778  1.00  0.00    -0.167 F 
ATOM     24  F   UNL     1       4.932  -2.652  -0.065  1.00  0.00    -0.167 F 
ENDBRANCH  15  21
ENDBRANCH   3   5
ENDBRANCH   2   3
ENDBRANCH   1   2
BRANCH   1  25
ATOM     25  C   UNL     1       3.421  -8.024   3.371  1.00  0.00     0.275 C 
BRANCH  25  26
ATOM     26  O   UNL     1       2.589  -8.504   2.300  1.00  0.00    -0.458 OA
BRANCH  26  27
ATOM     27  C   UNL     1       1.280  -8.180   2.384  1.00  0.00     0.338 C 
ATOM     28  O   UNL     1       0.717  -7.582   3.286  1.00  0.00    -0.246 OA
BRANCH  27  29
ATOM     29  C   UNL     1       0.577  -8.625   1.171  1.00  0.00     0.060 A 
ATOM     30  C   UNL     1       0.980  -8.144  -0.073  1.00  0.00     0.016 A 
ATOM     31  C   UNL     1      -0.578  -9.397   1.282  1.00  0.00     0.016 A 
ATOM     32  C   UNL     1       0.164  -8.322  -1.188  1.00  0.00     0.010 A 
ATOM     33  C   UNL     1      -1.337  -9.669   0.140  1.00  0.00     0.010 A 
ATOM     34  C   UNL     1      -1.004  -9.092  -1.098  1.00  0.00    -0.014 A 
BRANCH  34  35
ATOM     35  C   UNL     1      -1.899  -9.256  -2.275  1.00  0.00     0.031 A 
ATOM     36  C   UNL     1      -3.333  -8.795  -2.205  1.00  0.00     0.074 A 
ATOM     37  C   UNL     1      -1.436  -9.799  -3.419  1.00  0.00     0.049 A 
ATOM     38  N   UNL     1      -4.310  -9.010  -3.049  1.00  0.00    -0.248 NA
ATOM     39  C   UNL     1      -3.720  -7.992  -1.032  1.00  0.00     0.031 C 
ATOM     40  C   UNL     1      -0.058 -10.229  -3.662  1.00  0.00     0.029 A 
ATOM     41  N   UNL     1      -2.080 -10.073  -4.602  1.00  0.00    -0.354 N 
ATOM     42  C   UNL     1      -5.434  -8.415  -2.487  1.00  0.00     0.074 A 
ATOM     43  C   UNL     1      -5.021  -7.829  -1.231  1.00  0.00     0.031 C 
ATOM     44  C   UNL     1       0.050 -10.671  -4.924  1.00  0.00     0.029 A 
ATOM     45  C   UNL     1      -1.266 -10.641  -5.551  1.00  0.00     0.049 A 
ATOM     46  H   UNL     1      -3.033  -9.880  -4.754  1.00  0.00     0.167 HD
ATOM     47  C   UNL     1      -6.695  -8.364  -2.974  1.00  0.00     0.031 A 
ATOM     48  C   UNL     1      -1.546 -11.126  -6.776  1.00  0.00     0.031 A 
ATOM     49  C   UNL     1      -7.099  -8.904  -4.243  1.00  0.00     0.049 A 
ATOM     50  C   UNL     1      -2.962 -11.114  -7.270  1.00  0.00     0.074 A 
ATOM     51  C   UNL     1      -8.359  -8.898  -4.817  1.00  0.00     0.029 A 
ATOM     52  N   UNL     1      -6.249  -9.524  -5.143  1.00  0.00    -0.354 N 
ATOM     53  N   UNL     1      -4.030 -10.624  -6.689  1.00  0.00    -0.248 NA
ATOM     54  C   UNL     1      -3.218 -11.743  -8.574  1.00  0.00     0.031 C 
ATOM     55  C   UNL     1      -8.278  -9.545  -6.052  1.00  0.00     0.029 A 
ATOM     56  C   UNL     1      -6.960  -9.917  -6.263  1.00  0.00     0.049 A 
ATOM     57  H   UNL     1      -5.285  -9.665  -5.007  1.00  0.00     0.167 HD
ATOM     58  C   UNL     1      -5.083 -10.883  -7.556  1.00  0.00     0.074 A 
ATOM     59  C   UNL     1      -4.525 -11.558  -8.709  1.00  0.00     0.031 C 
ATOM     60  C   UNL     1      -6.395 -10.589  -7.402  1.00  0.00     0.031 A 
BRANCH  47  61
ATOM     61  C   UNL     1      -7.753  -7.720  -2.127  1.00  0.00    -0.014 A 
ATOM     62  C   UNL     1      -7.879  -6.326  -2.056  1.00  0.00     0.009 A 
ATOM     63  C   UNL     1      -8.699  -8.527  -1.473  1.00  0.00     0.009 A 
ATOM     64  C   UNL     1      -8.929  -5.750  -1.337  1.00  0.00     0.001 A 
ATOM     65  C   UNL     1      -9.758  -7.949  -0.771  1.00  0.00     0.001 A 
ATOM     66  C   UNL     1      -9.871  -6.561  -0.703  1.00  0.00     0.000 A 
ENDBRANCH  47  61
BRANCH  48  67
ATOM     67  C   UNL     1      -0.455 -11.710  -7.596  1.00  0.00    -0.014 A 
ATOM     68  C   UNL     1       0.049 -11.017  -8.705  1.00  0.00     0.009 A 
ATOM     69  C   UNL     1       0.120 -12.943  -7.244  1.00  0.00     0.009 A 
ATOM     70  C   UNL     1       1.109 -11.546  -9.445  1.00  0.00     0.001 A 
ATOM     71  C   UNL     1       1.194 -13.457  -7.971  1.00  0.00     0.001 A 
ATOM     72  C   UNL     1       1.686 -12.759  -9.072  1.00  0.00     0.000 A 
ENDBRANCH  48  67
BRANCH  60  73
ATOM     73  C   UNL     1      -7.332 -10.979  -8.505  1.00  0.00    -0.014 A 
ATOM     74  C   UNL     1      -7.786 -12.300  -8.626  1.00  0.00     0.009 A 
ATOM     75  C   UNL     1      -7.845  -9.995  -9.364  1.00  0.00     0.009 A 
ATOM     76  C   UNL     1      -8.735 -12.630  -9.595  1.00  0.00     0.001 A 
ATOM     77  C   UNL     1      -8.806 -10.325 -10.319  1.00  0.00     0.001 A 
ATOM     78  C   UNL     1      -9.249 -11.642 -10.435  1.00  0.00     0.000 A 
ENDBRANCH  60  73
ENDBRANCH  34  35
ENDBRANCH  27  29
ENDBRANCH  26  27
ENDBRANCH  25  26
ENDBRANCH   1  25
TORSDOF 14
