REMARK SMILES O=C(CC(=O)c1ccccc1)Nc1cccc(C(=O)OCCOC(=O)c2ccc(-c3c4nc(c(-c5ccccc5)c5ccc([nH]5)c(-c5ccccc5)c5nc(c(-c6ccccc6)c6ccc3[nH]6)C=C5)C=C4)cc2)c1
REMARK SMILES IDX 21 1 20 2 18 3 19 4 17 5 13 6 14 7 74 8 15 9 16 10 12 11
REMARK SMILES IDX 1 12 2 13 3 15 4 16 5 17 6 18 7 19 11 20 8 21 10 22 9 23
REMARK SMILES IDX 22 24 23 25 24 26 25 27 26 28 27 29 73 30 28 31 72 32 29 33
REMARK SMILES IDX 30 34 31 35 66 36 32 37 71 38 65 39 67 40 33 41 70 42 64 43
REMARK SMILES IDX 63 44 34 46 56 47 41 48 55 49 42 50 45 51 54 52 68 53 43 54
REMARK SMILES IDX 44 55 53 57 69 58 46 59 35 60 36 61 40 62 37 63 39 64 38 65
REMARK SMILES IDX 57 66 58 67 62 68 59 69 61 70 60 71 47 72 48 73 52 74 49 75
REMARK SMILES IDX 51 76 50 77
REMARK H PARENT 12 14 67 45 45 56
REMARK Flexibility Score: inf
ROOT
ATOM      1  C   UNL     1      -2.069  -2.742   3.869  1.00  0.00     0.275 C 
ENDROOT
BRANCH   1   2
ATOM      2  O   UNL     1      -0.940  -1.936   3.478  1.00  0.00    -0.458 OA
BRANCH   2   3
ATOM      3  C   UNL     1      -0.962  -0.630   3.853  1.00  0.00     0.338 C 
ATOM      4  O   UNL     1      -1.826  -0.072   4.497  1.00  0.00    -0.246 OA
BRANCH   3   5
ATOM      5  C   UNL     1       0.319   0.025   3.473  1.00  0.00     0.062 A 
ATOM      6  C   UNL     1       2.276   0.218   2.063  1.00  0.00     0.042 A 
ATOM      7  C   UNL     1       2.809   1.170   2.941  1.00  0.00     0.026 A 
ATOM      8  C   UNL     1       1.054  -0.390   2.361  1.00  0.00     0.041 A 
ATOM      9  C   UNL     1       2.057   1.620   4.025  1.00  0.00     0.003 A 
ATOM     10  C   UNL     1       0.793   1.083   4.260  1.00  0.00     0.016 A 
BRANCH   6  11
ATOM     11  N   UNL     1       2.968   0.004   0.855  1.00  0.00    -0.326 N 
ATOM     12  O   UNL     1       1.214  -0.792  -0.459  1.00  0.00    -0.274 OA
ATOM     13  C   UNL     1       2.361  -0.369  -0.335  1.00  0.00     0.232 C 
ATOM     14  H   UNL     1       3.945   0.126   0.855  1.00  0.00     0.169 HD
BRANCH  13  15
ATOM     15  C   UNL     1       3.210  -0.145  -1.553  1.00  0.00     0.181 C 
BRANCH  15  16
ATOM     16  C   UNL     1       3.979   1.149  -1.582  1.00  0.00     0.172 C 
ATOM     17  O   UNL     1       5.205   1.161  -1.470  1.00  0.00    -0.294 OA
BRANCH  16  18
ATOM     18  C   UNL     1       3.271   2.446  -1.750  1.00  0.00     0.018 A 
ATOM     19  C   UNL     1       3.802   3.361  -2.667  1.00  0.00     0.012 A 
ATOM     20  C   UNL     1       2.175   2.814  -0.962  1.00  0.00     0.012 A 
ATOM     21  C   UNL     1       3.236   4.630  -2.800  1.00  0.00     0.001 A 
ATOM     22  C   UNL     1       1.626   4.093  -1.084  1.00  0.00     0.001 A 
ATOM     23  C   UNL     1       2.154   4.998  -2.003  1.00  0.00     0.000 A 
ENDBRANCH  16  18
ENDBRANCH  15  16
ENDBRANCH  13  15
ENDBRANCH   6  11
ENDBRANCH   3   5
ENDBRANCH   2   3
ENDBRANCH   1   2
BRANCH   1  24
ATOM     24  C   UNL     1      -1.698  -3.674   5.024  1.00  0.00     0.275 C 
BRANCH  24  25
ATOM     25  O   UNL     1      -1.485  -2.905   6.223  1.00  0.00    -0.458 OA
BRANCH  25  26
ATOM     26  C   UNL     1      -0.227  -2.920   6.715  1.00  0.00     0.338 C 
ATOM     27  O   UNL     1       0.727  -3.568   6.322  1.00  0.00    -0.246 OA
BRANCH  26  28
ATOM     28  C   UNL     1      -0.111  -1.906   7.771  1.00  0.00     0.060 A 
ATOM     29  C   UNL     1       0.209  -0.610   7.378  1.00  0.00     0.016 A 
ATOM     30  C   UNL     1      -0.153  -2.239   9.122  1.00  0.00     0.016 A 
ATOM     31  C   UNL     1       0.547   0.354   8.320  1.00  0.00     0.010 A 
ATOM     32  C   UNL     1       0.143  -1.256  10.078  1.00  0.00     0.010 A 
ATOM     33  C   UNL     1       0.538   0.038   9.684  1.00  0.00    -0.014 A 
BRANCH  33  34
ATOM     34  C   UNL     1       1.067   1.028  10.662  1.00  0.00     0.031 A 
ATOM     35  C   UNL     1       2.344   0.733  11.407  1.00  0.00     0.074 A 
ATOM     36  C   UNL     1       0.470   2.224  10.827  1.00  0.00     0.049 A 
ATOM     37  N   UNL     1       2.944   1.435  12.337  1.00  0.00    -0.248 NA
ATOM     38  C   UNL     1       3.036  -0.520  11.063  1.00  0.00     0.031 C 
ATOM     39  C   UNL     1      -0.731   2.679  10.123  1.00  0.00     0.029 A 
ATOM     40  N   UNL     1       0.812   3.290  11.623  1.00  0.00    -0.354 N 
ATOM     41  C   UNL     1       4.051   0.687  12.721  1.00  0.00     0.074 A 
ATOM     42  C   UNL     1       4.035  -0.526  11.933  1.00  0.00     0.031 C 
ATOM     43  C   UNL     1      -0.998   3.945  10.486  1.00  0.00     0.029 A 
ATOM     44  C   UNL     1      -0.029   4.369  11.493  1.00  0.00     0.049 A 
ATOM     45  H   UNL     1       1.587   3.282  12.231  1.00  0.00     0.167 HD
ATOM     46  C   UNL     1       4.999   0.980  13.643  1.00  0.00     0.031 A 
ATOM     47  C   UNL     1      -0.032   5.559  12.123  1.00  0.00     0.031 A 
ATOM     48  C   UNL     1       5.046   2.200  14.405  1.00  0.00     0.049 A 
ATOM     49  C   UNL     1       1.014   5.851  13.162  1.00  0.00     0.074 A 
ATOM     50  C   UNL     1       5.962   2.580  15.371  1.00  0.00     0.029 A 
ATOM     51  N   UNL     1       4.150   3.247  14.270  1.00  0.00    -0.354 N 
ATOM     52  N   UNL     1       2.021   5.108  13.554  1.00  0.00    -0.248 NA
ATOM     53  C   UNL     1       0.919   7.148  13.848  1.00  0.00     0.031 C 
ATOM     54  C   UNL     1       5.601   3.847  15.844  1.00  0.00     0.029 A 
ATOM     55  C   UNL     1       4.489   4.273  15.136  1.00  0.00     0.049 A 
ATOM     56  H   UNL     1       3.385   3.260  13.651  1.00  0.00     0.167 HD
ATOM     57  C   UNL     1       2.690   5.856  14.515  1.00  0.00     0.074 A 
ATOM     58  C   UNL     1       1.988   7.117  14.632  1.00  0.00     0.031 C 
ATOM     59  C   UNL     1       3.787   5.525  15.239  1.00  0.00     0.031 A 
BRANCH  46  60
ATOM     60  C   UNL     1       6.046  -0.066  13.908  1.00  0.00    -0.014 A 
ATOM     61  C   UNL     1       7.071  -0.330  12.986  1.00  0.00     0.009 A 
ATOM     62  C   UNL     1       6.009  -0.789  15.111  1.00  0.00     0.009 A 
ATOM     63  C   UNL     1       8.016  -1.325  13.249  1.00  0.00     0.001 A 
ATOM     64  C   UNL     1       6.971  -1.763  15.382  1.00  0.00     0.001 A 
ATOM     65  C   UNL     1       7.967  -2.038  14.447  1.00  0.00     0.000 A 
ENDBRANCH  46  60
BRANCH  47  66
ATOM     66  C   UNL     1      -1.077   6.569  11.806  1.00  0.00    -0.014 A 
ATOM     67  C   UNL     1      -0.743   7.759  11.141  1.00  0.00     0.009 A 
ATOM     68  C   UNL     1      -2.411   6.356  12.187  1.00  0.00     0.009 A 
ATOM     69  C   UNL     1      -1.720   8.724  10.886  1.00  0.00     0.001 A 
ATOM     70  C   UNL     1      -3.390   7.309  11.903  1.00  0.00     0.001 A 
ATOM     71  C   UNL     1      -3.043   8.496  11.261  1.00  0.00     0.000 A 
ENDBRANCH  47  66
BRANCH  59  72
ATOM     72  C   UNL     1       4.321   6.564  16.183  1.00  0.00    -0.014 A 
ATOM     73  C   UNL     1       3.657   6.876  17.380  1.00  0.00     0.009 A 
ATOM     74  C   UNL     1       5.518   7.230  15.875  1.00  0.00     0.009 A 
ATOM     75  C   UNL     1       4.160   7.864  18.228  1.00  0.00     0.001 A 
ATOM     76  C   UNL     1       6.032   8.199  16.738  1.00  0.00     0.001 A 
ATOM     77  C   UNL     1       5.347   8.523  17.908  1.00  0.00     0.000 A 
ENDBRANCH  59  72
ENDBRANCH  33  34
ENDBRANCH  26  28
ENDBRANCH  25  26
ENDBRANCH  24  25
ENDBRANCH   1  24
TORSDOF 15
