REMARK SMILES CC1(C)CCC[C@H]1NC(=O)N[C@@H]1COC[C@@]1(C)C(=O)OCCOC(=O)c1ccc(-c2c3nc(c(-c4ccccc4)c4ccc([nH]4)c(-c4ccccc4)c4nc(c(-c5ccccc5)c5ccc2[nH]5)C=C4)C=C3)cc1
REMARK SMILES IDX 21 1 20 2 18 3 19 4 16 5 12 6 13 7 14 8 15 9 17 10 11 11
REMARK SMILES IDX 8 12 9 13 10 15 7 17 1 18 2 19 3 20 4 21 5 22 6 23 22 24
REMARK SMILES IDX 23 25 24 26 25 27 26 28 27 29 73 30 28 31 72 32 29 33 30 34
REMARK SMILES IDX 31 35 66 36 32 37 71 38 65 39 67 40 33 41 70 42 64 43 63 44
REMARK SMILES IDX 34 46 56 47 41 48 55 49 42 50 45 51 54 52 68 53 43 54 44 55
REMARK SMILES IDX 53 57 69 58 46 59 35 60 36 61 40 62 37 63 39 64 38 65 57 66
REMARK SMILES IDX 58 67 62 68 59 69 61 70 60 71 47 72 48 73 52 74 49 75 51 76
REMARK SMILES IDX 50 77
REMARK H PARENT 8 14 11 16 67 45 45 56
REMARK Flexibility Score: inf
ROOT
ATOM      1  C   UNL     1       5.226   3.692  -0.315  1.00  0.00     0.274 C 
ENDROOT
BRANCH   1   2
ATOM      2  O   UNL     1       3.879   3.802   0.197  1.00  0.00    -0.462 OA
BRANCH   2   3
ATOM      3  C   UNL     1       2.878   4.020  -0.707  1.00  0.00     0.316 C 
ATOM      4  O   UNL     1       2.999   4.730  -1.695  1.00  0.00    -0.251 OA
BRANCH   3   5
ATOM      5  C   UNL     1       1.642   3.164  -0.376  1.00  0.00     0.111 C 
ATOM      6  C   UNL     1       0.548   3.914   0.388  1.00  0.00     0.129 C 
ATOM      7  C   UNL     1      -0.637   4.034  -0.568  1.00  0.00     0.186 C 
ATOM      8  O   UNL     1      -0.472   3.024  -1.556  1.00  0.00    -0.378 OA
ATOM      9  C   UNL     1       0.934   2.798  -1.691  1.00  0.00     0.181 C 
ATOM     10  C   UNL     1       2.171   1.929   0.346  1.00  0.00     0.028 C 
BRANCH   6  11
ATOM     11  N   UNL     1       0.161   3.426   1.727  1.00  0.00    -0.332 N 
ATOM     12  N   UNL     1      -0.767   1.218   1.880  1.00  0.00    -0.335 N 
ATOM     13  C   UNL     1      -0.382   2.393   2.366  1.00  0.00     0.315 C 
ATOM     14  H   UNL     1      -1.065   0.624   2.606  1.00  0.00     0.165 HD
ATOM     15  O   UNL     1      -0.529   2.550   3.585  1.00  0.00    -0.249 OA
ATOM     16  H   UNL     1       0.388   4.118   2.389  1.00  0.00     0.165 HD
BRANCH  12  17
ATOM     17  C   UNL     1      -0.879   0.545   0.586  1.00  0.00     0.089 C 
ATOM     18  C   UNL     1       1.011  -1.105   1.495  1.00  0.00     0.013 C 
ATOM     19  C   UNL     1      -0.154  -0.852   0.518  1.00  0.00    -0.015 C 
ATOM     20  C   UNL     1       0.370  -1.098  -0.917  1.00  0.00     0.013 C 
ATOM     21  C   UNL     1      -1.284  -1.836   0.851  1.00  0.00     0.008 C 
ATOM     22  C   UNL     1      -2.501  -1.268   0.150  1.00  0.00     0.003 C 
ATOM     23  C   UNL     1      -2.362   0.246   0.280  1.00  0.00     0.025 C 
ENDBRANCH  12  17
ENDBRANCH   6  11
ENDBRANCH   3   5
ENDBRANCH   2   3
ENDBRANCH   1   2
BRANCH   1  24
ATOM     24  C   UNL     1       5.521   2.228  -0.686  1.00  0.00     0.275 C 
BRANCH  24  25
ATOM     25  O   UNL     1       4.833   1.927  -1.915  1.00  0.00    -0.458 OA
BRANCH  25  26
ATOM     26  C   UNL     1       4.806   0.628  -2.300  1.00  0.00     0.338 C 
ATOM     27  O   UNL     1       5.318  -0.315  -1.715  1.00  0.00    -0.246 OA
BRANCH  26  28
ATOM     28  C   UNL     1       4.045   0.516  -3.571  1.00  0.00     0.060 A 
ATOM     29  C   UNL     1       3.076   1.465  -3.897  1.00  0.00     0.016 A 
ATOM     30  C   UNL     1       4.276  -0.540  -4.451  1.00  0.00     0.016 A 
ATOM     31  C   UNL     1       2.297   1.339  -5.045  1.00  0.00     0.010 A 
ATOM     32  C   UNL     1       3.587  -0.591  -5.674  1.00  0.00     0.010 A 
ATOM     33  C   UNL     1       2.589   0.352  -5.990  1.00  0.00    -0.014 A 
BRANCH  33  34
ATOM     34  C   UNL     1       1.905   0.331  -7.317  1.00  0.00     0.031 A 
ATOM     35  C   UNL     1       1.246  -0.928  -7.813  1.00  0.00     0.074 A 
ATOM     36  C   UNL     1       1.911   1.422  -8.115  1.00  0.00     0.049 A 
ATOM     37  N   UNL     1       0.878  -1.247  -9.028  1.00  0.00    -0.248 NA
ATOM     38  C   UNL     1       0.985  -1.973  -6.811  1.00  0.00     0.031 C 
ATOM     39  C   UNL     1       2.448   2.740  -7.765  1.00  0.00     0.029 A 
ATOM     40  N   UNL     1       1.455   1.590  -9.402  1.00  0.00    -0.354 N 
ATOM     41  C   UNL     1       0.412  -2.554  -8.951  1.00  0.00     0.074 A 
ATOM     42  C   UNL     1       0.531  -2.964  -7.567  1.00  0.00     0.031 C 
ATOM     43  C   UNL     1       2.264   3.582  -8.791  1.00  0.00     0.029 A 
ATOM     44  C   UNL     1       1.705   2.842  -9.914  1.00  0.00     0.049 A 
ATOM     45  H   UNL     1       0.994   0.883  -9.908  1.00  0.00     0.167 HD
ATOM     46  C   UNL     1      -0.057  -3.344  -9.947  1.00  0.00     0.031 A 
ATOM     47  C   UNL     1       1.571   3.334 -11.160  1.00  0.00     0.031 A 
ATOM     48  C   UNL     1      -0.218  -2.918 -11.313  1.00  0.00     0.049 A 
ATOM     49  C   UNL     1       1.099   2.429 -12.259  1.00  0.00     0.074 A 
ATOM     50  C   UNL     1      -0.691  -3.644 -12.393  1.00  0.00     0.029 A 
ATOM     51  N   UNL     1       0.071  -1.647 -11.782  1.00  0.00    -0.354 N 
ATOM     52  N   UNL     1       0.741   1.171 -12.192  1.00  0.00    -0.248 NA
ATOM     53  C   UNL     1       1.037   3.005 -13.610  1.00  0.00     0.031 C 
ATOM     54  C   UNL     1      -0.654  -2.821 -13.524  1.00  0.00     0.029 A 
ATOM     55  C   UNL     1      -0.203  -1.570 -13.136  1.00  0.00     0.049 A 
ATOM     56  H   UNL     1       0.420  -0.907 -11.233  1.00  0.00     0.167 HD
ATOM     57  C   UNL     1       0.395   0.808 -13.486  1.00  0.00     0.074 A 
ATOM     58  C   UNL     1       0.574   1.982 -14.316  1.00  0.00     0.031 C 
ATOM     59  C   UNL     1      -0.030  -0.393 -13.946  1.00  0.00     0.031 A 
BRANCH  46  60
ATOM     60  C   UNL     1      -0.379  -4.773  -9.609  1.00  0.00    -0.014 A 
ATOM     61  C   UNL     1      -1.519  -5.118  -8.869  1.00  0.00     0.009 A 
ATOM     62  C   UNL     1       0.462  -5.795 -10.079  1.00  0.00     0.009 A 
ATOM     63  C   UNL     1      -1.791  -6.458  -8.578  1.00  0.00     0.001 A 
ATOM     64  C   UNL     1       0.173  -7.134  -9.809  1.00  0.00     0.001 A 
ATOM     65  C   UNL     1      -0.949  -7.464  -9.051  1.00  0.00     0.000 A 
ENDBRANCH  46  60
BRANCH  47  66
ATOM     66  C   UNL     1       1.966   4.739 -11.449  1.00  0.00    -0.014 A 
ATOM     67  C   UNL     1       0.996   5.706 -11.750  1.00  0.00     0.009 A 
ATOM     68  C   UNL     1       3.317   5.123 -11.410  1.00  0.00     0.009 A 
ATOM     69  C   UNL     1       1.372   7.025 -12.018  1.00  0.00     0.001 A 
ATOM     70  C   UNL     1       3.687   6.448 -11.647  1.00  0.00     0.001 A 
ATOM     71  C   UNL     1       2.715   7.396 -11.958  1.00  0.00     0.000 A 
ENDBRANCH  47  66
BRANCH  59  72
ATOM     72  C   UNL     1      -0.379  -0.486 -15.402  1.00  0.00    -0.014 A 
ATOM     73  C   UNL     1       0.618  -0.560 -16.386  1.00  0.00     0.009 A 
ATOM     74  C   UNL     1      -1.727  -0.548 -15.786  1.00  0.00     0.009 A 
ATOM     75  C   UNL     1       0.268  -0.674 -17.733  1.00  0.00     0.001 A 
ATOM     76  C   UNL     1      -2.073  -0.685 -17.130  1.00  0.00     0.001 A 
ATOM     77  C   UNL     1      -1.076  -0.742 -18.103  1.00  0.00     0.000 A 
ENDBRANCH  59  72
ENDBRANCH  33  34
ENDBRANCH  26  28
ENDBRANCH  25  26
ENDBRANCH  24  25
ENDBRANCH   1  24
TORSDOF 13
