REMARK SMILES C/C(=N\NC(N)=S)c1nnn(-c2ccc(C(=O)OCCOC(=O)c3ccc(-c4c5nc(c(-c6ccccc6)c6ccc([nH]6)c(-c6ccccc6)c6nc(c(-c7ccccc7)c7ccc4[nH]7)C=C6)C=C5)cc3)cc2)c1C
REMARK SMILES IDX 18 1 16 2 17 3 15 4 12 5 13 6 73 7 14 8 72 9 11 10 8 11 9 12
REMARK SMILES IDX 74 13 10 14 75 15 2 16 1 17 3 18 4 19 5 21 7 22 6 23 19 26
REMARK SMILES IDX 20 27 21 28 22 29 23 30 24 31 25 32 71 33 26 34 70 35 27 36
REMARK SMILES IDX 28 37 29 38 64 39 30 40 69 41 63 42 65 43 31 44 68 45 62 46
REMARK SMILES IDX 61 47 32 49 54 50 39 51 53 52 40 53 43 54 52 55 66 56 41 57
REMARK SMILES IDX 42 58 51 60 67 61 44 62 33 63 34 64 38 65 35 66 37 67 36 68
REMARK SMILES IDX 55 69 56 70 60 71 57 72 59 73 58 74 45 75 46 76 50 77 47 78
REMARK SMILES IDX 49 79 48 80
REMARK H PARENT 4 20 6 24 6 25 65 48 43 59
REMARK Flexibility Score: inf
ROOT
ATOM      1  O   UNL     1       8.118  -2.486  -5.932  1.00  0.00    -0.458 OA
ENDROOT
BRANCH   1   2
ATOM      2  C   UNL     1       7.146  -1.645  -6.382  1.00  0.00     0.338 C 
ATOM      3  O   UNL     1       7.269  -0.780  -7.218  1.00  0.00    -0.246 OA
BRANCH   2   4
ATOM      4  C   UNL     1       5.853  -1.985  -5.729  1.00  0.00     0.060 A 
ATOM      5  C   UNL     1       3.448  -2.316  -4.392  1.00  0.00     0.067 A 
ATOM      6  C   UNL     1       3.445  -1.671  -5.631  1.00  0.00     0.029 A 
ATOM      7  C   UNL     1       4.606  -2.918  -3.890  1.00  0.00     0.029 A 
ATOM      8  C   UNL     1       4.664  -1.485  -6.288  1.00  0.00     0.018 A 
ATOM      9  C   UNL     1       5.809  -2.758  -4.564  1.00  0.00     0.018 A 
BRANCH   5  10
ATOM     10  N   UNL     1       2.337  -2.178  -3.538  1.00  0.00    -0.217 N 
ATOM     11  C   UNL     1       1.026  -1.608  -1.902  1.00  0.00     0.132 A 
ATOM     12  N   UNL     1       0.261  -2.077  -2.938  1.00  0.00    -0.128 NA
ATOM     13  C   UNL     1       2.355  -1.620  -2.271  1.00  0.00     0.071 A 
ATOM     14  N   UNL     1       1.065  -2.340  -3.960  1.00  0.00    -0.061 NA
ATOM     15  C   UNL     1       3.548  -1.019  -1.626  1.00  0.00     0.069 C 
BRANCH  11  16
ATOM     16  C   UNL     1       0.453  -0.990  -0.722  1.00  0.00     0.087 C 
ATOM     17  C   UNL     1       0.346   0.513  -0.744  1.00  0.00     0.071 C 
ATOM     18  N   UNL     1       0.082  -1.809   0.218  1.00  0.00    -0.176 NA
BRANCH  18  19
ATOM     19  N   UNL     1      -0.512  -1.352   1.358  1.00  0.00    -0.254 N 
ATOM     20  H   UNL     1      -1.459  -1.589   1.479  1.00  0.00     0.193 HD
BRANCH  19  21
ATOM     21  C   UNL     1       0.059  -0.596   2.363  1.00  0.00     0.184 C 
ATOM     22  S   UNL     1       1.575   0.084   2.446  1.00  0.00    -0.040 S 
BRANCH  21  23
ATOM     23  N   UNL     1      -0.797  -0.408   3.415  1.00  0.00    -0.375 N 
ATOM     24  H   UNL     1      -1.700  -0.800   3.390  1.00  0.00     0.159 HD
ATOM     25  H   UNL     1      -0.509   0.118   4.196  1.00  0.00     0.159 HD
ENDBRANCH  21  23
ENDBRANCH  19  21
ENDBRANCH  18  19
ENDBRANCH  11  16
ENDBRANCH   5  10
ENDBRANCH   2   4
ENDBRANCH   1   2
BRANCH   1  26
ATOM     26  C   UNL     1       9.354  -2.459  -6.659  1.00  0.00     0.275 C 
BRANCH  26  27
ATOM     27  C   UNL     1       9.323  -3.446  -7.817  1.00  0.00     0.275 C 
BRANCH  27  28
ATOM     28  O   UNL     1       8.462  -3.010  -8.869  1.00  0.00    -0.458 OA
BRANCH  28  29
ATOM     29  C   UNL     1       7.207  -3.510  -8.823  1.00  0.00     0.338 C 
ATOM     30  O   UNL     1       6.644  -4.026  -7.872  1.00  0.00    -0.246 OA
BRANCH  29  31
ATOM     31  C   UNL     1       6.662  -3.563 -10.181  1.00  0.00     0.060 A 
ATOM     32  C   UNL     1       5.291  -3.796 -10.329  1.00  0.00     0.016 A 
ATOM     33  C   UNL     1       7.547  -3.648 -11.264  1.00  0.00     0.016 A 
ATOM     34  C   UNL     1       4.825  -4.233 -11.553  1.00  0.00     0.010 A 
ATOM     35  C   UNL     1       7.083  -4.099 -12.478  1.00  0.00     0.010 A 
ATOM     36  C   UNL     1       5.737  -4.438 -12.597  1.00  0.00    -0.014 A 
BRANCH  36  37
ATOM     37  C   UNL     1       5.225  -4.877 -13.880  1.00  0.00     0.031 A 
ATOM     38  C   UNL     1       4.423  -3.842 -14.577  1.00  0.00     0.074 A 
ATOM     39  C   UNL     1       5.572  -6.044 -14.453  1.00  0.00     0.049 A 
ATOM     40  N   UNL     1       3.183  -3.907 -14.927  1.00  0.00    -0.248 NA
ATOM     41  C   UNL     1       5.045  -2.524 -14.792  1.00  0.00     0.031 C 
ATOM     42  C   UNL     1       6.587  -7.002 -14.007  1.00  0.00     0.029 A 
ATOM     43  N   UNL     1       5.166  -6.558 -15.646  1.00  0.00    -0.354 N 
ATOM     44  C   UNL     1       2.908  -2.704 -15.566  1.00  0.00     0.074 A 
ATOM     45  C   UNL     1       4.031  -1.838 -15.317  1.00  0.00     0.031 C 
ATOM     46  C   UNL     1       6.883  -7.840 -15.028  1.00  0.00     0.029 A 
ATOM     47  C   UNL     1       5.992  -7.557 -16.142  1.00  0.00     0.049 A 
ATOM     48  H   UNL     1       4.358  -6.248 -16.115  1.00  0.00     0.167 HD
ATOM     49  C   UNL     1       1.888  -2.596 -16.460  1.00  0.00     0.031 A 
ATOM     50  C   UNL     1       5.988  -8.056 -17.404  1.00  0.00     0.031 A 
ATOM     51  C   UNL     1       0.937  -3.667 -16.315  1.00  0.00     0.049 A 
ATOM     52  C   UNL     1       4.699  -7.686 -18.034  1.00  0.00     0.074 A 
ATOM     53  C   UNL     1       0.133  -4.118 -15.287  1.00  0.00     0.029 A 
ATOM     54  N   UNL     1       0.999  -4.693 -17.227  1.00  0.00    -0.354 N 
ATOM     55  N   UNL     1       3.554  -8.198 -17.689  1.00  0.00    -0.248 NA
ATOM     56  C   UNL     1       4.626  -6.427 -18.760  1.00  0.00     0.031 C 
ATOM     57  C   UNL     1       0.148  -5.538 -15.405  1.00  0.00     0.029 A 
ATOM     58  C   UNL     1       0.902  -5.869 -16.532  1.00  0.00     0.049 A 
ATOM     59  H   UNL     1       1.095  -4.600 -18.202  1.00  0.00     0.167 HD
ATOM     60  C   UNL     1       2.665  -7.135 -17.742  1.00  0.00     0.074 A 
ATOM     61  C   UNL     1       3.354  -6.102 -18.512  1.00  0.00     0.031 C 
ATOM     62  C   UNL     1       1.578  -7.087 -16.916  1.00  0.00     0.031 A 
BRANCH  49  63
ATOM     63  C   UNL     1       2.004  -1.792 -17.733  1.00  0.00    -0.014 A 
ATOM     64  C   UNL     1       0.914  -1.788 -18.622  1.00  0.00     0.009 A 
ATOM     65  C   UNL     1       3.226  -1.299 -18.231  1.00  0.00     0.009 A 
ATOM     66  C   UNL     1       1.069  -1.411 -19.962  1.00  0.00     0.001 A 
ATOM     67  C   UNL     1       3.373  -0.880 -19.555  1.00  0.00     0.001 A 
ATOM     68  C   UNL     1       2.302  -0.970 -20.430  1.00  0.00     0.000 A 
ENDBRANCH  49  63
BRANCH  50  69
ATOM     69  C   UNL     1       7.109  -8.599 -18.200  1.00  0.00    -0.014 A 
ATOM     70  C   UNL     1       6.863  -9.345 -19.364  1.00  0.00     0.009 A 
ATOM     71  C   UNL     1       8.424  -8.155 -17.974  1.00  0.00     0.009 A 
ATOM     72  C   UNL     1       7.885  -9.598 -20.289  1.00  0.00     0.001 A 
ATOM     73  C   UNL     1       9.447  -8.412 -18.894  1.00  0.00     0.001 A 
ATOM     74  C   UNL     1       9.173  -9.119 -20.060  1.00  0.00     0.000 A 
ENDBRANCH  50  69
BRANCH  62  75
ATOM     75  C   UNL     1       1.212  -8.330 -16.145  1.00  0.00    -0.014 A 
ATOM     76  C   UNL     1       2.084  -8.969 -15.246  1.00  0.00     0.009 A 
ATOM     77  C   UNL     1      -0.112  -8.787 -16.224  1.00  0.00     0.009 A 
ATOM     78  C   UNL     1       1.651 -10.055 -14.478  1.00  0.00     0.001 A 
ATOM     79  C   UNL     1      -0.552  -9.854 -15.440  1.00  0.00     0.001 A 
ATOM     80  C   UNL     1       0.331 -10.493 -14.573  1.00  0.00     0.000 A 
ENDBRANCH  62  75
ENDBRANCH  36  37
ENDBRANCH  29  31
ENDBRANCH  28  29
ENDBRANCH  27  28
ENDBRANCH  26  27
ENDBRANCH   1  26
TORSDOF 16
