REMARK SMILES CC(C)c1ccc(NC(=O)c2nccnc2C(=O)OCCOC(=O)c2ccc(-c3c4nc(c(-c5ccccc5)c5ccc([nH]5)c(-c5ccccc5)c5nc(c(-c6ccccc6)c6ccc3[nH]6)C=C5)C=C4)cc2)cc1
REMARK SMILES IDX 20 1 19 2 17 3 18 4 16 5 11 6 12 7 13 8 15 9 14 10 9 11 8 12
REMARK SMILES IDX 10 14 7 15 4 16 5 17 74 18 6 19 73 20 2 21 1 22 3 23 21 24
REMARK SMILES IDX 22 25 23 26 24 27 25 28 26 29 72 30 27 31 71 32 28 33 29 34
REMARK SMILES IDX 30 35 65 36 31 37 70 38 64 39 66 40 32 41 69 42 63 43 62 44
REMARK SMILES IDX 33 46 55 47 40 48 54 49 41 50 44 51 53 52 67 53 42 54 43 55
REMARK SMILES IDX 52 57 68 58 45 59 34 60 35 61 39 62 36 63 38 64 37 65 56 66
REMARK SMILES IDX 57 67 61 68 58 69 60 70 59 71 46 72 47 73 51 74 48 75 50 76
REMARK SMILES IDX 49 77
REMARK H PARENT 8 13 66 45 44 56
REMARK Flexibility Score: inf
ROOT
ATOM      1  C   UNL     1      -8.432   1.372   1.483  1.00  0.00     0.275 C 
ENDROOT
BRANCH   1   2
ATOM      2  O   UNL     1      -7.327   1.580   0.583  1.00  0.00    -0.457 OA
BRANCH   2   3
ATOM      3  C   UNL     1      -7.323   2.747  -0.107  1.00  0.00     0.359 C 
ATOM      4  O   UNL     1      -8.132   3.651   0.034  1.00  0.00    -0.244 OA
BRANCH   3   5
ATOM      5  C   UNL     1      -6.132   2.872  -0.994  1.00  0.00     0.179 A 
ATOM      6  C   UNL     1      -5.506   1.822  -1.647  1.00  0.00     0.161 A 
ATOM      7  N   UNL     1      -4.457   2.031  -2.510  1.00  0.00    -0.247 NA
ATOM      8  C   UNL     1      -4.019   3.302  -2.630  1.00  0.00     0.132 A 
ATOM      9  N   UNL     1      -5.677   4.163  -1.141  1.00  0.00    -0.245 NA
ATOM     10  C   UNL     1      -4.612   4.346  -1.952  1.00  0.00     0.132 A 
BRANCH   6  11
ATOM     11  C   UNL     1      -5.958   0.417  -1.532  1.00  0.00     0.276 C 
ATOM     12  N   UNL     1      -5.069  -0.626  -1.342  1.00  0.00    -0.321 N 
ATOM     13  H   UNL     1      -5.485  -1.518  -1.388  1.00  0.00     0.170 HD
ATOM     14  O   UNL     1      -7.152   0.165  -1.715  1.00  0.00    -0.267 OA
BRANCH  12  15
ATOM     15  C   UNL     1      -3.682  -0.656  -1.095  1.00  0.00     0.041 A 
ATOM     16  C   UNL     1      -0.840  -0.802  -0.977  1.00  0.00    -0.045 A 
ATOM     17  C   UNL     1      -1.535   0.350  -0.577  1.00  0.00     0.006 A 
ATOM     18  C   UNL     1      -1.610  -1.913  -1.347  1.00  0.00     0.006 A 
ATOM     19  C   UNL     1      -2.935   0.409  -0.602  1.00  0.00     0.026 A 
ATOM     20  C   UNL     1      -3.010  -1.842  -1.399  1.00  0.00     0.026 A 
BRANCH  16  21
ATOM     21  C   UNL     1       0.682  -0.773  -1.085  1.00  0.00     0.013 C 
ATOM     22  C   UNL     1       1.361  -0.199   0.167  1.00  0.00     0.012 C 
ATOM     23  C   UNL     1       1.337  -2.120  -1.421  1.00  0.00     0.012 C 
ENDBRANCH  16  21
ENDBRANCH  12  15
ENDBRANCH   6  11
ENDBRANCH   3   5
ENDBRANCH   2   3
ENDBRANCH   1   2
BRANCH   1  24
ATOM     24  C   UNL     1      -7.965   1.381   2.940  1.00  0.00     0.275 C 
BRANCH  24  25
ATOM     25  O   UNL     1      -7.498   2.683   3.342  1.00  0.00    -0.458 OA
BRANCH  25  26
ATOM     26  C   UNL     1      -6.198   2.928   3.061  1.00  0.00     0.338 C 
ATOM     27  O   UNL     1      -5.387   2.160   2.562  1.00  0.00    -0.246 OA
BRANCH  26  28
ATOM     28  C   UNL     1      -5.880   4.339   3.322  1.00  0.00     0.060 A 
ATOM     29  C   UNL     1      -5.265   5.055   2.293  1.00  0.00     0.016 A 
ATOM     30  C   UNL     1      -6.086   4.929   4.572  1.00  0.00     0.016 A 
ATOM     31  C   UNL     1      -4.825   6.355   2.511  1.00  0.00     0.010 A 
ATOM     32  C   UNL     1      -5.645   6.239   4.791  1.00  0.00     0.010 A 
ATOM     33  C   UNL     1      -4.991   6.950   3.768  1.00  0.00    -0.014 A 
BRANCH  33  34
ATOM     34  C   UNL     1      -4.394   8.283   4.017  1.00  0.00     0.031 A 
ATOM     35  C   UNL     1      -3.129   8.393   4.819  1.00  0.00     0.074 A 
ATOM     36  C   UNL     1      -4.939   9.381   3.464  1.00  0.00     0.049 A 
ATOM     37  N   UNL     1      -2.453   9.463   5.156  1.00  0.00    -0.248 NA
ATOM     38  C   UNL     1      -2.543   7.132   5.303  1.00  0.00     0.031 C 
ATOM     39  C   UNL     1      -6.126   9.398   2.610  1.00  0.00     0.029 A 
ATOM     40  N   UNL     1      -4.549  10.695   3.525  1.00  0.00    -0.354 N 
ATOM     41  C   UNL     1      -1.376   9.007   5.906  1.00  0.00     0.074 A 
ATOM     42  C   UNL     1      -1.495   7.567   5.988  1.00  0.00     0.031 C 
ATOM     43  C   UNL     1      -6.355  10.659   2.207  1.00  0.00     0.029 A 
ATOM     44  C   UNL     1      -5.359  11.540   2.809  1.00  0.00     0.049 A 
ATOM     45  H   UNL     1      -3.764  11.002   4.034  1.00  0.00     0.167 HD
ATOM     46  C   UNL     1      -0.377   9.723   6.474  1.00  0.00     0.031 A 
ATOM     47  C   UNL     1      -5.312  12.878   2.666  1.00  0.00     0.031 A 
ATOM     48  C   UNL     1      -0.254  11.154   6.394  1.00  0.00     0.049 A 
ATOM     49  C   UNL     1      -4.231  13.657   3.362  1.00  0.00     0.074 A 
ATOM     50  C   UNL     1       0.717  11.970   6.948  1.00  0.00     0.029 A 
ATOM     51  N   UNL     1      -1.131  11.981   5.711  1.00  0.00    -0.354 N 
ATOM     52  N   UNL     1      -3.234  13.216   4.091  1.00  0.00    -0.248 NA
ATOM     53  C   UNL     1      -4.274  15.119   3.218  1.00  0.00     0.031 C 
ATOM     54  C   UNL     1       0.406  13.297   6.629  1.00  0.00     0.029 A 
ATOM     55  C   UNL     1      -0.733  13.301   5.841  1.00  0.00     0.049 A 
ATOM     56  H   UNL     1      -1.920  11.676   5.207  1.00  0.00     0.167 HD
ATOM     57  C   UNL     1      -2.522  14.344   4.478  1.00  0.00     0.074 A 
ATOM     58  C   UNL     1      -3.192  15.486   3.891  1.00  0.00     0.031 C 
ATOM     59  C   UNL     1      -1.412  14.425   5.251  1.00  0.00     0.031 A 
BRANCH  46  60
ATOM     60  C   UNL     1       0.640   8.960   7.272  1.00  0.00    -0.014 A 
ATOM     61  C   UNL     1       1.625   8.180   6.645  1.00  0.00     0.009 A 
ATOM     62  C   UNL     1       0.618   9.031   8.674  1.00  0.00     0.009 A 
ATOM     63  C   UNL     1       2.545   7.459   7.409  1.00  0.00     0.001 A 
ATOM     64  C   UNL     1       1.553   8.327   9.434  1.00  0.00     0.001 A 
ATOM     65  C   UNL     1       2.510   7.535   8.801  1.00  0.00     0.000 A 
ENDBRANCH  46  60
BRANCH  47  66
ATOM     66  C   UNL     1      -6.333  13.571   1.842  1.00  0.00    -0.014 A 
ATOM     67  C   UNL     1      -5.990  14.130   0.602  1.00  0.00     0.009 A 
ATOM     68  C   UNL     1      -7.658  13.678   2.294  1.00  0.00     0.009 A 
ATOM     69  C   UNL     1      -6.951  14.795  -0.163  1.00  0.00     0.001 A 
ATOM     70  C   UNL     1      -8.621  14.323   1.516  1.00  0.00     0.001 A 
ATOM     71  C   UNL     1      -8.266  14.886   0.292  1.00  0.00     0.000 A 
ENDBRANCH  47  66
BRANCH  59  72
ATOM     72  C   UNL     1      -0.838  15.793   5.480  1.00  0.00    -0.014 A 
ATOM     73  C   UNL     1      -1.443  16.694   6.369  1.00  0.00     0.009 A 
ATOM     74  C   UNL     1       0.342  16.171   4.820  1.00  0.00     0.009 A 
ATOM     75  C   UNL     1      -0.891  17.960   6.571  1.00  0.00     0.001 A 
ATOM     76  C   UNL     1       0.902  17.429   5.041  1.00  0.00     0.001 A 
ATOM     77  C   UNL     1       0.282  18.326   5.910  1.00  0.00     0.000 A 
ENDBRANCH  59  72
ENDBRANCH  33  34
ENDBRANCH  26  28
ENDBRANCH  25  26
ENDBRANCH  24  25
ENDBRANCH   1  24
TORSDOF 14
