REMARK SMILES Cc1ccc(Nc2c(Cl)cc(Cl)cc2Cl)c(CC(=O)OCCOC(=O)c2ccc(-c3c4nc(c(-c5ccccc5)c5ccc([nH]5)c(-c5ccccc5)c5nc(c(-c6ccccc6)c6ccc3[nH]6)C=C5)C=C4)cc2)c1
REMARK SMILES IDX 21 1 20 2 18 3 19 4 17 5 16 6 1 7 2 8 3 9 74 10 4 11 5 12
REMARK SMILES IDX 6 13 7 15 8 16 14 17 9 18 10 19 13 20 15 21 11 22 12 23
REMARK SMILES IDX 22 24 23 25 24 26 25 27 26 28 27 29 73 30 28 31 72 32 29 33
REMARK SMILES IDX 30 34 31 35 66 36 32 37 71 38 65 39 67 40 33 41 70 42 64 43
REMARK SMILES IDX 63 44 34 46 56 47 41 48 55 49 42 50 45 51 54 52 68 53 43 54
REMARK SMILES IDX 44 55 53 57 69 58 46 59 35 60 36 61 40 62 37 63 39 64 38 65
REMARK SMILES IDX 57 66 58 67 62 68 59 69 61 70 60 71 47 72 48 73 52 74 49 75
REMARK SMILES IDX 51 76 50 77
REMARK H PARENT 6 14 67 45 45 56
REMARK Flexibility Score: inf
ROOT
ATOM      1  C   UNL     1      -2.159   0.902  -3.646  1.00  0.00     0.274 C 
ENDROOT
BRANCH   1   2
ATOM      2  O   UNL     1      -1.909   0.823  -2.251  1.00  0.00    -0.462 OA
BRANCH   2   3
ATOM      3  C   UNL     1      -1.057   1.734  -1.701  1.00  0.00     0.310 C 
ATOM      4  O   UNL     1      -0.420   2.566  -2.301  1.00  0.00    -0.252 OA
BRANCH   3   5
ATOM      5  C   UNL     1      -1.038   1.522  -0.198  1.00  0.00     0.160 C 
BRANCH   5   6
ATOM      6  C   UNL     1      -0.402   0.190   0.089  1.00  0.00    -0.013 A 
ATOM      7  C   UNL     1       3.227  -0.931   0.142  1.00  0.00     0.044 C 
ATOM      8  C   UNL     1       1.731  -0.974   0.172  1.00  0.00    -0.051 A 
ATOM      9  C   UNL     1       1.042  -2.186   0.122  1.00  0.00     0.005 A 
ATOM     10  C   UNL     1       1.002   0.207   0.180  1.00  0.00     0.009 A 
ATOM     11  C   UNL     1      -0.356  -2.213   0.079  1.00  0.00     0.026 A 
ATOM     12  C   UNL     1      -1.109  -1.035   0.051  1.00  0.00     0.042 A 
BRANCH  12  13
ATOM     13  N   UNL     1      -2.510  -1.096  -0.096  1.00  0.00    -0.353 N 
ATOM     14  H   UNL     1      -2.936  -0.262  -0.399  1.00  0.00     0.167 HD
BRANCH  13  15
ATOM     15  C   UNL     1      -3.396  -2.182   0.128  1.00  0.00     0.076 A 
ATOM     16  C   UNL     1      -3.742  -2.586   1.431  1.00  0.00     0.067 A 
ATOM     17  C   UNL     1      -4.124  -2.758  -0.934  1.00  0.00     0.067 A 
ATOM     18  Cl  UNL     1      -2.938  -1.943   2.823  1.00  0.00    -0.082 Cl
ATOM     19  C   UNL     1      -4.751  -3.530   1.655  1.00  0.00     0.043 A 
ATOM     20  C   UNL     1      -5.188  -3.637  -0.711  1.00  0.00     0.043 A 
ATOM     21  Cl  UNL     1      -3.641  -2.560  -2.575  1.00  0.00    -0.082 Cl
ATOM     22  C   UNL     1      -5.485  -4.028   0.585  1.00  0.00     0.044 A 
ATOM     23  Cl  UNL     1      -6.746  -5.164   0.861  1.00  0.00    -0.084 Cl
ENDBRANCH  13  15
ENDBRANCH  12  13
ENDBRANCH   5   6
ENDBRANCH   3   5
ENDBRANCH   2   3
ENDBRANCH   1   2
BRANCH   1  24
ATOM     24  C   UNL     1      -3.600   0.446  -3.926  1.00  0.00     0.275 C 
BRANCH  24  25
ATOM     25  O   UNL     1      -4.537   0.338  -2.782  1.00  0.00    -0.458 OA
BRANCH  25  26
ATOM     26  C   UNL     1      -4.715   1.143  -1.695  1.00  0.00     0.338 C 
ATOM     27  O   UNL     1      -5.116   0.724  -0.617  1.00  0.00    -0.246 OA
BRANCH  26  28
ATOM     28  C   UNL     1      -4.318   2.548  -1.839  1.00  0.00     0.060 A 
ATOM     29  C   UNL     1      -3.819   3.313  -0.769  1.00  0.00     0.016 A 
ATOM     30  C   UNL     1      -4.293   3.035  -3.126  1.00  0.00     0.016 A 
ATOM     31  C   UNL     1      -3.174   4.517  -1.047  1.00  0.00     0.010 A 
ATOM     32  C   UNL     1      -3.385   3.999  -3.420  1.00  0.00     0.010 A 
ATOM     33  C   UNL     1      -2.944   4.826  -2.389  1.00  0.00    -0.014 A 
BRANCH  33  34
ATOM     34  C   UNL     1      -2.586   6.133  -2.906  1.00  0.00     0.031 A 
ATOM     35  C   UNL     1      -1.231   6.662  -2.737  1.00  0.00     0.074 A 
ATOM     36  C   UNL     1      -3.587   6.705  -3.626  1.00  0.00     0.049 A 
ATOM     37  N   UNL     1      -0.964   7.875  -2.402  1.00  0.00    -0.248 NA
ATOM     38  C   UNL     1      -0.034   5.836  -2.915  1.00  0.00     0.031 C 
ATOM     39  C   UNL     1      -3.615   7.900  -4.440  1.00  0.00     0.029 A 
ATOM     40  N   UNL     1      -4.929   6.277  -3.668  1.00  0.00    -0.354 N 
ATOM     41  C   UNL     1       0.361   8.066  -2.737  1.00  0.00     0.074 A 
ATOM     42  C   UNL     1       0.942   6.750  -2.837  1.00  0.00     0.031 C 
ATOM     43  C   UNL     1      -4.904   8.296  -4.554  1.00  0.00     0.029 A 
ATOM     44  C   UNL     1      -5.723   7.407  -3.731  1.00  0.00     0.049 A 
ATOM     45  H   UNL     1      -5.243   5.344  -3.655  1.00  0.00     0.167 HD
ATOM     46  C   UNL     1       0.766   9.276  -3.217  1.00  0.00     0.031 A 
ATOM     47  C   UNL     1      -6.487   7.734  -2.644  1.00  0.00     0.031 A 
ATOM     48  C   UNL     1      -0.384  10.159  -3.394  1.00  0.00     0.049 A 
ATOM     49  C   UNL     1      -5.937   8.993  -2.012  1.00  0.00     0.074 A 
ATOM     50  C   UNL     1      -1.136  10.467  -4.517  1.00  0.00     0.029 A 
ATOM     51  N   UNL     1      -1.156  10.513  -2.295  1.00  0.00    -0.354 N 
ATOM     52  N   UNL     1      -4.692   9.371  -2.124  1.00  0.00    -0.248 NA
ATOM     53  C   UNL     1      -6.745   9.941  -1.253  1.00  0.00     0.031 C 
ATOM     54  C   UNL     1      -2.404  10.933  -4.080  1.00  0.00     0.029 A 
ATOM     55  C   UNL     1      -2.419  10.911  -2.696  1.00  0.00     0.049 A 
ATOM     56  H   UNL     1      -0.848  10.484  -1.360  1.00  0.00     0.167 HD
ATOM     57  C   UNL     1      -4.549  10.624  -1.599  1.00  0.00     0.074 A 
ATOM     58  C   UNL     1      -5.853  10.922  -1.027  1.00  0.00     0.031 C 
ATOM     59  C   UNL     1      -3.394  11.342  -1.706  1.00  0.00     0.031 A 
BRANCH  46  60
ATOM     60  C   UNL     1       2.102   9.500  -3.881  1.00  0.00    -0.014 A 
ATOM     61  C   UNL     1       2.208  10.400  -4.959  1.00  0.00     0.009 A 
ATOM     62  C   UNL     1       3.292   8.870  -3.477  1.00  0.00     0.009 A 
ATOM     63  C   UNL     1       3.413  10.616  -5.637  1.00  0.00     0.001 A 
ATOM     64  C   UNL     1       4.501   9.066  -4.166  1.00  0.00     0.001 A 
ATOM     65  C   UNL     1       4.560   9.937  -5.249  1.00  0.00     0.000 A 
ENDBRANCH  46  60
BRANCH  47  66
ATOM     66  C   UNL     1      -7.065   6.561  -1.895  1.00  0.00    -0.014 A 
ATOM     67  C   UNL     1      -7.926   5.684  -2.596  1.00  0.00     0.009 A 
ATOM     68  C   UNL     1      -6.561   6.117  -0.662  1.00  0.00     0.009 A 
ATOM     69  C   UNL     1      -8.186   4.383  -2.141  1.00  0.00     0.001 A 
ATOM     70  C   UNL     1      -6.846   4.819  -0.195  1.00  0.00     0.001 A 
ATOM     71  C   UNL     1      -7.626   3.942  -0.949  1.00  0.00     0.000 A 
ENDBRANCH  47  66
BRANCH  59  72
ATOM     72  C   UNL     1      -3.078  12.598  -0.943  1.00  0.00    -0.014 A 
ATOM     73  C   UNL     1      -3.664  12.927   0.282  1.00  0.00     0.009 A 
ATOM     74  C   UNL     1      -2.011  13.414  -1.386  1.00  0.00     0.009 A 
ATOM     75  C   UNL     1      -3.239  14.047   1.005  1.00  0.00     0.001 A 
ATOM     76  C   UNL     1      -1.542  14.490  -0.638  1.00  0.00     0.001 A 
ATOM     77  C   UNL     1      -2.171  14.817   0.553  1.00  0.00     0.000 A 
ENDBRANCH  59  72
ENDBRANCH  33  34
ENDBRANCH  26  28
ENDBRANCH  25  26
ENDBRANCH  24  25
ENDBRANCH   1  24
TORSDOF 14
