REMARK SMILES CCCCCCNC(=O)Oc1cccc(-c2ccc([C@@H](C)C(=O)OCCOC(=O)c3ccc(-c4c5nc(c(-c6ccccc6)c6ccc([nH]6)c(-c6ccccc6)c6nc(c(-c7ccccc7)c7ccc4[nH]7)C=C6)C=C5)cc3)cc2)c1
REMARK SMILES IDX 20 1 21 2 19 3 16 4 17 5 79 6 18 7 78 8 15 9 11 10 12 11
REMARK SMILES IDX 80 12 13 13 14 14 10 15 8 16 7 17 9 19 6 20 5 21 4 22 3 23
REMARK SMILES IDX 2 24 1 25 22 26 23 27 24 28 25 29 26 30 27 31 28 32 29 33
REMARK SMILES IDX 30 34 31 35 77 36 32 37 76 38 33 39 34 40 35 41 70 42 36 43
REMARK SMILES IDX 75 44 69 45 71 46 37 47 74 48 68 49 67 50 38 52 60 53 45 54
REMARK SMILES IDX 59 55 46 56 49 57 58 58 72 59 47 60 48 61 57 63 73 64 50 65
REMARK SMILES IDX 39 66 40 67 44 68 41 69 43 70 42 71 61 72 62 73 66 74 63 75
REMARK SMILES IDX 65 76 64 77 51 78 52 79 56 80 53 81 55 82 54 83
REMARK H PARENT 7 18 71 51 49 62
REMARK Flexibility Score: inf
ROOT
ATOM      1  C   UNL     1      -5.401  -2.604  13.637  1.00  0.00     0.126 C 
ATOM      2  C   UNL     1      -6.756  -2.940  14.257  1.00  0.00     0.025 C 
ENDROOT
BRANCH   1   3
ATOM      3  C   UNL     1      -5.315  -3.005  12.173  1.00  0.00    -0.034 A 
ATOM      4  C   UNL     1      -5.239  -3.690   9.412  1.00  0.00    -0.018 A 
ATOM      5  C   UNL     1      -5.496  -4.657  10.396  1.00  0.00     0.009 A 
ATOM      6  C   UNL     1      -4.988  -2.378   9.839  1.00  0.00     0.009 A 
ATOM      7  C   UNL     1      -5.540  -4.322  11.753  1.00  0.00     0.005 A 
ATOM      8  C   UNL     1      -5.026  -2.040  11.197  1.00  0.00     0.005 A 
BRANCH   4   9
ATOM      9  C   UNL     1      -5.284  -4.034   7.979  1.00  0.00    -0.015 A 
ATOM     10  C   UNL     1      -4.362  -3.971   5.735  1.00  0.00     0.133 A 
ATOM     11  C   UNL     1      -5.466  -4.655   5.230  1.00  0.00     0.047 A 
ATOM     12  C   UNL     1      -4.266  -3.649   7.091  1.00  0.00     0.056 A 
ATOM     13  C   UNL     1      -6.479  -5.047   6.097  1.00  0.00     0.004 A 
ATOM     14  C   UNL     1      -6.388  -4.737   7.456  1.00  0.00     0.009 A 
BRANCH  10  15
ATOM     15  O   UNL     1      -3.424  -3.515   4.795  1.00  0.00    -0.410 OA
BRANCH  15  16
ATOM     16  C   UNL     1      -2.098  -3.881   4.963  1.00  0.00     0.412 C 
ATOM     17  N   UNL     1      -1.286  -3.422   3.961  1.00  0.00    -0.321 N 
ATOM     18  H   UNL     1      -0.327  -3.630   4.041  1.00  0.00     0.167 HD
ATOM     19  O   UNL     1      -1.643  -4.555   5.879  1.00  0.00    -0.224 OA
BRANCH  17  20
ATOM     20  C   UNL     1      -1.689  -2.663   2.794  1.00  0.00     0.119 C 
BRANCH  20  21
ATOM     21  C   UNL     1      -1.083  -1.260   2.781  1.00  0.00     0.021 C 
BRANCH  21  22
ATOM     22  C   UNL     1       0.447  -1.219   2.676  1.00  0.00     0.002 C 
BRANCH  22  23
ATOM     23  C   UNL     1       1.047  -1.901   1.441  1.00  0.00    -0.000 C 
BRANCH  23  24
ATOM     24  C   UNL     1       0.565  -1.364   0.091  1.00  0.00    -0.003 C 
ATOM     25  C   UNL     1       0.929   0.093  -0.144  1.00  0.00     0.004 C 
ENDBRANCH  23  24
ENDBRANCH  22  23
ENDBRANCH  21  22
ENDBRANCH  20  21
ENDBRANCH  17  20
ENDBRANCH  15  16
ENDBRANCH  10  15
ENDBRANCH   4   9
ENDBRANCH   1   3
BRANCH   1  26
ATOM     26  C   UNL     1      -4.279  -3.107  14.537  1.00  0.00     0.313 C 
ATOM     27  O   UNL     1      -3.923  -2.491  15.538  1.00  0.00    -0.252 OA
BRANCH  26  28
ATOM     28  O   UNL     1      -3.758  -4.299  14.148  1.00  0.00    -0.462 OA
BRANCH  28  29
ATOM     29  C   UNL     1      -2.654  -4.811  14.918  1.00  0.00     0.274 C 
BRANCH  29  30
ATOM     30  C   UNL     1      -1.320  -4.531  14.225  1.00  0.00     0.275 C 
BRANCH  30  31
ATOM     31  O   UNL     1      -1.014  -3.124  14.246  1.00  0.00    -0.458 OA
BRANCH  31  32
ATOM     32  C   UNL     1      -1.294  -2.457  13.104  1.00  0.00     0.338 C 
ATOM     33  O   UNL     1      -1.716  -2.910  12.056  1.00  0.00    -0.246 OA
BRANCH  32  34
ATOM     34  C   UNL     1      -1.113  -1.017  13.329  1.00  0.00     0.060 A 
ATOM     35  C   UNL     1      -2.252  -0.214  13.410  1.00  0.00     0.016 A 
ATOM     36  C   UNL     1       0.162  -0.453  13.369  1.00  0.00     0.016 A 
ATOM     37  C   UNL     1      -2.125   1.167  13.520  1.00  0.00     0.010 A 
ATOM     38  C   UNL     1       0.289   0.934  13.491  1.00  0.00     0.010 A 
ATOM     39  C   UNL     1      -0.853   1.752  13.553  1.00  0.00    -0.014 A 
BRANCH  39  40
ATOM     40  C   UNL     1      -0.725   3.226  13.611  1.00  0.00     0.031 A 
ATOM     41  C   UNL     1      -0.303   3.989  12.389  1.00  0.00     0.074 A 
ATOM     42  C   UNL     1      -1.009   3.878  14.753  1.00  0.00     0.049 A 
ATOM     43  N   UNL     1      -0.068   5.270  12.257  1.00  0.00    -0.248 NA
ATOM     44  C   UNL     1      -0.122   3.210  11.154  1.00  0.00     0.031 C 
ATOM     45  C   UNL     1      -1.478   3.254  15.990  1.00  0.00     0.029 A 
ATOM     46  N   UNL     1      -0.944   5.215  15.054  1.00  0.00    -0.354 N 
ATOM     47  C   UNL     1       0.309   5.448  10.932  1.00  0.00     0.074 A 
ATOM     48  C   UNL     1       0.283   4.144  10.305  1.00  0.00     0.031 C 
ATOM     49  C   UNL     1      -1.664   4.208  16.917  1.00  0.00     0.029 A 
ATOM     50  C   UNL     1      -1.284   5.500  16.353  1.00  0.00     0.049 A 
ATOM     51  H   UNL     1      -0.680   5.903  14.401  1.00  0.00     0.167 HD
ATOM     52  C   UNL     1       0.646   6.595  10.297  1.00  0.00     0.031 A 
ATOM     53  C   UNL     1      -1.265   6.668  17.022  1.00  0.00     0.031 A 
ATOM     54  C   UNL     1       0.671   7.892  10.920  1.00  0.00     0.049 A 
ATOM     55  C   UNL     1      -0.819   7.915  16.312  1.00  0.00     0.074 A 
ATOM     56  C   UNL     1       0.990   9.115  10.356  1.00  0.00     0.029 A 
ATOM     57  N   UNL     1       0.365   8.132  12.250  1.00  0.00    -0.354 N 
ATOM     58  N   UNL     1      -0.459   8.069  15.062  1.00  0.00    -0.248 NA
ATOM     59  C   UNL     1      -0.770   9.148  17.111  1.00  0.00     0.031 C 
ATOM     60  C   UNL     1       0.920  10.090  11.357  1.00  0.00     0.029 A 
ATOM     61  C   UNL     1       0.512   9.479  12.532  1.00  0.00     0.049 A 
ATOM     62  H   UNL     1       0.085   7.446  12.899  1.00  0.00     0.167 HD
ATOM     63  C   UNL     1      -0.155   9.416  14.919  1.00  0.00     0.074 A 
ATOM     64  C   UNL     1      -0.389  10.039  16.206  1.00  0.00     0.031 C 
ATOM     65  C   UNL     1       0.282  10.079  13.820  1.00  0.00     0.031 A 
BRANCH  52  66
ATOM     66  C   UNL     1       1.055   6.489   8.856  1.00  0.00    -0.014 A 
ATOM     67  C   UNL     1       0.109   6.270   7.843  1.00  0.00     0.009 A 
ATOM     68  C   UNL     1       2.406   6.639   8.506  1.00  0.00     0.009 A 
ATOM     69  C   UNL     1       0.514   6.173   6.510  1.00  0.00     0.001 A 
ATOM     70  C   UNL     1       2.804   6.564   7.171  1.00  0.00     0.001 A 
ATOM     71  C   UNL     1       1.859   6.323   6.175  1.00  0.00     0.000 A 
ENDBRANCH  52  66
BRANCH  53  72
ATOM     72  C   UNL     1      -1.648   6.707  18.456  1.00  0.00    -0.014 A 
ATOM     73  C   UNL     1      -2.848   7.311  18.858  1.00  0.00     0.009 A 
ATOM     74  C   UNL     1      -0.810   6.140  19.430  1.00  0.00     0.009 A 
ATOM     75  C   UNL     1      -3.192   7.362  20.211  1.00  0.00     0.001 A 
ATOM     76  C   UNL     1      -1.169   6.171  20.778  1.00  0.00     0.001 A 
ATOM     77  C   UNL     1      -2.356   6.788  21.168  1.00  0.00     0.000 A 
ENDBRANCH  53  72
BRANCH  65  78
ATOM     78  C   UNL     1       0.513  11.555  13.961  1.00  0.00    -0.014 A 
ATOM     79  C   UNL     1       1.641  12.050  14.634  1.00  0.00     0.009 A 
ATOM     80  C   UNL     1      -0.391  12.461  13.384  1.00  0.00     0.009 A 
ATOM     81  C   UNL     1       1.844  13.426  14.750  1.00  0.00     0.001 A 
ATOM     82  C   UNL     1      -0.172  13.835  13.482  1.00  0.00     0.001 A 
ATOM     83  C   UNL     1       0.940  14.317  14.171  1.00  0.00     0.000 A 
ENDBRANCH  65  78
ENDBRANCH  39  40
ENDBRANCH  32  34
ENDBRANCH  31  32
ENDBRANCH  30  31
ENDBRANCH  29  30
ENDBRANCH  28  29
ENDBRANCH  26  28
ENDBRANCH   1  26
TORSDOF 20
