REMARK SMILES COc1ccc(/C=C2/SC(=S)N(NC(=O)c3ccc(C(C)(C)C)cc3)C2=O)c(C(=O)OCCOC(=O)c2ccc(-c3c4nc(c(-c5ccccc5)c5ccc([nH]5)c(-c5ccccc5)c5nc(c(-c6ccccc6)c6ccc3[nH]6)C=C5)C=C4)cc2)c1OC
REMARK SMILES IDX 32 1 31 2 29 3 30 4 28 5 3 6 4 7 85 8 5 9 6 10 2 11 1 12
REMARK SMILES IDX 86 13 87 14 7 15 8 16 9 17 26 18 10 19 12 20 27 21 11 22
REMARK SMILES IDX 13 23 14 24 15 26 16 27 17 28 25 29 18 30 24 31 19 32 20 33
REMARK SMILES IDX 21 34 22 35 23 36 33 37 34 38 35 39 36 40 37 41 38 42 84 43
REMARK SMILES IDX 39 44 83 45 40 46 41 47 42 48 77 49 43 50 82 51 76 52 78 53
REMARK SMILES IDX 44 54 81 55 75 56 74 57 45 59 67 60 52 61 66 62 53 63 56 64
REMARK SMILES IDX 65 65 79 66 54 67 55 68 64 70 80 71 57 72 46 73 47 74 51 75
REMARK SMILES IDX 48 76 50 77 49 78 68 79 69 80 73 81 70 82 72 83 71 84 58 85
REMARK SMILES IDX 59 86 63 87 60 88 62 89 61 90
REMARK H PARENT 13 25 78 58 56 69
REMARK Flexibility Score: inf
ROOT
ATOM      1  C   UNL     1       6.326  -3.530   0.534  1.00  0.00     0.275 C 
ENDROOT
BRANCH   1   2
ATOM      2  O   UNL     1       4.964  -3.158   0.890  1.00  0.00    -0.458 OA
BRANCH   2   3
ATOM      3  C   UNL     1       4.025  -4.148   0.971  1.00  0.00     0.342 C 
ATOM      4  O   UNL     1       4.206  -5.335   0.741  1.00  0.00    -0.246 OA
BRANCH   3   5
ATOM      5  C   UNL     1       2.707  -3.623   1.403  1.00  0.00     0.113 A 
ATOM      6  C   UNL     1       0.665  -2.669   0.464  1.00  0.00     0.161 A 
ATOM      7  C   UNL     1      -0.038  -3.183   1.556  1.00  0.00     0.051 A 
ATOM      8  C   UNL     1       2.049  -2.855   0.396  1.00  0.00     0.175 A 
ATOM      9  C   UNL     1       0.619  -3.876   2.598  1.00  0.00     0.013 A 
ATOM     10  C   UNL     1       2.003  -4.133   2.560  1.00  0.00    -0.006 A 
BRANCH   6  11
ATOM     11  O   UNL     1      -0.077  -2.244  -0.611  1.00  0.00    -0.493 OA
ATOM     12  C   UNL     1      -0.038  -0.844  -0.865  1.00  0.00     0.278 C 
ENDBRANCH   6  11
BRANCH   8  13
ATOM     13  O   UNL     1       2.694  -2.509  -0.773  1.00  0.00    -0.492 OA
ATOM     14  C   UNL     1       3.364  -1.247  -0.690  1.00  0.00     0.278 C 
ENDBRANCH   8  13
BRANCH  10  15
ATOM     15  C   UNL     1       2.493  -5.245   3.500  1.00  0.00     0.030 C 
ATOM     16  C   UNL     1       3.221  -5.344   4.722  1.00  0.00     0.082 C 
ATOM     17  S   UNL     1       4.597  -6.988   5.994  1.00  0.00    -0.052 SA
ATOM     18  C   UNL     1       3.529  -3.600   5.534  1.00  0.00     0.285 C 
ATOM     19  C   UNL     1       5.337  -5.295   7.376  1.00  0.00     0.168 C 
ATOM     20  N   UNL     1       4.607  -3.749   6.906  1.00  0.00    -0.198 N 
ATOM     21  O   UNL     1       3.149  -2.620   4.920  1.00  0.00    -0.266 OA
ATOM     22  S   UNL     1       6.536  -5.603   8.501  1.00  0.00    -0.050 S 
BRANCH  20  23
ATOM     23  N   UNL     1       5.257  -2.607   7.458  1.00  0.00    -0.255 N 
ATOM     24  C   UNL     1       5.238  -1.290   7.035  1.00  0.00     0.270 C 
ATOM     25  H   UNL     1       5.800  -2.781   8.261  1.00  0.00     0.192 HD
ATOM     26  O   UNL     1       6.244  -0.607   7.245  1.00  0.00    -0.267 OA
BRANCH  24  27
ATOM     27  C   UNL     1       4.093  -0.638   6.363  1.00  0.00     0.041 A 
ATOM     28  C   UNL     1       4.365   0.094   5.203  1.00  0.00     0.014 A 
ATOM     29  C   UNL     1       2.768  -0.785   6.787  1.00  0.00     0.014 A 
ATOM     30  C   UNL     1       3.317   0.535   4.388  1.00  0.00     0.005 A 
ATOM     31  C   UNL     1       1.716  -0.364   5.944  1.00  0.00     0.005 A 
ATOM     32  C   UNL     1       1.973   0.233   4.691  1.00  0.00    -0.043 A 
BRANCH  32  33
ATOM     33  C   UNL     1       0.881   0.408   3.614  1.00  0.00    -0.013 C 
ATOM     34  C   UNL     1       0.343   1.844   3.579  1.00  0.00     0.016 C 
ATOM     35  C   UNL     1       1.468   0.116   2.221  1.00  0.00     0.016 C 
ATOM     36  C   UNL     1      -0.321  -0.549   3.797  1.00  0.00     0.016 C 
ENDBRANCH  32  33
ENDBRANCH  24  27
ENDBRANCH  20  23
ENDBRANCH  10  15
ENDBRANCH   3   5
ENDBRANCH   2   3
ENDBRANCH   1   2
BRANCH   1  37
ATOM     37  C   UNL     1       7.232  -3.946   1.714  1.00  0.00     0.275 C 
BRANCH  37  38
ATOM     38  O   UNL     1       6.816  -5.211   2.274  1.00  0.00    -0.458 OA
BRANCH  38  39
ATOM     39  C   UNL     1       5.745  -4.968   3.035  1.00  0.00     0.338 C 
ATOM     40  O   UNL     1       5.311  -3.833   3.250  1.00  0.00    -0.246 OA
BRANCH  39  41
ATOM     41  C   UNL     1       5.168  -5.984   3.895  1.00  0.00     0.060 A 
ATOM     42  C   UNL     1       4.001  -7.214   3.592  1.00  0.00     0.016 A 
ATOM     43  C   UNL     1       4.952  -5.072   5.358  1.00  0.00     0.016 A 
ATOM     44  C   UNL     1       2.604  -7.521   4.671  1.00  0.00     0.010 A 
ATOM     45  C   UNL     1       3.379  -5.426   6.584  1.00  0.00     0.010 A 
ATOM     46  C   UNL     1       2.242  -6.711   6.204  1.00  0.00    -0.014 A 
BRANCH  46  47
ATOM     47  C   UNL     1       1.400  -7.386   7.342  1.00  0.00     0.031 A 
ATOM     48  C   UNL     1       1.090  -6.799   8.750  1.00  0.00     0.074 A 
ATOM     49  C   UNL     1       1.046  -8.689   7.217  1.00  0.00     0.049 A 
ATOM     50  N   UNL     1       0.607  -7.419   9.817  1.00  0.00    -0.248 NA
ATOM     51  C   UNL     1       1.465  -5.416   9.063  1.00  0.00     0.031 C 
ATOM     52  C   UNL     1       1.508  -9.594   6.179  1.00  0.00     0.029 A 
ATOM     53  N   UNL     1       0.187  -9.495   7.934  1.00  0.00    -0.354 N 
ATOM     54  C   UNL     1       0.767  -6.552  10.906  1.00  0.00     0.074 A 
ATOM     55  C   UNL     1       1.479  -5.407  10.391  1.00  0.00     0.031 C 
ATOM     56  C   UNL     1       0.717 -10.660   6.100  1.00  0.00     0.029 A 
ATOM     57  C   UNL     1      -0.111 -10.679   7.288  1.00  0.00     0.049 A 
ATOM     58  H   UNL     1      -0.176  -9.252   8.816  1.00  0.00     0.167 HD
ATOM     59  C   UNL     1       0.310  -6.638  12.189  1.00  0.00     0.031 A 
ATOM     60  C   UNL     1      -0.885 -11.730   7.611  1.00  0.00     0.031 A 
ATOM     61  C   UNL     1      -0.540  -7.705  12.671  1.00  0.00     0.049 A 
ATOM     62  C   UNL     1      -1.520 -11.751   8.957  1.00  0.00     0.074 A 
ATOM     63  C   UNL     1      -1.185  -7.818  13.894  1.00  0.00     0.029 A 
ATOM     64  N   UNL     1      -0.890  -8.829  11.938  1.00  0.00    -0.354 N 
ATOM     65  N   UNL     1      -1.398 -10.882   9.929  1.00  0.00    -0.248 NA
ATOM     66  C   UNL     1      -2.370 -12.904   9.265  1.00  0.00     0.031 C 
ATOM     67  C   UNL     1      -1.879  -9.033  13.918  1.00  0.00     0.029 A 
ATOM     68  C   UNL     1      -1.734  -9.640  12.682  1.00  0.00     0.049 A 
ATOM     69  H   UNL     1      -0.583  -9.023  11.023  1.00  0.00     0.167 HD
ATOM     70  C   UNL     1      -2.160 -11.380  10.970  1.00  0.00     0.074 A 
ATOM     71  C   UNL     1      -2.769 -12.608  10.493  1.00  0.00     0.031 C 
ATOM     72  C   UNL     1      -2.329 -10.865  12.211  1.00  0.00     0.031 A 
BRANCH  59  73
ATOM     73  C   UNL     1       0.669  -5.528  13.173  1.00  0.00    -0.014 A 
ATOM     74  C   UNL     1       0.277  -4.193  12.970  1.00  0.00     0.009 A 
ATOM     75  C   UNL     1       1.373  -5.827  14.355  1.00  0.00     0.009 A 
ATOM     76  C   UNL     1       0.660  -3.181  13.860  1.00  0.00     0.001 A 
ATOM     77  C   UNL     1       1.710  -4.823  15.273  1.00  0.00     0.001 A 
ATOM     78  C   UNL     1       1.376  -3.497  15.012  1.00  0.00     0.000 A 
ENDBRANCH  59  73
BRANCH  60  79
ATOM     79  C   UNL     1      -1.059 -12.843   6.634  1.00  0.00    -0.014 A 
ATOM     80  C   UNL     1      -2.285 -13.018   5.974  1.00  0.00     0.009 A 
ATOM     81  C   UNL     1       0.025 -13.659   6.267  1.00  0.00     0.009 A 
ATOM     82  C   UNL     1      -2.416 -13.974   4.963  1.00  0.00     0.001 A 
ATOM     83  C   UNL     1      -0.092 -14.573   5.218  1.00  0.00     0.001 A 
ATOM     84  C   UNL     1      -1.314 -14.734   4.571  1.00  0.00     0.000 A 
ENDBRANCH  60  79
BRANCH  72  85
ATOM     85  C   UNL     1      -3.271 -11.605  13.116  1.00  0.00    -0.014 A 
ATOM     86  C   UNL     1      -2.960 -12.876  13.624  1.00  0.00     0.009 A 
ATOM     87  C   UNL     1      -4.505 -11.022  13.440  1.00  0.00     0.009 A 
ATOM     88  C   UNL     1      -3.895 -13.573  14.390  1.00  0.00     0.001 A 
ATOM     89  C   UNL     1      -5.420 -11.705  14.240  1.00  0.00     0.001 A 
ATOM     90  C   UNL     1      -5.122 -12.986  14.699  1.00  0.00     0.000 A 
ENDBRANCH  72  85
ENDBRANCH  46  47
ENDBRANCH  39  41
ENDBRANCH  38  39
ENDBRANCH  37  38
ENDBRANCH   1  37
TORSDOF 17
