REMARK SMILES Cc1cccc(CC(=O)NC2(CC(=O)OCCOC(=O)c3ccc(-c4c5nc(c(-c6ccccc6)c6ccc([nH]6)c(-c6ccccc6)c6nc(c(-c7ccccc7)c7ccc4[nH]7)C=C6)C=C5)cc3)CCC2)c1
REMARK SMILES IDX 16 1 15 2 13 3 14 4 12 5 11 6 69 7 71 8 70 9 10 10 8 11 9 12
REMARK SMILES IDX 7 14 6 15 1 16 2 17 3 18 72 19 4 20 5 21 17 22 18 23 19 24
REMARK SMILES IDX 20 25 21 26 22 27 68 28 23 29 67 30 24 31 25 32 26 33 61 34
REMARK SMILES IDX 27 35 66 36 60 37 62 38 28 39 65 40 59 41 58 42 29 44 51 45
REMARK SMILES IDX 36 46 50 47 37 48 40 49 49 50 63 51 38 52 39 53 48 55 64 56
REMARK SMILES IDX 41 57 30 58 31 59 35 60 32 61 34 62 33 63 52 64 53 65 57 66
REMARK SMILES IDX 54 67 56 68 55 69 42 70 43 71 47 72 44 73 46 74 45 75
REMARK H PARENT 10 13 62 43 40 54
REMARK Flexibility Score: inf
ROOT
ATOM      1  C   UNL     1      -2.588  -1.621  -3.576  1.00  0.00     0.274 C 
ENDROOT
BRANCH   1   2
ATOM      2  O   UNL     1      -1.411  -0.784  -3.585  1.00  0.00    -0.462 OA
BRANCH   2   3
ATOM      3  C   UNL     1      -1.359   0.151  -2.617  1.00  0.00     0.308 C 
ATOM      4  O   UNL     1      -2.172   0.163  -1.709  1.00  0.00    -0.252 OA
BRANCH   3   5
ATOM      5  C   UNL     1      -0.323   1.212  -2.889  1.00  0.00     0.151 C 
BRANCH   5   6
ATOM      6  C   UNL     1      -0.266   2.371  -1.873  1.00  0.00     0.050 C 
ATOM      7  C   UNL     1       0.483   3.671  -2.351  1.00  0.00     0.029 C 
ATOM      8  C   UNL     1       0.913   2.193  -0.906  1.00  0.00     0.029 C 
ATOM      9  C   UNL     1       1.783   3.087  -1.792  1.00  0.00     0.005 C 
BRANCH   6  10
ATOM     10  N   UNL     1      -1.630   2.749  -1.417  1.00  0.00    -0.350 N 
ATOM     11  C   UNL     1      -2.343   2.590  -0.257  1.00  0.00     0.224 C 
ATOM     12  O   UNL     1      -3.552   2.852  -0.315  1.00  0.00    -0.275 OA
ATOM     13  H   UNL     1      -2.140   3.227  -2.111  1.00  0.00     0.164 HD
BRANCH  11  14
ATOM     14  C   UNL     1      -1.726   2.229   1.085  1.00  0.00     0.135 C 
BRANCH  14  15
ATOM     15  C   UNL     1      -1.158   0.835   1.222  1.00  0.00    -0.038 A 
ATOM     16  C   UNL     1       2.366  -0.504   1.202  1.00  0.00     0.044 C 
ATOM     17  C   UNL     1       0.866  -0.503   1.248  1.00  0.00    -0.051 A 
ATOM     18  C   UNL     1       0.134  -1.614   0.827  1.00  0.00     0.003 A 
ATOM     19  C   UNL     1       0.188   0.678   1.567  1.00  0.00     0.007 A 
ATOM     20  C   UNL     1      -1.253  -1.528   0.709  1.00  0.00     0.001 A 
ATOM     21  C   UNL     1      -1.899  -0.304   0.906  1.00  0.00     0.004 A 
ENDBRANCH  14  15
ENDBRANCH  11  14
ENDBRANCH   6  10
ENDBRANCH   5   6
ENDBRANCH   3   5
ENDBRANCH   2   3
ENDBRANCH   1   2
BRANCH   1  22
ATOM     22  C   UNL     1      -3.998  -0.969  -3.336  1.00  0.00     0.275 C 
BRANCH  22  23
ATOM     23  O   UNL     1      -4.540   0.184  -4.076  1.00  0.00    -0.458 OA
BRANCH  23  24
ATOM     24  C   UNL     1      -3.927   1.384  -4.270  1.00  0.00     0.338 C 
ATOM     25  O   UNL     1      -4.211   2.432  -3.715  1.00  0.00    -0.246 OA
BRANCH  24  26
ATOM     26  C   UNL     1      -2.943   1.333  -5.365  1.00  0.00     0.060 A 
ATOM     27  C   UNL     1      -2.038   2.372  -5.655  1.00  0.00     0.016 A 
ATOM     28  C   UNL     1      -2.783   0.093  -5.931  1.00  0.00     0.016 A 
ATOM     29  C   UNL     1      -0.884   2.078  -6.393  1.00  0.00     0.010 A 
ATOM     30  C   UNL     1      -1.518  -0.261  -6.267  1.00  0.00     0.010 A 
ATOM     31  C   UNL     1      -0.613   0.734  -6.637  1.00  0.00    -0.014 A 
BRANCH  31  32
ATOM     32  C   UNL     1       0.344   0.162  -7.564  1.00  0.00     0.031 A 
ATOM     33  C   UNL     1       1.733  -0.108  -7.213  1.00  0.00     0.074 A 
ATOM     34  C   UNL     1      -0.296  -0.412  -8.613  1.00  0.00     0.049 A 
ATOM     35  N   UNL     1       2.680  -0.113  -8.083  1.00  0.00    -0.248 NA
ATOM     36  C   UNL     1       2.189  -0.418  -5.857  1.00  0.00     0.031 C 
ATOM     37  C   UNL     1       0.072  -1.450  -9.551  1.00  0.00     0.029 A 
ATOM     38  N   UNL     1      -1.593  -0.101  -9.006  1.00  0.00    -0.354 N 
ATOM     39  C   UNL     1       3.717  -0.805  -7.502  1.00  0.00     0.074 A 
ATOM     40  C   UNL     1       3.458  -0.791  -6.081  1.00  0.00     0.031 C 
ATOM     41  C   UNL     1      -0.847  -1.463 -10.547  1.00  0.00     0.029 A 
ATOM     42  C   UNL     1      -1.771  -0.344 -10.347  1.00  0.00     0.049 A 
ATOM     43  H   UNL     1      -2.290   0.248  -8.405  1.00  0.00     0.167 HD
ATOM     44  C   UNL     1       4.535  -1.565  -8.283  1.00  0.00     0.031 A 
ATOM     45  C   UNL     1      -1.912   0.801 -11.085  1.00  0.00     0.031 A 
ATOM     46  C   UNL     1       4.028  -1.640  -9.657  1.00  0.00     0.049 A 
ATOM     47  C   UNL     1      -0.606   1.129 -11.786  1.00  0.00     0.074 A 
ATOM     48  C   UNL     1       3.371  -2.627 -10.375  1.00  0.00     0.029 A 
ATOM     49  N   UNL     1       3.821  -0.467 -10.362  1.00  0.00    -0.354 N 
ATOM     50  N   UNL     1       0.492   0.439 -11.636  1.00  0.00    -0.248 NA
ATOM     51  C   UNL     1      -0.410   2.281 -12.659  1.00  0.00     0.031 C 
ATOM     52  C   UNL     1       2.763  -2.019 -11.516  1.00  0.00     0.029 A 
ATOM     53  C   UNL     1       3.060  -0.668 -11.496  1.00  0.00     0.049 A 
ATOM     54  H   UNL     1       4.175   0.409 -10.086  1.00  0.00     0.167 HD
ATOM     55  C   UNL     1       1.509   1.005 -12.333  1.00  0.00     0.074 A 
ATOM     56  C   UNL     1       0.898   2.170 -12.956  1.00  0.00     0.031 C 
ATOM     57  C   UNL     1       2.770   0.485 -12.336  1.00  0.00     0.031 A 
BRANCH  44  58
ATOM     58  C   UNL     1       5.613  -2.468  -7.745  1.00  0.00    -0.014 A 
ATOM     59  C   UNL     1       5.975  -3.626  -8.458  1.00  0.00     0.009 A 
ATOM     60  C   UNL     1       6.353  -2.195  -6.580  1.00  0.00     0.009 A 
ATOM     61  C   UNL     1       6.978  -4.494  -8.011  1.00  0.00     0.001 A 
ATOM     62  C   UNL     1       7.346  -3.073  -6.115  1.00  0.00     0.001 A 
ATOM     63  C   UNL     1       7.656  -4.225  -6.831  1.00  0.00     0.000 A 
ENDBRANCH  44  58
BRANCH  45  64
ATOM     64  C   UNL     1      -2.814   1.815 -10.390  1.00  0.00    -0.014 A 
ATOM     65  C   UNL     1      -4.130   1.413 -10.043  1.00  0.00     0.009 A 
ATOM     66  C   UNL     1      -2.314   2.966  -9.757  1.00  0.00     0.009 A 
ATOM     67  C   UNL     1      -4.863   2.063  -9.038  1.00  0.00     0.001 A 
ATOM     68  C   UNL     1      -3.067   3.637  -8.773  1.00  0.00     0.001 A 
ATOM     69  C   UNL     1      -4.324   3.168  -8.391  1.00  0.00     0.000 A 
ENDBRANCH  45  64
BRANCH  57  70
ATOM     70  C   UNL     1       3.881   1.064 -13.153  1.00  0.00    -0.014 A 
ATOM     71  C   UNL     1       3.674   1.531 -14.455  1.00  0.00     0.009 A 
ATOM     72  C   UNL     1       5.208   1.036 -12.678  1.00  0.00     0.009 A 
ATOM     73  C   UNL     1       4.734   2.035 -15.211  1.00  0.00     0.001 A 
ATOM     74  C   UNL     1       6.273   1.506 -13.441  1.00  0.00     0.001 A 
ATOM     75  C   UNL     1       6.031   2.026 -14.703  1.00  0.00     0.000 A 
ENDBRANCH  57  70
ENDBRANCH  31  32
ENDBRANCH  24  26
ENDBRANCH  23  24
ENDBRANCH  22  23
ENDBRANCH   1  22
TORSDOF 15
