REMARK SMILES O=C(OCCOC(=O)c1cccn1CC(=O)N1CCc2ccccc2C1)c1ccc(-c2c3nc(c(-c4ccccc4)c4ccc([nH]4)c(-c4ccccc4)c4nc(c(-c5ccccc5)c5ccc2[nH]5)C=C4)C=C3)cc1
REMARK SMILES IDX 5 1 4 2 3 3 2 4 1 5 27 6 28 7 74 8 29 9 73 10 30 11 31 12
REMARK SMILES IDX 32 13 67 14 33 15 72 16 66 17 68 18 34 19 71 20 65 21 64 22
REMARK SMILES IDX 35 24 57 25 42 26 56 27 43 28 46 29 55 30 69 31 44 32 45 33
REMARK SMILES IDX 54 35 70 36 47 37 36 38 37 39 41 40 38 41 40 42 39 43 58 44
REMARK SMILES IDX 59 45 63 46 60 47 62 48 61 49 48 50 49 51 53 52 50 53 52 54
REMARK SMILES IDX 51 55 6 56 7 57 8 58 9 59 10 60 13 61 11 62 12 63 14 64
REMARK SMILES IDX 15 65 16 66 17 67 18 68 26 69 19 70 25 71 20 72 24 73 21 74
REMARK SMILES IDX 23 75 22 76
REMARK H PARENT 68 23 46 34
REMARK Flexibility Score: inf
ROOT
ATOM      1  C   UNL     1       4.419  -0.020  -2.606  1.00  0.00     0.275 C 
ENDROOT
BRANCH   1   2
ATOM      2  C   UNL     1       5.500  -0.555  -1.607  1.00  0.00     0.275 C 
BRANCH   2   3
ATOM      3  O   UNL     1       5.426  -0.322  -0.211  1.00  0.00    -0.458 OA
BRANCH   3   4
ATOM      4  C   UNL     1       4.354   0.375   0.141  1.00  0.00     0.338 C 
ATOM      5  O   UNL     1       3.221  -0.018  -0.061  1.00  0.00    -0.246 OA
BRANCH   4   6
ATOM      6  C   UNL     1       4.749   1.583   0.896  1.00  0.00     0.060 A 
ATOM      7  C   UNL     1       5.979   1.671   1.524  1.00  0.00     0.016 A 
ATOM      8  C   UNL     1       3.713   2.345   1.363  1.00  0.00     0.016 A 
ATOM      9  C   UNL     1       6.013   2.169   2.822  1.00  0.00     0.010 A 
ATOM     10  C   UNL     1       3.668   2.607   2.693  1.00  0.00     0.010 A 
ATOM     11  C   UNL     1       4.790   2.402   3.477  1.00  0.00    -0.014 A 
BRANCH  11  12
ATOM     12  C   UNL     1       4.497   2.392   5.146  1.00  0.00     0.031 A 
ATOM     13  C   UNL     1       4.500   4.262   5.045  1.00  0.00     0.074 A 
ATOM     14  C   UNL     1       4.313   1.132   6.506  1.00  0.00     0.049 A 
ATOM     15  N   UNL     1       5.068   5.126   5.865  1.00  0.00    -0.248 NA
ATOM     16  C   UNL     1       3.861   5.059   3.927  1.00  0.00     0.031 C 
ATOM     17  C   UNL     1       4.354  -0.561   6.695  1.00  0.00     0.029 A 
ATOM     18  N   UNL     1       4.200   1.141   8.074  1.00  0.00    -0.354 N 
ATOM     19  C   UNL     1       4.507   6.367   5.614  1.00  0.00     0.074 A 
ATOM     20  C   UNL     1       3.993   6.332   4.293  1.00  0.00     0.031 C 
ATOM     21  C   UNL     1       4.667  -1.008   7.929  1.00  0.00     0.029 A 
ATOM     22  C   UNL     1       4.746   0.084   8.832  1.00  0.00     0.049 A 
ATOM     23  H   UNL     1       3.747   1.887   8.529  1.00  0.00     0.167 HD
ATOM     24  C   UNL     1       4.194   7.261   6.582  1.00  0.00     0.031 A 
ATOM     25  C   UNL     1       5.278   0.136  10.094  1.00  0.00     0.031 A 
ATOM     26  C   UNL     1       4.557   6.876   7.908  1.00  0.00     0.049 A 
ATOM     27  C   UNL     1       5.221   1.561  10.487  1.00  0.00     0.074 A 
ATOM     28  C   UNL     1       5.665   7.019   8.704  1.00  0.00     0.029 A 
ATOM     29  N   UNL     1       3.578   6.266   8.658  1.00  0.00    -0.354 N 
ATOM     30  N   UNL     1       4.152   2.230  10.801  1.00  0.00    -0.248 NA
ATOM     31  C   UNL     1       6.432   2.344  10.259  1.00  0.00     0.031 C 
ATOM     32  C   UNL     1       5.321   6.468   9.965  1.00  0.00     0.029 A 
ATOM     33  C   UNL     1       4.144   5.747   9.793  1.00  0.00     0.049 A 
ATOM     34  H   UNL     1       2.624   6.212   8.417  1.00  0.00     0.167 HD
ATOM     35  C   UNL     1       4.498   3.553  10.612  1.00  0.00     0.074 A 
ATOM     36  C   UNL     1       5.932   3.567  10.354  1.00  0.00     0.031 C 
ATOM     37  C   UNL     1       3.598   4.551  10.386  1.00  0.00     0.031 A 
BRANCH  24  38
ATOM     38  C   UNL     1       3.224   8.402   6.490  1.00  0.00    -0.014 A 
ATOM     39  C   UNL     1       3.448   9.472   7.379  1.00  0.00     0.009 A 
ATOM     40  C   UNL     1       1.950   8.270   5.918  1.00  0.00     0.009 A 
ATOM     41  C   UNL     1       2.407  10.300   7.789  1.00  0.00     0.001 A 
ATOM     42  C   UNL     1       0.916   9.136   6.295  1.00  0.00     0.001 A 
ATOM     43  C   UNL     1       1.136  10.120   7.258  1.00  0.00     0.000 A 
ENDBRANCH  24  38
BRANCH  25  44
ATOM     44  C   UNL     1       6.059  -0.801  10.988  1.00  0.00    -0.014 A 
ATOM     45  C   UNL     1       5.920  -2.192  11.009  1.00  0.00     0.009 A 
ATOM     46  C   UNL     1       6.989  -0.271  11.926  1.00  0.00     0.009 A 
ATOM     47  C   UNL     1       6.699  -2.997  11.874  1.00  0.00     0.001 A 
ATOM     48  C   UNL     1       7.782  -1.063  12.768  1.00  0.00     0.001 A 
ATOM     49  C   UNL     1       7.640  -2.437  12.737  1.00  0.00     0.000 A 
ENDBRANCH  25  44
BRANCH  37  50
ATOM     50  C   UNL     1       2.139   4.152  10.435  1.00  0.00    -0.014 A 
ATOM     51  C   UNL     1       1.537   3.758  11.637  1.00  0.00     0.009 A 
ATOM     52  C   UNL     1       1.358   4.034   9.274  1.00  0.00     0.009 A 
ATOM     53  C   UNL     1       0.228   3.248  11.665  1.00  0.00     0.001 A 
ATOM     54  C   UNL     1       0.061   3.503   9.287  1.00  0.00     0.001 A 
ATOM     55  C   UNL     1      -0.505   3.107  10.489  1.00  0.00     0.000 A 
ENDBRANCH  37  50
ENDBRANCH  11  12
ENDBRANCH   4   6
ENDBRANCH   3   4
ENDBRANCH   2   3
ENDBRANCH   1   2
BRANCH   1  56
ATOM     56  O   UNL     1       3.703   1.194  -2.251  1.00  0.00    -0.457 OA
BRANCH  56  57
ATOM     57  C   UNL     1       2.320   1.098  -2.091  1.00  0.00     0.355 C 
ATOM     58  O   UNL     1       1.641   0.144  -2.445  1.00  0.00    -0.244 OA
BRANCH  57  59
ATOM     59  C   UNL     1       1.813   2.278  -1.390  1.00  0.00     0.128 A 
ATOM     60  C   UNL     1       2.206   3.583  -1.685  1.00  0.00     0.035 A 
ATOM     61  N   UNL     1       0.944   2.361  -0.269  1.00  0.00    -0.333 N 
ATOM     62  C   UNL     1       1.490   4.471  -0.864  1.00  0.00     0.020 A 
ATOM     63  C   UNL     1       0.676   3.709  -0.057  1.00  0.00     0.087 A 
BRANCH  61  64
ATOM     64  C   UNL     1       0.496   1.278   0.693  1.00  0.00     0.222 C 
BRANCH  64  65
ATOM     65  C   UNL     1       0.662   1.535   2.271  1.00  0.00     0.242 C 
ATOM     66  O   UNL     1       0.075   2.519   2.754  1.00  0.00    -0.273 OA
BRANCH  65  67
ATOM     67  N   UNL     1       1.395   0.699   3.170  1.00  0.00    -0.336 N 
ATOM     68  C   UNL     1       2.308  -0.385   2.774  1.00  0.00     0.124 C 
ATOM     69  C   UNL     1       1.317   0.947   4.635  1.00  0.00     0.155 C 
ATOM     70  C   UNL     1       3.674  -0.640   3.523  1.00  0.00     0.057 C 
ATOM     71  C   UNL     1       2.663   1.347   5.208  1.00  0.00    -0.025 A 
ATOM     72  C   UNL     1       4.087   0.404   4.541  1.00  0.00    -0.041 A 
ATOM     73  C   UNL     1       2.924   2.681   6.446  1.00  0.00     0.006 A 
ATOM     74  C   UNL     1       5.821   0.771   5.150  1.00  0.00     0.004 A 
ATOM     75  C   UNL     1       4.652   3.083   7.056  1.00  0.00     0.000 A 
ATOM     76  C   UNL     1       6.109   2.130   6.387  1.00  0.00     0.000 A 
ENDBRANCH  65  67
ENDBRANCH  64  65
ENDBRANCH  61  64
ENDBRANCH  57  59
ENDBRANCH  56  57
ENDBRANCH   1  56
TORSDOF 14
