REMARK SMILES CC1=C(CC(=O)OCCOC(=O)c2ccc(-c3c4nc(c(-c5ccccc5)c5ccc([nH]5)c(-c5ccccc5)c5nc(c(-c6ccccc6)c6ccc3[nH]6)C=C5)C=C4)cc2)c2cc(F)ccc2/C1=C\c1ccc([S@@+](C)[O-])cc1
REMARK SMILES IDX 8 1 7 2 5 3 6 4 4 5 3 6 1 7 2 8 68 9 61 10 67 11 69 12 62 13
REMARK SMILES IDX 66 14 63 15 65 16 64 17 70 18 71 19 78 20 72 21 77 22 73 23
REMARK SMILES IDX 74 24 75 25 76 26 9 27 10 28 11 29 12 30 13 31 14 32 60 33
REMARK SMILES IDX 15 34 59 35 16 36 17 37 18 38 53 39 19 40 58 41 52 42 54 43
REMARK SMILES IDX 20 44 57 45 51 46 50 47 21 49 43 50 28 51 42 52 29 53 32 54
REMARK SMILES IDX 41 55 55 56 30 57 31 58 40 60 56 61 33 62 22 63 23 64 27 65
REMARK SMILES IDX 24 66 26 67 25 68 44 69 45 70 49 71 46 72 48 73 47 74 34 75
REMARK SMILES IDX 35 76 39 77 36 78 38 79 37 80
REMARK H PARENT 54 48 32 59
REMARK Flexibility Score: inf
ROOT
ATOM      1  C   UNL     1      -4.079   0.392  -1.393  1.00  0.00     0.274 C 
ENDROOT
BRANCH   1   2
ATOM      2  O   UNL     1      -2.651   0.594  -1.440  1.00  0.00    -0.462 OA
BRANCH   2   3
ATOM      3  C   UNL     1      -1.952  -0.299  -2.189  1.00  0.00     0.310 C 
ATOM      4  O   UNL     1      -2.454  -1.248  -2.787  1.00  0.00    -0.252 OA
BRANCH   3   5
ATOM      5  C   UNL     1      -0.455  -0.033  -2.255  1.00  0.00     0.159 C 
BRANCH   5   6
ATOM      6  C   UNL     1       0.062   1.177  -1.551  1.00  0.00    -0.025 C 
ATOM      7  C   UNL     1       0.955   0.148   0.607  1.00  0.00     0.045 C 
ATOM      8  C   UNL     1       0.667   1.262  -0.344  1.00  0.00    -0.039 C 
ATOM      9  C   UNL     1       1.057   2.658  -0.084  1.00  0.00    -0.014 C 
ATOM     10  C   UNL     1       0.091   2.517  -2.162  1.00  0.00    -0.011 A 
ATOM     11  C   UNL     1       0.696   3.435  -1.287  1.00  0.00    -0.010 A 
ATOM     12  C   UNL     1       1.626   3.086   1.060  1.00  0.00     0.017 C 
ATOM     13  C   UNL     1      -0.330   2.923  -3.420  1.00  0.00     0.048 A 
ATOM     14  C   UNL     1       0.876   4.759  -1.673  1.00  0.00     0.012 A 
ATOM     15  C   UNL     1      -0.172   4.255  -3.786  1.00  0.00     0.123 A 
ATOM     16  C   UNL     1       0.422   5.175  -2.927  1.00  0.00     0.040 A 
ATOM     17  F   UNL     1      -0.571   4.655  -5.001  1.00  0.00    -0.207 F 
BRANCH  12  18
ATOM     18  C   UNL     1       1.993   4.475   1.334  1.00  0.00    -0.025 A 
ATOM     19  C   UNL     1       1.001   5.418   1.626  1.00  0.00     0.013 A 
ATOM     20  C   UNL     1       3.316   4.890   1.166  1.00  0.00     0.013 A 
ATOM     21  C   UNL     1       1.313   6.780   1.643  1.00  0.00     0.061 A 
ATOM     22  C   UNL     1       3.629   6.251   1.205  1.00  0.00     0.061 A 
ATOM     23  C   UNL     1       2.626   7.208   1.411  1.00  0.00     0.152 A 
BRANCH  23  24
ATOM     24  S   UNL     1       3.015   8.963   1.202  1.00  0.00    -0.018 S 
ATOM     25  C   UNL     1       2.206   9.631   2.670  1.00  0.00     0.346 C 
ATOM     26  O   UNL     1       4.566   9.115   1.394  1.00  0.00    -0.612 OA
ENDBRANCH  23  24
ENDBRANCH  12  18
ENDBRANCH   5   6
ENDBRANCH   3   5
ENDBRANCH   2   3
ENDBRANCH   1   2
BRANCH   1  27
ATOM     27  C   UNL     1      -4.791   1.329  -2.366  1.00  0.00     0.275 C 
BRANCH  27  28
ATOM     28  O   UNL     1      -4.296   1.105  -3.696  1.00  0.00    -0.458 OA
BRANCH  28  29
ATOM     29  C   UNL     1      -3.830   2.201  -4.336  1.00  0.00     0.338 C 
ATOM     30  O   UNL     1      -3.851   3.355  -3.947  1.00  0.00    -0.246 OA
BRANCH  29  31
ATOM     31  C   UNL     1      -3.282   1.804  -5.645  1.00  0.00     0.060 A 
ATOM     32  C   UNL     1      -3.692   2.500  -6.780  1.00  0.00     0.016 A 
ATOM     33  C   UNL     1      -2.293   0.821  -5.739  1.00  0.00     0.016 A 
ATOM     34  C   UNL     1      -3.136   2.180  -8.019  1.00  0.00     0.010 A 
ATOM     35  C   UNL     1      -1.667   0.575  -6.959  1.00  0.00     0.010 A 
ATOM     36  C   UNL     1      -2.108   1.226  -8.118  1.00  0.00    -0.014 A 
BRANCH  36  37
ATOM     37  C   UNL     1      -1.522   0.892  -9.441  1.00  0.00     0.031 A 
ATOM     38  C   UNL     1      -1.713  -0.478 -10.031  1.00  0.00     0.074 A 
ATOM     39  C   UNL     1      -0.835   1.829 -10.122  1.00  0.00     0.049 A 
ATOM     40  N   UNL     1      -1.376  -0.914 -11.219  1.00  0.00    -0.248 NA
ATOM     41  C   UNL     1      -2.350  -1.497  -9.180  1.00  0.00     0.031 C 
ATOM     42  C   UNL     1      -0.537   3.179  -9.637  1.00  0.00     0.029 A 
ATOM     43  N   UNL     1      -0.283   1.797 -11.379  1.00  0.00    -0.354 N 
ATOM     44  C   UNL     1      -1.766  -2.247 -11.256  1.00  0.00     0.074 A 
ATOM     45  C   UNL     1      -2.303  -2.570  -9.955  1.00  0.00     0.031 C 
ATOM     46  C   UNL     1       0.091   3.863 -10.607  1.00  0.00     0.029 A 
ATOM     47  C   UNL     1       0.265   2.996 -11.769  1.00  0.00     0.049 A 
ATOM     48  H   UNL     1      -0.280   0.993 -11.947  1.00  0.00     0.167 HD
ATOM     49  C   UNL     1      -1.714  -3.115 -12.292  1.00  0.00     0.031 A 
ATOM     50  C   UNL     1       0.825   3.364 -12.937  1.00  0.00     0.031 A 
ATOM     51  C   UNL     1      -1.193  -2.792 -13.591  1.00  0.00     0.049 A 
ATOM     52  C   UNL     1       0.886   2.378 -14.070  1.00  0.00     0.074 A 
ATOM     53  C   UNL     1      -1.155  -3.588 -14.721  1.00  0.00     0.029 A 
ATOM     54  N   UNL     1      -0.618  -1.578 -13.930  1.00  0.00    -0.354 N 
ATOM     55  N   UNL     1       0.433   1.149 -14.116  1.00  0.00    -0.248 NA
ATOM     56  C   UNL     1       1.523   2.831 -15.316  1.00  0.00     0.031 C 
ATOM     57  C   UNL     1      -0.508  -2.873 -15.732  1.00  0.00     0.029 A 
ATOM     58  C   UNL     1      -0.196  -1.613 -15.246  1.00  0.00     0.049 A 
ATOM     59  H   UNL     1      -0.525  -0.807 -13.325  1.00  0.00     0.167 HD
ATOM     60  C   UNL     1       0.712   0.688 -15.396  1.00  0.00     0.074 A 
ATOM     61  C   UNL     1       1.362   1.773 -16.101  1.00  0.00     0.031 C 
ATOM     62  C   UNL     1       0.451  -0.527 -15.935  1.00  0.00     0.031 A 
BRANCH  49  63
ATOM     63  C   UNL     1      -2.257  -4.499 -12.074  1.00  0.00    -0.014 A 
ATOM     64  C   UNL     1      -1.389  -5.601 -12.062  1.00  0.00     0.009 A 
ATOM     65  C   UNL     1      -3.639  -4.719 -11.958  1.00  0.00     0.009 A 
ATOM     66  C   UNL     1      -1.895  -6.897 -11.944  1.00  0.00     0.001 A 
ATOM     67  C   UNL     1      -4.139  -6.014 -11.814  1.00  0.00     0.001 A 
ATOM     68  C   UNL     1      -3.268  -7.102 -11.815  1.00  0.00     0.000 A 
ENDBRANCH  49  63
BRANCH  50  69
ATOM     69  C   UNL     1       1.321   4.755 -13.103  1.00  0.00    -0.014 A 
ATOM     70  C   UNL     1       2.474   5.190 -12.429  1.00  0.00     0.009 A 
ATOM     71  C   UNL     1       0.617   5.669 -13.902  1.00  0.00     0.009 A 
ATOM     72  C   UNL     1       2.900   6.515 -12.537  1.00  0.00     0.001 A 
ATOM     73  C   UNL     1       1.061   6.988 -14.027  1.00  0.00     0.001 A 
ATOM     74  C   UNL     1       2.196   7.412 -13.338  1.00  0.00     0.000 A 
ENDBRANCH  50  69
BRANCH  62  75
ATOM     75  C   UNL     1       0.854  -0.768 -17.361  1.00  0.00    -0.014 A 
ATOM     76  C   UNL     1      -0.132  -0.895 -18.352  1.00  0.00     0.009 A 
ATOM     77  C   UNL     1       2.196  -1.000 -17.699  1.00  0.00     0.009 A 
ATOM     78  C   UNL     1       0.214  -1.270 -19.651  1.00  0.00     0.001 A 
ATOM     79  C   UNL     1       2.541  -1.351 -19.005  1.00  0.00     0.001 A 
ATOM     80  C   UNL     1       1.550  -1.497 -19.976  1.00  0.00     0.000 A 
ENDBRANCH  62  75
ENDBRANCH  36  37
ENDBRANCH  29  31
ENDBRANCH  28  29
ENDBRANCH  27  28
ENDBRANCH   1  27
TORSDOF 14
