REMARK SMILES C[C@H](C(=O)OCCOC(=O)c1ccc(-c2c3nc(c(-c4ccccc4)c4ccc([nH]4)c(-c4ccccc4)c4nc(c(-c5ccccc5)c5ccc2[nH]5)C=C4)C=C3)cc1)[C@@H](C)Nc1ccccc1Oc1ccccc1
REMARK SMILES IDX 5 1 3 2 4 3 2 4 1 5 59 6 60 7 61 8 62 10 63 11 67 12 64 13
REMARK SMILES IDX 66 14 65 15 68 16 69 17 70 18 74 19 71 20 73 21 72 22 6 23
REMARK SMILES IDX 7 24 8 25 9 26 10 27 11 28 12 29 58 30 13 31 57 32 14 33
REMARK SMILES IDX 15 34 16 35 51 36 17 37 56 38 50 39 52 40 18 41 55 42 49 43
REMARK SMILES IDX 48 44 19 46 41 47 26 48 40 49 27 50 30 51 39 52 53 53 28 54
REMARK SMILES IDX 29 55 38 57 54 58 31 59 20 60 21 61 25 62 22 63 24 64 23 65
REMARK SMILES IDX 42 66 43 67 47 68 44 69 46 70 45 71 32 72 33 73 37 74 34 75
REMARK SMILES IDX 36 76 35 77
REMARK H PARENT 61 9 52 45 30 56
REMARK Flexibility Score: inf
ROOT
ATOM      1  O   UNL     1       0.628  -0.077   0.490  1.00  0.00    -0.462 OA
ENDROOT
BRANCH   1   2
ATOM      2  C   UNL     1       1.357   0.783  -0.274  1.00  0.00     0.310 C 
ATOM      3  O   UNL     1       2.421   1.289   0.059  1.00  0.00    -0.252 OA
BRANCH   2   4
ATOM      4  C   UNL     1       0.695   1.058  -1.615  1.00  0.00     0.118 C 
ATOM      5  C   UNL     1       0.771  -0.169  -2.521  1.00  0.00     0.022 C 
BRANCH   4   6
ATOM      6  C   UNL     1      -0.736   1.551  -1.355  1.00  0.00     0.090 C 
ATOM      7  C   UNL     1      -0.702   2.882  -0.589  1.00  0.00     0.031 C 
BRANCH   6   8
ATOM      8  N   UNL     1      -1.458   1.776  -2.598  1.00  0.00    -0.379 N 
ATOM      9  H   UNL     1      -1.231   2.600  -3.087  1.00  0.00     0.160 HD
BRANCH   8  10
ATOM     10  C   UNL     1      -2.426   0.969  -3.177  1.00  0.00     0.078 A 
ATOM     11  C   UNL     1      -2.474   1.028  -4.591  1.00  0.00     0.029 A 
ATOM     12  C   UNL     1      -3.295   0.045  -2.559  1.00  0.00     0.150 A 
ATOM     13  C   UNL     1      -3.318   0.220  -5.358  1.00  0.00     0.002 A 
ATOM     14  C   UNL     1      -4.155  -0.756  -3.339  1.00  0.00     0.049 A 
ATOM     15  C   UNL     1      -4.169  -0.672  -4.728  1.00  0.00     0.004 A 
BRANCH  12  16
ATOM     16  O   UNL     1      -3.330  -0.321  -1.231  1.00  0.00    -0.455 OA
BRANCH  16  17
ATOM     17  C   UNL     1      -3.540   0.585  -0.221  1.00  0.00     0.127 A 
ATOM     18  C   UNL     1      -3.082   0.147   1.032  1.00  0.00     0.047 A 
ATOM     19  C   UNL     1      -4.080   1.860  -0.352  1.00  0.00     0.047 A 
ATOM     20  C   UNL     1      -3.072   1.009   2.125  1.00  0.00     0.004 A 
ATOM     21  C   UNL     1      -4.080   2.722   0.751  1.00  0.00     0.004 A 
ATOM     22  C   UNL     1      -3.558   2.305   1.979  1.00  0.00     0.000 A 
ENDBRANCH  16  17
ENDBRANCH  12  16
ENDBRANCH   8  10
ENDBRANCH   6   8
ENDBRANCH   4   6
ENDBRANCH   2   4
ENDBRANCH   1   2
BRANCH   1  23
ATOM     23  C   UNL     1       1.093  -0.346   1.831  1.00  0.00     0.274 C 
BRANCH  23  24
ATOM     24  C   UNL     1       1.337  -1.843   1.994  1.00  0.00     0.275 C 
BRANCH  24  25
ATOM     25  O   UNL     1       2.417  -2.198   1.119  1.00  0.00    -0.458 OA
BRANCH  25  26
ATOM     26  C   UNL     1       2.166  -3.170   0.216  1.00  0.00     0.338 C 
ATOM     27  O   UNL     1       1.223  -3.944   0.192  1.00  0.00    -0.246 OA
BRANCH  26  28
ATOM     28  C   UNL     1       3.203  -3.108  -0.827  1.00  0.00     0.060 A 
ATOM     29  C   UNL     1       3.510  -1.877  -1.405  1.00  0.00     0.016 A 
ATOM     30  C   UNL     1       3.786  -4.272  -1.318  1.00  0.00     0.016 A 
ATOM     31  C   UNL     1       4.308  -1.811  -2.539  1.00  0.00     0.010 A 
ATOM     32  C   UNL     1       4.688  -4.189  -2.385  1.00  0.00     0.010 A 
ATOM     33  C   UNL     1       4.929  -2.962  -3.032  1.00  0.00    -0.014 A 
BRANCH  33  34
ATOM     34  C   UNL     1       5.787  -2.893  -4.245  1.00  0.00     0.031 A 
ATOM     35  C   UNL     1       5.472  -3.763  -5.431  1.00  0.00     0.074 A 
ATOM     36  C   UNL     1       6.836  -2.049  -4.302  1.00  0.00     0.049 A 
ATOM     37  N   UNL     1       6.219  -4.054  -6.465  1.00  0.00    -0.248 NA
ATOM     38  C   UNL     1       4.146  -4.403  -5.448  1.00  0.00     0.031 C 
ATOM     39  C   UNL     1       7.218  -1.085  -3.267  1.00  0.00     0.029 A 
ATOM     40  N   UNL     1       7.775  -1.861  -5.287  1.00  0.00    -0.354 N 
ATOM     41  C   UNL     1       5.490  -4.972  -7.210  1.00  0.00     0.074 A 
ATOM     42  C   UNL     1       4.234  -5.177  -6.521  1.00  0.00     0.031 C 
ATOM     43  C   UNL     1       8.277  -0.380  -3.689  1.00  0.00     0.029 A 
ATOM     44  C   UNL     1       8.719  -0.915  -4.970  1.00  0.00     0.049 A 
ATOM     45  H   UNL     1       7.772  -2.357  -6.137  1.00  0.00     0.167 HD
ATOM     46  C   UNL     1       5.846  -5.599  -8.356  1.00  0.00     0.031 A 
ATOM     47  C   UNL     1       9.850  -0.555  -5.605  1.00  0.00     0.031 A 
ATOM     48  C   UNL     1       7.075  -5.351  -9.060  1.00  0.00     0.049 A 
ATOM     49  C   UNL     1      10.241  -1.281  -6.857  1.00  0.00     0.074 A 
ATOM     50  C   UNL     1       7.546  -5.946 -10.218  1.00  0.00     0.029 A 
ATOM     51  N   UNL     1       8.017  -4.406  -8.683  1.00  0.00    -0.354 N 
ATOM     52  N   UNL     1       9.603  -2.235  -7.490  1.00  0.00    -0.248 NA
ATOM     53  C   UNL     1      11.524  -0.903  -7.465  1.00  0.00     0.031 C 
ATOM     54  C   UNL     1       8.787  -5.377 -10.527  1.00  0.00     0.029 A 
ATOM     55  C   UNL     1       9.068  -4.401  -9.584  1.00  0.00     0.049 A 
ATOM     56  H   UNL     1       7.949  -3.825  -7.892  1.00  0.00     0.167 HD
ATOM     57  C   UNL     1      10.406  -2.575  -8.569  1.00  0.00     0.074 A 
ATOM     58  C   UNL     1      11.565  -1.705  -8.520  1.00  0.00     0.031 C 
ATOM     59  C   UNL     1      10.210  -3.530  -9.509  1.00  0.00     0.031 A 
BRANCH  46  60
ATOM     60  C   UNL     1       4.918  -6.657  -8.881  1.00  0.00    -0.014 A 
ATOM     61  C   UNL     1       3.709  -6.331  -9.513  1.00  0.00     0.009 A 
ATOM     62  C   UNL     1       5.274  -8.009  -8.749  1.00  0.00     0.009 A 
ATOM     63  C   UNL     1       2.860  -7.341  -9.973  1.00  0.00     0.001 A 
ATOM     64  C   UNL     1       4.436  -9.015  -9.232  1.00  0.00     0.001 A 
ATOM     65  C   UNL     1       3.225  -8.681  -9.835  1.00  0.00     0.000 A 
ENDBRANCH  46  60
BRANCH  47  66
ATOM     66  C   UNL     1      10.726   0.490  -5.016  1.00  0.00    -0.014 A 
ATOM     67  C   UNL     1      10.840   1.750  -5.620  1.00  0.00     0.009 A 
ATOM     68  C   UNL     1      11.435   0.239  -3.830  1.00  0.00     0.009 A 
ATOM     69  C   UNL     1      11.650   2.736  -5.050  1.00  0.00     0.001 A 
ATOM     70  C   UNL     1      12.220   1.235  -3.247  1.00  0.00     0.001 A 
ATOM     71  C   UNL     1      12.331   2.481  -3.861  1.00  0.00     0.000 A 
ENDBRANCH  47  66
BRANCH  59  72
ATOM     72  C   UNL     1      11.264  -3.661 -10.568  1.00  0.00    -0.014 A 
ATOM     73  C   UNL     1      12.485  -4.295 -10.294  1.00  0.00     0.009 A 
ATOM     74  C   UNL     1      11.022  -3.164 -11.857  1.00  0.00     0.009 A 
ATOM     75  C   UNL     1      13.458  -4.405 -11.289  1.00  0.00     0.001 A 
ATOM     76  C   UNL     1      11.988  -3.293 -12.854  1.00  0.00     0.001 A 
ATOM     77  C   UNL     1      13.208  -3.906 -12.568  1.00  0.00     0.000 A 
ENDBRANCH  59  72
ENDBRANCH  33  34
ENDBRANCH  26  28
ENDBRANCH  25  26
ENDBRANCH  24  25
ENDBRANCH  23  24
ENDBRANCH   1  23
TORSDOF 16
