REMARK SMILES CC[C@@H](C)N(C)S(=O)(=O)c1cc(C(=O)OCCOC(=O)c2ccc(-c3c4nc(c(-c5ccccc5)c5ccc([nH]5)c(-c5ccccc5)c5nc(c(-c6ccccc6)c6ccc3[nH]6)C=C5)C=C4)cc2)ccc1Br
REMARK SMILES IDX 16 1 15 2 13 3 14 4 12 5 10 6 11 7 71 8 70 9 72 10 69 11
REMARK SMILES IDX 7 12 8 13 9 14 5 15 6 16 3 17 4 18 2 19 1 20 17 21 18 22
REMARK SMILES IDX 19 23 20 24 21 25 22 26 68 27 23 28 67 29 24 30 25 31 26 32
REMARK SMILES IDX 61 33 27 34 66 35 60 36 62 37 28 38 65 39 59 40 58 41 29 43
REMARK SMILES IDX 51 44 36 45 50 46 37 47 40 48 49 49 63 50 38 51 39 52 48 54
REMARK SMILES IDX 64 55 41 56 30 57 31 58 35 59 32 60 34 61 33 62 52 63 53 64
REMARK SMILES IDX 57 65 54 66 56 67 55 68 42 69 43 70 47 71 44 72 46 73 45 74
REMARK H PARENT 62 42 40 53
REMARK Flexibility Score: inf
ROOT
ATOM      1  C   UNL     1      -3.362  -1.376   9.967  1.00  0.00     0.275 C 
ENDROOT
BRANCH   1   2
ATOM      2  O   UNL     1      -3.201  -0.187   9.163  1.00  0.00    -0.458 OA
BRANCH   2   3
ATOM      3  C   UNL     1      -2.098  -0.131   8.378  1.00  0.00     0.338 C 
ATOM      4  O   UNL     1      -1.223  -0.976   8.281  1.00  0.00    -0.246 OA
BRANCH   3   5
ATOM      5  C   UNL     1      -2.109   1.104   7.553  1.00  0.00     0.061 A 
ATOM      6  C   UNL     1      -1.688   2.204   5.405  1.00  0.00     0.097 A 
ATOM      7  C   UNL     1      -1.668   1.058   6.222  1.00  0.00     0.038 A 
ATOM      8  C   UNL     1      -2.062   3.429   5.966  1.00  0.00     0.038 A 
ATOM      9  C   UNL     1      -2.475   3.473   7.310  1.00  0.00     0.018 A 
ATOM     10  Br  UNL     1      -1.983   5.116   5.102  1.00  0.00    -0.049 Br
ATOM     11  C   UNL     1      -2.523   2.318   8.094  1.00  0.00     0.017 A 
BRANCH   6  12
ATOM     12  S   UNL     1      -1.393   1.934   3.659  1.00  0.00     0.244 S 
ATOM     13  O   UNL     1      -1.781   3.112   2.917  1.00  0.00    -0.207 OA
ATOM     14  O   UNL     1      -2.003   0.658   3.348  1.00  0.00    -0.207 OA
BRANCH  12  15
ATOM     15  N   UNL     1       0.310   1.748   3.517  1.00  0.00    -0.198 NA
ATOM     16  C   UNL     1       1.113   2.782   4.217  1.00  0.00     0.124 C 
BRANCH  15  17
ATOM     17  C   UNL     1       0.860   1.485   2.118  1.00  0.00     0.069 C 
ATOM     18  C   UNL     1       0.571   2.633   1.147  1.00  0.00     0.026 C 
BRANCH  17  19
ATOM     19  C   UNL     1       0.424   0.117   1.563  1.00  0.00     0.016 C 
ATOM     20  C   UNL     1       1.090  -0.230   0.234  1.00  0.00     0.005 C 
ENDBRANCH  17  19
ENDBRANCH  15  17
ENDBRANCH  12  15
ENDBRANCH   6  12
ENDBRANCH   3   5
ENDBRANCH   2   3
ENDBRANCH   1   2
BRANCH   1  21
ATOM     21  C   UNL     1      -4.458  -2.285   9.409  1.00  0.00     0.275 C 
BRANCH  21  22
ATOM     22  O   UNL     1      -4.046  -2.856   8.155  1.00  0.00    -0.458 OA
BRANCH  22  23
ATOM     23  C   UNL     1      -4.601  -2.295   7.057  1.00  0.00     0.338 C 
ATOM     24  O   UNL     1      -5.441  -1.413   7.013  1.00  0.00    -0.246 OA
BRANCH  23  25
ATOM     25  C   UNL     1      -3.955  -2.837   5.855  1.00  0.00     0.060 A 
ATOM     26  C   UNL     1      -2.710  -2.328   5.508  1.00  0.00     0.016 A 
ATOM     27  C   UNL     1      -4.617  -3.710   4.999  1.00  0.00     0.016 A 
ATOM     28  C   UNL     1      -2.163  -2.591   4.260  1.00  0.00     0.010 A 
ATOM     29  C   UNL     1      -4.005  -4.076   3.792  1.00  0.00     0.010 A 
ATOM     30  C   UNL     1      -2.783  -3.497   3.395  1.00  0.00    -0.014 A 
BRANCH  30  31
ATOM     31  C   UNL     1      -2.151  -3.832   2.088  1.00  0.00     0.031 A 
ATOM     32  C   UNL     1      -2.910  -3.638   0.803  1.00  0.00     0.074 A 
ATOM     33  C   UNL     1      -0.890  -4.312   2.047  1.00  0.00     0.049 A 
ATOM     34  N   UNL     1      -2.623  -4.070  -0.400  1.00  0.00    -0.248 NA
ATOM     35  C   UNL     1      -4.165  -2.874   0.883  1.00  0.00     0.031 C 
ATOM     36  C   UNL     1      -0.008  -4.490   3.204  1.00  0.00     0.029 A 
ATOM     37  N   UNL     1      -0.129  -4.741   0.987  1.00  0.00    -0.354 N 
ATOM     38  C   UNL     1      -3.688  -3.681  -1.205  1.00  0.00     0.074 A 
ATOM     39  C   UNL     1      -4.630  -2.986  -0.354  1.00  0.00     0.031 C 
ATOM     40  C   UNL     1       1.179  -4.955   2.788  1.00  0.00     0.029 A 
ATOM     41  C   UNL     1       1.107  -5.216   1.357  1.00  0.00     0.049 A 
ATOM     42  H   UNL     1      -0.438  -4.711   0.053  1.00  0.00     0.167 HD
ATOM     43  C   UNL     1      -3.861  -3.889  -2.533  1.00  0.00     0.031 A 
ATOM     44  C   UNL     1       2.057  -5.852   0.647  1.00  0.00     0.031 A 
ATOM     45  C   UNL     1      -2.900  -4.547  -3.380  1.00  0.00     0.049 A 
ATOM     46  C   UNL     1       1.805  -6.146  -0.803  1.00  0.00     0.074 A 
ATOM     47  C   UNL     1      -2.973  -4.788  -4.741  1.00  0.00     0.029 A 
ATOM     48  N   UNL     1      -1.685  -5.057  -2.948  1.00  0.00    -0.354 N 
ATOM     49  N   UNL     1       0.777  -5.814  -1.545  1.00  0.00    -0.248 NA
ATOM     50  C   UNL     1       2.834  -6.923  -1.507  1.00  0.00     0.031 C 
ATOM     51  C   UNL     1      -1.829  -5.497  -5.121  1.00  0.00     0.029 A 
ATOM     52  C   UNL     1      -1.015  -5.641  -4.010  1.00  0.00     0.049 A 
ATOM     53  H   UNL     1      -1.350  -5.011  -2.023  1.00  0.00     0.167 HD
ATOM     54  C   UNL     1       1.040  -6.329  -2.806  1.00  0.00     0.074 A 
ATOM     55  C   UNL     1       2.336  -6.974  -2.735  1.00  0.00     0.031 C 
ATOM     56  C   UNL     1       0.274  -6.278  -3.922  1.00  0.00     0.031 A 
BRANCH  43  57
ATOM     57  C   UNL     1      -5.160  -3.443  -3.150  1.00  0.00    -0.014 A 
ATOM     58  C   UNL     1      -5.464  -2.087  -3.337  1.00  0.00     0.009 A 
ATOM     59  C   UNL     1      -6.076  -4.410  -3.599  1.00  0.00     0.009 A 
ATOM     60  C   UNL     1      -6.671  -1.708  -3.930  1.00  0.00     0.001 A 
ATOM     61  C   UNL     1      -7.267  -4.029  -4.219  1.00  0.00     0.001 A 
ATOM     62  C   UNL     1      -7.568  -2.678  -4.376  1.00  0.00     0.000 A 
ENDBRANCH  43  57
BRANCH  44  63
ATOM     63  C   UNL     1       3.298  -6.322   1.318  1.00  0.00    -0.014 A 
ATOM     64  C   UNL     1       4.543  -5.761   0.997  1.00  0.00     0.009 A 
ATOM     65  C   UNL     1       3.244  -7.337   2.289  1.00  0.00     0.009 A 
ATOM     66  C   UNL     1       5.707  -6.218   1.621  1.00  0.00     0.001 A 
ATOM     67  C   UNL     1       4.403  -7.765   2.937  1.00  0.00     0.001 A 
ATOM     68  C   UNL     1       5.635  -7.212   2.596  1.00  0.00     0.000 A 
ENDBRANCH  44  63
BRANCH  56  69
ATOM     69  C   UNL     1       0.832  -6.908  -5.165  1.00  0.00    -0.014 A 
ATOM     70  C   UNL     1       0.895  -8.303  -5.308  1.00  0.00     0.009 A 
ATOM     71  C   UNL     1       1.259  -6.094  -6.226  1.00  0.00     0.009 A 
ATOM     72  C   UNL     1       1.399  -8.869  -6.480  1.00  0.00     0.001 A 
ATOM     73  C   UNL     1       1.734  -6.663  -7.407  1.00  0.00     0.001 A 
ATOM     74  C   UNL     1       1.811  -8.049  -7.530  1.00  0.00     0.000 A 
ENDBRANCH  56  69
ENDBRANCH  30  31
ENDBRANCH  23  25
ENDBRANCH  22  23
ENDBRANCH  21  22
ENDBRANCH   1  21
TORSDOF 15
