REMARK SMILES COc1cnc(F)c(C(=O)OCCOC(=O)c2ccc(-c3c4nc(c(-c5ccccc5)c5ccc([nH]5)c(-c5ccccc5)c5nc(c(-c6ccccc6)c6ccc3[nH]6)C=C5)C=C4)cc2)c1
REMARK SMILES IDX 13 1 12 2 11 3 9 4 10 5 8 6 3 7 4 8 65 9 5 10 6 11 7 12 2 13
REMARK SMILES IDX 1 14 14 15 15 16 16 17 17 18 18 19 64 20 19 21 63 22 20 23
REMARK SMILES IDX 21 24 22 25 57 26 23 27 62 28 56 29 58 30 24 31 61 32 55 33
REMARK SMILES IDX 54 34 25 36 47 37 32 38 46 39 33 40 36 41 45 42 59 43 34 44
REMARK SMILES IDX 35 45 44 47 60 48 37 49 26 50 27 51 31 52 28 53 30 54 29 55
REMARK SMILES IDX 48 56 49 57 53 58 50 59 52 60 51 61 38 62 39 63 43 64 40 65
REMARK SMILES IDX 42 66 41 67
REMARK H PARENT 58 35 36 46
REMARK Flexibility Score: inf
ROOT
ATOM      1  C   UNL     1       5.729  -0.476   5.933  1.00  0.00     0.275 C 
ENDROOT
BRANCH   1   2
ATOM      2  C   UNL     1       5.084   0.871   6.253  1.00  0.00     0.275 C 
BRANCH   2   3
ATOM      3  O   UNL     1       3.712   0.900   5.810  1.00  0.00    -0.458 OA
BRANCH   3   4
ATOM      4  C   UNL     1       3.436   1.668   4.731  1.00  0.00     0.343 C 
ATOM      5  O   UNL     1       4.239   2.303   4.064  1.00  0.00    -0.246 OA
BRANCH   4   6
ATOM      6  C   UNL     1       2.026   1.542   4.341  1.00  0.00     0.118 A 
ATOM      7  C   UNL     1       0.352   1.382   2.616  1.00  0.00     0.138 A 
ATOM      8  C   UNL     1      -0.600   1.343   3.625  1.00  0.00     0.160 A 
ATOM      9  C   UNL     1       1.683   1.532   2.983  1.00  0.00     0.068 A 
ATOM     10  N   UNL     1      -0.304   1.385   4.947  1.00  0.00    -0.224 NA
ATOM     11  C   UNL     1       1.008   1.474   5.277  1.00  0.00     0.227 A 
ATOM     12  F   UNL     1       1.288   1.558   6.586  1.00  0.00    -0.184 F 
BRANCH   7  13
ATOM     13  O   UNL     1      -0.068   1.349   1.319  1.00  0.00    -0.495 OA
ATOM     14  C   UNL     1       0.562   0.314   0.561  1.00  0.00     0.278 C 
ENDBRANCH   7  13
ENDBRANCH   4   6
ENDBRANCH   3   4
ENDBRANCH   2   3
ENDBRANCH   1   2
BRANCH   1  15
ATOM     15  O   UNL     1       5.886  -0.617   4.508  1.00  0.00    -0.458 OA
BRANCH  15  16
ATOM     16  C   UNL     1       5.078  -1.524   3.918  1.00  0.00     0.338 C 
ATOM     17  O   UNL     1       4.274  -2.272   4.445  1.00  0.00    -0.246 OA
BRANCH  16  18
ATOM     18  C   UNL     1       5.241  -1.442   2.461  1.00  0.00     0.060 A 
ATOM     19  C   UNL     1       4.663  -0.369   1.791  1.00  0.00     0.016 A 
ATOM     20  C   UNL     1       5.822  -2.487   1.746  1.00  0.00     0.016 A 
ATOM     21  C   UNL     1       4.575  -0.377   0.402  1.00  0.00     0.010 A 
ATOM     22  C   UNL     1       5.816  -2.447   0.346  1.00  0.00     0.010 A 
ATOM     23  C   UNL     1       5.154  -1.413  -0.344  1.00  0.00    -0.014 A 
BRANCH  23  24
ATOM     24  C   UNL     1       5.018  -1.437  -1.829  1.00  0.00     0.031 A 
ATOM     25  C   UNL     1       4.362  -2.610  -2.515  1.00  0.00     0.074 A 
ATOM     26  C   UNL     1       5.444  -0.398  -2.575  1.00  0.00     0.049 A 
ATOM     27  N   UNL     1       4.287  -2.885  -3.794  1.00  0.00    -0.248 NA
ATOM     28  C   UNL     1       3.711  -3.608  -1.651  1.00  0.00     0.031 C 
ATOM     29  C   UNL     1       6.045   0.834  -2.057  1.00  0.00     0.029 A 
ATOM     30  N   UNL     1       5.421  -0.204  -3.936  1.00  0.00    -0.354 N 
ATOM     31  C   UNL     1       3.644  -4.114  -3.882  1.00  0.00     0.074 A 
ATOM     32  C   UNL     1       3.344  -4.530  -2.529  1.00  0.00     0.031 C 
ATOM     33  C   UNL     1       6.280   1.673  -3.077  1.00  0.00     0.029 A 
ATOM     34  C   UNL     1       5.941   1.005  -4.329  1.00  0.00     0.049 A 
ATOM     35  H   UNL     1       5.065  -0.869  -4.568  1.00  0.00     0.167 HD
ATOM     36  C   UNL     1       3.337  -4.835  -4.987  1.00  0.00     0.031 A 
ATOM     37  C   UNL     1       6.165   1.511  -5.556  1.00  0.00     0.031 A 
ATOM     38  C   UNL     1       3.591  -4.405  -6.337  1.00  0.00     0.049 A 
ATOM     39  C   UNL     1       5.852   0.678  -6.765  1.00  0.00     0.074 A 
ATOM     40  C   UNL     1       3.308  -5.067  -7.521  1.00  0.00     0.029 A 
ATOM     41  N   UNL     1       4.168  -3.195  -6.684  1.00  0.00    -0.354 N 
ATOM     42  N   UNL     1       5.311  -0.513  -6.828  1.00  0.00    -0.248 NA
ATOM     43  C   UNL     1       6.205   1.252  -8.072  1.00  0.00     0.031 C 
ATOM     44  C   UNL     1       3.750  -4.272  -8.584  1.00  0.00     0.029 A 
ATOM     45  C   UNL     1       4.263  -3.096  -8.062  1.00  0.00     0.049 A 
ATOM     46  H   UNL     1       4.467  -2.508  -6.046  1.00  0.00     0.167 HD
ATOM     47  C   UNL     1       5.254  -0.830  -8.179  1.00  0.00     0.074 A 
ATOM     48  C   UNL     1       5.792   0.304  -8.901  1.00  0.00     0.031 C 
ATOM     49  C   UNL     1       4.805  -1.965  -8.767  1.00  0.00     0.031 A 
BRANCH  36  50
ATOM     50  C   UNL     1       2.730  -6.196  -4.782  1.00  0.00    -0.014 A 
ATOM     51  C   UNL     1       1.396  -6.355  -4.379  1.00  0.00     0.009 A 
ATOM     52  C   UNL     1       3.504  -7.339  -5.038  1.00  0.00     0.009 A 
ATOM     53  C   UNL     1       0.859  -7.634  -4.207  1.00  0.00     0.001 A 
ATOM     54  C   UNL     1       2.958  -8.615  -4.891  1.00  0.00     0.001 A 
ATOM     55  C   UNL     1       1.638  -8.761  -4.467  1.00  0.00     0.000 A 
ENDBRANCH  36  50
BRANCH  37  56
ATOM     56  C   UNL     1       6.773   2.860  -5.702  1.00  0.00    -0.014 A 
ATOM     57  C   UNL     1       6.020   3.932  -6.205  1.00  0.00     0.009 A 
ATOM     58  C   UNL     1       8.109   3.082  -5.334  1.00  0.00     0.009 A 
ATOM     59  C   UNL     1       6.599   5.196  -6.347  1.00  0.00     0.001 A 
ATOM     60  C   UNL     1       8.675   4.353  -5.447  1.00  0.00     0.001 A 
ATOM     61  C   UNL     1       7.922   5.407  -5.960  1.00  0.00     0.000 A 
ENDBRANCH  37  56
BRANCH  49  62
ATOM     62  C   UNL     1       4.856  -2.022 -10.266  1.00  0.00    -0.014 A 
ATOM     63  C   UNL     1       6.070  -2.215 -10.943  1.00  0.00     0.009 A 
ATOM     64  C   UNL     1       3.671  -1.908 -11.008  1.00  0.00     0.009 A 
ATOM     65  C   UNL     1       6.099  -2.263 -12.338  1.00  0.00     0.001 A 
ATOM     66  C   UNL     1       3.700  -1.979 -12.401  1.00  0.00     0.001 A 
ATOM     67  C   UNL     1       4.914  -2.148 -13.065  1.00  0.00     0.000 A 
ENDBRANCH  49  62
ENDBRANCH  23  24
ENDBRANCH  16  18
ENDBRANCH  15  16
ENDBRANCH   1  15
TORSDOF 12
