REMARK SMILES O=C(CCCNC(=O)[C@@H]1CCCN(S(=O)(=O)c2ccc(F)cc2)C1)OCCOC(=O)c1ccc(-c2c3nc(c(-c4ccccc4)c4ccc([nH]4)c(-c4ccccc4)c4nc(c(-c5ccccc5)c5ccc2[nH]5)C=C4)C=C3)cc1
REMARK SMILES IDX 1 1 2 2 3 3 4 4 5 5 6 6 7 7 8 9 9 10 10 11 24 12 11 13 13 14
REMARK SMILES IDX 12 15 14 16 15 17 16 18 17 19 18 20 23 21 19 22 22 23 20 24
REMARK SMILES IDX 21 25 25 26 26 27 27 28 28 29 29 30 30 31 31 32 32 33 78 34
REMARK SMILES IDX 33 35 77 36 34 37 35 38 36 39 71 40 37 41 76 42 70 43 72 44
REMARK SMILES IDX 38 45 75 46 69 47 68 48 39 50 61 51 46 52 60 53 47 54 50 55
REMARK SMILES IDX 59 56 73 57 48 58 49 59 58 61 74 62 51 63 40 64 41 65 45 66
REMARK SMILES IDX 42 67 44 68 43 69 62 70 63 71 67 72 64 73 66 74 65 75 52 76
REMARK SMILES IDX 53 77 57 78 54 79 56 80 55 81
REMARK H PARENT 6 8 72 49 50 60
REMARK Flexibility Score: inf
ROOT
ATOM      1  O   UNL     1       1.388  -1.254   0.105  1.00  0.00    -0.252 OA
ATOM      2  C   UNL     1       2.153  -0.307  -0.044  1.00  0.00     0.305 C 
ENDROOT
BRANCH   2   3
ATOM      3  C   UNL     1       2.817   0.364   1.137  1.00  0.00     0.124 C 
BRANCH   3   4
ATOM      4  C   UNL     1       3.618  -0.602   1.986  1.00  0.00     0.033 C 
BRANCH   4   5
ATOM      5  C   UNL     1       4.854  -1.122   1.274  1.00  0.00     0.116 C 
BRANCH   5   6
ATOM      6  N   UNL     1       5.893  -0.118   1.151  1.00  0.00    -0.356 N 
ATOM      7  C   UNL     1       7.233  -0.164   1.334  1.00  0.00     0.224 C 
ATOM      8  H   UNL     1       5.559   0.769   0.883  1.00  0.00     0.163 HD
ATOM      9  O   UNL     1       7.845   0.874   1.053  1.00  0.00    -0.275 OA
BRANCH   7  10
ATOM     10  C   UNL     1       8.019  -1.399   1.774  1.00  0.00     0.093 C 
ATOM     11  C   UNL     1       8.369  -2.313   0.600  1.00  0.00     0.016 C 
ATOM     12  C   UNL     1       7.528  -2.121   3.032  1.00  0.00     0.116 C 
ATOM     13  C   UNL     1       7.377  -3.449   0.410  1.00  0.00     0.018 C 
ATOM     14  N   UNL     1       6.613  -3.263   2.735  1.00  0.00    -0.197 NA
ATOM     15  C   UNL     1       7.141  -4.198   1.717  1.00  0.00     0.102 C 
BRANCH  14  16
ATOM     16  S   UNL     1       5.835  -3.949   4.097  1.00  0.00     0.243 S 
ATOM     17  O   UNL     1       6.550  -5.143   4.470  1.00  0.00    -0.207 OA
ATOM     18  O   UNL     1       5.596  -2.877   5.049  1.00  0.00    -0.207 OA
BRANCH  16  19
ATOM     19  C   UNL     1       4.228  -4.434   3.472  1.00  0.00     0.082 A 
ATOM     20  C   UNL     1       4.093  -5.612   2.728  1.00  0.00     0.025 A 
ATOM     21  C   UNL     1       3.093  -3.679   3.800  1.00  0.00     0.025 A 
ATOM     22  C   UNL     1       2.836  -5.988   2.247  1.00  0.00     0.040 A 
ATOM     23  C   UNL     1       1.836  -4.067   3.328  1.00  0.00     0.040 A 
ATOM     24  C   UNL     1       1.721  -5.212   2.547  1.00  0.00     0.123 A 
ATOM     25  F   UNL     1       0.517  -5.586   2.095  1.00  0.00    -0.207 F 
ENDBRANCH  16  19
ENDBRANCH  14  16
ENDBRANCH   7  10
ENDBRANCH   5   6
ENDBRANCH   4   5
ENDBRANCH   3   4
ENDBRANCH   2   3
BRANCH   2  26
ATOM     26  O   UNL     1       2.349   0.260  -1.260  1.00  0.00    -0.462 OA
BRANCH  26  27
ATOM     27  C   UNL     1       3.684   0.507  -1.742  1.00  0.00     0.274 C 
BRANCH  27  28
ATOM     28  C   UNL     1       3.968   1.987  -2.002  1.00  0.00     0.275 C 
BRANCH  28  29
ATOM     29  O   UNL     1       3.677   2.773  -0.835  1.00  0.00    -0.458 OA
BRANCH  29  30
ATOM     30  C   UNL     1       2.401   3.235  -0.786  1.00  0.00     0.338 C 
ATOM     31  O   UNL     1       1.584   3.211  -1.689  1.00  0.00    -0.246 OA
BRANCH  30  32
ATOM     32  C   UNL     1       2.052   3.600   0.606  1.00  0.00     0.060 A 
ATOM     33  C   UNL     1       0.752   3.304   1.035  1.00  0.00     0.016 A 
ATOM     34  C   UNL     1       2.965   4.195   1.485  1.00  0.00     0.016 A 
ATOM     35  C   UNL     1       0.340   3.665   2.316  1.00  0.00     0.010 A 
ATOM     36  C   UNL     1       2.548   4.561   2.771  1.00  0.00     0.010 A 
ATOM     37  C   UNL     1       1.220   4.341   3.171  1.00  0.00    -0.014 A 
BRANCH  37  38
ATOM     38  C   UNL     1       0.659   4.995   4.377  1.00  0.00     0.031 A 
ATOM     39  C   UNL     1       0.204   6.425   4.262  1.00  0.00     0.074 A 
ATOM     40  C   UNL     1       0.466   4.318   5.522  1.00  0.00     0.049 A 
ATOM     41  N   UNL     1      -0.475   7.150   5.113  1.00  0.00    -0.248 NA
ATOM     42  C   UNL     1       0.551   7.125   3.014  1.00  0.00     0.031 C 
ATOM     43  C   UNL     1       0.852   2.930   5.767  1.00  0.00     0.029 A 
ATOM     44  N   UNL     1      -0.126   4.718   6.694  1.00  0.00    -0.354 N 
ATOM     45  C   UNL     1      -0.667   8.376   4.489  1.00  0.00     0.074 A 
ATOM     46  C   UNL     1       0.016   8.319   3.216  1.00  0.00     0.031 C 
ATOM     47  C   UNL     1       0.482   2.591   7.016  1.00  0.00     0.029 A 
ATOM     48  C   UNL     1      -0.168   3.736   7.652  1.00  0.00     0.049 A 
ATOM     49  H   UNL     1      -0.485   5.623   6.835  1.00  0.00     0.167 HD
ATOM     50  C   UNL     1      -1.370   9.448   4.922  1.00  0.00     0.031 A 
ATOM     51  C   UNL     1      -0.686   3.757   8.896  1.00  0.00     0.031 A 
ATOM     52  C   UNL     1      -2.016   9.533   6.201  1.00  0.00     0.049 A 
ATOM     53  C   UNL     1      -1.403   4.989   9.384  1.00  0.00     0.074 A 
ATOM     54  C   UNL     1      -2.746  10.582   6.732  1.00  0.00     0.029 A 
ATOM     55  N   UNL     1      -1.997   8.532   7.158  1.00  0.00    -0.354 N 
ATOM     56  N   UNL     1      -1.637   6.116   8.757  1.00  0.00    -0.248 NA
ATOM     57  C   UNL     1      -1.950   4.936  10.749  1.00  0.00     0.031 C 
ATOM     58  C   UNL     1      -3.131  10.232   8.031  1.00  0.00     0.029 A 
ATOM     59  C   UNL     1      -2.682   8.946   8.286  1.00  0.00     0.049 A 
ATOM     60  H   UNL     1      -1.560   7.656   7.051  1.00  0.00     0.167 HD
ATOM     61  C   UNL     1      -2.379   6.894   9.638  1.00  0.00     0.074 A 
ATOM     62  C   UNL     1      -2.572   6.103  10.836  1.00  0.00     0.031 C 
ATOM     63  C   UNL     1      -2.861   8.150   9.472  1.00  0.00     0.031 A 
BRANCH  50  64
ATOM     64  C   UNL     1      -1.463  10.620   3.989  1.00  0.00    -0.014 A 
ATOM     65  C   UNL     1      -2.278  10.564   2.846  1.00  0.00     0.009 A 
ATOM     66  C   UNL     1      -0.742  11.793   4.257  1.00  0.00     0.009 A 
ATOM     67  C   UNL     1      -2.346  11.652   1.974  1.00  0.00     0.001 A 
ATOM     68  C   UNL     1      -0.831  12.887   3.395  1.00  0.00     0.001 A 
ATOM     69  C   UNL     1      -1.625  12.813   2.251  1.00  0.00     0.000 A 
ENDBRANCH  50  64
BRANCH  51  70
ATOM     70  C   UNL     1      -0.561   2.568   9.778  1.00  0.00    -0.014 A 
ATOM     71  C   UNL     1      -1.682   1.787  10.098  1.00  0.00     0.009 A 
ATOM     72  C   UNL     1       0.681   2.237  10.341  1.00  0.00     0.009 A 
ATOM     73  C   UNL     1      -1.568   0.720  10.992  1.00  0.00     0.001 A 
ATOM     74  C   UNL     1       0.797   1.154  11.215  1.00  0.00     0.001 A 
ATOM     75  C   UNL     1      -0.330   0.403  11.548  1.00  0.00     0.000 A 
ENDBRANCH  51  70
BRANCH  63  76
ATOM     76  C   UNL     1      -3.662   8.735  10.600  1.00  0.00    -0.014 A 
ATOM     77  C   UNL     1      -3.047   9.146  11.793  1.00  0.00     0.009 A 
ATOM     78  C   UNL     1      -5.048   8.908  10.454  1.00  0.00     0.009 A 
ATOM     79  C   UNL     1      -3.810   9.683  12.832  1.00  0.00     0.001 A 
ATOM     80  C   UNL     1      -5.803   9.471  11.484  1.00  0.00     0.001 A 
ATOM     81  C   UNL     1      -5.186   9.848  12.676  1.00  0.00     0.000 A 
ENDBRANCH  63  76
ENDBRANCH  37  38
ENDBRANCH  30  32
ENDBRANCH  29  30
ENDBRANCH  28  29
ENDBRANCH  27  28
ENDBRANCH  26  27
ENDBRANCH   2  26
TORSDOF 17
