REMARK SMILES COc1ccc(/C=C/c2cc(OC)cc(OC)c2/C=C/C(=O)OCCOC(=O)c2ccc(-c3c4nc(c(-c5ccccc5)c5ccc([nH]5)c(-c5ccccc5)c5nc(c(-c6ccccc6)c6ccc3[nH]6)C=C5)C=C4)cc2)cc1
REMARK SMILES IDX 24 1 23 2 21 3 22 4 20 5 19 6 18 7 9 8 10 9 11 10 15 11
REMARK SMILES IDX 14 12 8 13 7 14 6 15 3 16 4 17 78 18 5 19 77 20 2 21 1 22
REMARK SMILES IDX 12 23 13 24 16 25 17 26 25 27 26 28 27 29 28 30 29 31 30 32
REMARK SMILES IDX 76 33 31 34 75 35 32 36 33 37 34 38 69 39 35 40 74 41 68 42
REMARK SMILES IDX 70 43 36 44 73 45 67 46 66 47 37 49 59 50 44 51 58 52 45 53
REMARK SMILES IDX 48 54 57 55 71 56 46 57 47 58 56 60 72 61 49 62 38 63 39 64
REMARK SMILES IDX 43 65 40 66 42 67 41 68 60 69 61 70 65 71 62 72 64 73 63 74
REMARK SMILES IDX 50 75 51 76 55 77 52 78 54 79 53 80
REMARK H PARENT 70 48 48 59
REMARK Flexibility Score: inf
ROOT
ATOM      1  C   UNL     1       6.318   5.615  -2.585  1.00  0.00     0.275 C 
ENDROOT
BRANCH   1   2
ATOM      2  O   UNL     1       5.430   6.568  -1.968  1.00  0.00    -0.459 OA
BRANCH   2   3
ATOM      3  C   UNL     1       5.954   7.314  -0.965  1.00  0.00     0.330 C 
ATOM      4  O   UNL     1       7.107   7.282  -0.567  1.00  0.00    -0.247 OA
BRANCH   3   5
ATOM      5  C   UNL     1       4.954   8.205  -0.341  1.00  0.00     0.094 C 
ATOM      6  C   UNL     1       3.759   8.498  -0.875  1.00  0.00     0.020 C 
BRANCH   6   7
ATOM      7  C   UNL     1       2.768   9.366  -0.202  1.00  0.00     0.024 A 
ATOM      8  C   UNL     1       1.498   8.837   0.127  1.00  0.00    -0.011 A 
ATOM      9  C   UNL     1       0.532   9.656   0.739  1.00  0.00     0.055 A 
ATOM     10  C   UNL     1       0.795  10.994   1.031  1.00  0.00     0.123 A 
ATOM     11  C   UNL     1       3.017  10.720   0.109  1.00  0.00     0.130 A 
ATOM     12  C   UNL     1       2.047  11.515   0.734  1.00  0.00     0.093 A 
BRANCH   8  13
ATOM     13  C   UNL     1       1.094   7.452  -0.174  1.00  0.00     0.009 C 
ATOM     14  C   UNL     1       1.698   6.379   0.361  1.00  0.00     0.009 C 
BRANCH  14  15
ATOM     15  C   UNL     1       1.355   4.986   0.037  1.00  0.00    -0.025 A 
ATOM     16  C   UNL     1       0.779   2.284  -0.525  1.00  0.00     0.118 A 
ATOM     17  C   UNL     1      -0.200   3.263  -0.685  1.00  0.00     0.047 A 
ATOM     18  C   UNL     1       2.054   2.653  -0.100  1.00  0.00     0.047 A 
ATOM     19  C   UNL     1       0.079   4.601  -0.390  1.00  0.00     0.012 A 
ATOM     20  C   UNL     1       2.337   3.995   0.185  1.00  0.00     0.012 A 
BRANCH  16  21
ATOM     21  O   UNL     1       0.394   1.013  -0.848  1.00  0.00    -0.497 OA
ATOM     22  C   UNL     1       1.027  -0.018  -0.098  1.00  0.00     0.278 C 
ENDBRANCH  16  21
ENDBRANCH  14  15
ENDBRANCH   8  13
BRANCH  10  23
ATOM     23  O   UNL     1      -0.237  11.680   1.610  1.00  0.00    -0.497 OA
ATOM     24  C   UNL     1      -0.125  13.100   1.619  1.00  0.00     0.278 C 
ENDBRANCH  10  23
BRANCH  11  25
ATOM     25  O   UNL     1       4.209  11.366  -0.095  1.00  0.00    -0.496 OA
ATOM     26  C   UNL     1       4.609  11.402  -1.459  1.00  0.00     0.278 C 
ENDBRANCH  11  25
ENDBRANCH   6   7
ENDBRANCH   3   5
ENDBRANCH   2   3
ENDBRANCH   1   2
BRANCH   1  27
ATOM     27  C   UNL     1       6.635   6.016  -4.023  1.00  0.00     0.275 C 
BRANCH  27  28
ATOM     28  O   UNL     1       7.373   7.252  -4.040  1.00  0.00    -0.458 OA
BRANCH  28  29
ATOM     29  C   UNL     1       6.694   8.323  -4.491  1.00  0.00     0.338 C 
ATOM     30  O   UNL     1       5.546   8.360  -4.930  1.00  0.00    -0.246 OA
BRANCH  29  31
ATOM     31  C   UNL     1       7.500   9.534  -4.328  1.00  0.00     0.060 A 
ATOM     32  C   UNL     1       7.529  10.140  -3.076  1.00  0.00     0.016 A 
ATOM     33  C   UNL     1       8.064  10.171  -5.433  1.00  0.00     0.016 A 
ATOM     34  C   UNL     1       8.006  11.444  -2.949  1.00  0.00     0.010 A 
ATOM     35  C   UNL     1       8.640  11.438  -5.278  1.00  0.00     0.010 A 
ATOM     36  C   UNL     1       8.572  12.115  -4.046  1.00  0.00    -0.014 A 
BRANCH  36  37
ATOM     37  C   UNL     1       9.043  13.527  -3.912  1.00  0.00     0.031 A 
ATOM     38  C   UNL     1       8.479  14.616  -4.795  1.00  0.00     0.074 A 
ATOM     39  C   UNL     1       9.957  13.861  -2.978  1.00  0.00     0.049 A 
ATOM     40  N   UNL     1       8.871  15.860  -4.927  1.00  0.00    -0.248 NA
ATOM     41  C   UNL     1       7.332  14.261  -5.646  1.00  0.00     0.031 C 
ATOM     42  C   UNL     1      10.563  12.943  -2.011  1.00  0.00     0.029 A 
ATOM     43  N   UNL     1      10.526  15.076  -2.678  1.00  0.00    -0.354 N 
ATOM     44  C   UNL     1       8.062  16.414  -5.913  1.00  0.00     0.074 A 
ATOM     45  C   UNL     1       7.154  15.374  -6.345  1.00  0.00     0.031 C 
ATOM     46  C   UNL     1      11.371  13.633  -1.193  1.00  0.00     0.029 A 
ATOM     47  C   UNL     1      11.415  15.024  -1.632  1.00  0.00     0.049 A 
ATOM     48  H   UNL     1      10.316  15.904  -3.166  1.00  0.00     0.167 HD
ATOM     49  C   UNL     1       8.074  17.672  -6.418  1.00  0.00     0.031 A 
ATOM     50  C   UNL     1      12.211  15.971  -1.101  1.00  0.00     0.031 A 
ATOM     51  C   UNL     1       8.934  18.732  -5.963  1.00  0.00     0.049 A 
ATOM     52  C   UNL     1      12.230  17.347  -1.699  1.00  0.00     0.074 A 
ATOM     53  C   UNL     1       9.008  20.039  -6.418  1.00  0.00     0.029 A 
ATOM     54  N   UNL     1       9.853  18.616  -4.934  1.00  0.00    -0.354 N 
ATOM     55  N   UNL     1      11.512  17.830  -2.682  1.00  0.00    -0.248 NA
ATOM     56  C   UNL     1      13.191  18.302  -1.126  1.00  0.00     0.031 C 
ATOM     57  C   UNL     1       9.995  20.706  -5.683  1.00  0.00     0.029 A 
ATOM     58  C   UNL     1      10.506  19.824  -4.746  1.00  0.00     0.049 A 
ATOM     59  H   UNL     1      10.019  17.797  -4.414  1.00  0.00     0.167 HD
ATOM     60  C   UNL     1      11.932  19.143  -2.845  1.00  0.00     0.074 A 
ATOM     61  C   UNL     1      12.948  19.390  -1.844  1.00  0.00     0.031 C 
ATOM     62  C   UNL     1      11.518  20.058  -3.753  1.00  0.00     0.031 A 
BRANCH  49  63
ATOM     63  C   UNL     1       7.143  17.972  -7.559  1.00  0.00    -0.014 A 
ATOM     64  C   UNL     1       5.771  18.177  -7.351  1.00  0.00     0.009 A 
ATOM     65  C   UNL     1       7.664  18.109  -8.856  1.00  0.00     0.009 A 
ATOM     66  C   UNL     1       4.935  18.489  -8.427  1.00  0.00     0.001 A 
ATOM     67  C   UNL     1       6.830  18.443  -9.924  1.00  0.00     0.001 A 
ATOM     68  C   UNL     1       5.465  18.627  -9.710  1.00  0.00     0.000 A 
ENDBRANCH  49  63
BRANCH  50  69
ATOM     69  C   UNL     1      13.107  15.633   0.034  1.00  0.00    -0.014 A 
ATOM     70  C   UNL     1      12.854  16.141   1.317  1.00  0.00     0.009 A 
ATOM     71  C   UNL     1      14.222  14.803  -0.163  1.00  0.00     0.009 A 
ATOM     72  C   UNL     1      13.709  15.833   2.378  1.00  0.00     0.001 A 
ATOM     73  C   UNL     1      15.058  14.475   0.905  1.00  0.00     0.001 A 
ATOM     74  C   UNL     1      14.805  14.996   2.173  1.00  0.00     0.000 A 
ENDBRANCH  50  69
BRANCH  62  75
ATOM     75  C   UNL     1      12.153  21.416  -3.690  1.00  0.00    -0.014 A 
ATOM     76  C   UNL     1      13.451  21.628  -4.179  1.00  0.00     0.009 A 
ATOM     77  C   UNL     1      11.438  22.498  -3.156  1.00  0.00     0.009 A 
ATOM     78  C   UNL     1      14.033  22.895  -4.106  1.00  0.00     0.001 A 
ATOM     79  C   UNL     1      12.015  23.768  -3.103  1.00  0.00     0.001 A 
ATOM     80  C   UNL     1      13.314  23.963  -3.571  1.00  0.00     0.000 A 
ENDBRANCH  62  75
ENDBRANCH  36  37
ENDBRANCH  29  31
ENDBRANCH  28  29
ENDBRANCH  27  28
ENDBRANCH   1  27
TORSDOF 17
