REMARK SMILES CC1(C)CCN(C(=O)N[C@H]2COC[C@@]2(C)C(=O)OCCOC(=O)c2ccc(-c3c4nc(c(-c5ccccc5)c5ccc([nH]5)c(-c5ccccc5)c5nc(c(-c6ccccc6)c6ccc3[nH]6)C=C5)C=C4)cc2)C1
REMARK SMILES IDX 19 1 18 2 16 3 17 4 14 5 10 6 11 7 12 8 13 9 15 10 9 11 7 12
REMARK SMILES IDX 8 13 6 15 1 16 2 17 3 18 4 19 72 20 5 21 20 22 21 23 22 24
REMARK SMILES IDX 23 25 24 26 25 27 71 28 26 29 70 30 27 31 28 32 29 33 64 34
REMARK SMILES IDX 30 35 69 36 63 37 65 38 31 39 68 40 62 41 61 42 32 44 54 45
REMARK SMILES IDX 39 46 53 47 40 48 43 49 52 50 66 51 41 52 42 53 51 55 67 56
REMARK SMILES IDX 44 57 33 58 34 59 38 60 35 61 37 62 36 63 55 64 56 65 60 66
REMARK SMILES IDX 57 67 59 68 58 69 45 70 46 71 50 72 47 73 49 74 48 75
REMARK H PARENT 9 14 65 43 43 54
REMARK Flexibility Score: inf
ROOT
ATOM      1  C   UNL     1      -1.043  -0.042   0.190  1.00  0.00     0.274 C 
ENDROOT
BRANCH   1   2
ATOM      2  O   UNL     1       0.041   0.910   0.140  1.00  0.00    -0.462 OA
BRANCH   2   3
ATOM      3  C   UNL     1      -0.174   2.123   0.729  1.00  0.00     0.316 C 
ATOM      4  O   UNL     1      -1.240   2.492   1.201  1.00  0.00    -0.251 OA
BRANCH   3   5
ATOM      5  C   UNL     1       1.115   2.922   0.782  1.00  0.00     0.111 C 
ATOM      6  C   UNL     1       1.500   3.543  -0.557  1.00  0.00     0.129 C 
ATOM      7  C   UNL     1       2.444   4.654  -0.138  1.00  0.00     0.186 C 
ATOM      8  O   UNL     1       2.017   5.087   1.169  1.00  0.00    -0.378 OA
ATOM      9  C   UNL     1       1.016   4.166   1.649  1.00  0.00     0.181 C 
ATOM     10  C   UNL     1       2.248   2.028   1.345  1.00  0.00     0.028 C 
BRANCH   6  11
ATOM     11  N   UNL     1       0.385   3.888  -1.462  1.00  0.00    -0.332 N 
ATOM     12  C   UNL     1      -0.544   4.787  -1.795  1.00  0.00     0.317 C 
ATOM     13  O   UNL     1      -1.284   4.390  -2.708  1.00  0.00    -0.249 OA
ATOM     14  H   UNL     1       0.283   3.133  -2.086  1.00  0.00     0.165 HD
BRANCH  12  15
ATOM     15  N   UNL     1      -0.710   6.024  -1.284  1.00  0.00    -0.324 N 
ATOM     16  C   UNL     1       0.750   8.752  -1.546  1.00  0.00     0.013 C 
ATOM     17  C   UNL     1      -0.293   8.246  -0.534  1.00  0.00    -0.016 C 
ATOM     18  C   UNL     1      -0.229   9.103   0.731  1.00  0.00     0.013 C 
ATOM     19  C   UNL     1      -1.698   8.201  -1.140  1.00  0.00     0.030 C 
ATOM     20  C   UNL     1      -0.051   6.762  -0.225  1.00  0.00     0.127 C 
ATOM     21  C   UNL     1      -1.722   6.880  -1.903  1.00  0.00     0.122 C 
ENDBRANCH  12  15
ENDBRANCH   6  11
ENDBRANCH   3   5
ENDBRANCH   2   3
ENDBRANCH   1   2
BRANCH   1  22
ATOM     22  C   UNL     1      -0.900  -0.951   1.413  1.00  0.00     0.275 C 
BRANCH  22  23
ATOM     23  O   UNL     1      -1.137  -0.175   2.601  1.00  0.00    -0.458 OA
BRANCH  23  24
ATOM     24  C   UNL     1      -0.300  -0.390   3.640  1.00  0.00     0.338 C 
ATOM     25  O   UNL     1       0.584  -1.220   3.731  1.00  0.00    -0.246 OA
BRANCH  24  26
ATOM     26  C   UNL     1      -0.576   0.626   4.671  1.00  0.00     0.060 A 
ATOM     27  C   UNL     1      -0.270   1.957   4.393  1.00  0.00     0.016 A 
ATOM     28  C   UNL     1      -1.052   0.265   5.928  1.00  0.00     0.016 A 
ATOM     29  C   UNL     1      -0.404   2.936   5.370  1.00  0.00     0.010 A 
ATOM     30  C   UNL     1      -1.236   1.257   6.899  1.00  0.00     0.010 A 
ATOM     31  C   UNL     1      -0.894   2.597   6.633  1.00  0.00    -0.014 A 
BRANCH  31  32
ATOM     32  C   UNL     1      -0.991   3.638   7.686  1.00  0.00     0.031 A 
ATOM     33  C   UNL     1      -0.082   3.576   8.881  1.00  0.00     0.074 A 
ATOM     34  C   UNL     1      -1.862   4.657   7.557  1.00  0.00     0.049 A 
ATOM     35  N   UNL     1      -0.090   4.312   9.963  1.00  0.00    -0.248 NA
ATOM     36  C   UNL     1       0.975   2.552   8.857  1.00  0.00     0.031 C 
ATOM     37  C   UNL     1      -2.751   4.878   6.415  1.00  0.00     0.029 A 
ATOM     38  N   UNL     1      -2.139   5.704   8.402  1.00  0.00    -0.354 N 
ATOM     39  C   UNL     1       0.928   3.814  10.765  1.00  0.00     0.074 A 
ATOM     40  C   UNL     1       1.538   2.717  10.045  1.00  0.00     0.031 C 
ATOM     41  C   UNL     1      -3.468   5.994   6.627  1.00  0.00     0.029 A 
ATOM     42  C   UNL     1      -3.138   6.528   7.944  1.00  0.00     0.049 A 
ATOM     43  H   UNL     1      -1.668   5.849   9.254  1.00  0.00     0.167 HD
ATOM     44  C   UNL     1       1.314   4.229  11.994  1.00  0.00     0.031 A 
ATOM     45  C   UNL     1      -3.750   7.571   8.536  1.00  0.00     0.031 A 
ATOM     46  C   UNL     1       0.730   5.337  12.699  1.00  0.00     0.049 A 
ATOM     47  C   UNL     1      -3.341   7.973   9.926  1.00  0.00     0.074 A 
ATOM     48  C   UNL     1       1.064   5.837  13.946  1.00  0.00     0.029 A 
ATOM     49  N   UNL     1      -0.304   6.121  12.216  1.00  0.00    -0.354 N 
ATOM     50  N   UNL     1      -2.396   7.474  10.685  1.00  0.00    -0.248 NA
ATOM     51  C   UNL     1      -4.096   9.072  10.546  1.00  0.00     0.031 C 
ATOM     52  C   UNL     1       0.202   6.900  14.235  1.00  0.00     0.029 A 
ATOM     53  C   UNL     1      -0.639   7.086  13.150  1.00  0.00     0.049 A 
ATOM     54  H   UNL     1      -0.737   6.008  11.339  1.00  0.00     0.167 HD
ATOM     55  C   UNL     1      -2.435   8.206  11.865  1.00  0.00     0.074 A 
ATOM     56  C   UNL     1      -3.480   9.197  11.713  1.00  0.00     0.031 C 
ATOM     57  C   UNL     1      -1.679   8.064  12.980  1.00  0.00     0.031 A 
BRANCH  44  58
ATOM     58  C   UNL     1       2.393   3.447  12.683  1.00  0.00    -0.014 A 
ATOM     59  C   UNL     1       3.744   3.597  12.336  1.00  0.00     0.009 A 
ATOM     60  C   UNL     1       2.049   2.583  13.735  1.00  0.00     0.009 A 
ATOM     61  C   UNL     1       4.729   2.880  13.020  1.00  0.00     0.001 A 
ATOM     62  C   UNL     1       3.037   1.884  14.428  1.00  0.00     0.001 A 
ATOM     63  C   UNL     1       4.375   2.029  14.067  1.00  0.00     0.000 A 
ENDBRANCH  44  58
BRANCH  45  64
ATOM     64  C   UNL     1      -4.870   8.270   7.852  1.00  0.00    -0.014 A 
ATOM     65  C   UNL     1      -4.729   9.594   7.412  1.00  0.00     0.009 A 
ATOM     66  C   UNL     1      -6.101   7.620   7.670  1.00  0.00     0.009 A 
ATOM     67  C   UNL     1      -5.809  10.262   6.828  1.00  0.00     0.001 A 
ATOM     68  C   UNL     1      -7.169   8.281   7.061  1.00  0.00     0.001 A 
ATOM     69  C   UNL     1      -7.026   9.604   6.650  1.00  0.00     0.000 A 
ENDBRANCH  45  64
BRANCH  57  70
ATOM     70  C   UNL     1      -1.940   9.019  14.108  1.00  0.00    -0.014 A 
ATOM     71  C   UNL     1      -3.071   8.879  14.926  1.00  0.00     0.009 A 
ATOM     72  C   UNL     1      -1.028  10.052  14.373  1.00  0.00     0.009 A 
ATOM     73  C   UNL     1      -3.298   9.775  15.972  1.00  0.00     0.001 A 
ATOM     74  C   UNL     1      -1.246  10.931  15.433  1.00  0.00     0.001 A 
ATOM     75  C   UNL     1      -2.384  10.797  16.227  1.00  0.00     0.000 A 
ENDBRANCH  57  70
ENDBRANCH  31  32
ENDBRANCH  24  26
ENDBRANCH  23  24
ENDBRANCH  22  23
ENDBRANCH   1  22
TORSDOF 13
