REMARK SMILES CC(C)C[C@H](NC(=O)[C@H](Cc1ccccc1)NC(=O)CNC(=O)C[NH3+])C(=O)OCCOC(=O)c1ccc(-c2c3nc(c(-c4ccccc4)c4ccc([nH]4)c(-c4ccccc4)c4nc(c(-c5ccccc5)c5ccc2[nH]5)C=C4)C=C3)cc1
REMARK SMILES IDX 26 1 27 2 5 3 4 4 2 5 1 6 3 7 6 8 7 9 8 11 9 12 17 13 18 14
REMARK SMILES IDX 19 16 20 17 21 18 22 19 23 21 24 22 25 23 10 27 11 28 12 29
REMARK SMILES IDX 16 30 13 31 15 32 14 33 28 34 29 35 30 36 31 37 32 38 33 39
REMARK SMILES IDX 34 40 35 41 81 42 36 43 80 44 37 45 38 46 39 47 74 48 40 49
REMARK SMILES IDX 79 50 73 51 75 52 41 53 78 54 72 55 71 56 42 58 64 59 49 60
REMARK SMILES IDX 63 61 50 62 53 63 62 64 76 65 51 66 52 67 61 69 77 70 54 71
REMARK SMILES IDX 43 72 44 73 48 74 45 75 47 76 46 77 65 78 66 79 70 80 67 81
REMARK SMILES IDX 69 82 68 83 55 84 56 85 60 86 57 87 59 88 58 89
REMARK H PARENT 6 10 17 15 21 20 25 24 25 25 25 26 75 57 53 68
REMARK Flexibility Score: inf
ROOT
ATOM      1  C   UNL     1      -5.687  -3.531   1.959  1.00  0.00     0.328 C 
ATOM      2  O   UNL     1      -5.482  -3.666   0.757  1.00  0.00    -0.250 OA
ENDROOT
BRANCH   1   3
ATOM      3  C   UNL     1      -5.867  -2.154   2.601  1.00  0.00     0.192 C 
BRANCH   3   4
ATOM      4  C   UNL     1      -4.514  -1.457   2.885  1.00  0.00     0.040 C 
BRANCH   4   5
ATOM      5  C   UNL     1      -3.199  -2.275   2.955  1.00  0.00    -0.015 C 
ATOM      6  C   UNL     1      -2.660  -2.683   1.575  1.00  0.00     0.007 C 
ATOM      7  C   UNL     1      -2.117  -1.417   3.629  1.00  0.00     0.007 C 
ENDBRANCH   4   5
ENDBRANCH   3   4
BRANCH   3   8
ATOM      8  N   UNL     1      -6.728  -2.185   3.789  1.00  0.00    -0.341 N 
ATOM      9  C   UNL     1      -7.774  -1.405   4.206  1.00  0.00     0.243 C 
ATOM     10  H   UNL     1      -6.510  -2.914   4.413  1.00  0.00     0.164 HD
ATOM     11  O   UNL     1      -8.274  -1.739   5.288  1.00  0.00    -0.273 OA
BRANCH   9  12
ATOM     12  C   UNL     1      -8.247  -0.089   3.482  1.00  0.00     0.175 C 
BRANCH  12  13
ATOM     13  N   UNL     1      -8.584  -0.267   2.066  1.00  0.00    -0.342 N 
ATOM     14  C   UNL     1      -8.062   0.435   1.009  1.00  0.00     0.240 C 
ATOM     15  H   UNL     1      -9.251  -0.959   1.853  1.00  0.00     0.164 HD
ATOM     16  O   UNL     1      -8.754   0.590   0.002  1.00  0.00    -0.273 OA
BRANCH  14  17
ATOM     17  C   UNL     1      -6.685   1.102   1.120  1.00  0.00     0.216 C 
BRANCH  17  18
ATOM     18  N   UNL     1      -6.734   2.474   1.582  1.00  0.00    -0.342 N 
ATOM     19  C   UNL     1      -6.081   3.049   2.634  1.00  0.00     0.275 C 
ATOM     20  H   UNL     1      -7.318   3.075   1.065  1.00  0.00     0.164 HD
ATOM     21  O   UNL     1      -6.379   4.199   2.960  1.00  0.00    -0.268 OA
BRANCH  19  22
ATOM     22  C   UNL     1      -5.008   2.270   3.406  1.00  0.00     0.360 C 
BRANCH  22  23
ATOM     23  N   UNL     1      -5.590   1.626   4.591  1.00  0.00    -0.350 N 
ATOM     24  H   UNL     1      -5.980   2.339   5.208  1.00  0.00     0.344 HD
ATOM     25  H   UNL     1      -4.866   1.107   5.087  1.00  0.00     0.344 HD
ATOM     26  H   UNL     1      -6.330   0.986   4.302  1.00  0.00     0.344 HD
ENDBRANCH  22  23
ENDBRANCH  19  22
ENDBRANCH  17  18
ENDBRANCH  14  17
ENDBRANCH  12  13
BRANCH  12  27
ATOM     27  C   UNL     1      -9.451   0.522   4.288  1.00  0.00     0.070 C 
BRANCH  27  28
ATOM     28  C   UNL     1     -10.205   1.785   3.884  1.00  0.00    -0.045 A 
ATOM     29  C   UNL     1      -9.978   2.530   2.728  1.00  0.00     0.004 A 
ATOM     30  C   UNL     1     -11.242   2.234   4.725  1.00  0.00     0.004 A 
ATOM     31  C   UNL     1     -10.746   3.653   2.396  1.00  0.00     0.000 A 
ATOM     32  C   UNL     1     -12.014   3.360   4.405  1.00  0.00     0.000 A 
ATOM     33  C   UNL     1     -11.768   4.068   3.234  1.00  0.00     0.000 A 
ENDBRANCH  27  28
ENDBRANCH  12  27
ENDBRANCH   9  12
ENDBRANCH   3   8
ENDBRANCH   1   3
BRANCH   1  34
ATOM     34  O   UNL     1      -5.647  -4.541   2.873  1.00  0.00    -0.461 OA
BRANCH  34  35
ATOM     35  C   UNL     1      -5.268  -5.830   2.350  1.00  0.00     0.274 C 
BRANCH  35  36
ATOM     36  C   UNL     1      -6.470  -6.712   1.996  1.00  0.00     0.275 C 
BRANCH  36  37
ATOM     37  O   UNL     1      -7.238  -6.177   0.903  1.00  0.00    -0.458 OA
BRANCH  37  38
ATOM     38  C   UNL     1      -8.222  -5.325   1.274  1.00  0.00     0.338 C 
ATOM     39  O   UNL     1      -8.540  -5.016   2.409  1.00  0.00    -0.246 OA
BRANCH  38  40
ATOM     40  C   UNL     1      -8.755  -4.631   0.092  1.00  0.00     0.060 A 
ATOM     41  C   UNL     1      -8.610  -3.245   0.059  1.00  0.00     0.016 A 
ATOM     42  C   UNL     1      -9.462  -5.292  -0.912  1.00  0.00     0.016 A 
ATOM     43  C   UNL     1      -9.175  -2.509  -0.971  1.00  0.00     0.010 A 
ATOM     44  C   UNL     1     -10.053  -4.542  -1.939  1.00  0.00     0.010 A 
ATOM     45  C   UNL     1      -9.926  -3.142  -1.959  1.00  0.00    -0.014 A 
BRANCH  45  46
ATOM     46  C   UNL     1     -10.695  -2.293  -2.898  1.00  0.00     0.031 A 
ATOM     47  C   UNL     1     -12.172  -2.134  -2.686  1.00  0.00     0.074 A 
ATOM     48  C   UNL     1     -10.072  -1.571  -3.847  1.00  0.00     0.049 A 
ATOM     49  N   UNL     1     -13.062  -1.550  -3.445  1.00  0.00    -0.248 NA
ATOM     50  C   UNL     1     -12.719  -2.706  -1.444  1.00  0.00     0.031 C 
ATOM     51  C   UNL     1      -8.624  -1.508  -4.054  1.00  0.00     0.029 A 
ATOM     52  N   UNL     1     -10.584  -0.732  -4.803  1.00  0.00    -0.354 N 
ATOM     53  C   UNL     1     -14.278  -1.721  -2.796  1.00  0.00     0.074 A 
ATOM     54  C   UNL     1     -14.014  -2.458  -1.580  1.00  0.00     0.031 C 
ATOM     55  C   UNL     1      -8.365  -0.665  -5.067  1.00  0.00     0.029 A 
ATOM     56  C   UNL     1      -9.627  -0.186  -5.623  1.00  0.00     0.049 A 
ATOM     57  H   UNL     1     -11.545  -0.539  -4.894  1.00  0.00     0.167 HD
ATOM     58  C   UNL     1     -15.505  -1.308  -3.189  1.00  0.00     0.031 A 
ATOM     59  C   UNL     1      -9.760   0.580  -6.723  1.00  0.00     0.031 A 
ATOM     60  C   UNL     1     -15.755  -0.557  -4.388  1.00  0.00     0.049 A 
ATOM     61  C   UNL     1     -11.141   0.934  -7.202  1.00  0.00     0.074 A 
ATOM     62  C   UNL     1     -16.966  -0.133  -4.907  1.00  0.00     0.029 A 
ATOM     63  N   UNL     1     -14.767  -0.102  -5.247  1.00  0.00    -0.354 N 
ATOM     64  N   UNL     1     -12.301   0.669  -6.650  1.00  0.00    -0.248 NA
ATOM     65  C   UNL     1     -11.232   1.674  -8.468  1.00  0.00     0.031 C 
ATOM     66  C   UNL     1     -16.711   0.545  -6.105  1.00  0.00     0.029 A 
ATOM     67  C   UNL     1     -15.340   0.585  -6.303  1.00  0.00     0.049 A 
ATOM     68  H   UNL     1     -13.801  -0.245  -5.124  1.00  0.00     0.167 HD
ATOM     69  C   UNL     1     -13.257   1.220  -7.492  1.00  0.00     0.074 A 
ATOM     70  C   UNL     1     -12.541   1.850  -8.583  1.00  0.00     0.031 C 
ATOM     71  C   UNL     1     -14.607   1.202  -7.378  1.00  0.00     0.031 A 
BRANCH  58  72
ATOM     72  C   UNL     1     -16.673  -1.730  -2.345  1.00  0.00    -0.014 A 
ATOM     73  C   UNL     1     -16.940  -1.136  -1.103  1.00  0.00     0.009 A 
ATOM     74  C   UNL     1     -17.527  -2.741  -2.814  1.00  0.00     0.009 A 
ATOM     75  C   UNL     1     -18.022  -1.570  -0.333  1.00  0.00     0.001 A 
ATOM     76  C   UNL     1     -18.622  -3.155  -2.054  1.00  0.00     0.001 A 
ATOM     77  C   UNL     1     -18.864  -2.575  -0.810  1.00  0.00     0.000 A 
ENDBRANCH  58  72
BRANCH  59  78
ATOM     78  C   UNL     1      -8.558   1.000  -7.489  1.00  0.00    -0.014 A 
ATOM     79  C   UNL     1      -8.176   2.348  -7.547  1.00  0.00     0.009 A 
ATOM     80  C   UNL     1      -7.792   0.049  -8.183  1.00  0.00     0.009 A 
ATOM     81  C   UNL     1      -7.061   2.736  -8.296  1.00  0.00     0.001 A 
ATOM     82  C   UNL     1      -6.662   0.435  -8.907  1.00  0.00     0.001 A 
ATOM     83  C   UNL     1      -6.303   1.779  -8.970  1.00  0.00     0.000 A 
ENDBRANCH  59  78
BRANCH  71  84
ATOM     84  C   UNL     1     -15.393   1.907  -8.444  1.00  0.00    -0.014 A 
ATOM     85  C   UNL     1     -15.552   1.344  -9.720  1.00  0.00     0.009 A 
ATOM     86  C   UNL     1     -16.017   3.130  -8.153  1.00  0.00     0.009 A 
ATOM     87  C   UNL     1     -16.299   2.009 -10.693  1.00  0.00     0.001 A 
ATOM     88  C   UNL     1     -16.784   3.779  -9.121  1.00  0.00     0.001 A 
ATOM     89  C   UNL     1     -16.918   3.223 -10.392  1.00  0.00     0.000 A 
ENDBRANCH  71  84
ENDBRANCH  45  46
ENDBRANCH  38  40
ENDBRANCH  37  38
ENDBRANCH  36  37
ENDBRANCH  35  36
ENDBRANCH  34  35
ENDBRANCH   1  34
TORSDOF 22
