REMARK SMILES [NH3+][C@]1(C(=O)OCCOC(=O)c2ccc(-c3c4nc(c(-c5ccccc5)c5ccc([nH]5)c(-c5ccccc5)c5nc(c(-c6ccccc6)c6ccc3[nH]6)C=C5)C=C4)cc2)CCC[C@@H](OC2CCC2)C1
REMARK SMILES IDX 6 1 5 2 3 3 4 4 2 5 59 6 68 7 60 8 62 9 61 10 1 11 63 15
REMARK SMILES IDX 64 16 65 17 67 18 66 19 7 20 8 21 9 22 10 23 11 24 12 25
REMARK SMILES IDX 58 26 13 27 57 28 14 29 15 30 16 31 51 32 17 33 56 34 50 35
REMARK SMILES IDX 52 36 18 37 55 38 49 39 48 40 19 42 41 43 26 44 40 45 27 46
REMARK SMILES IDX 30 47 39 48 53 49 28 50 29 51 38 53 54 54 31 55 20 56 21 57
REMARK SMILES IDX 25 58 22 59 24 60 23 61 42 62 43 63 47 64 44 65 46 66 45 67
REMARK SMILES IDX 32 68 33 69 37 70 34 71 36 72 35 73
REMARK H PARENT 1 12 1 13 1 14 52 41 30 52
REMARK Flexibility Score: inf
ROOT
ATOM      1  C   UNL     1      -2.136   0.035  -3.601  1.00  0.00     0.274 C 
ENDROOT
BRANCH   1   2
ATOM      2  O   UNL     1      -1.704   0.481  -2.275  1.00  0.00    -0.457 OA
BRANCH   2   3
ATOM      3  C   UNL     1      -1.897  -0.375  -1.224  1.00  0.00     0.368 C 
ATOM      4  O   UNL     1      -2.330  -1.515  -1.382  1.00  0.00    -0.245 OA
BRANCH   3   5
ATOM      5  C   UNL     1      -1.593   0.251   0.235  1.00  0.00     0.195 C 
ATOM      6  C   UNL     1      -1.009  -0.856   1.159  1.00  0.00     0.081 C 
ATOM      7  C   UNL     1      -0.808   1.598   0.325  1.00  0.00     0.113 C 
ATOM      8  C   UNL     1       0.505  -0.915   1.333  1.00  0.00     0.010 C 
ATOM      9  C   UNL     1       0.662   1.616   0.824  1.00  0.00     0.125 C 
ATOM     10  C   UNL     1       1.188   0.413   1.601  1.00  0.00     0.032 C 
BRANCH   5  11
ATOM     11  N   UNL     1      -2.966   0.530   0.782  1.00  0.00    -0.343 N 
ATOM     12  H   UNL     1      -3.526  -0.322   0.747  1.00  0.00     0.345 HD
ATOM     13  H   UNL     1      -3.415   1.254   0.222  1.00  0.00     0.345 HD
ATOM     14  H   UNL     1      -2.890   0.847   1.749  1.00  0.00     0.345 HD
ENDBRANCH   5  11
BRANCH   9  15
ATOM     15  O   UNL     1       1.655   2.267   0.011  1.00  0.00    -0.375 OA
BRANCH  15  16
ATOM     16  C   UNL     1       2.154   1.823  -1.272  1.00  0.00     0.118 C 
ATOM     17  C   UNL     1       2.564   0.344  -1.499  1.00  0.00     0.032 C 
ATOM     18  C   UNL     1       1.118   1.619  -2.387  1.00  0.00     0.032 C 
ATOM     19  C   UNL     1       1.123   0.160  -1.935  1.00  0.00     0.005 C 
ENDBRANCH  15  16
ENDBRANCH   9  15
ENDBRANCH   3   5
ENDBRANCH   2   3
ENDBRANCH   1   2
BRANCH   1  20
ATOM     20  C   UNL     1      -1.000  -0.364  -4.579  1.00  0.00     0.275 C 
BRANCH  20  21
ATOM     21  O   UNL     1      -0.413  -1.629  -4.200  1.00  0.00    -0.458 OA
BRANCH  21  22
ATOM     22  C   UNL     1       0.881  -1.859  -4.584  1.00  0.00     0.338 C 
ATOM     23  O   UNL     1       1.469  -1.290  -5.484  1.00  0.00    -0.246 OA
BRANCH  22  24
ATOM     24  C   UNL     1       1.562  -2.722  -3.550  1.00  0.00     0.060 A 
ATOM     25  C   UNL     1       0.892  -3.049  -2.367  1.00  0.00     0.016 A 
ATOM     26  C   UNL     1       2.929  -3.023  -3.641  1.00  0.00     0.016 A 
ATOM     27  C   UNL     1       1.577  -3.619  -1.294  1.00  0.00     0.010 A 
ATOM     28  C   UNL     1       3.580  -3.732  -2.605  1.00  0.00     0.010 A 
ATOM     29  C   UNL     1       2.898  -4.075  -1.426  1.00  0.00    -0.014 A 
BRANCH  29  30
ATOM     30  C   UNL     1       3.443  -5.043  -0.414  1.00  0.00     0.031 A 
ATOM     31  C   UNL     1       4.775  -4.878   0.281  1.00  0.00     0.074 A 
ATOM     32  C   UNL     1       2.712  -6.145  -0.125  1.00  0.00     0.049 A 
ATOM     33  N   UNL     1       5.423  -5.743   1.029  1.00  0.00    -0.248 NA
ATOM     34  C   UNL     1       5.468  -3.592   0.126  1.00  0.00     0.031 C 
ATOM     35  C   UNL     1       1.395  -6.463  -0.687  1.00  0.00     0.029 A 
ATOM     36  N   UNL     1       2.960  -7.202   0.721  1.00  0.00    -0.354 N 
ATOM     37  C   UNL     1       6.620  -5.132   1.391  1.00  0.00     0.074 A 
ATOM     38  C   UNL     1       6.599  -3.811   0.791  1.00  0.00     0.031 C 
ATOM     39  C   UNL     1       0.922  -7.576  -0.120  1.00  0.00     0.029 A 
ATOM     40  C   UNL     1       1.960  -8.146   0.721  1.00  0.00     0.049 A 
ATOM     41  H   UNL     1       3.773  -7.275   1.271  1.00  0.00     0.167 HD
ATOM     42  C   UNL     1       7.641  -5.629   2.138  1.00  0.00     0.031 A 
ATOM     43  C   UNL     1       1.885  -9.378   1.254  1.00  0.00     0.031 A 
ATOM     44  C   UNL     1       7.660  -6.939   2.755  1.00  0.00     0.049 A 
ATOM     45  C   UNL     1       3.053  -9.930   2.003  1.00  0.00     0.074 A 
ATOM     46  C   UNL     1       8.653  -7.507   3.541  1.00  0.00     0.029 A 
ATOM     47  N   UNL     1       6.651  -7.884   2.663  1.00  0.00    -0.354 N 
ATOM     48  N   UNL     1       4.198  -9.359   2.279  1.00  0.00    -0.248 NA
ATOM     49  C   UNL     1       2.921 -11.306   2.497  1.00  0.00     0.031 C 
ATOM     50  C   UNL     1       8.274  -8.814   3.868  1.00  0.00     0.029 A 
ATOM     51  C   UNL     1       7.011  -9.038   3.350  1.00  0.00     0.049 A 
ATOM     52  H   UNL     1       5.802  -7.757   2.181  1.00  0.00     0.167 HD
ATOM     53  C   UNL     1       4.924 -10.306   2.985  1.00  0.00     0.074 A 
ATOM     54  C   UNL     1       4.075 -11.471   3.126  1.00  0.00     0.031 C 
ATOM     55  C   UNL     1       6.187 -10.213   3.467  1.00  0.00     0.031 A 
BRANCH  42  56
ATOM     56  C   UNL     1       8.880  -4.781   2.303  1.00  0.00    -0.014 A 
ATOM     57  C   UNL     1       8.900  -3.643   3.123  1.00  0.00     0.009 A 
ATOM     58  C   UNL     1      10.081  -5.197   1.700  1.00  0.00     0.009 A 
ATOM     59  C   UNL     1      10.088  -2.928   3.315  1.00  0.00     0.001 A 
ATOM     60  C   UNL     1      11.272  -4.499   1.917  1.00  0.00     0.001 A 
ATOM     61  C   UNL     1      11.273  -3.360   2.719  1.00  0.00     0.000 A 
ENDBRANCH  42  56
BRANCH  43  62
ATOM     62  C   UNL     1       0.676 -10.207   1.006  1.00  0.00    -0.014 A 
ATOM     63  C   UNL     1      -0.203 -10.524   2.050  1.00  0.00     0.009 A 
ATOM     64  C   UNL     1       0.378 -10.652  -0.295  1.00  0.00     0.009 A 
ATOM     65  C   UNL     1      -1.353 -11.275   1.797  1.00  0.00     0.001 A 
ATOM     66  C   UNL     1      -0.793 -11.363  -0.551  1.00  0.00     0.001 A 
ATOM     67  C   UNL     1      -1.653 -11.682   0.497  1.00  0.00     0.000 A 
ENDBRANCH  43  62
BRANCH  55  68
ATOM     68  C   UNL     1       6.703 -11.409   4.220  1.00  0.00    -0.014 A 
ATOM     69  C   UNL     1       6.978 -12.622   3.567  1.00  0.00     0.009 A 
ATOM     70  C   UNL     1       6.864 -11.338   5.612  1.00  0.00     0.009 A 
ATOM     71  C   UNL     1       7.341 -13.755   4.300  1.00  0.00     0.001 A 
ATOM     72  C   UNL     1       7.261 -12.463   6.339  1.00  0.00     0.001 A 
ATOM     73  C   UNL     1       7.481 -13.674   5.685  1.00  0.00     0.000 A 
ENDBRANCH  55  68
ENDBRANCH  29  30
ENDBRANCH  22  24
ENDBRANCH  21  22
ENDBRANCH  20  21
ENDBRANCH   1  20
TORSDOF 14
