REMARK SMILES CCN1C(=O)C[C@@H](C(=O)Nc2cccc(C(=O)OCCOC(=O)c3ccc(-c4c5nc(c(-c6ccccc6)c6ccc([nH]6)c(-c6ccccc6)c6nc(c(-c7ccccc7)c7ccc4[nH]7)C=C6)C=C5)cc3)c2)S/C1=[NH+]/c1ccccc1
REMARK SMILES IDX 19 1 18 2 16 3 17 4 15 5 11 6 12 7 72 8 13 9 14 10 10 11
REMARK SMILES IDX 8 12 9 13 7 15 3 16 4 17 74 18 5 19 6 20 73 21 75 22 2 24
REMARK SMILES IDX 1 25 76 26 77 27 81 28 78 29 80 30 79 31 20 32 21 33 22 34
REMARK SMILES IDX 23 35 24 36 25 37 71 38 26 39 70 40 27 41 28 42 29 43 64 44
REMARK SMILES IDX 30 45 69 46 63 47 65 48 31 49 68 50 62 51 61 52 32 54 54 55
REMARK SMILES IDX 39 56 53 57 40 58 43 59 52 60 66 61 41 62 42 63 51 65 67 66
REMARK SMILES IDX 44 67 33 68 34 69 38 70 35 71 37 72 36 73 55 74 56 75 60 76
REMARK SMILES IDX 57 77 59 78 58 79 45 80 46 81 50 82 47 83 49 84 48 85
REMARK H PARENT 10 14 75 23 65 53 43 64
REMARK Flexibility Score: inf
ROOT
ATOM      1  C   UNL     1      -1.969   2.925   0.512  1.00  0.00     0.275 C 
ENDROOT
BRANCH   1   2
ATOM      2  O   UNL     1      -0.619   3.432   0.484  1.00  0.00    -0.458 OA
BRANCH   2   3
ATOM      3  C   UNL     1       0.310   2.523   0.116  1.00  0.00     0.338 C 
ATOM      4  O   UNL     1       0.092   1.352  -0.160  1.00  0.00    -0.246 OA
BRANCH   3   5
ATOM      5  C   UNL     1       1.683   3.070   0.134  1.00  0.00     0.062 A 
ATOM      6  C   UNL     1       3.425   4.007   1.492  1.00  0.00     0.042 A 
ATOM      7  C   UNL     1       4.383   3.683   0.531  1.00  0.00     0.026 A 
ATOM      8  C   UNL     1       2.073   3.835   1.223  1.00  0.00     0.041 A 
ATOM      9  C   UNL     1       3.993   2.985  -0.609  1.00  0.00     0.003 A 
ATOM     10  C   UNL     1       2.655   2.624  -0.770  1.00  0.00     0.016 A 
BRANCH   6  11
ATOM     11  N   UNL     1       3.851   4.371   2.771  1.00  0.00    -0.325 N 
ATOM     12  C   UNL     1       3.473   3.850   3.989  1.00  0.00     0.238 C 
ATOM     13  O   UNL     1       3.885   4.440   4.997  1.00  0.00    -0.273 OA
ATOM     14  H   UNL     1       4.513   5.098   2.807  1.00  0.00     0.169 HD
BRANCH  12  15
ATOM     15  C   UNL     1       2.698   2.515   4.151  1.00  0.00     0.160 C 
ATOM     16  N   UNL     1       1.158   0.296   2.899  1.00  0.00    -0.191 N 
ATOM     17  C   UNL     1       2.455   0.145   3.354  1.00  0.00     0.311 C 
ATOM     18  C   UNL     1       0.290   1.204   3.491  1.00  0.00     0.319 C 
ATOM     19  O   UNL     1       2.951  -0.947   3.629  1.00  0.00    -0.247 OA
ATOM     20  C   UNL     1       3.291   1.386   3.349  1.00  0.00     0.153 C 
ATOM     21  S   UNL     1       0.924   2.754   4.018  1.00  0.00    -0.024 SA
ATOM     22  N   UNL     1      -0.981   1.103   3.721  1.00  0.00    -0.235 N 
ATOM     23  H   UNL     1      -1.467   1.931   3.940  1.00  0.00     0.313 HD
BRANCH  16  24
ATOM     24  C   UNL     1       0.679  -0.764   1.999  1.00  0.00     0.243 C 
ATOM     25  C   UNL     1       1.618  -1.036   0.819  1.00  0.00     0.054 C 
ENDBRANCH  16  24
BRANCH  22  26
ATOM     26  C   UNL     1      -1.719  -0.082   3.683  1.00  0.00     0.125 A 
ATOM     27  C   UNL     1      -2.936  -0.119   2.996  1.00  0.00     0.051 A 
ATOM     28  C   UNL     1      -1.343  -1.196   4.441  1.00  0.00     0.051 A 
ATOM     29  C   UNL     1      -3.733  -1.267   3.018  1.00  0.00     0.004 A 
ATOM     30  C   UNL     1      -2.127  -2.350   4.454  1.00  0.00     0.004 A 
ATOM     31  C   UNL     1      -3.322  -2.386   3.740  1.00  0.00     0.000 A 
ENDBRANCH  22  26
ENDBRANCH  12  15
ENDBRANCH   6  11
ENDBRANCH   3   5
ENDBRANCH   2   3
ENDBRANCH   1   2
BRANCH   1  32
ATOM     32  C   UNL     1      -2.702   3.223  -0.797  1.00  0.00     0.275 C 
BRANCH  32  33
ATOM     33  O   UNL     1      -2.122   2.498  -1.901  1.00  0.00    -0.458 OA
BRANCH  33  34
ATOM     34  C   UNL     1      -1.248   3.206  -2.652  1.00  0.00     0.338 C 
ATOM     35  O   UNL     1      -0.932   4.375  -2.521  1.00  0.00    -0.246 OA
BRANCH  34  36
ATOM     36  C   UNL     1      -0.621   2.347  -3.669  1.00  0.00     0.060 A 
ATOM     37  C   UNL     1       0.382   1.467  -3.280  1.00  0.00     0.016 A 
ATOM     38  C   UNL     1      -0.869   2.555  -5.021  1.00  0.00     0.016 A 
ATOM     39  C   UNL     1       1.229   0.893  -4.215  1.00  0.00     0.010 A 
ATOM     40  C   UNL     1      -0.111   1.858  -5.970  1.00  0.00     0.010 A 
ATOM     41  C   UNL     1       0.967   1.042  -5.577  1.00  0.00    -0.014 A 
BRANCH  41  42
ATOM     42  C   UNL     1       1.811   0.336  -6.575  1.00  0.00     0.031 A 
ATOM     43  C   UNL     1       2.492   1.114  -7.667  1.00  0.00     0.074 A 
ATOM     44  C   UNL     1       1.953  -1.004  -6.511  1.00  0.00     0.049 A 
ATOM     45  N   UNL     1       3.055   0.674  -8.762  1.00  0.00    -0.248 NA
ATOM     46  C   UNL     1       2.534   2.578  -7.517  1.00  0.00     0.031 C 
ATOM     47  C   UNL     1       1.413  -1.875  -5.460  1.00  0.00     0.029 A 
ATOM     48  N   UNL     1       2.590  -1.878  -7.358  1.00  0.00    -0.354 N 
ATOM     49  C   UNL     1       3.450   1.806  -9.465  1.00  0.00     0.074 A 
ATOM     50  C   UNL     1       3.078   2.953  -8.667  1.00  0.00     0.031 C 
ATOM     51  C   UNL     1       1.759  -3.144  -5.712  1.00  0.00     0.029 A 
ATOM     52  C   UNL     1       2.434  -3.197  -6.999  1.00  0.00     0.049 A 
ATOM     53  H   UNL     1       3.106  -1.589  -8.145  1.00  0.00     0.167 HD
ATOM     54  C   UNL     1       4.053   1.872 -10.675  1.00  0.00     0.031 A 
ATOM     55  C   UNL     1       2.727  -4.330  -7.663  1.00  0.00     0.031 A 
ATOM     56  C   UNL     1       4.452   0.718 -11.436  1.00  0.00     0.049 A 
ATOM     57  C   UNL     1       3.315  -4.223  -9.041  1.00  0.00     0.074 A 
ATOM     58  C   UNL     1       5.106   0.676 -12.655  1.00  0.00     0.029 A 
ATOM     59  N   UNL     1       4.236  -0.595 -11.051  1.00  0.00    -0.354 N 
ATOM     60  N   UNL     1       3.668  -3.150  -9.706  1.00  0.00    -0.248 NA
ATOM     61  C   UNL     1       3.521  -5.481  -9.769  1.00  0.00     0.031 C 
ATOM     62  C   UNL     1       5.223  -0.662 -13.040  1.00  0.00     0.029 A 
ATOM     63  C   UNL     1       4.703  -1.455 -12.030  1.00  0.00     0.049 A 
ATOM     64  H   UNL     1       3.814  -0.875 -10.207  1.00  0.00     0.167 HD
ATOM     65  C   UNL     1       4.156  -3.605 -10.922  1.00  0.00     0.074 A 
ATOM     66  C   UNL     1       4.076  -5.051 -10.893  1.00  0.00     0.031 C 
ATOM     67  C   UNL     1       4.621  -2.890 -11.974  1.00  0.00     0.031 A 
BRANCH  54  68
ATOM     68  C   UNL     1       4.263   3.228 -11.290  1.00  0.00    -0.014 A 
ATOM     69  C   UNL     1       5.238   4.117 -10.818  1.00  0.00     0.009 A 
ATOM     70  C   UNL     1       3.508   3.586 -12.421  1.00  0.00     0.009 A 
ATOM     71  C   UNL     1       5.437   5.347 -11.453  1.00  0.00     0.001 A 
ATOM     72  C   UNL     1       3.728   4.801 -13.069  1.00  0.00     0.001 A 
ATOM     73  C   UNL     1       4.689   5.684 -12.581  1.00  0.00     0.000 A 
ENDBRANCH  54  68
BRANCH  55  74
ATOM     74  C   UNL     1       2.378  -5.656  -7.085  1.00  0.00    -0.014 A 
ATOM     75  C   UNL     1       3.380  -6.580  -6.755  1.00  0.00     0.009 A 
ATOM     76  C   UNL     1       1.034  -6.018  -6.888  1.00  0.00     0.009 A 
ATOM     77  C   UNL     1       3.042  -7.847  -6.272  1.00  0.00     0.001 A 
ATOM     78  C   UNL     1       0.701  -7.269  -6.368  1.00  0.00     0.001 A 
ATOM     79  C   UNL     1       1.705  -8.189  -6.074  1.00  0.00     0.000 A 
ENDBRANCH  55  74
BRANCH  67  80
ATOM     80  C   UNL     1       5.114  -3.664 -13.162  1.00  0.00    -0.014 A 
ATOM     81  C   UNL     1       4.222  -4.314 -14.027  1.00  0.00     0.009 A 
ATOM     82  C   UNL     1       6.489  -3.698 -13.444  1.00  0.00     0.009 A 
ATOM     83  C   UNL     1       4.701  -5.005 -15.141  1.00  0.00     0.001 A 
ATOM     84  C   UNL     1       6.961  -4.362 -14.576  1.00  0.00     0.001 A 
ATOM     85  C   UNL     1       6.068  -5.021 -15.419  1.00  0.00     0.000 A 
ENDBRANCH  67  80
ENDBRANCH  41  42
ENDBRANCH  34  36
ENDBRANCH  33  34
ENDBRANCH  32  33
ENDBRANCH   1  32
TORSDOF 15
