REMARK SMILES CO[C@@H]1C[C@@H](C(=O)OCCOC(=O)c2ccc(-c3c4nc(c(-c5ccccc5)c5ccc([nH]5)c(-c5ccccc5)c5nc(c(-c6ccccc6)c6ccc3[nH]6)C=C5)C=C4)cc2)N(S(=O)(=O)c2ccc(Cl)cc2F)C1
REMARK SMILES IDX 9 1 8 2 6 3 7 4 5 5 3 6 4 7 74 8 62 9 2 10 1 11 63 12 64 13
REMARK SMILES IDX 65 14 66 15 67 16 72 17 68 18 71 19 73 20 69 21 70 22 10 23
REMARK SMILES IDX 11 24 12 25 13 26 14 27 15 28 61 29 16 30 60 31 17 32 18 33
REMARK SMILES IDX 19 34 54 35 20 36 59 37 53 38 55 39 21 40 58 41 52 42 51 43
REMARK SMILES IDX 22 45 44 46 29 47 43 48 30 49 33 50 42 51 56 52 31 53 32 54
REMARK SMILES IDX 41 56 57 57 34 58 23 59 24 60 28 61 25 62 27 63 26 64 45 65
REMARK SMILES IDX 46 66 50 67 47 68 49 69 48 70 35 71 36 72 40 73 37 74 39 75
REMARK SMILES IDX 38 76
REMARK H PARENT 55 44 33 55
REMARK Flexibility Score: inf
ROOT
ATOM      1  C   UNL     1      -0.142   7.653  -2.853  1.00  0.00     0.274 C 
ENDROOT
BRANCH   1   2
ATOM      2  O   UNL     1      -0.340   6.221  -2.875  1.00  0.00    -0.461 OA
BRANCH   2   3
ATOM      3  C   UNL     1       0.737   5.537  -2.408  1.00  0.00     0.324 C 
ATOM      4  O   UNL     1       1.601   6.066  -1.748  1.00  0.00    -0.250 OA
BRANCH   3   5
ATOM      5  C   UNL     1       0.803   4.090  -2.815  1.00  0.00     0.185 C 
ATOM      6  C   UNL     1       1.149   2.108  -1.416  1.00  0.00     0.135 C 
ATOM      7  C   UNL     1       0.127   3.176  -1.784  1.00  0.00     0.065 C 
ATOM      8  C   UNL     1       2.054   2.060  -2.646  1.00  0.00     0.135 C 
ATOM      9  N   UNL     1       2.165   3.487  -3.125  1.00  0.00    -0.181 NA
BRANCH   6  10
ATOM     10  O   UNL     1       0.459   0.877  -1.208  1.00  0.00    -0.380 OA
ATOM     11  C   UNL     1       1.076   0.045  -0.232  1.00  0.00     0.195 C 
ENDBRANCH   6  10
BRANCH   9  12
ATOM     12  S   UNL     1       3.665   4.186  -2.606  1.00  0.00     0.246 S 
ATOM     13  O   UNL     1       3.627   4.202  -1.161  1.00  0.00    -0.207 OA
ATOM     14  O   UNL     1       4.696   3.414  -3.276  1.00  0.00    -0.207 OA
BRANCH  12  15
ATOM     15  C   UNL     1       3.823   5.824  -3.271  1.00  0.00     0.118 A 
ATOM     16  C   UNL     1       3.863   6.012  -4.657  1.00  0.00     0.026 A 
ATOM     17  C   UNL     1       3.964   6.929  -2.426  1.00  0.00     0.144 A 
ATOM     18  C   UNL     1       3.944   7.311  -5.177  1.00  0.00     0.022 A 
ATOM     19  C   UNL     1       3.972   8.225  -2.941  1.00  0.00     0.061 A 
ATOM     20  F   UNL     1       4.034   6.798  -1.095  1.00  0.00    -0.205 F 
ATOM     21  C   UNL     1       3.956   8.412  -4.317  1.00  0.00     0.044 A 
ATOM     22  Cl  UNL     1       3.950  10.007  -4.961  1.00  0.00    -0.084 Cl
ENDBRANCH  12  15
ENDBRANCH   9  12
ENDBRANCH   3   5
ENDBRANCH   2   3
ENDBRANCH   1   2
BRANCH   1  23
ATOM     23  C   UNL     1      -0.374   8.385  -1.512  1.00  0.00     0.275 C 
BRANCH  23  24
ATOM     24  O   UNL     1       0.471   7.971  -0.416  1.00  0.00    -0.458 OA
BRANCH  24  25
ATOM     25  C   UNL     1      -0.075   7.026   0.389  1.00  0.00     0.338 C 
ATOM     26  O   UNL     1      -1.200   6.558   0.285  1.00  0.00    -0.246 OA
BRANCH  25  27
ATOM     27  C   UNL     1       0.884   6.466   1.365  1.00  0.00     0.060 A 
ATOM     28  C   UNL     1       1.394   5.198   1.091  1.00  0.00     0.016 A 
ATOM     29  C   UNL     1       1.069   7.010   2.634  1.00  0.00     0.016 A 
ATOM     30  C   UNL     1       2.008   4.431   2.069  1.00  0.00     0.010 A 
ATOM     31  C   UNL     1       1.739   6.256   3.617  1.00  0.00     0.010 A 
ATOM     32  C   UNL     1       2.177   4.941   3.354  1.00  0.00    -0.014 A 
BRANCH  32  33
ATOM     33  C   UNL     1       2.698   4.034   4.414  1.00  0.00     0.031 A 
ATOM     34  C   UNL     1       1.815   3.660   5.576  1.00  0.00     0.074 A 
ATOM     35  C   UNL     1       3.909   3.453   4.293  1.00  0.00     0.049 A 
ATOM     36  N   UNL     1       2.107   2.981   6.657  1.00  0.00    -0.248 NA
ATOM     37  C   UNL     1       0.414   4.106   5.510  1.00  0.00     0.031 C 
ATOM     38  C   UNL     1       4.824   3.619   3.160  1.00  0.00     0.029 A 
ATOM     39  N   UNL     1       4.571   2.583   5.126  1.00  0.00    -0.354 N 
ATOM     40  C   UNL     1       0.947   2.969   7.423  1.00  0.00     0.074 A 
ATOM     41  C   UNL     1      -0.053   3.709   6.685  1.00  0.00     0.031 C 
ATOM     42  C   UNL     1       5.911   2.858   3.359  1.00  0.00     0.029 A 
ATOM     43  C   UNL     1       5.816   2.225   4.669  1.00  0.00     0.049 A 
ATOM     44  H   UNL     1       4.189   2.249   5.970  1.00  0.00     0.167 HD
ATOM     45  C   UNL     1       0.738   2.399   8.634  1.00  0.00     0.031 A 
ATOM     46  C   UNL     1       6.795   1.511   5.257  1.00  0.00     0.031 A 
ATOM     47  C   UNL     1       1.727   1.639   9.352  1.00  0.00     0.049 A 
ATOM     48  C   UNL     1       6.577   0.977   6.645  1.00  0.00     0.074 A 
ATOM     49  C   UNL     1       1.617   1.030  10.590  1.00  0.00     0.029 A 
ATOM     50  N   UNL     1       3.007   1.374   8.889  1.00  0.00    -0.354 N 
ATOM     51  N   UNL     1       5.501   1.031   7.392  1.00  0.00    -0.248 NA
ATOM     52  C   UNL     1       7.717   0.298   7.278  1.00  0.00     0.031 C 
ATOM     53  C   UNL     1       2.850   0.449  10.903  1.00  0.00     0.029 A 
ATOM     54  C   UNL     1       3.707   0.637   9.830  1.00  0.00     0.049 A 
ATOM     55  H   UNL     1       3.366   1.667   8.021  1.00  0.00     0.167 HD
ATOM     56  C   UNL     1       5.828   0.379   8.574  1.00  0.00     0.074 A 
ATOM     57  C   UNL     1       7.193  -0.083   8.435  1.00  0.00     0.031 C 
ATOM     58  C   UNL     1       5.066   0.185   9.678  1.00  0.00     0.031 A 
BRANCH  45  59
ATOM     59  C   UNL     1      -0.594   2.639   9.292  1.00  0.00    -0.014 A 
ATOM     60  C   UNL     1      -1.775   2.044   8.821  1.00  0.00     0.009 A 
ATOM     61  C   UNL     1      -0.659   3.468  10.424  1.00  0.00     0.009 A 
ATOM     62  C   UNL     1      -2.997   2.308   9.447  1.00  0.00     0.001 A 
ATOM     63  C   UNL     1      -1.875   3.704  11.066  1.00  0.00     0.001 A 
ATOM     64  C   UNL     1      -3.046   3.133  10.570  1.00  0.00     0.000 A 
ENDBRANCH  45  59
BRANCH  46  65
ATOM     65  C   UNL     1       8.103   1.327   4.569  1.00  0.00    -0.014 A 
ATOM     66  C   UNL     1       8.534   0.055   4.165  1.00  0.00     0.009 A 
ATOM     67  C   UNL     1       8.938   2.431   4.327  1.00  0.00     0.009 A 
ATOM     68  C   UNL     1       9.779  -0.110   3.553  1.00  0.00     0.001 A 
ATOM     69  C   UNL     1      10.166   2.269   3.683  1.00  0.00     0.001 A 
ATOM     70  C   UNL     1      10.590   0.997   3.305  1.00  0.00     0.000 A 
ENDBRANCH  46  65
BRANCH  58  71
ATOM     71  C   UNL     1       5.681  -0.593  10.808  1.00  0.00    -0.014 A 
ATOM     72  C   UNL     1       6.695  -0.043  11.608  1.00  0.00     0.009 A 
ATOM     73  C   UNL     1       5.212  -1.884  11.097  1.00  0.00     0.009 A 
ATOM     74  C   UNL     1       7.251  -0.785  12.652  1.00  0.00     0.001 A 
ATOM     75  C   UNL     1       5.747  -2.611  12.161  1.00  0.00     0.001 A 
ATOM     76  C   UNL     1       6.773  -2.065  12.931  1.00  0.00     0.000 A 
ENDBRANCH  58  71
ENDBRANCH  32  33
ENDBRANCH  25  27
ENDBRANCH  24  25
ENDBRANCH  23  24
ENDBRANCH   1  23
TORSDOF 14
