REMARK SMILES CNC(=O)[C@H](C)S(=O)(=O)c1cc(C(=O)OCCOC(=O)c2ccc(-c3c4nc(c(-c5ccccc5)c5ccc([nH]5)c(-c5ccccc5)c5nc(c(-c6ccccc6)c6ccc3[nH]6)C=C5)C=C4)cc2)c(C)cc1C
REMARK SMILES IDX 16 1 15 2 13 3 14 4 12 5 10 6 11 7 72 8 71 9 73 10 69 11
REMARK SMILES IDX 70 12 7 13 8 14 9 15 5 16 6 17 3 18 1 19 2 20 4 22 17 23
REMARK SMILES IDX 18 24 19 25 20 26 21 27 22 28 68 29 23 30 67 31 24 32 25 33
REMARK SMILES IDX 26 34 61 35 27 36 66 37 60 38 62 39 28 40 65 41 59 42 58 43
REMARK SMILES IDX 29 45 51 46 36 47 50 48 37 49 40 50 49 51 63 52 38 53 39 54
REMARK SMILES IDX 48 56 64 57 41 58 30 59 31 60 35 61 32 62 34 63 33 64 52 65
REMARK SMILES IDX 53 66 57 67 54 68 56 69 55 70 42 71 43 72 47 73 44 74 46 75
REMARK SMILES IDX 45 76
REMARK H PARENT 2 21 62 44 40 55
REMARK Flexibility Score: inf
ROOT
ATOM      1  C   UNL     1       2.498  -1.141  -4.253  1.00  0.00     0.275 C 
ENDROOT
BRANCH   1   2
ATOM      2  O   UNL     1       1.995  -0.091  -3.401  1.00  0.00    -0.458 OA
BRANCH   2   3
ATOM      3  C   UNL     1       0.671  -0.131  -3.106  1.00  0.00     0.338 C 
ATOM      4  O   UNL     1      -0.105  -1.022  -3.380  1.00  0.00    -0.246 OA
BRANCH   3   5
ATOM      5  C   UNL     1       0.296   1.035  -2.262  1.00  0.00     0.064 A 
ATOM      6  C   UNL     1      -0.901   1.772  -0.252  1.00  0.00     0.071 A 
ATOM      7  C   UNL     1      -0.507   0.757  -1.143  1.00  0.00     0.036 A 
ATOM      8  C   UNL     1      -0.551   3.105  -0.513  1.00  0.00    -0.032 A 
ATOM      9  C   UNL     1       0.214   3.373  -1.667  1.00  0.00     0.009 A 
ATOM     10  C   UNL     1      -0.999   4.284   0.306  1.00  0.00     0.046 C 
ATOM     11  C   UNL     1       0.652   2.361  -2.545  1.00  0.00    -0.036 A 
ATOM     12  C   UNL     1       1.421   2.800  -3.761  1.00  0.00     0.045 C 
BRANCH   6  13
ATOM     13  S   UNL     1      -1.934   1.280   1.129  1.00  0.00     0.190 S 
ATOM     14  O   UNL     1      -2.611   0.067   0.693  1.00  0.00    -0.223 OA
ATOM     15  O   UNL     1      -2.749   2.417   1.512  1.00  0.00    -0.223 OA
BRANCH  13  16
ATOM     16  C   UNL     1      -0.873   0.834   2.474  1.00  0.00     0.199 C 
ATOM     17  C   UNL     1      -0.315  -0.568   2.384  1.00  0.00     0.036 C 
BRANCH  16  18
ATOM     18  C   UNL     1       0.128   1.896   2.839  1.00  0.00     0.238 C 
ATOM     19  C   UNL     1       2.068   1.349   1.221  1.00  0.00     0.142 C 
ATOM     20  N   UNL     1       1.372   2.006   2.307  1.00  0.00    -0.358 N 
ATOM     21  H   UNL     1       1.923   2.683   2.762  1.00  0.00     0.163 HD
ATOM     22  O   UNL     1      -0.146   2.717   3.721  1.00  0.00    -0.274 OA
ENDBRANCH  16  18
ENDBRANCH  13  16
ENDBRANCH   6  13
ENDBRANCH   3   5
ENDBRANCH   2   3
ENDBRANCH   1   2
BRANCH   1  23
ATOM     23  C   UNL     1       3.609  -1.913  -3.545  1.00  0.00     0.275 C 
BRANCH  23  24
ATOM     24  O   UNL     1       3.036  -2.743  -2.519  1.00  0.00    -0.458 OA
BRANCH  24  25
ATOM     25  C   UNL     1       3.147  -2.269  -1.262  1.00  0.00     0.338 C 
ATOM     26  O   UNL     1       3.744  -1.278  -0.875  1.00  0.00    -0.246 OA
BRANCH  25  27
ATOM     27  C   UNL     1       2.311  -3.075  -0.364  1.00  0.00     0.060 A 
ATOM     28  C   UNL     1       0.939  -2.857  -0.389  1.00  0.00     0.016 A 
ATOM     29  C   UNL     1       2.883  -3.856   0.638  1.00  0.00     0.016 A 
ATOM     30  C   UNL     1       0.161  -3.293   0.681  1.00  0.00     0.010 A 
ATOM     31  C   UNL     1       2.073  -4.370   1.661  1.00  0.00     0.010 A 
ATOM     32  C   UNL     1       0.716  -4.013   1.756  1.00  0.00    -0.014 A 
BRANCH  32  33
ATOM     33  C   UNL     1      -0.075  -4.245   3.017  1.00  0.00     0.031 A 
ATOM     34  C   UNL     1       0.495  -3.859   4.374  1.00  0.00     0.074 A 
ATOM     35  C   UNL     1      -1.350  -4.690   2.985  1.00  0.00     0.049 A 
ATOM     36  N   UNL     1       0.026  -4.112   5.574  1.00  0.00    -0.248 NA
ATOM     37  C   UNL     1       1.754  -3.096   4.388  1.00  0.00     0.031 C 
ATOM     38  C   UNL     1      -2.107  -5.033   1.781  1.00  0.00     0.029 A 
ATOM     39  N   UNL     1      -2.257  -4.883   4.004  1.00  0.00    -0.354 N 
ATOM     40  C   UNL     1       0.972  -3.623   6.472  1.00  0.00     0.074 A 
ATOM     41  C   UNL     1       2.035  -3.042   5.682  1.00  0.00     0.031 C 
ATOM     42  C   UNL     1      -3.380  -5.285   2.115  1.00  0.00     0.029 A 
ATOM     43  C   UNL     1      -3.505  -5.261   3.568  1.00  0.00     0.049 A 
ATOM     44  H   UNL     1      -2.032  -4.762   4.954  1.00  0.00     0.167 HD
ATOM     45  C   UNL     1       0.968  -3.655   7.827  1.00  0.00     0.031 A 
ATOM     46  C   UNL     1      -4.620  -5.602   4.243  1.00  0.00     0.031 A 
ATOM     47  C   UNL     1      -0.117  -4.145   8.636  1.00  0.00     0.049 A 
ATOM     48  C   UNL     1      -4.598  -5.658   5.743  1.00  0.00     0.074 A 
ATOM     49  C   UNL     1      -0.196  -4.222  10.018  1.00  0.00     0.029 A 
ATOM     50  N   UNL     1      -1.325  -4.604   8.143  1.00  0.00    -0.354 N 
ATOM     51  N   UNL     1      -3.635  -5.330   6.568  1.00  0.00    -0.248 NA
ATOM     52  C   UNL     1      -5.809  -6.172   6.401  1.00  0.00     0.031 C 
ATOM     53  C   UNL     1      -1.441  -4.761  10.359  1.00  0.00     0.029 A 
ATOM     54  C   UNL     1      -2.153  -4.973   9.192  1.00  0.00     0.049 A 
ATOM     55  H   UNL     1      -1.562  -4.661   7.189  1.00  0.00     0.167 HD
ATOM     56  C   UNL     1      -4.121  -5.603   7.840  1.00  0.00     0.074 A 
ATOM     57  C   UNL     1      -5.474  -6.091   7.681  1.00  0.00     0.031 C 
ATOM     58  C   UNL     1      -3.492  -5.472   9.033  1.00  0.00     0.031 A 
BRANCH  45  59
ATOM     59  C   UNL     1       2.211  -3.193   8.540  1.00  0.00    -0.014 A 
ATOM     60  C   UNL     1       2.540  -1.835   8.661  1.00  0.00     0.009 A 
ATOM     61  C   UNL     1       3.038  -4.149   9.154  1.00  0.00     0.009 A 
ATOM     62  C   UNL     1       3.688  -1.448   9.357  1.00  0.00     0.001 A 
ATOM     63  C   UNL     1       4.168  -3.758   9.873  1.00  0.00     0.001 A 
ATOM     64  C   UNL     1       4.497  -2.407   9.967  1.00  0.00     0.000 A 
ENDBRANCH  45  59
BRANCH  46  65
ATOM     65  C   UNL     1      -5.841  -6.005   3.495  1.00  0.00    -0.014 A 
ATOM     66  C   UNL     1      -6.995  -5.209   3.521  1.00  0.00     0.009 A 
ATOM     67  C   UNL     1      -5.852  -7.193   2.746  1.00  0.00     0.009 A 
ATOM     68  C   UNL     1      -8.137  -5.598   2.816  1.00  0.00     0.001 A 
ATOM     69  C   UNL     1      -6.981  -7.560   2.013  1.00  0.00     0.001 A 
ATOM     70  C   UNL     1      -8.125  -6.766   2.054  1.00  0.00     0.000 A 
ENDBRANCH  46  65
BRANCH  58  71
ATOM     71  C   UNL     1      -4.268  -5.849  10.262  1.00  0.00    -0.014 A 
ATOM     72  C   UNL     1      -4.516  -7.194  10.577  1.00  0.00     0.009 A 
ATOM     73  C   UNL     1      -4.744  -4.849  11.122  1.00  0.00     0.009 A 
ATOM     74  C   UNL     1      -5.258  -7.528  11.712  1.00  0.00     0.001 A 
ATOM     75  C   UNL     1      -5.465  -5.186  12.269  1.00  0.00     0.001 A 
ATOM     76  C   UNL     1      -5.730  -6.524  12.557  1.00  0.00     0.000 A 
ENDBRANCH  58  71
ENDBRANCH  32  33
ENDBRANCH  25  27
ENDBRANCH  24  25
ENDBRANCH  23  24
ENDBRANCH   1  23
TORSDOF 14
