REMARK SMILES O=C1O[C@@H](c2ccc(O)c(O)c2)[C@H](C(=O)OCCOC(=O)c2ccc(-c3c4nc(c(-c5ccccc5)c5ccc([nH]5)c(-c5ccccc5)c5nc(c(-c6ccccc6)c6ccc3[nH]6)C=C5)C=C4)cc2)/C1=C\c1ccc(O)c(O)c1
REMARK SMILES IDX 17 1 16 2 14 3 15 4 13 5 1 6 2 7 3 8 70 9 4 10 71 11 5 12
REMARK SMILES IDX 6 13 12 14 7 15 10 16 8 17 11 18 9 20 72 22 73 23 79 24
REMARK SMILES IDX 74 25 77 26 75 27 78 28 76 30 18 32 19 33 20 34 21 35 22 36
REMARK SMILES IDX 23 37 69 38 24 39 68 40 25 41 26 42 27 43 62 44 28 45 67 46
REMARK SMILES IDX 61 47 63 48 29 49 66 50 60 51 59 52 30 54 52 55 37 56 51 57
REMARK SMILES IDX 38 58 41 59 50 60 64 61 39 62 40 63 49 65 65 66 42 67 31 68
REMARK SMILES IDX 32 69 36 70 33 71 35 72 34 73 53 74 54 75 58 76 55 77 57 78
REMARK SMILES IDX 56 79 43 80 44 81 48 82 45 83 47 84 46 85
REMARK H PARENT 11 19 9 21 78 29 76 31 63 53 41 64
REMARK Flexibility Score: inf
ROOT
ATOM      1  C   UNL     1       2.973   1.562   3.625  1.00  0.00     0.274 C 
ENDROOT
BRANCH   1   2
ATOM      2  O   UNL     1       2.871   1.535   2.183  1.00  0.00    -0.461 OA
BRANCH   2   3
ATOM      3  C   UNL     1       1.708   1.041   1.669  1.00  0.00     0.318 C 
ATOM      4  O   UNL     1       0.813   0.553   2.346  1.00  0.00    -0.251 OA
BRANCH   3   5
ATOM      5  C   UNL     1       1.721   1.087   0.144  1.00  0.00     0.182 C 
ATOM      6  O   UNL     1      -1.486  -0.229  -0.549  1.00  0.00    -0.247 OA
ATOM      7  C   UNL     1      -0.302  -0.023  -0.444  1.00  0.00     0.335 C 
ATOM      8  O   UNL     1       0.671  -0.968  -0.279  1.00  0.00    -0.453 OA
ATOM      9  C   UNL     1       0.376   1.300  -0.465  1.00  0.00     0.056 C 
ATOM     10  C   UNL     1       1.974  -0.347  -0.315  1.00  0.00     0.226 C 
ATOM     11  C   UNL     1      -0.204   2.335  -1.094  1.00  0.00     0.020 C 
BRANCH  10  12
ATOM     12  C   UNL     1       2.583  -0.462  -1.707  1.00  0.00    -0.002 A 
ATOM     13  C   UNL     1       3.730   0.283  -2.042  1.00  0.00     0.012 A 
ATOM     14  C   UNL     1       2.032  -1.317  -2.677  1.00  0.00     0.057 A 
ATOM     15  C   UNL     1       4.273   0.232  -3.329  1.00  0.00     0.050 A 
ATOM     16  C   UNL     1       2.580  -1.365  -3.950  1.00  0.00     0.157 A 
ATOM     17  C   UNL     1       3.685  -0.589  -4.281  1.00  0.00     0.157 A 
BRANCH  16  18
ATOM     18  O   UNL     1       2.015  -2.183  -4.886  1.00  0.00    -0.504 OA
ATOM     19  H   UNL     1       2.375  -2.226  -5.750  1.00  0.00     0.293 HD
ENDBRANCH  16  18
BRANCH  17  20
ATOM     20  O   UNL     1       4.160  -0.668  -5.559  1.00  0.00    -0.504 OA
ATOM     21  H   UNL     1       4.903  -0.158  -5.816  1.00  0.00     0.293 HD
ENDBRANCH  17  20
ENDBRANCH  10  12
BRANCH  11  22
ATOM     22  C   UNL     1       0.348   3.686  -1.252  1.00  0.00    -0.021 A 
ATOM     23  C   UNL     1       1.230   4.045  -2.273  1.00  0.00     0.012 A 
ATOM     24  C   UNL     1      -0.071   4.679  -0.370  1.00  0.00     0.058 A 
ATOM     25  C   UNL     1       1.694   5.371  -2.379  1.00  0.00     0.051 A 
ATOM     26  C   UNL     1       0.431   5.966  -0.429  1.00  0.00     0.157 A 
ATOM     27  C   UNL     1       1.298   6.322  -1.442  1.00  0.00     0.157 A 
BRANCH  26  28
ATOM     28  O   UNL     1       0.057   6.876   0.519  1.00  0.00    -0.504 OA
ATOM     29  H   UNL     1       0.392   7.750   0.487  1.00  0.00     0.293 HD
ENDBRANCH  26  28
BRANCH  27  30
ATOM     30  O   UNL     1       1.716   7.621  -1.475  1.00  0.00    -0.504 OA
ATOM     31  H   UNL     1       2.305   7.907  -2.145  1.00  0.00     0.293 HD
ENDBRANCH  27  30
ENDBRANCH  11  22
ENDBRANCH   3   5
ENDBRANCH   2   3
ENDBRANCH   1   2
BRANCH   1  32
ATOM     32  C   UNL     1       2.581   2.924   4.211  1.00  0.00     0.275 C 
BRANCH  32  33
ATOM     33  O   UNL     1       1.150   3.131   4.203  1.00  0.00    -0.458 OA
BRANCH  33  34
ATOM     34  C   UNL     1       0.710   3.708   3.064  1.00  0.00     0.338 C 
ATOM     35  O   UNL     1       1.414   4.024   2.116  1.00  0.00    -0.246 OA
BRANCH  34  36
ATOM     36  C   UNL     1      -0.756   3.858   3.002  1.00  0.00     0.060 A 
ATOM     37  C   UNL     1      -1.464   2.887   2.296  1.00  0.00     0.016 A 
ATOM     38  C   UNL     1      -1.321   5.123   3.193  1.00  0.00     0.016 A 
ATOM     39  C   UNL     1      -2.639   3.241   1.629  1.00  0.00     0.010 A 
ATOM     40  C   UNL     1      -2.562   5.438   2.608  1.00  0.00     0.010 A 
ATOM     41  C   UNL     1      -3.207   4.525   1.758  1.00  0.00    -0.014 A 
BRANCH  41  42
ATOM     42  C   UNL     1      -4.442   4.879   0.985  1.00  0.00     0.031 A 
ATOM     43  C   UNL     1      -4.521   6.064   0.039  1.00  0.00     0.074 A 
ATOM     44  C   UNL     1      -5.517   4.074   1.084  1.00  0.00     0.049 A 
ATOM     45  N   UNL     1      -5.557   6.544  -0.615  1.00  0.00    -0.248 NA
ATOM     46  C   UNL     1      -3.281   6.801  -0.223  1.00  0.00     0.031 C 
ATOM     47  C   UNL     1      -5.588   2.854   1.892  1.00  0.00     0.029 A 
ATOM     48  N   UNL     1      -6.752   4.148   0.489  1.00  0.00    -0.354 N 
ATOM     49  C   UNL     1      -5.092   7.643  -1.338  1.00  0.00     0.074 A 
ATOM     50  C   UNL     1      -3.680   7.759  -1.051  1.00  0.00     0.031 C 
ATOM     51  C   UNL     1      -6.773   2.267   1.700  1.00  0.00     0.029 A 
ATOM     52  C   UNL     1      -7.598   3.141   0.878  1.00  0.00     0.049 A 
ATOM     53  H   UNL     1      -7.005   4.852  -0.152  1.00  0.00     0.167 HD
ATOM     54  C   UNL     1      -5.779   8.485  -2.153  1.00  0.00     0.031 A 
ATOM     55  C   UNL     1      -8.915   2.962   0.682  1.00  0.00     0.031 A 
ATOM     56  C   UNL     1      -7.190   8.373  -2.437  1.00  0.00     0.049 A 
ATOM     57  C   UNL     1      -9.683   3.970  -0.107  1.00  0.00     0.074 A 
ATOM     58  C   UNL     1      -7.978   9.182  -3.242  1.00  0.00     0.029 A 
ATOM     59  N   UNL     1      -8.025   7.394  -1.925  1.00  0.00    -0.354 N 
ATOM     60  N   UNL     1      -9.247   5.044  -0.717  1.00  0.00    -0.248 NA
ATOM     61  C   UNL     1     -11.129   3.749  -0.219  1.00  0.00     0.031 C 
ATOM     62  C   UNL     1      -9.300   8.732  -3.161  1.00  0.00     0.029 A 
ATOM     63  C   UNL     1      -9.324   7.601  -2.364  1.00  0.00     0.049 A 
ATOM     64  H   UNL     1      -7.739   6.660  -1.335  1.00  0.00     0.167 HD
ATOM     65  C   UNL     1     -10.365   5.626  -1.295  1.00  0.00     0.074 A 
ATOM     66  C   UNL     1     -11.493   4.772  -0.980  1.00  0.00     0.031 C 
ATOM     67  C   UNL     1     -10.446   6.767  -2.022  1.00  0.00     0.031 A 
BRANCH  54  68
ATOM     68  C   UNL     1      -5.048   9.656  -2.766  1.00  0.00    -0.014 A 
ATOM     69  C   UNL     1      -4.154   9.496  -3.836  1.00  0.00     0.009 A 
ATOM     70  C   UNL     1      -5.353  10.960  -2.335  1.00  0.00     0.009 A 
ATOM     71  C   UNL     1      -3.576  10.614  -4.451  1.00  0.00     0.001 A 
ATOM     72  C   UNL     1      -4.794  12.074  -2.966  1.00  0.00     0.001 A 
ATOM     73  C   UNL     1      -3.903  11.900  -4.021  1.00  0.00     0.000 A 
ENDBRANCH  54  68
BRANCH  55  74
ATOM     74  C   UNL     1      -9.583   1.821   1.358  1.00  0.00    -0.014 A 
ATOM     75  C   UNL     1     -10.057   0.725   0.628  1.00  0.00     0.009 A 
ATOM     76  C   UNL     1      -9.660   1.794   2.763  1.00  0.00     0.009 A 
ATOM     77  C   UNL     1     -10.587  -0.382   1.294  1.00  0.00     0.001 A 
ATOM     78  C   UNL     1     -10.150   0.670   3.425  1.00  0.00     0.001 A 
ATOM     79  C   UNL     1     -10.617  -0.416   2.689  1.00  0.00     0.000 A 
ENDBRANCH  55  74
BRANCH  67  80
ATOM     80  C   UNL     1     -11.805   7.133  -2.544  1.00  0.00    -0.014 A 
ATOM     81  C   UNL     1     -12.816   7.593  -1.684  1.00  0.00     0.009 A 
ATOM     82  C   UNL     1     -12.086   6.991  -3.911  1.00  0.00     0.009 A 
ATOM     83  C   UNL     1     -14.096   7.852  -2.177  1.00  0.00     0.001 A 
ATOM     84  C   UNL     1     -13.358   7.280  -4.406  1.00  0.00     0.001 A 
ATOM     85  C   UNL     1     -14.365   7.695  -3.536  1.00  0.00     0.000 A 
ENDBRANCH  67  80
ENDBRANCH  41  42
ENDBRANCH  34  36
ENDBRANCH  33  34
ENDBRANCH  32  33
ENDBRANCH   1  32
TORSDOF 17
