REMARK SMILES Cc1ccc2c(c1C)O[C@@H](C(=O)OCCOC(=O)c1ccc(-c3c4nc(c(-c5ccccc5)c5ccc([nH]5)c(-c5ccccc5)c5nc(c(-c6ccccc6)c6ccc3[nH]6)C=C5)C=C4)cc1)CC2=O
REMARK SMILES IDX 15 1 14 2 13 3 11 4 12 5 10 6 1 7 2 8 3 9 7 10 4 11 6 12
REMARK SMILES IDX 8 13 5 14 9 15 68 16 67 17 69 18 16 19 17 20 18 21 19 22
REMARK SMILES IDX 20 23 66 24 21 25 65 26 22 27 23 28 24 29 59 30 25 31 64 32
REMARK SMILES IDX 58 33 60 34 26 35 63 36 57 37 56 38 27 40 49 41 34 42 48 43
REMARK SMILES IDX 35 44 38 45 47 46 61 47 36 48 37 49 46 51 62 52 39 53 28 54
REMARK SMILES IDX 29 55 33 56 30 57 32 58 31 59 50 60 51 61 55 62 52 63 54 64
REMARK SMILES IDX 53 65 40 66 41 67 45 68 42 69 44 70 43 71
REMARK H PARENT 60 39 38 50
REMARK Flexibility Score: inf
ROOT
ATOM      1  C   UNL     1      -5.239  -0.674   5.167  1.00  0.00     0.275 C 
ENDROOT
BRANCH   1   2
ATOM      2  C   UNL     1      -4.270  -0.374   4.024  1.00  0.00     0.274 C 
BRANCH   2   3
ATOM      3  O   UNL     1      -2.940  -0.161   4.535  1.00  0.00    -0.459 OA
BRANCH   3   4
ATOM      4  C   UNL     1      -2.484   1.118   4.552  1.00  0.00     0.347 C 
ATOM      5  O   UNL     1      -3.107   2.086   4.129  1.00  0.00    -0.248 OA
BRANCH   4   6
ATOM      6  C   UNL     1      -1.067   1.232   5.140  1.00  0.00     0.290 C 
ATOM      7  C   UNL     1       1.018  -0.029  -0.379  1.00  0.00     0.045 C 
ATOM      8  C   UNL     1       0.694  -0.263   1.071  1.00  0.00    -0.044 A 
ATOM      9  C   UNL     1       0.627  -1.590   1.536  1.00  0.00     0.005 A 
ATOM     10  C   UNL     1       0.491   0.803   1.973  1.00  0.00    -0.005 A 
ATOM     11  C   UNL     1       0.338  -1.870   2.869  1.00  0.00     0.016 A 
ATOM     12  C   UNL     1       0.158   0.504   3.306  1.00  0.00     0.134 A 
ATOM     13  C   UNL     1       0.542   2.247   1.541  1.00  0.00     0.049 C 
ATOM     14  C   UNL     1       0.101  -0.820   3.750  1.00  0.00     0.060 A 
ATOM     15  O   UNL     1      -0.099   1.560   4.145  1.00  0.00    -0.477 OA
ATOM     16  C   UNL     1      -0.220  -1.094   5.164  1.00  0.00     0.170 C 
ATOM     17  C   UNL     1      -0.599   0.083   6.016  1.00  0.00     0.138 C 
ATOM     18  O   UNL     1      -0.134  -2.231   5.619  1.00  0.00    -0.294 OA
ENDBRANCH   4   6
ENDBRANCH   3   4
ENDBRANCH   2   3
ENDBRANCH   1   2
BRANCH   1  19
ATOM     19  O   UNL     1      -5.424   0.489   5.996  1.00  0.00    -0.458 OA
BRANCH  19  20
ATOM     20  C   UNL     1      -4.628   0.549   7.086  1.00  0.00     0.338 C 
ATOM     21  O   UNL     1      -3.810  -0.269   7.465  1.00  0.00    -0.246 OA
BRANCH  20  22
ATOM     22  C   UNL     1      -4.798   1.851   7.737  1.00  0.00     0.060 A 
ATOM     23  C   UNL     1      -3.917   2.882   7.409  1.00  0.00     0.016 A 
ATOM     24  C   UNL     1      -5.748   2.012   8.745  1.00  0.00     0.016 A 
ATOM     25  C   UNL     1      -3.966   4.082   8.106  1.00  0.00     0.010 A 
ATOM     26  C   UNL     1      -5.814   3.228   9.429  1.00  0.00     0.010 A 
ATOM     27  C   UNL     1      -4.912   4.261   9.123  1.00  0.00    -0.014 A 
BRANCH  27  28
ATOM     28  C   UNL     1      -4.930   5.533   9.876  1.00  0.00     0.031 A 
ATOM     29  C   UNL     1      -4.366   5.591  11.264  1.00  0.00     0.074 A 
ATOM     30  C   UNL     1      -5.414   6.640   9.285  1.00  0.00     0.049 A 
ATOM     31  N   UNL     1      -4.312   6.609  12.084  1.00  0.00    -0.248 NA
ATOM     32  C   UNL     1      -3.781   4.351  11.802  1.00  0.00     0.031 C 
ATOM     33  C   UNL     1      -5.941   6.708   7.921  1.00  0.00     0.029 A 
ATOM     34  N   UNL     1      -5.531   7.923   9.755  1.00  0.00    -0.354 N 
ATOM     35  C   UNL     1      -3.696   6.133  13.233  1.00  0.00     0.074 A 
ATOM     36  C   UNL     1      -3.407   4.733  13.016  1.00  0.00     0.031 C 
ATOM     37  C   UNL     1      -6.314   7.971   7.659  1.00  0.00     0.029 A 
ATOM     38  C   UNL     1      -6.088   8.789   8.847  1.00  0.00     0.049 A 
ATOM     39  H   UNL     1      -5.243   8.196  10.656  1.00  0.00     0.167 HD
ATOM     40  C   UNL     1      -3.395   6.811  14.364  1.00  0.00     0.031 A 
ATOM     41  C   UNL     1      -6.399  10.093   8.965  1.00  0.00     0.031 A 
ATOM     42  C   UNL     1      -3.675   8.204  14.573  1.00  0.00     0.049 A 
ATOM     43  C   UNL     1      -6.115  10.802  10.258  1.00  0.00     0.074 A 
ATOM     44  C   UNL     1      -3.398   8.976  15.688  1.00  0.00     0.029 A 
ATOM     45  N   UNL     1      -4.292   9.032  13.650  1.00  0.00    -0.354 N 
ATOM     46  N   UNL     1      -5.540  10.337  11.339  1.00  0.00    -0.248 NA
ATOM     47  C   UNL     1      -6.527  12.210  10.350  1.00  0.00     0.031 C 
ATOM     48  C   UNL     1      -3.882  10.266  15.454  1.00  0.00     0.029 A 
ATOM     49  C   UNL     1      -4.425  10.303  14.179  1.00  0.00     0.049 A 
ATOM     50  H   UNL     1      -4.591   8.758  12.753  1.00  0.00     0.167 HD
ATOM     51  C   UNL     1      -5.512  11.395  12.237  1.00  0.00     0.074 A 
ATOM     52  C   UNL     1      -6.116  12.530  11.571  1.00  0.00     0.031 C 
ATOM     53  C   UNL     1      -5.030  11.419  13.502  1.00  0.00     0.031 A 
BRANCH  40  54
ATOM     54  C   UNL     1      -2.734   6.062  15.480  1.00  0.00    -0.014 A 
ATOM     55  C   UNL     1      -1.354   5.815  15.461  1.00  0.00     0.009 A 
ATOM     56  C   UNL     1      -3.481   5.698  16.612  1.00  0.00     0.009 A 
ATOM     57  C   UNL     1      -0.732   5.216  16.558  1.00  0.00     0.001 A 
ATOM     58  C   UNL     1      -2.853   5.113  17.712  1.00  0.00     0.001 A 
ATOM     59  C   UNL     1      -1.480   4.874  17.685  1.00  0.00     0.000 A 
ENDBRANCH  40  54
BRANCH  41  60
ATOM     60  C   UNL     1      -7.035  10.801   7.827  1.00  0.00    -0.014 A 
ATOM     61  C   UNL     1      -6.305  11.718   7.059  1.00  0.00     0.009 A 
ATOM     62  C   UNL     1      -8.372  10.537   7.487  1.00  0.00     0.009 A 
ATOM     63  C   UNL     1      -6.904  12.364   5.975  1.00  0.00     0.001 A 
ATOM     64  C   UNL     1      -8.961  11.169   6.391  1.00  0.00     0.001 A 
ATOM     65  C   UNL     1      -8.228  12.085   5.639  1.00  0.00     0.000 A 
ENDBRANCH  41  60
BRANCH  53  66
ATOM     66  C   UNL     1      -5.124  12.708  14.260  1.00  0.00    -0.014 A 
ATOM     67  C   UNL     1      -6.329  13.094  14.865  1.00  0.00     0.009 A 
ATOM     68  C   UNL     1      -3.972  13.483  14.466  1.00  0.00     0.009 A 
ATOM     69  C   UNL     1      -6.378  14.239  15.662  1.00  0.00     0.001 A 
ATOM     70  C   UNL     1      -4.021  14.616  15.277  1.00  0.00     0.001 A 
ATOM     71  C   UNL     1      -5.224  14.993  15.874  1.00  0.00     0.000 A 
ENDBRANCH  53  66
ENDBRANCH  27  28
ENDBRANCH  20  22
ENDBRANCH  19  20
ENDBRANCH   1  19
TORSDOF 11
