REMARK SMILES CCC[NH+]1CCN(c2cc(C(=O)OCCOC(=O)c3ccc(-c4c5nc(c(-c6ccccc6)c6ccc([nH]6)c(-c6ccccc6)c6nc(c(-c7ccccc7)c7ccc4[nH]7)C=C6)C=C5)cc3)c3cc(NC(=O)c4ccc(F)cc4)ccc3n2)CC1
REMARK SMILES IDX 14 1 13 2 11 3 12 4 10 5 8 6 9 7 83 8 82 9 67 10 81 11 68 12
REMARK SMILES IDX 80 13 69 14 7 15 4 16 5 17 85 18 6 20 84 21 3 22 2 23 1 24
REMARK SMILES IDX 70 25 71 26 72 28 73 29 74 30 79 31 75 32 78 33 76 34 77 35
REMARK SMILES IDX 15 36 16 37 17 38 18 39 19 40 20 41 66 42 21 43 65 44 22 45
REMARK SMILES IDX 23 46 24 47 59 48 25 49 64 50 58 51 60 52 26 53 63 54 57 55
REMARK SMILES IDX 56 56 27 58 49 59 34 60 48 61 35 62 38 63 47 64 61 65 36 66
REMARK SMILES IDX 37 67 46 69 62 70 39 71 28 72 29 73 33 74 30 75 32 76 31 77
REMARK SMILES IDX 50 78 51 79 55 80 52 81 54 82 53 83 40 84 41 85 45 86 42 87
REMARK SMILES IDX 44 88 43 89
REMARK H PARENT 4 19 70 27 60 57 38 68
REMARK Flexibility Score: inf
ROOT
ATOM      1  C   UNL     1       8.569   1.450   5.114  1.00  0.00     0.275 C 
ENDROOT
BRANCH   1   2
ATOM      2  O   UNL     1       7.178   1.500   5.502  1.00  0.00    -0.458 OA
BRANCH   2   3
ATOM      3  C   UNL     1       6.319   1.879   4.530  1.00  0.00     0.339 C 
ATOM      4  O   UNL     1       6.629   2.285   3.420  1.00  0.00    -0.246 OA
BRANCH   3   5
ATOM      5  C   UNL     1       4.919   1.551   4.881  1.00  0.00     0.073 A 
ATOM      6  C   UNL     1       2.889   0.539   4.116  1.00  0.00     0.130 A 
ATOM      7  C   UNL     1       4.231   0.774   3.946  1.00  0.00     0.063 A 
ATOM      8  N   UNL     1       2.196   1.187   5.065  1.00  0.00    -0.231 NA
ATOM      9  C   UNL     1       2.843   1.939   5.964  1.00  0.00     0.074 A 
ATOM     10  C   UNL     1       4.238   2.096   5.984  1.00  0.00     0.017 A 
ATOM     11  C   UNL     1       2.084   2.600   6.909  1.00  0.00     0.031 A 
ATOM     12  C   UNL     1       4.834   2.793   7.066  1.00  0.00     0.037 A 
ATOM     13  C   UNL     1       2.676   3.355   7.923  1.00  0.00     0.028 A 
ATOM     14  C   UNL     1       4.066   3.423   8.040  1.00  0.00     0.042 A 
BRANCH   6  15
ATOM     15  N   UNL     1       2.197  -0.307   3.296  1.00  0.00    -0.345 N 
ATOM     16  N   UNL     1       0.418  -2.011   1.731  1.00  0.00    -0.332 N 
ATOM     17  C   UNL     1       1.372  -2.568   2.731  1.00  0.00     0.284 C 
ATOM     18  C   UNL     1       0.059  -0.642   2.156  1.00  0.00     0.284 C 
ATOM     19  H   UNL     1      -0.454  -2.539   1.692  1.00  0.00     0.348 HD
ATOM     20  C   UNL     1       2.615  -1.682   3.035  1.00  0.00     0.179 C 
ATOM     21  C   UNL     1       1.255   0.302   2.371  1.00  0.00     0.179 C 
BRANCH  16  22
ATOM     22  C   UNL     1       0.965  -2.138   0.372  1.00  0.00     0.262 C 
BRANCH  22  23
ATOM     23  C   UNL     1       0.211  -1.434  -0.769  1.00  0.00     0.058 C 
ATOM     24  C   UNL     1       0.678  -0.009  -1.042  1.00  0.00     0.010 C 
ENDBRANCH  22  23
ENDBRANCH  16  22
ENDBRANCH   6  15
BRANCH  14  25
ATOM     25  N   UNL     1       4.555   4.103   9.168  1.00  0.00    -0.322 N 
ATOM     26  C   UNL     1       5.802   4.330   9.693  1.00  0.00     0.255 C 
ATOM     27  H   UNL     1       3.838   4.511   9.705  1.00  0.00     0.170 HD
ATOM     28  O   UNL     1       5.900   4.833  10.813  1.00  0.00    -0.269 OA
BRANCH  26  29
ATOM     29  C   UNL     1       7.048   4.002   8.990  1.00  0.00     0.040 A 
ATOM     30  C   UNL     1       7.915   3.068   9.573  1.00  0.00     0.017 A 
ATOM     31  C   UNL     1       7.408   4.682   7.821  1.00  0.00     0.017 A 
ATOM     32  C   UNL     1       9.134   2.784   8.961  1.00  0.00     0.040 A 
ATOM     33  C   UNL     1       8.627   4.389   7.211  1.00  0.00     0.040 A 
ATOM     34  C   UNL     1       9.478   3.449   7.789  1.00  0.00     0.123 A 
ATOM     35  F   UNL     1      10.631   3.144   7.177  1.00  0.00    -0.207 F 
ENDBRANCH  26  29
ENDBRANCH  14  25
ENDBRANCH   3   5
ENDBRANCH   2   3
ENDBRANCH   1   2
BRANCH   1  36
ATOM     36  C   UNL     1       9.284   0.383   5.952  1.00  0.00     0.275 C 
BRANCH  36  37
ATOM     37  O   UNL     1       9.176  -0.885   5.280  1.00  0.00    -0.458 OA
BRANCH  37  38
ATOM     38  C   UNL     1       7.953  -1.449   5.347  1.00  0.00     0.338 C 
ATOM     39  O   UNL     1       7.065  -1.244   6.162  1.00  0.00    -0.246 OA
BRANCH  38  40
ATOM     40  C   UNL     1       7.725  -2.089   4.052  1.00  0.00     0.060 A 
ATOM     41  C   UNL     1       6.915  -1.401   3.149  1.00  0.00     0.016 A 
ATOM     42  C   UNL     1       8.289  -3.308   3.713  1.00  0.00     0.016 A 
ATOM     43  C   UNL     1       6.561  -1.963   1.937  1.00  0.00     0.010 A 
ATOM     44  C   UNL     1       8.002  -3.842   2.457  1.00  0.00     0.010 A 
ATOM     45  C   UNL     1       7.109  -3.192   1.577  1.00  0.00    -0.014 A 
BRANCH  45  46
ATOM     46  C   UNL     1       6.715  -3.848   0.311  1.00  0.00     0.031 A 
ATOM     47  C   UNL     1       6.079  -5.202   0.378  1.00  0.00     0.074 A 
ATOM     48  C   UNL     1       6.969  -3.262  -0.873  1.00  0.00     0.049 A 
ATOM     49  N   UNL     1       5.926  -6.094  -0.563  1.00  0.00    -0.248 NA
ATOM     50  C   UNL     1       5.580  -5.621   1.699  1.00  0.00     0.031 C 
ATOM     51  C   UNL     1       7.513  -1.915  -1.061  1.00  0.00     0.029 A 
ATOM     52  N   UNL     1       6.828  -3.745  -2.148  1.00  0.00    -0.354 N 
ATOM     53  C   UNL     1       5.394  -7.211   0.069  1.00  0.00     0.074 A 
ATOM     54  C   UNL     1       5.251  -6.883   1.470  1.00  0.00     0.031 C 
ATOM     55  C   UNL     1       7.673  -1.685  -2.372  1.00  0.00     0.029 A 
ATOM     56  C   UNL     1       7.334  -2.899  -3.104  1.00  0.00     0.049 A 
ATOM     57  H   UNL     1       6.408  -4.611  -2.357  1.00  0.00     0.167 HD
ATOM     58  C   UNL     1       5.077  -8.407  -0.478  1.00  0.00     0.031 A 
ATOM     59  C   UNL     1       7.570  -3.103  -4.413  1.00  0.00     0.031 A 
ATOM     60  C   UNL     1       5.216  -8.694  -1.881  1.00  0.00     0.049 A 
ATOM     61  C   UNL     1       7.247  -4.447  -4.998  1.00  0.00     0.074 A 
ATOM     62  C   UNL     1       4.897  -9.853  -2.563  1.00  0.00     0.029 A 
ATOM     63  N   UNL     1       5.720  -7.801  -2.819  1.00  0.00    -0.354 N 
ATOM     64  N   UNL     1       6.770  -5.513  -4.399  1.00  0.00    -0.248 NA
ATOM     65  C   UNL     1       7.497  -4.620  -6.434  1.00  0.00     0.031 C 
ATOM     66  C   UNL     1       5.267  -9.684  -3.902  1.00  0.00     0.029 A 
ATOM     67  C   UNL     1       5.746  -8.392  -4.069  1.00  0.00     0.049 A 
ATOM     68  H   UNL     1       6.016  -6.883  -2.622  1.00  0.00     0.167 HD
ATOM     69  C   UNL     1       6.638  -6.478  -5.388  1.00  0.00     0.074 A 
ATOM     70  C   UNL     1       7.077  -5.863  -6.627  1.00  0.00     0.031 C 
ATOM     71  C   UNL     1       6.191  -7.754  -5.284  1.00  0.00     0.031 A 
BRANCH  58  72
ATOM     72  C   UNL     1       4.632  -9.498   0.458  1.00  0.00    -0.014 A 
ATOM     73  C   UNL     1       3.424  -9.427   1.171  1.00  0.00     0.009 A 
ATOM     74  C   UNL     1       5.460 -10.617   0.649  1.00  0.00     0.009 A 
ATOM     75  C   UNL     1       3.086 -10.418   2.096  1.00  0.00     0.001 A 
ATOM     76  C   UNL     1       5.103 -11.625   1.545  1.00  0.00     0.001 A 
ATOM     77  C   UNL     1       3.924 -11.517   2.280  1.00  0.00     0.000 A 
ENDBRANCH  58  72
BRANCH  59  78
ATOM     78  C   UNL     1       8.192  -2.022  -5.221  1.00  0.00    -0.014 A 
ATOM     79  C   UNL     1       7.446  -1.327  -6.183  1.00  0.00     0.009 A 
ATOM     80  C   UNL     1       9.524  -1.637  -4.989  1.00  0.00     0.009 A 
ATOM     81  C   UNL     1       8.021  -0.272  -6.897  1.00  0.00     0.001 A 
ATOM     82  C   UNL     1      10.086  -0.562  -5.680  1.00  0.00     0.001 A 
ATOM     83  C   UNL     1       9.335   0.117  -6.638  1.00  0.00     0.000 A 
ENDBRANCH  59  78
BRANCH  71  84
ATOM     84  C   UNL     1       6.107  -8.552  -6.553  1.00  0.00    -0.014 A 
ATOM     85  C   UNL     1       7.257  -9.028  -7.200  1.00  0.00     0.009 A 
ATOM     86  C   UNL     1       4.845  -8.877  -7.076  1.00  0.00     0.009 A 
ATOM     87  C   UNL     1       7.144  -9.789  -8.365  1.00  0.00     0.001 A 
ATOM     88  C   UNL     1       4.735  -9.666  -8.221  1.00  0.00     0.001 A 
ATOM     89  C   UNL     1       5.884 -10.113  -8.869  1.00  0.00     0.000 A 
ENDBRANCH  71  84
ENDBRANCH  45  46
ENDBRANCH  38  40
ENDBRANCH  37  38
ENDBRANCH  36  37
ENDBRANCH   1  36
TORSDOF 16
