REMARK SMILES Cc1cccc(S(=O)(=O)Nc2cc(C(=O)OCCOC(=O)c3ccc(-c4c5nc(c(-c6ccccc6)c6ccc([nH]6)c(-c6ccccc6)c6nc(c(-c7ccccc7)c7ccc4[nH]7)C=C6)C=C5)cc3)ccc2N2CCC[C@H](C[NH+]3CCCC3)C2)c1
REMARK SMILES IDX 17 1 16 2 14 3 15 4 13 5 11 6 12 7 72 8 71 9 70 10 10 11
REMARK SMILES IDX 7 13 8 14 9 15 6 16 1 17 2 18 3 19 85 20 4 21 5 22 73 23
REMARK SMILES IDX 74 24 84 25 75 26 77 27 76 28 78 29 79 30 80 31 83 32 81 34
REMARK SMILES IDX 82 35 18 36 19 37 20 38 21 39 22 40 23 41 69 42 24 43 68 44
REMARK SMILES IDX 25 45 26 46 27 47 62 48 28 49 67 50 61 51 63 52 29 53 66 54
REMARK SMILES IDX 60 55 59 56 30 58 52 59 37 60 51 61 38 62 41 63 50 64 64 65
REMARK SMILES IDX 39 66 40 67 49 69 65 70 42 71 31 72 32 73 36 74 33 75 35 76
REMARK SMILES IDX 34 77 53 78 54 79 58 80 55 81 57 82 56 83 43 84 44 85 48 86
REMARK SMILES IDX 45 87 47 88 46 89
REMARK H PARENT 10 12 79 33 63 57 41 68
REMARK Flexibility Score: inf
ROOT
ATOM      1  C   UNL     1       2.443   1.649  -4.824  1.00  0.00     0.275 C 
ENDROOT
BRANCH   1   2
ATOM      2  O   UNL     1       2.213   2.858  -4.085  1.00  0.00    -0.458 OA
BRANCH   2   3
ATOM      3  C   UNL     1       1.690   2.592  -2.875  1.00  0.00     0.338 C 
ATOM      4  O   UNL     1       1.459   1.478  -2.427  1.00  0.00    -0.246 OA
BRANCH   3   5
ATOM      5  C   UNL     1       1.341   3.741  -2.042  1.00  0.00     0.062 A 
ATOM      6  C   UNL     1      -0.220   4.131  -0.215  1.00  0.00     0.073 A 
ATOM      7  C   UNL     1       0.069   3.629  -1.482  1.00  0.00     0.044 A 
ATOM      8  C   UNL     1       0.744   4.962   0.431  1.00  0.00     0.061 A 
ATOM      9  C   UNL     1       1.993   5.142  -0.235  1.00  0.00     0.029 A 
ATOM     10  C   UNL     1       2.309   4.525  -1.447  1.00  0.00     0.018 A 
BRANCH   6  11
ATOM     11  N   UNL     1      -1.345   3.566   0.488  1.00  0.00    -0.277 N 
ATOM     12  H   UNL     1      -1.332   3.626   1.470  1.00  0.00     0.180 HD
BRANCH  11  13
ATOM     13  S   UNL     1      -2.677   2.812  -0.213  1.00  0.00     0.261 S 
ATOM     14  O   UNL     1      -3.012   3.498  -1.443  1.00  0.00    -0.201 OA
ATOM     15  O   UNL     1      -3.635   2.744   0.874  1.00  0.00    -0.201 OA
BRANCH  13  16
ATOM     16  C   UNL     1      -2.325   1.107  -0.641  1.00  0.00     0.088 A 
ATOM     17  C   UNL     1       0.455  -1.232  -1.818  1.00  0.00     0.044 C 
ATOM     18  C   UNL     1      -0.886  -0.700  -1.408  1.00  0.00    -0.050 A 
ATOM     19  C   UNL     1      -2.001  -1.506  -1.631  1.00  0.00     0.003 A 
ATOM     20  C   UNL     1      -1.049   0.593  -0.861  1.00  0.00     0.025 A 
ATOM     21  C   UNL     1      -3.271  -1.022  -1.352  1.00  0.00     0.002 A 
ATOM     22  C   UNL     1      -3.436   0.282  -0.876  1.00  0.00     0.022 A 
ENDBRANCH  13  16
ENDBRANCH  11  13
ENDBRANCH   6  11
BRANCH   8  23
ATOM     23  N   UNL     1       0.612   5.618   1.665  1.00  0.00    -0.369 N 
ATOM     24  C   UNL     1       0.838   7.078   1.632  1.00  0.00     0.116 C 
ATOM     25  C   UNL     1      -0.202   5.132   2.780  1.00  0.00     0.126 C 
ATOM     26  C   UNL     1       1.437   7.548   2.952  1.00  0.00     0.022 C 
ATOM     27  C   UNL     1       0.323   5.619   4.153  1.00  0.00     0.064 C 
ATOM     28  C   UNL     1       0.537   7.139   4.109  1.00  0.00     0.013 C 
BRANCH  27  29
ATOM     29  C   UNL     1       1.561   4.782   4.574  1.00  0.00     0.267 C 
BRANCH  29  30
ATOM     30  N   UNL     1       2.050   4.836   5.957  1.00  0.00    -0.335 N 
ATOM     31  C   UNL     1       1.067   4.537   6.995  1.00  0.00     0.262 C 
ATOM     32  C   UNL     1       2.764   6.047   6.354  1.00  0.00     0.262 C 
ATOM     33  H   UNL     1       2.724   4.072   5.904  1.00  0.00     0.348 HD
ATOM     34  C   UNL     1       0.670   5.884   7.565  1.00  0.00     0.067 C 
ATOM     35  C   UNL     1       1.938   6.713   7.451  1.00  0.00     0.067 C 
ENDBRANCH  29  30
ENDBRANCH  27  29
ENDBRANCH   8  23
ENDBRANCH   3   5
ENDBRANCH   2   3
ENDBRANCH   1   2
BRANCH   1  36
ATOM     36  C   UNL     1       3.812   1.631  -5.492  1.00  0.00     0.275 C 
BRANCH  36  37
ATOM     37  O   UNL     1       4.918   2.311  -4.830  1.00  0.00    -0.458 OA
BRANCH  37  38
ATOM     38  C   UNL     1       5.163   2.522  -3.514  1.00  0.00     0.338 C 
ATOM     39  O   UNL     1       5.755   3.530  -3.137  1.00  0.00    -0.246 OA
BRANCH  38  40
ATOM     40  C   UNL     1       4.743   1.518  -2.513  1.00  0.00     0.060 A 
ATOM     41  C   UNL     1       4.540   1.902  -1.167  1.00  0.00     0.016 A 
ATOM     42  C   UNL     1       4.532   0.205  -2.889  1.00  0.00     0.016 A 
ATOM     43  C   UNL     1       4.043   0.995  -0.219  1.00  0.00     0.010 A 
ATOM     44  C   UNL     1       3.943  -0.654  -1.988  1.00  0.00     0.010 A 
ATOM     45  C   UNL     1       3.740  -0.295  -0.634  1.00  0.00    -0.014 A 
BRANCH  45  46
ATOM     46  C   UNL     1       3.413  -1.443   0.225  1.00  0.00     0.031 A 
ATOM     47  C   UNL     1       2.113  -1.692   0.893  1.00  0.00     0.074 A 
ATOM     48  C   UNL     1       4.335  -2.429   0.097  1.00  0.00     0.049 A 
ATOM     49  N   UNL     1       1.701  -2.894   1.104  1.00  0.00    -0.248 NA
ATOM     50  C   UNL     1       1.124  -0.697   1.326  1.00  0.00     0.031 C 
ATOM     51  C   UNL     1       4.290  -3.851   0.395  1.00  0.00     0.029 A 
ATOM     52  N   UNL     1       5.688  -2.206  -0.195  1.00  0.00    -0.354 N 
ATOM     53  C   UNL     1       0.422  -2.858   1.598  1.00  0.00     0.074 A 
ATOM     54  C   UNL     1       0.062  -1.467   1.648  1.00  0.00     0.031 C 
ATOM     55  C   UNL     1       5.546  -4.271   0.640  1.00  0.00     0.029 A 
ATOM     56  C   UNL     1       6.390  -3.082   0.640  1.00  0.00     0.049 A 
ATOM     57  H   UNL     1       6.063  -1.571  -0.847  1.00  0.00     0.167 HD
ATOM     58  C   UNL     1      -0.138  -4.046   1.941  1.00  0.00     0.031 A 
ATOM     59  C   UNL     1       6.990  -2.534   1.741  1.00  0.00     0.031 A 
ATOM     60  C   UNL     1       0.922  -4.920   2.418  1.00  0.00     0.049 A 
ATOM     61  C   UNL     1       6.343  -3.031   3.017  1.00  0.00     0.074 A 
ATOM     62  C   UNL     1       1.649  -5.973   1.900  1.00  0.00     0.029 A 
ATOM     63  N   UNL     1       1.606  -4.467   3.536  1.00  0.00    -0.354 N 
ATOM     64  N   UNL     1       5.099  -3.425   3.114  1.00  0.00    -0.248 NA
ATOM     65  C   UNL     1       7.083  -3.215   4.259  1.00  0.00     0.031 C 
ATOM     66  C   UNL     1       2.871  -6.037   2.642  1.00  0.00     0.029 A 
ATOM     67  C   UNL     1       2.848  -5.050   3.617  1.00  0.00     0.049 A 
ATOM     68  H   UNL     1       1.251  -3.816   4.183  1.00  0.00     0.167 HD
ATOM     69  C   UNL     1       4.900  -4.006   4.337  1.00  0.00     0.074 A 
ATOM     70  C   UNL     1       6.160  -3.813   5.032  1.00  0.00     0.031 C 
ATOM     71  C   UNL     1       3.741  -4.638   4.689  1.00  0.00     0.031 A 
BRANCH  58  72
ATOM     72  C   UNL     1      -1.570  -4.471   1.816  1.00  0.00    -0.014 A 
ATOM     73  C   UNL     1      -1.878  -5.839   1.989  1.00  0.00     0.009 A 
ATOM     74  C   UNL     1      -2.606  -3.652   1.347  1.00  0.00     0.009 A 
ATOM     75  C   UNL     1      -3.134  -6.371   1.673  1.00  0.00     0.001 A 
ATOM     76  C   UNL     1      -3.875  -4.179   1.042  1.00  0.00     0.001 A 
ATOM     77  C   UNL     1      -4.134  -5.539   1.192  1.00  0.00     0.000 A 
ENDBRANCH  58  72
BRANCH  59  78
ATOM     78  C   UNL     1       7.534  -1.153   1.473  1.00  0.00    -0.014 A 
ATOM     79  C   UNL     1       8.424  -1.006   0.377  1.00  0.00     0.009 A 
ATOM     80  C   UNL     1       6.947   0.012   1.987  1.00  0.00     0.009 A 
ATOM     81  C   UNL     1       8.607   0.225  -0.264  1.00  0.00     0.001 A 
ATOM     82  C   UNL     1       7.169   1.257   1.365  1.00  0.00     0.001 A 
ATOM     83  C   UNL     1       7.963   1.355   0.220  1.00  0.00     0.000 A 
ENDBRANCH  59  78
BRANCH  71  84
ATOM     84  C   UNL     1       3.318  -4.935   6.109  1.00  0.00    -0.014 A 
ATOM     85  C   UNL     1       3.858  -4.291   7.228  1.00  0.00     0.009 A 
ATOM     86  C   UNL     1       2.191  -5.759   6.336  1.00  0.00     0.009 A 
ATOM     87  C   UNL     1       3.337  -4.498   8.511  1.00  0.00     0.001 A 
ATOM     88  C   UNL     1       1.627  -5.916   7.603  1.00  0.00     0.001 A 
ATOM     89  C   UNL     1       2.214  -5.297   8.696  1.00  0.00     0.000 A 
ENDBRANCH  71  84
ENDBRANCH  45  46
ENDBRANCH  38  40
ENDBRANCH  37  38
ENDBRANCH  36  37
ENDBRANCH   1  36
TORSDOF 17
