REMARK SMILES C=C(C(=O)OCCOC(=O)c1ccc(-c2c3nc(c(-c4ccccc4)c4ccc([nH]4)c(-c4ccccc4)c4nc(c(-c5ccccc5)c5ccc2[nH]5)C=C4)C=C3)cc1)[C@@H]1CC[C@]2(C)CCCC(=C)[C@H]2[C@H]1O
REMARK SMILES IDX 6 1 5 2 3 3 4 4 2 5 1 6 59 7 60 8 70 9 61 10 69 11 62 12
REMARK SMILES IDX 67 13 63 14 64 15 66 16 68 17 65 18 71 19 7 21 8 22 9 23
REMARK SMILES IDX 10 24 11 25 12 26 58 27 13 28 57 29 14 30 15 31 16 32 51 33
REMARK SMILES IDX 17 34 56 35 50 36 52 37 18 38 55 39 49 40 48 41 19 43 41 44
REMARK SMILES IDX 26 45 40 46 27 47 30 48 39 49 53 50 28 51 29 52 38 54 54 55
REMARK SMILES IDX 31 56 20 57 21 58 25 59 22 60 24 61 23 62 42 63 43 64 47 65
REMARK SMILES IDX 44 66 46 67 45 68 32 69 33 70 37 71 34 72 36 73 35 74
REMARK H PARENT 71 20 52 42 30 53
REMARK Flexibility Score: inf
ROOT
ATOM      1  C   UNL     1      -3.483  -0.257  -0.267  1.00  0.00     0.275 C 
ENDROOT
BRANCH   1   2
ATOM      2  O   UNL     1      -2.077   0.049  -0.302  1.00  0.00    -0.459 OA
BRANCH   2   3
ATOM      3  C   UNL     1      -1.212  -0.947   0.020  1.00  0.00     0.333 C 
ATOM      4  O   UNL     1      -1.531  -2.051   0.429  1.00  0.00    -0.247 OA
BRANCH   3   5
ATOM      5  C   UNL     1       0.194  -0.532  -0.301  1.00  0.00     0.036 C 
ATOM      6  C   UNL     1       0.461   0.785  -0.174  1.00  0.00     0.020 C 
BRANCH   5   7
ATOM      7  C   UNL     1       1.208  -1.581  -0.806  1.00  0.00     0.055 C 
ATOM      8  C   UNL     1       1.145  -3.013  -0.202  1.00  0.00     0.012 C 
ATOM      9  C   UNL     1       2.692  -1.121  -0.718  1.00  0.00     0.129 C 
ATOM     10  C   UNL     1       1.639  -3.102   1.240  1.00  0.00     0.008 C 
ATOM     11  C   UNL     1       3.135  -1.116   0.772  1.00  0.00     0.050 C 
ATOM     12  C   UNL     1       3.062  -2.525   1.445  1.00  0.00    -0.024 C 
ATOM     13  C   UNL     1       4.427  -0.395   1.123  1.00  0.00    -0.071 C 
ATOM     14  C   UNL     1       4.109  -3.524   0.892  1.00  0.00     0.012 C 
ATOM     15  C   UNL     1       3.301  -2.370   2.975  1.00  0.00     0.008 C 
ATOM     16  C   UNL     1       4.610  -0.227   2.614  1.00  0.00     0.031 C 
ATOM     17  C   UNL     1       5.326   0.082   0.247  1.00  0.00     0.008 C 
ATOM     18  C   UNL     1       4.567  -1.581   3.319  1.00  0.00     0.005 C 
BRANCH   9  19
ATOM     19  O   UNL     1       3.516  -1.973  -1.522  1.00  0.00    -0.392 OA
ATOM     20  H   UNL     1       3.445  -2.886  -1.202  1.00  0.00     0.211 HD
ENDBRANCH   9  19
ENDBRANCH   5   7
ENDBRANCH   3   5
ENDBRANCH   2   3
ENDBRANCH   1   2
BRANCH   1  21
ATOM     21  C   UNL     1      -4.002  -0.321  -1.701  1.00  0.00     0.275 C 
BRANCH  21  22
ATOM     22  O   UNL     1      -3.489  -1.511  -2.331  1.00  0.00    -0.458 OA
BRANCH  22  23
ATOM     23  C   UNL     1      -2.690  -1.335  -3.408  1.00  0.00     0.338 C 
ATOM     24  O   UNL     1      -2.406  -0.296  -3.974  1.00  0.00    -0.246 OA
BRANCH  23  25
ATOM     25  C   UNL     1      -2.122  -2.641  -3.777  1.00  0.00     0.060 A 
ATOM     26  C   UNL     1      -1.192  -3.218  -2.919  1.00  0.00     0.016 A 
ATOM     27  C   UNL     1      -2.436  -3.265  -4.979  1.00  0.00     0.016 A 
ATOM     28  C   UNL     1      -0.528  -4.389  -3.268  1.00  0.00     0.010 A 
ATOM     29  C   UNL     1      -1.840  -4.497  -5.288  1.00  0.00     0.010 A 
ATOM     30  C   UNL     1      -0.872  -5.071  -4.439  1.00  0.00    -0.014 A 
BRANCH  30  31
ATOM     31  C   UNL     1      -0.236  -6.380  -4.758  1.00  0.00     0.031 A 
ATOM     32  C   UNL     1       0.536  -6.561  -6.037  1.00  0.00     0.074 A 
ATOM     33  C   UNL     1      -0.345  -7.419  -3.902  1.00  0.00     0.049 A 
ATOM     34  N   UNL     1       0.984  -7.664  -6.583  1.00  0.00    -0.248 NA
ATOM     35  C   UNL     1       0.846  -5.343  -6.803  1.00  0.00     0.031 C 
ATOM     36  C   UNL     1      -0.996  -7.382  -2.590  1.00  0.00     0.029 A 
ATOM     37  N   UNL     1       0.092  -8.719  -4.013  1.00  0.00    -0.354 N 
ATOM     38  C   UNL     1       1.580  -7.282  -7.778  1.00  0.00     0.074 A 
ATOM     39  C   UNL     1       1.445  -5.844  -7.876  1.00  0.00     0.031 C 
ATOM     40  C   UNL     1      -0.898  -8.588  -2.012  1.00  0.00     0.029 A 
ATOM     41  C   UNL     1      -0.269  -9.511  -2.948  1.00  0.00     0.049 A 
ATOM     42  H   UNL     1       0.612  -9.050  -4.780  1.00  0.00     0.167 HD
ATOM     43  C   UNL     1       2.177  -8.060  -8.712  1.00  0.00     0.031 A 
ATOM     44  C   UNL     1      -0.168 -10.842  -2.765  1.00  0.00     0.031 A 
ATOM     45  C   UNL     1       2.340  -9.486  -8.602  1.00  0.00     0.049 A 
ATOM     46  C   UNL     1       0.412 -11.693  -3.858  1.00  0.00     0.074 A 
ATOM     47  C   UNL     1       2.943 -10.354  -9.497  1.00  0.00     0.029 A 
ATOM     48  N   UNL     1       1.905 -10.252  -7.534  1.00  0.00    -0.354 N 
ATOM     49  N   UNL     1       0.931 -11.325  -5.003  1.00  0.00    -0.248 NA
ATOM     50  C   UNL     1       0.397 -13.147  -3.642  1.00  0.00     0.031 C 
ATOM     51  C   UNL     1       2.824 -11.654  -8.994  1.00  0.00     0.029 A 
ATOM     52  C   UNL     1       2.195 -11.587  -7.762  1.00  0.00     0.049 A 
ATOM     53  H   UNL     1       1.456  -9.900  -6.731  1.00  0.00     0.167 HD
ATOM     54  C   UNL     1       1.312 -12.499  -5.639  1.00  0.00     0.074 A 
ATOM     55  C   UNL     1       0.991 -13.589  -4.742  1.00  0.00     0.031 C 
ATOM     56  C   UNL     1       1.867 -12.661  -6.864  1.00  0.00     0.031 A 
BRANCH  43  57
ATOM     57  C   UNL     1       2.657  -7.399  -9.972  1.00  0.00    -0.014 A 
ATOM     58  C   UNL     1       3.826  -6.625 -10.000  1.00  0.00     0.009 A 
ATOM     59  C   UNL     1       1.957  -7.619 -11.170  1.00  0.00     0.009 A 
ATOM     60  C   UNL     1       4.274  -6.070 -11.202  1.00  0.00     0.001 A 
ATOM     61  C   UNL     1       2.420  -7.083 -12.372  1.00  0.00     0.001 A 
ATOM     62  C   UNL     1       3.575  -6.304 -12.386  1.00  0.00     0.000 A 
ENDBRANCH  43  57
BRANCH  44  63
ATOM     63  C   UNL     1      -0.721 -11.474  -1.536  1.00  0.00    -0.014 A 
ATOM     64  C   UNL     1       0.121 -12.104  -0.608  1.00  0.00     0.009 A 
ATOM     65  C   UNL     1      -2.107 -11.483  -1.306  1.00  0.00     0.009 A 
ATOM     66  C   UNL     1      -0.415 -12.752   0.508  1.00  0.00     0.001 A 
ATOM     67  C   UNL     1      -2.637 -12.099  -0.172  1.00  0.00     0.001 A 
ATOM     68  C   UNL     1      -1.792 -12.744   0.728  1.00  0.00     0.000 A 
ENDBRANCH  44  63
BRANCH  56  69
ATOM     69  C   UNL     1       2.182 -14.066  -7.292  1.00  0.00    -0.014 A 
ATOM     70  C   UNL     1       1.162 -14.954  -7.668  1.00  0.00     0.009 A 
ATOM     71  C   UNL     1       3.517 -14.496  -7.349  1.00  0.00     0.009 A 
ATOM     72  C   UNL     1       1.472 -16.256  -8.064  1.00  0.00     0.001 A 
ATOM     73  C   UNL     1       3.825 -15.790  -7.771  1.00  0.00     0.001 A 
ATOM     74  C   UNL     1       2.803 -16.671  -8.120  1.00  0.00     0.000 A 
ENDBRANCH  56  69
ENDBRANCH  30  31
ENDBRANCH  23  25
ENDBRANCH  22  23
ENDBRANCH  21  22
ENDBRANCH   1  21
TORSDOF 13
