REMARK SMILES O=C(OCCOC(=O)c1cccc(OS(=O)(=O)c2cccc([N+](=O)[O-])c2)c1)c1ccc(-c2c3nc(c(-c4ccccc4)c4ccc([nH]4)c(-c4ccccc4)c4nc(c(-c5ccccc5)c5ccc2[nH]5)C=C4)C=C3)cc1
REMARK SMILES IDX 5 1 4 2 3 3 2 4 1 5 28 6 29 7 75 8 30 9 74 10 31 11 32 12
REMARK SMILES IDX 33 13 68 14 34 15 73 16 67 17 69 18 35 19 72 20 66 21 65 22
REMARK SMILES IDX 36 24 58 25 43 26 57 27 44 28 47 29 56 30 70 31 45 32 46 33
REMARK SMILES IDX 55 35 71 36 48 37 37 38 38 39 42 40 39 41 41 42 40 43 59 44
REMARK SMILES IDX 60 45 64 46 61 47 63 48 62 49 49 50 50 51 54 52 51 53 53 54
REMARK SMILES IDX 52 55 6 56 7 57 8 58 9 59 10 60 27 61 11 62 13 63 12 64
REMARK SMILES IDX 14 65 15 66 16 67 17 68 18 69 19 70 26 71 20 72 22 73 21 74
REMARK SMILES IDX 23 75 24 76 25 77
REMARK H PARENT 69 23 47 34
REMARK Flexibility Score: inf
ROOT
ATOM      1  C   UNL     1       4.191  -1.208  -1.607  1.00  0.00     0.275 C 
ENDROOT
BRANCH   1   2
ATOM      2  C   UNL     1       4.329  -1.400  -0.087  1.00  0.00     0.275 C 
BRANCH   2   3
ATOM      3  O   UNL     1       3.187  -0.963   0.670  1.00  0.00    -0.458 OA
BRANCH   3   4
ATOM      4  C   UNL     1       2.833   0.269   1.100  1.00  0.00     0.338 C 
ATOM      5  O   UNL     1       1.787   0.381   1.740  1.00  0.00    -0.246 OA
BRANCH   4   6
ATOM      6  C   UNL     1       3.583   1.536   0.790  1.00  0.00     0.060 A 
ATOM      7  C   UNL     1       4.814   1.631   0.142  1.00  0.00     0.016 A 
ATOM      8  C   UNL     1       2.941   2.745   1.127  1.00  0.00     0.016 A 
ATOM      9  C   UNL     1       5.360   2.860  -0.212  1.00  0.00     0.010 A 
ATOM     10  C   UNL     1       3.466   3.986   0.744  1.00  0.00     0.010 A 
ATOM     11  C   UNL     1       4.684   4.046   0.060  1.00  0.00    -0.014 A 
BRANCH  11  12
ATOM     12  C   UNL     1       5.379   5.323  -0.214  1.00  0.00     0.031 A 
ATOM     13  C   UNL     1       5.964   6.055   0.948  1.00  0.00     0.074 A 
ATOM     14  C   UNL     1       5.721   5.690  -1.466  1.00  0.00     0.049 A 
ATOM     15  N   UNL     1       6.662   7.157   0.952  1.00  0.00    -0.248 NA
ATOM     16  C   UNL     1       5.806   5.424   2.269  1.00  0.00     0.031 C 
ATOM     17  C   UNL     1       5.497   4.867  -2.649  1.00  0.00     0.029 A 
ATOM     18  N   UNL     1       6.405   6.782  -1.949  1.00  0.00    -0.354 N 
ATOM     19  C   UNL     1       7.058   7.330   2.267  1.00  0.00     0.074 A 
ATOM     20  C   UNL     1       6.467   6.265   3.045  1.00  0.00     0.031 C 
ATOM     21  C   UNL     1       6.094   5.448  -3.698  1.00  0.00     0.029 A 
ATOM     22  C   UNL     1       6.579   6.767  -3.317  1.00  0.00     0.049 A 
ATOM     23  H   UNL     1       6.740   7.506  -1.372  1.00  0.00     0.167 HD
ATOM     24  C   UNL     1       7.875   8.280   2.771  1.00  0.00     0.031 A 
ATOM     25  C   UNL     1       7.001   7.732  -4.166  1.00  0.00     0.031 A 
ATOM     26  C   UNL     1       8.431   9.346   1.987  1.00  0.00     0.049 A 
ATOM     27  C   UNL     1       7.492   9.003  -3.544  1.00  0.00     0.074 A 
ATOM     28  C   UNL     1       9.216  10.402   2.405  1.00  0.00     0.029 A 
ATOM     29  N   UNL     1       8.242   9.498   0.620  1.00  0.00    -0.354 N 
ATOM     30  N   UNL     1       7.778   9.224  -2.283  1.00  0.00    -0.248 NA
ATOM     31  C   UNL     1       7.719  10.154  -4.421  1.00  0.00     0.031 C 
ATOM     32  C   UNL     1       9.427  11.243   1.307  1.00  0.00     0.029 A 
ATOM     33  C   UNL     1       8.851  10.663   0.187  1.00  0.00     0.049 A 
ATOM     34  H   UNL     1       7.747   8.871   0.044  1.00  0.00     0.167 HD
ATOM     35  C   UNL     1       8.323  10.496  -2.235  1.00  0.00     0.074 A 
ATOM     36  C   UNL     1       8.288  11.013  -3.588  1.00  0.00     0.031 C 
ATOM     37  C   UNL     1       8.842  11.152  -1.169  1.00  0.00     0.031 A 
BRANCH  24  38
ATOM     38  C   UNL     1       8.114   8.234   4.249  1.00  0.00    -0.014 A 
ATOM     39  C   UNL     1       8.869   7.211   4.847  1.00  0.00     0.009 A 
ATOM     40  C   UNL     1       7.512   9.203   5.064  1.00  0.00     0.009 A 
ATOM     41  C   UNL     1       8.972   7.134   6.237  1.00  0.00     0.001 A 
ATOM     42  C   UNL     1       7.646   9.143   6.450  1.00  0.00     0.001 A 
ATOM     43  C   UNL     1       8.363   8.101   7.036  1.00  0.00     0.000 A 
ENDBRANCH  24  38
BRANCH  25  44
ATOM     44  C   UNL     1       6.771   7.607  -5.641  1.00  0.00    -0.014 A 
ATOM     45  C   UNL     1       7.797   8.237  -6.936  1.00  0.00     0.009 A 
ATOM     46  C   UNL     1       5.176   6.950  -6.124  1.00  0.00     0.009 A 
ATOM     47  C   UNL     1       7.328   8.263  -8.663  1.00  0.00     0.001 A 
ATOM     48  C   UNL     1       4.630   6.956  -8.071  1.00  0.00     0.001 A 
ATOM     49  C   UNL     1       5.785   7.644  -9.266  1.00  0.00     0.000 A 
ENDBRANCH  25  44
BRANCH  37  50
ATOM     50  C   UNL     1       9.572  12.429  -1.462  1.00  0.00    -0.014 A 
ATOM     51  C   UNL     1       8.915  13.600  -1.863  1.00  0.00     0.009 A 
ATOM     52  C   UNL     1      10.971  12.441  -1.326  1.00  0.00     0.009 A 
ATOM     53  C   UNL     1       9.652  14.746  -2.168  1.00  0.00     0.001 A 
ATOM     54  C   UNL     1      11.699  13.598  -1.587  1.00  0.00     0.001 A 
ATOM     55  C   UNL     1      11.041  14.746  -2.023  1.00  0.00     0.000 A 
ENDBRANCH  37  50
ENDBRANCH  11  12
ENDBRANCH   4   6
ENDBRANCH   3   4
ENDBRANCH   2   3
ENDBRANCH   1   2
BRANCH   1  56
ATOM     56  O   UNL     1       3.665   0.075  -1.995  1.00  0.00    -0.458 OA
BRANCH  56  57
ATOM     57  C   UNL     1       2.311   0.159  -2.095  1.00  0.00     0.338 C 
ATOM     58  O   UNL     1       1.514  -0.749  -1.946  1.00  0.00    -0.246 OA
BRANCH  57  59
ATOM     59  C   UNL     1       1.923   1.578  -2.274  1.00  0.00     0.063 A 
ATOM     60  C   UNL     1       0.952   2.132  -1.435  1.00  0.00     0.016 A 
ATOM     61  C   UNL     1       2.530   2.363  -3.257  1.00  0.00     0.064 A 
ATOM     62  C   UNL     1       0.655   3.494  -1.526  1.00  0.00     0.005 A 
ATOM     63  C   UNL     1       2.162   3.704  -3.410  1.00  0.00     0.143 A 
ATOM     64  C   UNL     1       1.268   4.281  -2.504  1.00  0.00     0.048 A 
BRANCH  63  65
ATOM     65  O   UNL     1       2.647   4.535  -4.393  1.00  0.00    -0.379 OA
BRANCH  65  66
ATOM     66  S   UNL     1       3.093   3.936  -5.848  1.00  0.00     0.339 S 
ATOM     67  O   UNL     1       4.236   3.061  -5.647  1.00  0.00    -0.181 OA
ATOM     68  O   UNL     1       1.927   3.500  -6.583  1.00  0.00    -0.181 OA
BRANCH  66  69
ATOM     69  C   UNL     1       3.747   5.352  -6.723  1.00  0.00     0.112 A 
ATOM     70  C   UNL     1       5.413   5.125  -7.241  1.00  0.00     0.024 A 
ATOM     71  C   UNL     1       2.965   6.941  -6.504  1.00  0.00     0.109 A 
ATOM     72  C   UNL     1       6.407   6.581  -7.517  1.00  0.00     0.009 A 
ATOM     73  C   UNL     1       3.833   8.459  -6.774  1.00  0.00     0.270 A 
ATOM     74  C   UNL     1       5.564   8.403  -7.269  1.00  0.00     0.086 A 
BRANCH  73  75
ATOM     75  N   UNL     1       3.270   9.714  -6.351  1.00  0.00     0.062 N 
ATOM     76  O   UNL     1       3.759  10.742  -6.832  1.00  0.00    -0.258 OA
ATOM     77  O   UNL     1       2.356   9.662  -5.521  1.00  0.00    -0.258 OA
ENDBRANCH  73  75
ENDBRANCH  66  69
ENDBRANCH  65  66
ENDBRANCH  63  65
ENDBRANCH  57  59
ENDBRANCH  56  57
ENDBRANCH   1  56
TORSDOF 15
