REMARK SMILES O=C(OCCOC(=O)c1nc(NC[C@H]2c3ccccc3CSc3ccccc32)c2ccccc2n1)c1ccc(-c2c3nc(c(-c4ccccc4)c4ccc([nH]4)c(-c4ccccc4)c4nc(c(-c5ccccc5)c5ccc2[nH]5)C=C4)C=C3)cc1
REMARK SMILES IDX 5 1 4 2 3 3 2 4 1 5 36 6 37 7 83 8 38 9 82 10 39 11 40 12
REMARK SMILES IDX 41 13 76 14 42 15 81 16 75 17 77 18 43 19 80 20 74 21 73 22
REMARK SMILES IDX 44 24 66 25 51 26 65 27 52 28 55 29 64 30 78 31 53 32 54 33
REMARK SMILES IDX 63 35 79 36 56 37 45 38 46 39 50 40 47 41 49 42 48 43 67 44
REMARK SMILES IDX 68 45 72 46 69 47 71 48 70 49 57 50 58 51 62 52 59 53 61 54
REMARK SMILES IDX 60 55 6 56 7 57 8 58 9 59 10 60 35 61 11 62 34 63 29 64
REMARK SMILES IDX 33 65 30 66 32 67 31 68 12 69 13 71 14 72 15 73 28 74 16 75
REMARK SMILES IDX 20 76 23 77 27 78 17 79 19 80 21 81 22 82 24 83 26 84 18 85
REMARK SMILES IDX 25 86
REMARK H PARENT 77 23 55 34 12 70
REMARK Flexibility Score: inf
ROOT
ATOM      1  C   UNL     1       3.770  -1.713  -1.382  1.00  0.00     0.275 C 
ENDROOT
BRANCH   1   2
ATOM      2  C   UNL     1       4.615  -1.421  -0.132  1.00  0.00     0.275 C 
BRANCH   2   3
ATOM      3  O   UNL     1       4.096  -0.542   0.882  1.00  0.00    -0.458 OA
BRANCH   3   4
ATOM      4  C   UNL     1       3.374   0.568   0.624  1.00  0.00     0.338 C 
ATOM      5  O   UNL     1       2.269   0.708   1.131  1.00  0.00    -0.246 OA
BRANCH   4   6
ATOM      6  C   UNL     1       3.969   1.645  -0.230  1.00  0.00     0.060 A 
ATOM      7  C   UNL     1       3.167   2.759  -0.496  1.00  0.00     0.016 A 
ATOM      8  C   UNL     1       5.226   1.583  -0.835  1.00  0.00     0.016 A 
ATOM      9  C   UNL     1       3.532   3.688  -1.471  1.00  0.00     0.010 A 
ATOM     10  C   UNL     1       5.597   2.513  -1.814  1.00  0.00     0.010 A 
ATOM     11  C   UNL     1       4.729   3.545  -2.178  1.00  0.00    -0.014 A 
BRANCH  11  12
ATOM     12  C   UNL     1       5.125   4.557  -3.183  1.00  0.00     0.031 A 
ATOM     13  C   UNL     1       5.181   4.248  -4.657  1.00  0.00     0.074 A 
ATOM     14  C   UNL     1       5.457   5.779  -2.726  1.00  0.00     0.049 A 
ATOM     15  N   UNL     1       5.333   5.083  -5.655  1.00  0.00    -0.248 NA
ATOM     16  C   UNL     1       5.026   2.847  -5.081  1.00  0.00     0.031 C 
ATOM     17  C   UNL     1       5.465   6.178  -1.315  1.00  0.00     0.029 A 
ATOM     18  N   UNL     1       5.893   6.894  -3.390  1.00  0.00    -0.354 N 
ATOM     19  C   UNL     1       5.157   4.334  -6.815  1.00  0.00     0.074 A 
ATOM     20  C   UNL     1       5.016   2.957  -6.408  1.00  0.00     0.031 C 
ATOM     21  C   UNL     1       5.946   7.424  -1.216  1.00  0.00     0.029 A 
ATOM     22  C   UNL     1       6.308   7.894  -2.547  1.00  0.00     0.049 A 
ATOM     23  H   UNL     1       5.909   6.970  -4.371  1.00  0.00     0.167 HD
ATOM     24  C   UNL     1       5.061   4.793  -8.086  1.00  0.00     0.031 A 
ATOM     25  C   UNL     1       6.965   9.038  -2.814  1.00  0.00     0.031 A 
ATOM     26  C   UNL     1       5.375   6.147  -8.451  1.00  0.00     0.049 A 
ATOM     27  C   UNL     1       7.202   9.398  -4.250  1.00  0.00     0.074 A 
ATOM     28  C   UNL     1       5.334   6.728  -9.704  1.00  0.00     0.029 A 
ATOM     29  N   UNL     1       5.893   7.088  -7.578  1.00  0.00    -0.354 N 
ATOM     30  N   UNL     1       6.779   8.776  -5.325  1.00  0.00    -0.248 NA
ATOM     31  C   UNL     1       7.986  10.608  -4.523  1.00  0.00     0.031 C 
ATOM     32  C   UNL     1       5.939   7.982  -9.608  1.00  0.00     0.029 A 
ATOM     33  C   UNL     1       6.297   8.202  -8.285  1.00  0.00     0.049 A 
ATOM     34  H   UNL     1       5.962   6.979  -6.602  1.00  0.00     0.167 HD
ATOM     35  C   UNL     1       7.216   9.533  -6.401  1.00  0.00     0.074 A 
ATOM     36  C   UNL     1       7.942  10.659  -5.849  1.00  0.00     0.031 C 
ATOM     37  C   UNL     1       7.020   9.315  -7.723  1.00  0.00     0.031 A 
BRANCH  24  38
ATOM     38  C   UNL     1       4.601   3.887  -9.197  1.00  0.00    -0.014 A 
ATOM     39  C   UNL     1       5.508   3.143  -9.959  1.00  0.00     0.009 A 
ATOM     40  C   UNL     1       3.264   3.951  -9.630  1.00  0.00     0.009 A 
ATOM     41  C   UNL     1       5.075   2.457 -11.102  1.00  0.00     0.001 A 
ATOM     42  C   UNL     1       2.823   3.235 -10.744  1.00  0.00     0.001 A 
ATOM     43  C   UNL     1       3.733   2.490 -11.485  1.00  0.00     0.000 A 
ENDBRANCH  24  38
BRANCH  25  44
ATOM     44  C   UNL     1       7.482   9.849  -1.681  1.00  0.00    -0.014 A 
ATOM     45  C   UNL     1       8.456   9.303  -0.822  1.00  0.00     0.009 A 
ATOM     46  C   UNL     1       6.971  11.120  -1.395  1.00  0.00     0.009 A 
ATOM     47  C   UNL     1       8.875   9.992   0.317  1.00  0.00     0.001 A 
ATOM     48  C   UNL     1       7.417  11.823  -0.271  1.00  0.00     0.001 A 
ATOM     49  C   UNL     1       8.357  11.254   0.590  1.00  0.00     0.000 A 
ENDBRANCH  25  44
BRANCH  37  50
ATOM     50  C   UNL     1       7.599  10.295  -8.697  1.00  0.00    -0.014 A 
ATOM     51  C   UNL     1       6.742  11.104  -9.460  1.00  0.00     0.009 A 
ATOM     52  C   UNL     1       8.972  10.290  -8.980  1.00  0.00     0.009 A 
ATOM     53  C   UNL     1       7.243  11.855 -10.522  1.00  0.00     0.001 A 
ATOM     54  C   UNL     1       9.475  11.070 -10.021  1.00  0.00     0.001 A 
ATOM     55  C   UNL     1       8.608  11.836 -10.802  1.00  0.00     0.000 A 
ENDBRANCH  37  50
ENDBRANCH  11  12
ENDBRANCH   4   6
ENDBRANCH   3   4
ENDBRANCH   2   3
ENDBRANCH   1   2
BRANCH   1  56
ATOM     56  O   UNL     1       3.190  -0.559  -2.012  1.00  0.00    -0.456 OA
BRANCH  56  57
ATOM     57  C   UNL     1       1.821  -0.543  -2.095  1.00  0.00     0.376 C 
ATOM     58  O   UNL     1       1.071  -1.423  -1.695  1.00  0.00    -0.242 OA
BRANCH  57  59
ATOM     59  C   UNL     1       1.365   0.740  -2.719  1.00  0.00     0.241 A 
ATOM     60  N   UNL     1       0.660   1.579  -1.935  1.00  0.00    -0.204 NA
ATOM     61  N   UNL     1       1.780   0.987  -3.974  1.00  0.00    -0.222 NA
ATOM     62  C   UNL     1       0.479   2.823  -2.405  1.00  0.00     0.138 A 
ATOM     63  C   UNL     1       1.487   2.197  -4.457  1.00  0.00     0.077 A 
ATOM     64  C   UNL     1       0.890   3.207  -3.692  1.00  0.00     0.043 A 
ATOM     65  C   UNL     1       1.811   2.483  -5.770  1.00  0.00     0.029 A 
ATOM     66  C   UNL     1       0.750   4.514  -4.234  1.00  0.00     0.014 A 
ATOM     67  C   UNL     1       1.644   3.763  -6.303  1.00  0.00     0.002 A 
ATOM     68  C   UNL     1       1.149   4.794  -5.530  1.00  0.00     0.001 A 
BRANCH  62  69
ATOM     69  N   UNL     1      -0.066   3.768  -1.555  1.00  0.00    -0.368 N 
ATOM     70  H   UNL     1       0.268   4.693  -1.602  1.00  0.00     0.162 HD
BRANCH  69  71
ATOM     71  C   UNL     1      -1.111   3.453  -0.593  1.00  0.00     0.127 C 
BRANCH  71  72
ATOM     72  C   UNL     1      -1.141   4.534   0.556  1.00  0.00     0.070 C 
ATOM     73  C   UNL     1      -2.556   5.056   0.808  1.00  0.00    -0.035 A 
ATOM     74  C   UNL     1      -0.338   4.275   1.838  1.00  0.00    -0.025 A 
ATOM     75  C   UNL     1      -3.693   4.247   0.637  1.00  0.00     0.005 A 
ATOM     76  C   UNL     1      -2.739   6.406   1.180  1.00  0.00    -0.034 A 
ATOM     77  C   UNL     1      -0.060   5.279   2.802  1.00  0.00     0.011 A 
ATOM     78  C   UNL     1       0.228   3.001   2.064  1.00  0.00     0.005 A 
ATOM     79  C   UNL     1      -4.978   4.776   0.763  1.00  0.00     0.000 A 
ATOM     80  C   UNL     1      -4.038   6.914   1.346  1.00  0.00     0.005 A 
ATOM     81  C   UNL     1      -1.559   7.314   1.400  1.00  0.00     0.110 C 
ATOM     82  S   UNL     1      -0.667   6.969   2.929  1.00  0.00    -0.121 SA
ATOM     83  C   UNL     1       0.803   4.980   3.886  1.00  0.00     0.015 A 
ATOM     84  C   UNL     1       1.068   2.731   3.149  1.00  0.00     0.000 A 
ATOM     85  C   UNL     1      -5.151   6.108   1.120  1.00  0.00     0.000 A 
ATOM     86  C   UNL     1       1.375   3.726   4.053  1.00  0.00     0.001 A 
ENDBRANCH  71  72
ENDBRANCH  69  71
ENDBRANCH  62  69
ENDBRANCH  57  59
ENDBRANCH  56  57
ENDBRANCH   1  56
TORSDOF 14
