REMARK SMILES COc1ccc(/C=N/NC(=O)c2ccc(Cl)cc2Cl)cc1C(=O)OCCOC(=O)c1ccc(-c2c3nc(c(-c4ccccc4)c4ccc([nH]4)c(-c4ccccc4)c4nc(c(-c5ccccc5)c5ccc2[nH]5)C=C4)C=C3)cc1
REMARK SMILES IDX 25 1 24 2 22 3 23 4 21 5 3 6 4 7 5 8 20 9 6 10 2 11 1 12
REMARK SMILES IDX 7 13 8 14 9 15 10 16 11 18 12 19 13 20 18 21 14 22 17 23
REMARK SMILES IDX 19 24 15 25 16 26 26 27 27 28 28 29 29 30 30 31 31 32 77 33
REMARK SMILES IDX 32 34 76 35 33 36 34 37 35 38 70 39 36 40 75 41 69 42 71 43
REMARK SMILES IDX 37 44 74 45 68 46 67 47 38 49 60 50 45 51 59 52 46 53 49 54
REMARK SMILES IDX 58 55 72 56 47 57 48 58 57 60 73 61 50 62 39 63 40 64 44 65
REMARK SMILES IDX 41 66 43 67 42 68 61 69 62 70 66 71 63 72 65 73 64 74 51 75
REMARK SMILES IDX 52 76 56 77 53 78 55 79 54 80
REMARK H PARENT 9 17 71 48 49 59
REMARK Flexibility Score: inf
ROOT
ATOM      1  C   UNL     1       3.853  -0.783   0.100  1.00  0.00     0.275 C 
ENDROOT
BRANCH   1   2
ATOM      2  O   UNL     1       3.041   0.343   0.511  1.00  0.00    -0.458 OA
BRANCH   2   3
ATOM      3  C   UNL     1       2.713   0.398   1.823  1.00  0.00     0.342 C 
ATOM      4  O   UNL     1       3.170  -0.320   2.704  1.00  0.00    -0.246 OA
BRANCH   3   5
ATOM      5  C   UNL     1       1.752   1.487   2.136  1.00  0.00     0.102 A 
ATOM      6  C   UNL     1       0.596   1.811   1.410  1.00  0.00     0.133 A 
ATOM      7  C   UNL     1      -0.205   2.877   1.869  1.00  0.00     0.048 A 
ATOM      8  C   UNL     1       0.098   3.591   3.030  1.00  0.00     0.013 A 
ATOM      9  C   UNL     1       2.043   2.204   3.332  1.00  0.00     0.029 A 
ATOM     10  C   UNL     1       1.219   3.249   3.775  1.00  0.00    -0.004 A 
BRANCH   6  11
ATOM     11  O   UNL     1       0.060   1.275   0.276  1.00  0.00    -0.496 OA
ATOM     12  C   UNL     1       0.328  -0.059  -0.117  1.00  0.00     0.278 C 
ENDBRANCH   6  11
BRANCH  10  13
ATOM     13  C   UNL     1       1.497   3.956   5.057  1.00  0.00     0.141 C 
ATOM     14  N   UNL     1       0.933   5.087   5.335  1.00  0.00    -0.180 NA
BRANCH  14  15
ATOM     15  N   UNL     1       1.124   5.794   6.497  1.00  0.00    -0.243 N 
ATOM     16  C   UNL     1       2.106   5.821   7.473  1.00  0.00     0.272 C 
ATOM     17  H   UNL     1       0.393   6.429   6.678  1.00  0.00     0.194 HD
ATOM     18  O   UNL     1       1.996   6.516   8.480  1.00  0.00    -0.267 OA
BRANCH  16  19
ATOM     19  C   UNL     1       3.287   4.976   7.350  1.00  0.00     0.060 A 
ATOM     20  C   UNL     1       3.344   3.838   8.169  1.00  0.00     0.017 A 
ATOM     21  C   UNL     1       4.212   5.175   6.334  1.00  0.00     0.055 A 
ATOM     22  C   UNL     1       4.180   2.784   7.815  1.00  0.00     0.021 A 
ATOM     23  C   UNL     1       5.051   4.119   6.008  1.00  0.00     0.041 A 
ATOM     24  Cl  UNL     1       4.280   6.615   5.388  1.00  0.00    -0.083 Cl
ATOM     25  C   UNL     1       4.957   2.900   6.674  1.00  0.00     0.042 A 
ATOM     26  Cl  UNL     1       5.650   1.480   5.992  1.00  0.00    -0.084 Cl
ENDBRANCH  16  19
ENDBRANCH  14  15
ENDBRANCH  10  13
ENDBRANCH   3   5
ENDBRANCH   2   3
ENDBRANCH   1   2
BRANCH   1  27
ATOM     27  C   UNL     1       4.967  -0.340  -0.850  1.00  0.00     0.275 C 
BRANCH  27  28
ATOM     28  O   UNL     1       5.939   0.439  -0.123  1.00  0.00    -0.458 OA
BRANCH  28  29
ATOM     29  C   UNL     1       5.751   1.776  -0.209  1.00  0.00     0.338 C 
ATOM     30  O   UNL     1       4.982   2.365  -0.949  1.00  0.00    -0.246 OA
BRANCH  29  31
ATOM     31  C   UNL     1       6.452   2.456   0.897  1.00  0.00     0.060 A 
ATOM     32  C   UNL     1       5.652   3.229   1.732  1.00  0.00     0.016 A 
ATOM     33  C   UNL     1       7.841   2.455   1.064  1.00  0.00     0.016 A 
ATOM     34  C   UNL     1       6.242   4.019   2.714  1.00  0.00     0.010 A 
ATOM     35  C   UNL     1       8.428   3.225   2.093  1.00  0.00     0.010 A 
ATOM     36  C   UNL     1       7.632   4.012   2.941  1.00  0.00    -0.014 A 
BRANCH  36  37
ATOM     37  C   UNL     1       8.194   4.961   3.960  1.00  0.00     0.031 A 
ATOM     38  C   UNL     1       8.309   6.414   3.598  1.00  0.00     0.074 A 
ATOM     39  C   UNL     1       8.461   4.607   5.237  1.00  0.00     0.049 A 
ATOM     40  N   UNL     1       8.659   7.427   4.350  1.00  0.00    -0.248 NA
ATOM     41  C   UNL     1       8.016   6.763   2.201  1.00  0.00     0.031 C 
ATOM     42  C   UNL     1       8.378   3.256   5.771  1.00  0.00     0.029 A 
ATOM     43  N   UNL     1       8.740   5.378   6.351  1.00  0.00    -0.354 N 
ATOM     44  C   UNL     1       8.704   8.522   3.500  1.00  0.00     0.074 A 
ATOM     45  C   UNL     1       8.285   8.059   2.193  1.00  0.00     0.031 C 
ATOM     46  C   UNL     1       8.423   3.310   7.116  1.00  0.00     0.029 A 
ATOM     47  C   UNL     1       8.654   4.688   7.545  1.00  0.00     0.049 A 
ATOM     48  H   UNL     1       8.978   6.332   6.298  1.00  0.00     0.167 HD
ATOM     49  C   UNL     1       9.120   9.783   3.764  1.00  0.00     0.031 A 
ATOM     50  C   UNL     1       8.746   5.111   8.827  1.00  0.00     0.031 A 
ATOM     51  C   UNL     1       9.554  10.264   5.048  1.00  0.00     0.049 A 
ATOM     52  C   UNL     1       9.174   6.537   9.101  1.00  0.00     0.074 A 
ATOM     53  C   UNL     1      10.056  11.515   5.370  1.00  0.00     0.029 A 
ATOM     54  N   UNL     1       9.535   9.531   6.221  1.00  0.00    -0.354 N 
ATOM     55  N   UNL     1       9.292   7.544   8.273  1.00  0.00    -0.248 NA
ATOM     56  C   UNL     1       9.543   6.863  10.491  1.00  0.00     0.031 C 
ATOM     57  C   UNL     1      10.390  11.521   6.728  1.00  0.00     0.029 A 
ATOM     58  C   UNL     1      10.027  10.299   7.265  1.00  0.00     0.049 A 
ATOM     59  H   UNL     1       9.219   8.602   6.301  1.00  0.00     0.167 HD
ATOM     60  C   UNL     1       9.753   8.612   9.038  1.00  0.00     0.074 A 
ATOM     61  C   UNL     1       9.835   8.152  10.405  1.00  0.00     0.031 C 
ATOM     62  C   UNL     1      10.108   9.855   8.631  1.00  0.00     0.031 A 
BRANCH  49  63
ATOM     63  C   UNL     1       9.253  10.704   2.588  1.00  0.00    -0.014 A 
ATOM     64  C   UNL     1       8.139  11.270   1.954  1.00  0.00     0.009 A 
ATOM     65  C   UNL     1      10.541  11.008   2.117  1.00  0.00     0.009 A 
ATOM     66  C   UNL     1       8.314  12.102   0.847  1.00  0.00     0.001 A 
ATOM     67  C   UNL     1      10.713  11.866   1.033  1.00  0.00     0.001 A 
ATOM     68  C   UNL     1       9.599  12.404   0.393  1.00  0.00     0.000 A 
ENDBRANCH  49  63
BRANCH  50  69
ATOM     69  C   UNL     1       8.516   4.203   9.998  1.00  0.00    -0.014 A 
ATOM     70  C   UNL     1       7.562   4.536  10.981  1.00  0.00     0.009 A 
ATOM     71  C   UNL     1       9.330   3.084  10.222  1.00  0.00     0.009 A 
ATOM     72  C   UNL     1       7.470   3.805  12.171  1.00  0.00     0.001 A 
ATOM     73  C   UNL     1       9.202   2.324  11.389  1.00  0.00     0.001 A 
ATOM     74  C   UNL     1       8.288   2.697  12.372  1.00  0.00     0.000 A 
ENDBRANCH  50  69
BRANCH  62  75
ATOM     75  C   UNL     1      10.588  10.828   9.677  1.00  0.00    -0.014 A 
ATOM     76  C   UNL     1      11.812  10.651  10.345  1.00  0.00     0.009 A 
ATOM     77  C   UNL     1       9.813  11.958   9.981  1.00  0.00     0.009 A 
ATOM     78  C   UNL     1      12.225  11.559  11.324  1.00  0.00     0.001 A 
ATOM     79  C   UNL     1      10.243  12.882  10.937  1.00  0.00     0.001 A 
ATOM     80  C   UNL     1      11.442  12.675  11.617  1.00  0.00     0.000 A 
ENDBRANCH  62  75
ENDBRANCH  36  37
ENDBRANCH  29  31
ENDBRANCH  28  29
ENDBRANCH  27  28
ENDBRANCH   1  27
TORSDOF 15
