REMARK SMILES NS(=O)(=O)c1ccc(-n2nc(C(=O)OCCOC(=O)c3ccc(-c4c5nc(c(-c6ccccc6)c6ccc([nH]6)c(-c6ccccc6)c6nc(c(-c7ccccc7)c7ccc4[nH]7)C=C6)C=C5)cc3)c(Cl)c2-c2ccc(Cl)cc2)cc1
REMARK SMILES IDX 15 1 14 2 12 3 13 4 11 5 9 6 10 7 70 8 68 9 69 10 8 11 5 12
REMARK SMILES IDX 6 13 79 14 7 15 78 16 2 17 3 18 4 19 1 20 71 23 72 24 77 25
REMARK SMILES IDX 73 26 76 27 74 28 75 29 16 30 17 31 18 32 19 33 20 34 21 35
REMARK SMILES IDX 67 36 22 37 66 38 23 39 24 40 25 41 60 42 26 43 65 44 59 45
REMARK SMILES IDX 61 46 27 47 64 48 58 49 57 50 28 52 50 53 35 54 49 55 36 56
REMARK SMILES IDX 39 57 48 58 62 59 37 60 38 61 47 63 63 64 40 65 29 66 30 67
REMARK SMILES IDX 34 68 31 69 33 70 32 71 51 72 52 73 56 74 53 75 55 76 54 77
REMARK SMILES IDX 41 78 42 79 46 80 43 81 45 82 44 83
REMARK H PARENT 1 21 1 22 61 51 39 62
REMARK Flexibility Score: inf
ROOT
ATOM      1  C   UNL     1       4.137 -12.219  -1.893  1.00  0.00     0.275 C 
ENDROOT
BRANCH   1   2
ATOM      2  O   UNL     1       4.142 -10.930  -1.266  1.00  0.00    -0.457 OA
BRANCH   2   3
ATOM      3  C   UNL     1       3.285  -9.955  -1.698  1.00  0.00     0.360 C 
ATOM      4  O   UNL     1       2.609 -10.050  -2.718  1.00  0.00    -0.244 OA
BRANCH   3   5
ATOM      5  C   UNL     1       3.273  -8.796  -0.785  1.00  0.00     0.190 A 
ATOM      6  N   UNL     1       2.818  -6.855   0.021  1.00  0.00    -0.231 N 
ATOM      7  N   UNL     1       2.387  -7.774  -0.882  1.00  0.00    -0.159 NA
ATOM      8  C   UNL     1       3.908  -7.300   0.749  1.00  0.00     0.094 A 
ATOM      9  C   UNL     1       4.152  -8.581   0.305  1.00  0.00     0.102 A 
ATOM     10  Cl  UNL     1       5.334  -9.639   0.944  1.00  0.00    -0.079 Cl
BRANCH   6  11
ATOM     11  C   UNL     1       2.227  -5.566   0.101  1.00  0.00     0.065 A 
ATOM     12  C   UNL     1       1.185  -3.046   0.664  1.00  0.00     0.082 A 
ATOM     13  C   UNL     1       0.331  -4.157   0.627  1.00  0.00     0.024 A 
ATOM     14  C   UNL     1       2.540  -3.178   0.356  1.00  0.00     0.024 A 
ATOM     15  C   UNL     1       0.850  -5.425   0.320  1.00  0.00     0.030 A 
ATOM     16  C   UNL     1       3.062  -4.439   0.084  1.00  0.00     0.030 A 
BRANCH  12  17
ATOM     17  S   UNL     1       0.592  -1.463   1.187  1.00  0.00     0.238 S 
ATOM     18  O   UNL     1       1.255  -1.116   2.419  1.00  0.00    -0.207 OA
ATOM     19  O   UNL     1      -0.845  -1.413   1.030  1.00  0.00    -0.207 OA
BRANCH  17  20
ATOM     20  N   UNL     1       1.204  -0.416   0.022  1.00  0.00    -0.225 NA
ATOM     21  H   UNL     1       0.914   0.538   0.236  1.00  0.00     0.137 HD
ATOM     22  H   UNL     1       0.846  -0.682  -0.896  1.00  0.00     0.137 HD
ENDBRANCH  17  20
ENDBRANCH  12  17
ENDBRANCH   6  11
BRANCH   8  23
ATOM     23  C   UNL     1       4.610  -6.597   1.819  1.00  0.00     0.002 A 
ATOM     24  C   UNL     1       6.001  -6.440   1.711  1.00  0.00     0.012 A 
ATOM     25  C   UNL     1       3.961  -6.207   2.994  1.00  0.00     0.012 A 
ATOM     26  C   UNL     1       6.744  -5.956   2.784  1.00  0.00     0.021 A 
ATOM     27  C   UNL     1       4.706  -5.706   4.065  1.00  0.00     0.021 A 
ATOM     28  C   UNL     1       6.094  -5.601   3.961  1.00  0.00     0.041 A 
ATOM     29  Cl  UNL     1       7.018  -5.060   5.306  1.00  0.00    -0.084 Cl
ENDBRANCH   8  23
ENDBRANCH   3   5
ENDBRANCH   2   3
ENDBRANCH   1   2
BRANCH   1  30
ATOM     30  C   UNL     1       3.106 -13.129  -1.249  1.00  0.00     0.275 C 
BRANCH  30  31
ATOM     31  O   UNL     1       1.798 -12.734  -1.644  1.00  0.00    -0.458 OA
BRANCH  31  32
ATOM     32  C   UNL     1       1.167 -11.885  -0.804  1.00  0.00     0.338 C 
ATOM     33  O   UNL     1       1.645 -11.272   0.136  1.00  0.00    -0.246 OA
BRANCH  32  34
ATOM     34  C   UNL     1      -0.268 -11.969  -1.068  1.00  0.00     0.060 A 
ATOM     35  C   UNL     1      -1.104 -11.038  -0.448  1.00  0.00     0.016 A 
ATOM     36  C   UNL     1      -0.760 -13.133  -1.676  1.00  0.00     0.016 A 
ATOM     37  C   UNL     1      -2.432 -11.368  -0.284  1.00  0.00     0.010 A 
ATOM     38  C   UNL     1      -2.071 -13.471  -1.489  1.00  0.00     0.010 A 
ATOM     39  C   UNL     1      -2.870 -12.619  -0.732  1.00  0.00    -0.014 A 
BRANCH  39  40
ATOM     40  C   UNL     1      -4.250 -12.991  -0.535  1.00  0.00     0.031 A 
ATOM     41  C   UNL     1      -5.159 -12.261  -1.447  1.00  0.00     0.074 A 
ATOM     42  C   UNL     1      -4.606 -14.013   0.267  1.00  0.00     0.049 A 
ATOM     43  N   UNL     1      -6.063 -11.402  -1.121  1.00  0.00    -0.248 NA
ATOM     44  C   UNL     1      -4.907 -12.351  -2.898  1.00  0.00     0.031 C 
ATOM     45  C   UNL     1      -3.740 -14.963   0.971  1.00  0.00     0.029 A 
ATOM     46  N   UNL     1      -5.848 -14.496   0.520  1.00  0.00    -0.354 N 
ATOM     47  C   UNL     1      -6.639 -10.997  -2.319  1.00  0.00     0.074 A 
ATOM     48  C   UNL     1      -5.762 -11.445  -3.369  1.00  0.00     0.031 C 
ATOM     49  C   UNL     1      -4.473 -16.038   1.347  1.00  0.00     0.029 A 
ATOM     50  C   UNL     1      -5.869 -15.791   1.024  1.00  0.00     0.049 A 
ATOM     51  H   UNL     1      -6.666 -13.973   0.360  1.00  0.00     0.167 HD
ATOM     52  C   UNL     1      -7.935 -10.592  -2.367  1.00  0.00     0.031 A 
ATOM     53  C   UNL     1      -6.950 -16.611   1.089  1.00  0.00     0.031 A 
ATOM     54  C   UNL     1      -8.432 -10.257  -1.057  1.00  0.00     0.049 A 
ATOM     55  C   UNL     1      -8.159 -15.762   0.945  1.00  0.00     0.074 A 
ATOM     56  C   UNL     1      -8.060  -9.345  -0.089  1.00  0.00     0.029 A 
ATOM     57  N   UNL     1      -9.194 -11.206  -0.415  1.00  0.00    -0.354 N 
ATOM     58  N   UNL     1      -8.535 -14.902   1.847  1.00  0.00    -0.248 NA
ATOM     59  C   UNL     1      -8.656 -15.511  -0.401  1.00  0.00     0.031 C 
ATOM     60  C   UNL     1      -8.204 -10.043   1.146  1.00  0.00     0.029 A 
ATOM     61  C   UNL     1      -8.737 -11.305   0.874  1.00  0.00     0.049 A 
ATOM     62  H   UNL     1      -9.933 -11.721  -0.811  1.00  0.00     0.167 HD
ATOM     63  C   UNL     1      -8.910 -13.777   1.125  1.00  0.00     0.074 A 
ATOM     64  C   UNL     1      -9.051 -14.242  -0.257  1.00  0.00     0.031 C 
ATOM     65  C   UNL     1      -8.774 -12.524   1.650  1.00  0.00     0.031 A 
BRANCH  52  66
ATOM     66  C   UNL     1      -8.852 -10.952  -3.508  1.00  0.00    -0.014 A 
ATOM     67  C   UNL     1     -10.174 -10.479  -3.477  1.00  0.00     0.009 A 
ATOM     68  C   UNL     1      -8.563 -11.964  -4.445  1.00  0.00     0.009 A 
ATOM     69  C   UNL     1     -11.166 -11.048  -4.284  1.00  0.00     0.001 A 
ATOM     70  C   UNL     1      -9.540 -12.504  -5.282  1.00  0.00     0.001 A 
ATOM     71  C   UNL     1     -10.850 -12.066  -5.179  1.00  0.00     0.000 A 
ENDBRANCH  52  66
BRANCH  53  72
ATOM     72  C   UNL     1      -7.010 -18.086   0.957  1.00  0.00    -0.014 A 
ATOM     73  C   UNL     1      -8.162 -18.799   1.329  1.00  0.00     0.009 A 
ATOM     74  C   UNL     1      -6.035 -18.772   0.210  1.00  0.00     0.009 A 
ATOM     75  C   UNL     1      -8.346 -20.134   0.936  1.00  0.00     0.001 A 
ATOM     76  C   UNL     1      -6.216 -20.104  -0.180  1.00  0.00     0.001 A 
ATOM     77  C   UNL     1      -7.379 -20.781   0.170  1.00  0.00     0.000 A 
ENDBRANCH  53  72
BRANCH  65  78
ATOM     78  C   UNL     1      -8.396 -12.403   3.108  1.00  0.00    -0.014 A 
ATOM     79  C   UNL     1      -7.197 -12.909   3.643  1.00  0.00     0.009 A 
ATOM     80  C   UNL     1      -9.207 -11.612   3.934  1.00  0.00     0.009 A 
ATOM     81  C   UNL     1      -6.841 -12.655   4.973  1.00  0.00     0.001 A 
ATOM     82  C   UNL     1      -8.841 -11.340   5.253  1.00  0.00     0.001 A 
ATOM     83  C   UNL     1      -7.662 -11.867   5.775  1.00  0.00     0.000 A 
ENDBRANCH  65  78
ENDBRANCH  39  40
ENDBRANCH  32  34
ENDBRANCH  31  32
ENDBRANCH  30  31
ENDBRANCH   1  30
TORSDOF 15
