REMARK SMILES Cc1cc(C(=O)N2CCC[C@H]2C(=O)OCCOC(=O)c2ccc(-c3c4nc(c(-c5ccccc5)c5ccc([nH]5)c(-c5ccccc5)c5nc(c(-c6ccccc6)c6ccc3[nH]6)C=C5)C=C4)cc2)c2c(C)noc2n1
REMARK SMILES IDX 15 1 14 2 12 3 13 4 11 5 7 6 8 7 9 8 10 9 5 10 6 11 4 12
REMARK SMILES IDX 1 13 2 14 3 15 74 16 73 17 68 18 72 19 69 20 71 21 70 22
REMARK SMILES IDX 16 23 17 24 18 25 19 26 20 27 21 28 67 29 22 30 66 31 23 32
REMARK SMILES IDX 24 33 25 34 60 35 26 36 65 37 59 38 61 39 27 40 64 41 58 42
REMARK SMILES IDX 57 43 28 45 50 46 35 47 49 48 36 49 39 50 48 51 62 52 37 53
REMARK SMILES IDX 38 54 47 56 63 57 40 58 29 59 30 60 34 61 31 62 33 63 32 64
REMARK SMILES IDX 51 65 52 66 56 67 53 68 55 69 54 70 41 71 42 72 46 73 43 74
REMARK SMILES IDX 45 75 44 76
REMARK H PARENT 61 44 39 55
REMARK Flexibility Score: inf
ROOT
ATOM      1  C   UNL     1      -6.627   2.653   5.112  1.00  0.00     0.274 C 
ENDROOT
BRANCH   1   2
ATOM      2  O   UNL     1      -5.885   1.722   4.301  1.00  0.00    -0.461 OA
BRANCH   2   3
ATOM      3  C   UNL     1      -5.079   2.270   3.344  1.00  0.00     0.328 C 
ATOM      4  O   UNL     1      -5.026   3.474   3.119  1.00  0.00    -0.250 OA
BRANCH   3   5
ATOM      5  C   UNL     1      -4.273   1.199   2.570  1.00  0.00     0.195 C 
ATOM      6  N   UNL     1      -2.845   1.546   2.391  1.00  0.00    -0.325 N 
ATOM      7  C   UNL     1      -2.027   0.704   3.255  1.00  0.00     0.121 C 
ATOM      8  C   UNL     1      -2.764  -0.618   3.205  1.00  0.00     0.024 C 
ATOM      9  C   UNL     1      -4.229  -0.185   3.258  1.00  0.00     0.039 C 
BRANCH   6  10
ATOM     10  C   UNL     1      -2.450   2.417   1.381  1.00  0.00     0.255 C 
ATOM     11  O   UNL     1      -3.240   3.131   0.771  1.00  0.00    -0.269 OA
BRANCH  10  12
ATOM     12  C   UNL     1      -1.047   2.427   0.914  1.00  0.00     0.056 A 
ATOM     13  C   UNL     1       1.481  -0.136  -0.265  1.00  0.00     0.067 C 
ATOM     14  C   UNL     1       0.851   1.183   0.076  1.00  0.00     0.042 A 
ATOM     15  C   UNL     1      -0.447   1.206   0.570  1.00  0.00     0.038 A 
ATOM     16  N   UNL     1       1.581   2.285  -0.167  1.00  0.00    -0.216 NA
ATOM     17  C   UNL     1       0.951   3.440   0.119  1.00  0.00     0.258 A 
ATOM     18  C   UNL     1      -0.331   3.609   0.632  1.00  0.00     0.077 A 
ATOM     19  O   UNL     1       1.525   4.657  -0.077  1.00  0.00    -0.336 OA
ATOM     20  C   UNL     1      -0.467   5.030   0.706  1.00  0.00     0.091 A 
ATOM     21  N   UNL     1       0.648   5.654   0.297  1.00  0.00    -0.082 NA
ATOM     22  C   UNL     1      -1.579   5.882   1.199  1.00  0.00     0.071 C 
ENDBRANCH  10  12
ENDBRANCH   6  10
ENDBRANCH   3   5
ENDBRANCH   2   3
ENDBRANCH   1   2
BRANCH   1  23
ATOM     23  C   UNL     1      -5.884   2.998   6.404  1.00  0.00     0.275 C 
BRANCH  23  24
ATOM     24  O   UNL     1      -4.583   3.547   6.125  1.00  0.00    -0.458 OA
BRANCH  24  25
ATOM     25  C   UNL     1      -3.537   2.771   6.495  1.00  0.00     0.338 C 
ATOM     26  O   UNL     1      -3.589   1.697   7.071  1.00  0.00    -0.246 OA
BRANCH  25  27
ATOM     27  C   UNL     1      -2.253   3.346   6.051  1.00  0.00     0.060 A 
ATOM     28  C   UNL     1      -2.120   3.872   4.769  1.00  0.00     0.016 A 
ATOM     29  C   UNL     1      -1.121   3.177   6.858  1.00  0.00     0.016 A 
ATOM     30  C   UNL     1      -0.851   4.125   4.266  1.00  0.00     0.010 A 
ATOM     31  C   UNL     1       0.148   3.478   6.357  1.00  0.00     0.010 A 
ATOM     32  C   UNL     1       0.290   3.913   5.036  1.00  0.00    -0.014 A 
BRANCH  32  33
ATOM     33  C   UNL     1       1.572   4.315   4.433  1.00  0.00     0.031 A 
ATOM     34  C   UNL     1       2.196   5.479   5.107  1.00  0.00     0.074 A 
ATOM     35  C   UNL     1       2.392   3.486   3.755  1.00  0.00     0.049 A 
ATOM     36  N   UNL     1       2.797   5.327   6.247  1.00  0.00    -0.248 NA
ATOM     37  C   UNL     1       1.961   6.868   4.731  1.00  0.00     0.031 C 
ATOM     38  C   UNL     1       2.409   2.027   3.908  1.00  0.00     0.029 A 
ATOM     39  N   UNL     1       3.509   3.763   3.003  1.00  0.00    -0.354 N 
ATOM     40  C   UNL     1       2.928   6.578   6.803  1.00  0.00     0.074 A 
ATOM     41  C   UNL     1       2.433   7.511   5.813  1.00  0.00     0.031 C 
ATOM     42  C   UNL     1       3.594   1.565   3.454  1.00  0.00     0.029 A 
ATOM     43  C   UNL     1       4.334   2.656   2.826  1.00  0.00     0.049 A 
ATOM     44  H   UNL     1       3.706   4.652   2.630  1.00  0.00     0.167 HD
ATOM     45  C   UNL     1       3.393   6.747   8.066  1.00  0.00     0.031 A 
ATOM     46  C   UNL     1       5.688   2.715   2.704  1.00  0.00     0.031 A 
ATOM     47  C   UNL     1       3.746   5.538   8.752  1.00  0.00     0.049 A 
ATOM     48  C   UNL     1       6.094   3.127   4.098  1.00  0.00     0.074 A 
ATOM     49  C   UNL     1       3.103   4.631   9.567  1.00  0.00     0.029 A 
ATOM     50  N   UNL     1       4.964   4.964   8.469  1.00  0.00    -0.354 N 
ATOM     51  N   UNL     1       6.135   2.356   5.150  1.00  0.00    -0.248 NA
ATOM     52  C   UNL     1       6.147   4.561   4.395  1.00  0.00     0.031 C 
ATOM     53  C   UNL     1       3.780   3.387   9.366  1.00  0.00     0.029 A 
ATOM     54  C   UNL     1       4.762   3.607   8.402  1.00  0.00     0.049 A 
ATOM     55  H   UNL     1       5.818   5.436   8.340  1.00  0.00     0.167 HD
ATOM     56  C   UNL     1       5.891   3.199   6.235  1.00  0.00     0.074 A 
ATOM     57  C   UNL     1       5.969   4.548   5.710  1.00  0.00     0.031 C 
ATOM     58  C   UNL     1       5.430   2.757   7.441  1.00  0.00     0.031 A 
BRANCH  45  59
ATOM     59  C   UNL     1       3.612   8.057   8.696  1.00  0.00    -0.014 A 
ATOM     60  C   UNL     1       4.913   8.579   8.709  1.00  0.00     0.009 A 
ATOM     61  C   UNL     1       2.604   8.697   9.424  1.00  0.00     0.009 A 
ATOM     62  C   UNL     1       5.213   9.705   9.471  1.00  0.00     0.001 A 
ATOM     63  C   UNL     1       2.907   9.831  10.182  1.00  0.00     0.001 A 
ATOM     64  C   UNL     1       4.212  10.325  10.215  1.00  0.00     0.000 A 
ENDBRANCH  45  59
BRANCH  46  65
ATOM     65  C   UNL     1       6.207   3.414   1.481  1.00  0.00    -0.014 A 
ATOM     66  C   UNL     1       5.595   3.142   0.240  1.00  0.00     0.009 A 
ATOM     67  C   UNL     1       7.290   4.307   1.475  1.00  0.00     0.009 A 
ATOM     68  C   UNL     1       5.968   3.817  -0.926  1.00  0.00     0.001 A 
ATOM     69  C   UNL     1       7.646   5.007   0.314  1.00  0.00     0.001 A 
ATOM     70  C   UNL     1       6.975   4.772  -0.883  1.00  0.00     0.000 A 
ENDBRANCH  46  65
BRANCH  58  71
ATOM     71  C   UNL     1       5.365   1.275   7.614  1.00  0.00    -0.014 A 
ATOM     72  C   UNL     1       6.530   0.546   7.882  1.00  0.00     0.009 A 
ATOM     73  C   UNL     1       4.134   0.600   7.564  1.00  0.00     0.009 A 
ATOM     74  C   UNL     1       6.461  -0.826   8.128  1.00  0.00     0.001 A 
ATOM     75  C   UNL     1       4.065  -0.769   7.823  1.00  0.00     0.001 A 
ATOM     76  C   UNL     1       5.229  -1.480   8.111  1.00  0.00     0.000 A 
ENDBRANCH  58  71
ENDBRANCH  32  33
ENDBRANCH  25  27
ENDBRANCH  24  25
ENDBRANCH  23  24
ENDBRANCH   1  23
TORSDOF 13
