REMARK SMILES O=C(OCCOC(=O)[C@H]1C=C[C@@H](NC(=O)c2cn3ccccc3n2)C1)c1ccc(-c2c3nc(c(-c4ccccc4)c4ccc([nH]4)c(-c4ccccc4)c4nc(c(-c5ccccc5)c5ccc2[nH]5)C=C4)C=C3)cc1
REMARK SMILES IDX 4 1 3 2 2 3 1 4 26 5 27 6 73 7 28 8 72 9 29 10 30 11 31 12
REMARK SMILES IDX 66 13 32 14 71 15 65 16 67 17 33 18 70 19 64 20 63 21 34 23
REMARK SMILES IDX 56 24 41 25 55 26 42 27 45 28 54 29 68 30 43 31 44 32 53 34
REMARK SMILES IDX 69 35 46 36 35 37 36 38 40 39 37 40 39 41 38 42 57 43 58 44
REMARK SMILES IDX 62 45 59 46 61 47 60 48 47 49 48 50 52 51 49 52 51 53 50 54
REMARK SMILES IDX 5 55 6 56 7 57 8 58 9 59 10 60 25 61 11 62 12 63 13 64 14 65
REMARK SMILES IDX 15 67 16 68 17 69 24 70 18 71 23 72 19 73 22 74 20 75 21 76
REMARK H PARENT 67 22 45 33 13 66
REMARK Flexibility Score: inf
ROOT
ATOM      1  C   UNL     1       3.756   1.656   0.348  1.00  0.00     0.275 C 
ENDROOT
BRANCH   1   2
ATOM      2  O   UNL     1       2.870   0.963  -0.543  1.00  0.00    -0.458 OA
BRANCH   2   3
ATOM      3  C   UNL     1       3.102  -0.206  -1.185  1.00  0.00     0.338 C 
ATOM      4  O   UNL     1       2.442  -0.510  -2.175  1.00  0.00    -0.246 OA
BRANCH   3   5
ATOM      5  C   UNL     1       3.999  -1.240  -0.602  1.00  0.00     0.060 A 
ATOM      6  C   UNL     1       5.311  -1.027  -0.164  1.00  0.00     0.016 A 
ATOM      7  C   UNL     1       3.485  -2.543  -0.568  1.00  0.00     0.016 A 
ATOM      8  C   UNL     1       6.057  -2.070   0.403  1.00  0.00     0.010 A 
ATOM      9  C   UNL     1       4.236  -3.587  -0.031  1.00  0.00     0.010 A 
ATOM     10  C   UNL     1       5.520  -3.355   0.489  1.00  0.00    -0.014 A 
BRANCH  10  11
ATOM     11  C   UNL     1       6.290  -4.492   1.055  1.00  0.00     0.031 A 
ATOM     12  C   UNL     1       6.722  -5.603   0.140  1.00  0.00     0.074 A 
ATOM     13  C   UNL     1       6.479  -4.603   2.386  1.00  0.00     0.049 A 
ATOM     14  N   UNL     1       7.297  -6.740   0.430  1.00  0.00    -0.248 NA
ATOM     15  C   UNL     1       6.470  -5.403  -1.297  1.00  0.00     0.031 C 
ATOM     16  C   UNL     1       6.069  -3.627   3.398  1.00  0.00     0.029 A 
ATOM     17  N   UNL     1       6.968  -5.654   3.124  1.00  0.00    -0.354 N 
ATOM     18  C   UNL     1       7.494  -7.379  -0.784  1.00  0.00     0.074 A 
ATOM     19  C   UNL     1       6.902  -6.545  -1.807  1.00  0.00     0.031 C 
ATOM     20  C   UNL     1       6.194  -4.179   4.618  1.00  0.00     0.029 A 
ATOM     21  C   UNL     1       6.732  -5.527   4.475  1.00  0.00     0.049 A 
ATOM     22  H   UNL     1       7.439  -6.421   2.727  1.00  0.00     0.167 HD
ATOM     23  C   UNL     1       8.165  -8.527  -1.037  1.00  0.00     0.031 A 
ATOM     24  C   UNL     1       6.905  -6.412   5.475  1.00  0.00     0.031 A 
ATOM     25  C   UNL     1       8.734  -9.366  -0.021  1.00  0.00     0.049 A 
ATOM     26  C   UNL     1       7.560  -7.734   5.182  1.00  0.00     0.074 A 
ATOM     27  C   UNL     1       9.535 -10.485  -0.166  1.00  0.00     0.029 A 
ATOM     28  N   UNL     1       8.535  -9.185   1.339  1.00  0.00    -0.354 N 
ATOM     29  N   UNL     1       7.926  -8.239   4.030  1.00  0.00    -0.248 NA
ATOM     30  C   UNL     1       7.894  -8.575   6.341  1.00  0.00     0.031 C 
ATOM     31  C   UNL     1       9.806 -10.992   1.111  1.00  0.00     0.029 A 
ATOM     32  C   UNL     1       9.198 -10.171   2.047  1.00  0.00     0.049 A 
ATOM     33  H   UNL     1       8.001  -8.462   1.740  1.00  0.00     0.167 HD
ATOM     34  C   UNL     1       8.592  -9.419   4.328  1.00  0.00     0.074 A 
ATOM     35  C   UNL     1       8.566  -9.565   5.769  1.00  0.00     0.031 C 
ATOM     36  C   UNL     1       9.199 -10.285   3.482  1.00  0.00     0.031 A 
BRANCH  23  37
ATOM     37  C   UNL     1       8.362  -8.883  -2.482  1.00  0.00    -0.014 A 
ATOM     38  C   UNL     1       9.214  -8.107  -3.288  1.00  0.00     0.009 A 
ATOM     39  C   UNL     1       7.692  -9.973  -3.053  1.00  0.00     0.009 A 
ATOM     40  C   UNL     1       9.350  -8.381  -4.648  1.00  0.00     0.001 A 
ATOM     41  C   UNL     1       7.851 -10.261  -4.411  1.00  0.00     0.001 A 
ATOM     42  C   UNL     1       8.668  -9.459  -5.209  1.00  0.00     0.000 A 
ENDBRANCH  23  37
BRANCH  24  43
ATOM     43  C   UNL     1       6.489  -6.080   6.862  1.00  0.00    -0.014 A 
ATOM     44  C   UNL     1       7.436  -5.698   7.824  1.00  0.00     0.009 A 
ATOM     45  C   UNL     1       5.144  -6.203   7.242  1.00  0.00     0.009 A 
ATOM     46  C   UNL     1       7.050  -5.483   9.149  1.00  0.00     0.001 A 
ATOM     47  C   UNL     1       4.758  -5.969   8.565  1.00  0.00     0.001 A 
ATOM     48  C   UNL     1       5.712  -5.619   9.519  1.00  0.00     0.000 A 
ENDBRANCH  24  43
BRANCH  36  49
ATOM     49  C   UNL     1       9.987 -11.404   4.097  1.00  0.00    -0.014 A 
ATOM     50  C   UNL     1       9.362 -12.524   4.661  1.00  0.00     0.009 A 
ATOM     51  C   UNL     1      11.390 -11.338   4.079  1.00  0.00     0.009 A 
ATOM     52  C   UNL     1      10.130 -13.548   5.220  1.00  0.00     0.001 A 
ATOM     53  C   UNL     1      12.154 -12.373   4.615  1.00  0.00     0.001 A 
ATOM     54  C   UNL     1      11.524 -13.474   5.193  1.00  0.00     0.000 A 
ENDBRANCH  36  49
ENDBRANCH  10  11
ENDBRANCH   3   5
ENDBRANCH   2   3
ENDBRANCH   1   2
BRANCH   1  55
ATOM     55  C   UNL     1       3.565   1.357   1.836  1.00  0.00     0.274 C 
BRANCH  55  56
ATOM     56  O   UNL     1       3.192   0.006   2.150  1.00  0.00    -0.462 OA
BRANCH  56  57
ATOM     57  C   UNL     1       1.848  -0.205   2.219  1.00  0.00     0.312 C 
ATOM     58  O   UNL     1       1.006   0.630   1.904  1.00  0.00    -0.252 OA
BRANCH  57  59
ATOM     59  C   UNL     1       1.463  -1.571   2.773  1.00  0.00     0.124 C 
ATOM     60  C   UNL     1       0.792  -2.426   1.736  1.00  0.00    -0.014 C 
ATOM     61  C   UNL     1       2.574  -2.504   3.263  1.00  0.00     0.048 C 
ATOM     62  C   UNL     1       1.093  -3.720   1.909  1.00  0.00    -0.006 C 
ATOM     63  C   UNL     1       1.999  -3.919   3.084  1.00  0.00     0.106 C 
BRANCH  63  64
ATOM     64  N   UNL     1       2.996  -4.899   2.746  1.00  0.00    -0.344 N 
ATOM     65  C   UNL     1       3.041  -6.236   3.038  1.00  0.00     0.271 C 
ATOM     66  H   UNL     1       3.759  -4.559   2.226  1.00  0.00     0.164 HD
ATOM     67  O   UNL     1       3.944  -6.932   2.573  1.00  0.00    -0.267 OA
BRANCH  65  68
ATOM     68  C   UNL     1       1.994  -6.785   3.879  1.00  0.00     0.147 A 
ATOM     69  C   UNL     1       0.681  -7.007   3.510  1.00  0.00     0.127 A 
ATOM     70  N   UNL     1       2.201  -7.169   5.191  1.00  0.00    -0.223 NA
ATOM     71  N   UNL     1       0.072  -7.533   4.616  1.00  0.00    -0.306 N 
ATOM     72  C   UNL     1       1.043  -7.631   5.607  1.00  0.00     0.137 A 
ATOM     73  C   UNL     1      -1.254  -7.912   4.797  1.00  0.00     0.093 A 
ATOM     74  C   UNL     1       0.643  -8.180   6.856  1.00  0.00     0.048 A 
ATOM     75  C   UNL     1      -1.634  -8.410   5.986  1.00  0.00     0.018 A 
ATOM     76  C   UNL     1      -0.640  -8.551   7.041  1.00  0.00     0.005 A 
ENDBRANCH  65  68
ENDBRANCH  63  64
ENDBRANCH  57  59
ENDBRANCH  56  57
ENDBRANCH  55  56
ENDBRANCH   1  55
TORSDOF 13
