REMARK SMILES COc1ccc(CNC(=O)[C@H]2CC(C)=C(C)C[C@@H]2C(=O)OCCOC(=O)c2ccc(-c3c4nc(c(-c5ccccc5)c5ccc([nH]5)c(-c5ccccc5)c5nc(c(-c6ccccc6)c6ccc3[nH]6)C=C5)C=C4)cc2)cc1OC
REMARK SMILES IDX 22 1 21 2 19 3 20 4 18 5 11 6 12 7 13 8 17 9 14 10 15 11
REMARK SMILES IDX 16 12 9 13 8 14 10 16 7 17 6 18 3 19 4 20 76 21 5 22 75 23
REMARK SMILES IDX 2 24 1 25 77 26 78 27 23 28 24 29 25 30 26 31 27 32 28 33
REMARK SMILES IDX 74 34 29 35 73 36 30 37 31 38 32 39 67 40 33 41 72 42 66 43
REMARK SMILES IDX 68 44 34 45 71 46 65 47 64 48 35 50 57 51 42 52 56 53 43 54
REMARK SMILES IDX 46 55 55 56 69 57 44 58 45 59 54 61 70 62 47 63 36 64 37 65
REMARK SMILES IDX 41 66 38 67 40 68 39 69 58 70 59 71 63 72 60 73 62 74 61 75
REMARK SMILES IDX 48 76 49 77 53 78 50 79 52 80 51 81
REMARK H PARENT 8 15 68 49 46 60
REMARK Flexibility Score: inf
ROOT
ATOM      1  C   UNL     1      -3.593   5.781  -3.401  1.00  0.00     0.274 C 
ENDROOT
BRANCH   1   2
ATOM      2  O   UNL     1      -2.864   5.655  -4.640  1.00  0.00    -0.462 OA
BRANCH   2   3
ATOM      3  C   UNL     1      -2.013   6.672  -4.960  1.00  0.00     0.310 C 
ATOM      4  O   UNL     1      -1.831   7.661  -4.262  1.00  0.00    -0.252 OA
BRANCH   3   5
ATOM      5  C   UNL     1      -1.316   6.409  -6.291  1.00  0.00     0.116 C 
ATOM      6  C   UNL     1       0.204   6.248  -6.083  1.00  0.00     0.097 C 
ATOM      7  C   UNL     1       1.047   7.516  -6.338  1.00  0.00     0.045 C 
ATOM      8  C   UNL     1       0.310   8.800  -6.661  1.00  0.00    -0.074 C 
ATOM      9  C   UNL     1      -1.709   7.497  -7.291  1.00  0.00     0.046 C 
ATOM     10  C   UNL     1       1.127  10.056  -6.476  1.00  0.00     0.039 C 
ATOM     11  C   UNL     1      -0.960   8.795  -7.119  1.00  0.00    -0.073 C 
ATOM     12  C   UNL     1      -1.710  10.044  -7.502  1.00  0.00     0.039 C 
BRANCH   6  13
ATOM     13  C   UNL     1       0.711   5.090  -6.940  1.00  0.00     0.224 C 
ATOM     14  N   UNL     1       1.525   4.123  -6.425  1.00  0.00    -0.352 N 
ATOM     15  H   UNL     1       1.689   3.366  -7.032  1.00  0.00     0.163 HD
ATOM     16  O   UNL     1       0.397   5.000  -8.130  1.00  0.00    -0.275 OA
BRANCH  14  17
ATOM     17  C   UNL     1       2.191   4.016  -5.141  1.00  0.00     0.151 C 
BRANCH  17  18
ATOM     18  C   UNL     1       1.880   2.757  -4.357  1.00  0.00    -0.025 A 
ATOM     19  C   UNL     1       1.236   0.735  -2.488  1.00  0.00     0.160 A 
ATOM     20  C   UNL     1       0.307   1.137  -3.454  1.00  0.00     0.051 A 
ATOM     21  C   UNL     1       2.527   1.265  -2.504  1.00  0.00     0.161 A 
ATOM     22  C   UNL     1       0.627   2.138  -4.379  1.00  0.00     0.009 A 
ATOM     23  C   UNL     1       2.828   2.267  -3.442  1.00  0.00     0.056 A 
BRANCH  19  24
ATOM     24  O   UNL     1       0.845  -0.199  -1.566  1.00  0.00    -0.493 OA
ATOM     25  C   UNL     1       0.043   0.402  -0.546  1.00  0.00     0.278 C 
ENDBRANCH  19  24
BRANCH  21  26
ATOM     26  O   UNL     1       3.576   0.985  -1.670  1.00  0.00    -0.493 OA
ATOM     27  C   UNL     1       3.474  -0.144  -0.814  1.00  0.00     0.278 C 
ENDBRANCH  21  26
ENDBRANCH  17  18
ENDBRANCH  14  17
ENDBRANCH   6  13
ENDBRANCH   3   5
ENDBRANCH   2   3
ENDBRANCH   1   2
BRANCH   1  28
ATOM     28  C   UNL     1      -2.996   4.926  -2.275  1.00  0.00     0.275 C 
BRANCH  28  29
ATOM     29  O   UNL     1      -1.794   5.501  -1.719  1.00  0.00    -0.458 OA
BRANCH  29  30
ATOM     30  C   UNL     1      -0.681   5.146  -2.391  1.00  0.00     0.338 C 
ATOM     31  O   UNL     1      -0.640   4.432  -3.380  1.00  0.00    -0.246 OA
BRANCH  30  32
ATOM     32  C   UNL     1       0.537   5.794  -1.892  1.00  0.00     0.060 A 
ATOM     33  C   UNL     1       0.974   6.933  -2.565  1.00  0.00     0.016 A 
ATOM     34  C   UNL     1       1.391   5.129  -1.011  1.00  0.00     0.016 A 
ATOM     35  C   UNL     1       2.296   7.348  -2.440  1.00  0.00     0.010 A 
ATOM     36  C   UNL     1       2.694   5.614  -0.811  1.00  0.00     0.010 A 
ATOM     37  C   UNL     1       3.176   6.706  -1.555  1.00  0.00    -0.014 A 
BRANCH  37  38
ATOM     38  C   UNL     1       4.588   7.182  -1.455  1.00  0.00     0.031 A 
ATOM     39  C   UNL     1       5.753   6.284  -1.789  1.00  0.00     0.074 A 
ATOM     40  C   UNL     1       4.835   8.468  -1.137  1.00  0.00     0.049 A 
ATOM     41  N   UNL     1       7.040   6.519  -1.704  1.00  0.00    -0.248 NA
ATOM     42  C   UNL     1       5.430   4.943  -2.289  1.00  0.00     0.031 C 
ATOM     43  C   UNL     1       3.817   9.477  -0.835  1.00  0.00     0.029 A 
ATOM     44  N   UNL     1       6.019   9.156  -1.051  1.00  0.00    -0.354 N 
ATOM     45  C   UNL     1       7.673   5.342  -2.092  1.00  0.00     0.074 A 
ATOM     46  C   UNL     1       6.630   4.396  -2.425  1.00  0.00     0.031 C 
ATOM     47  C   UNL     1       4.413  10.666  -0.673  1.00  0.00     0.029 A 
ATOM     48  C   UNL     1       5.857  10.489  -0.765  1.00  0.00     0.049 A 
ATOM     49  H   UNL     1       6.899   8.735  -1.183  1.00  0.00     0.167 HD
ATOM     50  C   UNL     1       8.998   5.068  -2.155  1.00  0.00     0.031 A 
ATOM     51  C   UNL     1       6.764  11.463  -0.568  1.00  0.00     0.031 A 
ATOM     52  C   UNL     1      10.043   6.011  -1.851  1.00  0.00     0.049 A 
ATOM     53  C   UNL     1       8.224  11.136  -0.622  1.00  0.00     0.074 A 
ATOM     54  C   UNL     1      11.414   5.816  -1.858  1.00  0.00     0.029 A 
ATOM     55  N   UNL     1       9.831   7.335  -1.504  1.00  0.00    -0.354 N 
ATOM     56  N   UNL     1       8.802   9.994  -0.900  1.00  0.00    -0.248 NA
ATOM     57  C   UNL     1       9.155  12.228  -0.310  1.00  0.00     0.031 C 
ATOM     58  C   UNL     1      12.031   7.017  -1.490  1.00  0.00     0.029 A 
ATOM     59  C   UNL     1      11.044   7.968  -1.291  1.00  0.00     0.049 A 
ATOM     60  H   UNL     1       8.948   7.763  -1.422  1.00  0.00     0.167 HD
ATOM     61  C   UNL     1      10.165  10.226  -0.785  1.00  0.00     0.074 A 
ATOM     62  C   UNL     1      10.328  11.625  -0.444  1.00  0.00     0.031 C 
ATOM     63  C   UNL     1      11.190   9.353  -0.936  1.00  0.00     0.031 A 
BRANCH  50  64
ATOM     64  C   UNL     1       9.404   3.670  -2.526  1.00  0.00    -0.014 A 
ATOM     65  C   UNL     1       9.381   3.228  -3.856  1.00  0.00     0.009 A 
ATOM     66  C   UNL     1       9.873   2.800  -1.527  1.00  0.00     0.009 A 
ATOM     67  C   UNL     1       9.801   1.934  -4.177  1.00  0.00     0.001 A 
ATOM     68  C   UNL     1      10.310   1.515  -1.853  1.00  0.00     0.001 A 
ATOM     69  C   UNL     1      10.269   1.081  -3.177  1.00  0.00     0.000 A 
ENDBRANCH  50  64
BRANCH  51  70
ATOM     70  C   UNL     1       6.297  12.834  -0.249  1.00  0.00    -0.014 A 
ATOM     71  C   UNL     1       6.394  13.860  -1.199  1.00  0.00     0.009 A 
ATOM     72  C   UNL     1       5.710  13.109   0.997  1.00  0.00     0.009 A 
ATOM     73  C   UNL     1       5.911  15.137  -0.906  1.00  0.00     0.001 A 
ATOM     74  C   UNL     1       5.204  14.378   1.276  1.00  0.00     0.001 A 
ATOM     75  C   UNL     1       5.309  15.392   0.326  1.00  0.00     0.000 A 
ENDBRANCH  51  70
BRANCH  63  76
ATOM     76  C   UNL     1      12.573   9.895  -0.732  1.00  0.00    -0.014 A 
ATOM     77  C   UNL     1      13.069  10.129   0.559  1.00  0.00     0.009 A 
ATOM     78  C   UNL     1      13.388  10.167  -1.840  1.00  0.00     0.009 A 
ATOM     79  C   UNL     1      14.348  10.659   0.735  1.00  0.00     0.001 A 
ATOM     80  C   UNL     1      14.673  10.681  -1.660  1.00  0.00     0.001 A 
ATOM     81  C   UNL     1      15.148  10.934  -0.373  1.00  0.00     0.000 A 
ENDBRANCH  63  76
ENDBRANCH  37  38
ENDBRANCH  30  32
ENDBRANCH  29  30
ENDBRANCH  28  29
ENDBRANCH   1  28
TORSDOF 16
