REMARK SMILES O=C(N[C@@H](Cc1c[nH]c2ccccc12)C(=O)N[C@@H](CO)C(=O)OCCOC(=O)c1ccc(-c2c3nc(c(-c4ccccc4)c4ccc([nH]4)c(-c4ccccc4)c4nc(c(-c5ccccc5)c5ccc2[nH]5)C=C4)C=C3)cc1)c1ccc(F)cc1
REMARK SMILES IDX 24 1 23 2 21 3 22 4 18 5 17 6 15 7 16 8 4 10 3 11 1 12 2 13
REMARK SMILES IDX 77 15 78 16 83 17 79 18 82 19 80 20 81 21 5 22 6 23 7 24
REMARK SMILES IDX 14 25 8 26 9 27 13 28 10 30 12 31 11 32 19 33 20 34 25 36
REMARK SMILES IDX 26 37 27 38 28 39 29 40 30 41 76 42 31 43 75 44 32 45 33 46
REMARK SMILES IDX 34 47 69 48 35 49 74 50 68 51 70 52 36 53 73 54 67 55 66 56
REMARK SMILES IDX 37 58 59 59 44 60 58 61 45 62 48 63 57 64 71 65 46 66 47 67
REMARK SMILES IDX 56 69 72 70 49 71 38 72 39 73 43 74 40 75 42 76 41 77 60 78
REMARK SMILES IDX 61 79 65 80 62 81 64 82 63 83 50 84 51 85 55 86 52 87 54 88
REMARK SMILES IDX 53 89
REMARK H PARENT 17 9 3 14 8 29 20 35 70 57 48 68
REMARK Flexibility Score: inf
ROOT
ATOM      1  C   UNL     1       6.514  -6.319  -2.279  1.00  0.00     0.274 C 
ENDROOT
BRANCH   1   2
ATOM      2  O   UNL     1       5.913  -5.033  -2.548  1.00  0.00    -0.460 OA
BRANCH   2   3
ATOM      3  C   UNL     1       4.752  -5.114  -3.274  1.00  0.00     0.331 C 
ATOM      4  O   UNL     1       4.262  -6.178  -3.641  1.00  0.00    -0.250 OA
BRANCH   3   5
ATOM      5  C   UNL     1       4.060  -3.746  -3.442  1.00  0.00     0.218 C 
BRANCH   5   6
ATOM      6  N   UNL     1       4.882  -2.566  -3.194  1.00  0.00    -0.339 N 
ATOM      7  C   UNL     1       4.803  -1.589  -2.261  1.00  0.00     0.243 C 
ATOM      8  O   UNL     1       5.520  -0.601  -2.477  1.00  0.00    -0.273 OA
ATOM      9  H   UNL     1       5.633  -2.461  -3.822  1.00  0.00     0.164 HD
BRANCH   7  10
ATOM     10  C   UNL     1       3.822  -1.562  -1.051  1.00  0.00     0.176 C 
BRANCH  10  11
ATOM     11  N   UNL     1       2.615  -0.781  -1.279  1.00  0.00    -0.340 N 
ATOM     12  O   UNL     1       0.928   0.529  -0.588  1.00  0.00    -0.269 OA
ATOM     13  C   UNL     1       2.133   0.288  -0.557  1.00  0.00     0.251 C 
ATOM     14  H   UNL     1       2.071  -1.053  -2.054  1.00  0.00     0.164 HD
BRANCH  13  15
ATOM     15  C   UNL     1       3.026   1.189   0.224  1.00  0.00     0.040 A 
ATOM     16  C   UNL     1       4.194   1.713  -0.349  1.00  0.00     0.017 A 
ATOM     17  C   UNL     1       2.601   1.666   1.474  1.00  0.00     0.017 A 
ATOM     18  C   UNL     1       4.940   2.681   0.332  1.00  0.00     0.040 A 
ATOM     19  C   UNL     1       3.349   2.638   2.151  1.00  0.00     0.040 A 
ATOM     20  C   UNL     1       4.510   3.138   1.572  1.00  0.00     0.123 A 
ATOM     21  F   UNL     1       5.209   4.090   2.204  1.00  0.00    -0.207 F 
ENDBRANCH  13  15
ENDBRANCH  10  11
BRANCH  10  22
ATOM     22  C   UNL     1       3.645  -2.803  -0.158  1.00  0.00     0.072 C 
BRANCH  22  23
ATOM     23  C   UNL     1       2.853  -4.054  -0.489  1.00  0.00    -0.020 A 
ATOM     24  C   UNL     1       3.339  -5.341  -0.283  1.00  0.00     0.087 A 
ATOM     25  C   UNL     1       1.551  -4.241  -1.088  1.00  0.00     0.003 A 
ATOM     26  N   UNL     1       2.454  -6.257  -0.769  1.00  0.00    -0.361 N 
ATOM     27  C   UNL     1       1.407  -5.609  -1.358  1.00  0.00     0.046 A 
ATOM     28  C   UNL     1       0.513  -3.395  -1.526  1.00  0.00     0.010 A 
ATOM     29  H   UNL     1       2.555  -7.235  -0.706  1.00  0.00     0.166 HD
ATOM     30  C   UNL     1       0.362  -6.151  -2.111  1.00  0.00     0.026 A 
ATOM     31  C   UNL     1      -0.526  -3.914  -2.313  1.00  0.00     0.001 A 
ATOM     32  C   UNL     1      -0.587  -5.269  -2.618  1.00  0.00     0.002 A 
ENDBRANCH  22  23
ENDBRANCH  10  22
ENDBRANCH   7  10
ENDBRANCH   5   6
BRANCH   5  33
ATOM     33  C   UNL     1       3.316  -3.651  -4.774  1.00  0.00     0.193 C 
BRANCH  33  34
ATOM     34  O   UNL     1       4.218  -3.416  -5.851  1.00  0.00    -0.394 OA
ATOM     35  H   UNL     1       4.682  -2.576  -5.707  1.00  0.00     0.210 HD
ENDBRANCH  33  34
ENDBRANCH   5  33
ENDBRANCH   3   5
ENDBRANCH   2   3
ENDBRANCH   1   2
BRANCH   1  36
ATOM     36  C   UNL     1       7.660  -6.186  -1.275  1.00  0.00     0.275 C 
BRANCH  36  37
ATOM     37  O   UNL     1       7.132  -5.848   0.024  1.00  0.00    -0.458 OA
BRANCH  37  38
ATOM     38  C   UNL     1       7.923  -5.069   0.803  1.00  0.00     0.338 C 
ATOM     39  O   UNL     1       9.037  -4.639   0.524  1.00  0.00    -0.246 OA
BRANCH  38  40
ATOM     40  C   UNL     1       7.228  -4.742   2.067  1.00  0.00     0.060 A 
ATOM     41  C   UNL     1       5.896  -4.360   2.003  1.00  0.00     0.016 A 
ATOM     42  C   UNL     1       7.889  -4.663   3.288  1.00  0.00     0.016 A 
ATOM     43  C   UNL     1       5.232  -3.811   3.089  1.00  0.00     0.010 A 
ATOM     44  C   UNL     1       7.205  -4.181   4.419  1.00  0.00     0.010 A 
ATOM     45  C   UNL     1       5.883  -3.702   4.315  1.00  0.00    -0.014 A 
BRANCH  45  46
ATOM     46  C   UNL     1       5.225  -2.923   5.400  1.00  0.00     0.031 A 
ATOM     47  C   UNL     1       5.845  -1.621   5.834  1.00  0.00     0.074 A 
ATOM     48  C   UNL     1       4.009  -3.261   5.874  1.00  0.00     0.049 A 
ATOM     49  N   UNL     1       5.528  -0.844   6.837  1.00  0.00    -0.248 NA
ATOM     50  C   UNL     1       6.965  -1.123   5.018  1.00  0.00     0.031 C 
ATOM     51  C   UNL     1       3.201  -4.393   5.415  1.00  0.00     0.029 A 
ATOM     52  N   UNL     1       3.211  -2.646   6.808  1.00  0.00    -0.354 N 
ATOM     53  C   UNL     1       6.456   0.190   6.817  1.00  0.00     0.074 A 
ATOM     54  C   UNL     1       7.328  -0.040   5.688  1.00  0.00     0.031 C 
ATOM     55  C   UNL     1       1.998  -4.344   6.008  1.00  0.00     0.029 A 
ATOM     56  C   UNL     1       1.986  -3.249   6.973  1.00  0.00     0.049 A 
ATOM     57  H   UNL     1       3.489  -1.847   7.312  1.00  0.00     0.167 HD
ATOM     58  C   UNL     1       6.584   1.225   7.681  1.00  0.00     0.031 A 
ATOM     59  C   UNL     1       0.986  -2.976   7.832  1.00  0.00     0.031 A 
ATOM     60  C   UNL     1       5.692   1.462   8.782  1.00  0.00     0.049 A 
ATOM     61  C   UNL     1       1.183  -1.873   8.836  1.00  0.00     0.074 A 
ATOM     62  C   UNL     1       5.788   2.400   9.795  1.00  0.00     0.029 A 
ATOM     63  N   UNL     1       4.514   0.762   8.992  1.00  0.00    -0.354 N 
ATOM     64  N   UNL     1       2.168  -1.013   8.937  1.00  0.00    -0.248 NA
ATOM     65  C   UNL     1       0.149  -1.729   9.871  1.00  0.00     0.031 C 
ATOM     66  C   UNL     1       4.678   2.245  10.636  1.00  0.00     0.029 A 
ATOM     67  C   UNL     1       3.871   1.244  10.118  1.00  0.00     0.049 A 
ATOM     68  H   UNL     1       4.183   0.030   8.424  1.00  0.00     0.167 HD
ATOM     69  C   UNL     1       1.877  -0.231  10.047  1.00  0.00     0.074 A 
ATOM     70  C   UNL     1       0.602  -0.692  10.560  1.00  0.00     0.031 C 
ATOM     71  C   UNL     1       2.606   0.765  10.608  1.00  0.00     0.031 A 
BRANCH  58  72
ATOM     72  C   UNL     1       7.797   2.095   7.516  1.00  0.00    -0.014 A 
ATOM     73  C   UNL     1       7.904   3.038   6.483  1.00  0.00     0.009 A 
ATOM     74  C   UNL     1       8.879   1.923   8.395  1.00  0.00     0.009 A 
ATOM     75  C   UNL     1       9.089   3.759   6.309  1.00  0.00     0.001 A 
ATOM     76  C   UNL     1      10.051   2.662   8.234  1.00  0.00     0.001 A 
ATOM     77  C   UNL     1      10.160   3.571   7.183  1.00  0.00     0.000 A 
ENDBRANCH  58  72
BRANCH  59  78
ATOM     78  C   UNL     1      -0.251  -3.808   7.852  1.00  0.00    -0.014 A 
ATOM     79  C   UNL     1      -1.503  -3.245   7.558  1.00  0.00     0.009 A 
ATOM     80  C   UNL     1      -0.191  -5.167   8.201  1.00  0.00     0.009 A 
ATOM     81  C   UNL     1      -2.665  -4.021   7.631  1.00  0.00     0.001 A 
ATOM     82  C   UNL     1      -1.347  -5.948   8.238  1.00  0.00     0.001 A 
ATOM     83  C   UNL     1      -2.585  -5.372   7.963  1.00  0.00     0.000 A 
ENDBRANCH  59  78
BRANCH  71  84
ATOM     84  C   UNL     1       2.025   1.425  11.823  1.00  0.00    -0.014 A 
ATOM     85  C   UNL     1       2.013   0.773  13.066  1.00  0.00     0.009 A 
ATOM     86  C   UNL     1       1.498   2.722  11.726  1.00  0.00     0.009 A 
ATOM     87  C   UNL     1       1.449   1.394  14.181  1.00  0.00     0.001 A 
ATOM     88  C   UNL     1       0.957   3.349  12.849  1.00  0.00     0.001 A 
ATOM     89  C   UNL     1       0.924   2.681  14.072  1.00  0.00     0.000 A 
ENDBRANCH  71  84
ENDBRANCH  45  46
ENDBRANCH  38  40
ENDBRANCH  37  38
ENDBRANCH  36  37
ENDBRANCH   1  36
TORSDOF 19
