REMARK SMILES Cc1cc(C(=O)OCCOC(=O)c2ccc(-c3c4nc(c(-c5ccccc5)c5ccc([nH]5)c(-c5ccccc5)c5nc(c(-c6ccccc6)c6ccc3[nH]6)C=C5)C=C4)cc2)ccc1NC(=O)N1C[C@@H](C)[C@H](C)C1
REMARK SMILES IDX 9 1 8 2 7 3 5 4 6 5 4 6 1 7 2 8 3 9 63 10 62 11 61 12 64 13
REMARK SMILES IDX 65 14 66 16 67 17 68 18 73 19 69 20 71 21 70 22 72 23 10 24
REMARK SMILES IDX 11 25 12 26 13 27 14 28 60 29 15 30 59 31 16 32 17 33 18 34
REMARK SMILES IDX 53 35 19 36 58 37 52 38 54 39 20 40 57 41 51 42 50 43 21 45
REMARK SMILES IDX 43 46 28 47 42 48 29 49 32 50 41 51 55 52 30 53 31 54 40 56
REMARK SMILES IDX 56 57 33 58 22 59 23 60 27 61 24 62 26 63 25 64 44 65 45 66
REMARK SMILES IDX 49 67 46 68 48 69 47 70 34 71 35 72 39 73 36 74 38 75 37 76
REMARK H PARENT 64 15 54 44 32 55
REMARK Flexibility Score: inf
ROOT
ATOM      1  C   UNL     1      -3.926  -4.166  -2.772  1.00  0.00     0.275 C 
ENDROOT
BRANCH   1   2
ATOM      2  C   UNL     1      -4.007  -2.798  -2.084  1.00  0.00     0.275 C 
BRANCH   2   3
ATOM      3  O   UNL     1      -2.795  -2.043  -2.194  1.00  0.00    -0.458 OA
BRANCH   3   4
ATOM      4  C   UNL     1      -2.608  -1.208  -1.145  1.00  0.00     0.338 C 
ATOM      5  O   UNL     1      -3.338  -1.071  -0.173  1.00  0.00    -0.246 OA
BRANCH   4   6
ATOM      6  C   UNL     1      -1.506  -0.274  -1.372  1.00  0.00     0.060 A 
ATOM      7  C   UNL     1       2.020   0.356  -0.104  1.00  0.00     0.046 C 
ATOM      8  C   UNL     1       0.648   0.632  -0.656  1.00  0.00    -0.027 A 
ATOM      9  C   UNL     1      -0.214  -0.463  -0.864  1.00  0.00     0.021 A 
ATOM     10  C   UNL     1       0.132   1.910  -0.900  1.00  0.00     0.045 A 
ATOM     11  C   UNL     1      -1.056   2.039  -1.637  1.00  0.00     0.027 A 
ATOM     12  C   UNL     1      -1.898   0.965  -1.841  1.00  0.00     0.018 A 
BRANCH  10  13
ATOM     13  N   UNL     1       0.740   3.066  -0.369  1.00  0.00    -0.308 N 
ATOM     14  C   UNL     1       0.146   4.290  -0.174  1.00  0.00     0.321 C 
ATOM     15  H   UNL     1       1.687   2.989  -0.111  1.00  0.00     0.171 HD
ATOM     16  O   UNL     1       0.818   5.317  -0.236  1.00  0.00    -0.248 OA
ATOM     17  N   UNL     1      -1.205   4.304   0.084  1.00  0.00    -0.324 N 
ATOM     18  C   UNL     1      -2.088   5.280  -0.514  1.00  0.00     0.125 C 
ATOM     19  C   UNL     1      -1.839   3.586   1.182  1.00  0.00     0.125 C 
ATOM     20  C   UNL     1      -3.329   5.320   0.370  1.00  0.00     0.010 C 
ATOM     21  C   UNL     1      -3.319   3.974   1.123  1.00  0.00     0.010 C 
ATOM     22  C   UNL     1      -4.604   5.521  -0.440  1.00  0.00     0.010 C 
ATOM     23  C   UNL     1      -3.963   4.080   2.504  1.00  0.00     0.010 C 
ENDBRANCH  10  13
ENDBRANCH   4   6
ENDBRANCH   3   4
ENDBRANCH   2   3
ENDBRANCH   1   2
BRANCH   1  24
ATOM     24  O   UNL     1      -2.641  -4.849  -2.863  1.00  0.00    -0.458 OA
BRANCH  24  25
ATOM     25  C   UNL     1      -1.598  -4.815  -2.003  1.00  0.00     0.338 C 
ATOM     26  O   UNL     1      -0.439  -5.010  -2.367  1.00  0.00    -0.246 OA
BRANCH  25  27
ATOM     27  C   UNL     1      -1.889  -4.503  -0.602  1.00  0.00     0.060 A 
ATOM     28  C   UNL     1      -0.972  -3.724   0.118  1.00  0.00     0.016 A 
ATOM     29  C   UNL     1      -3.101  -4.895  -0.046  1.00  0.00     0.016 A 
ATOM     30  C   UNL     1      -1.312  -3.229   1.367  1.00  0.00     0.010 A 
ATOM     31  C   UNL     1      -3.504  -4.303   1.121  1.00  0.00     0.010 A 
ATOM     32  C   UNL     1      -2.583  -3.528   1.845  1.00  0.00    -0.014 A 
BRANCH  32  33
ATOM     33  C   UNL     1      -2.893  -3.502   3.259  1.00  0.00     0.031 A 
ATOM     34  C   UNL     1      -3.470  -2.312   3.889  1.00  0.00     0.074 A 
ATOM     35  C   UNL     1      -2.739  -4.743   3.775  1.00  0.00     0.049 A 
ATOM     36  N   UNL     1      -3.440  -2.092   5.153  1.00  0.00    -0.248 NA
ATOM     37  C   UNL     1      -4.085  -1.211   3.145  1.00  0.00     0.031 C 
ATOM     38  C   UNL     1      -3.214  -5.378   4.984  1.00  0.00     0.029 A 
ATOM     39  N   UNL     1      -1.900  -5.714   3.210  1.00  0.00    -0.354 N 
ATOM     40  C   UNL     1      -4.348  -1.084   5.405  1.00  0.00     0.074 A 
ATOM     41  C   UNL     1      -4.573  -0.449   4.133  1.00  0.00     0.031 C 
ATOM     42  C   UNL     1      -2.450  -6.470   5.218  1.00  0.00     0.029 A 
ATOM     43  C   UNL     1      -1.370  -6.482   4.231  1.00  0.00     0.049 A 
ATOM     44  H   UNL     1      -1.719  -5.829   2.249  1.00  0.00     0.167 HD
ATOM     45  C   UNL     1      -4.966  -1.069   6.621  1.00  0.00     0.031 A 
ATOM     46  C   UNL     1      -0.041  -6.293   4.498  1.00  0.00     0.031 A 
ATOM     47  C   UNL     1      -4.429  -2.150   7.448  1.00  0.00     0.049 A 
ATOM     48  C   UNL     1       0.098  -5.565   5.815  1.00  0.00     0.074 A 
ATOM     49  C   UNL     1      -4.879  -3.442   7.666  1.00  0.00     0.029 A 
ATOM     50  N   UNL     1      -3.083  -2.131   7.793  1.00  0.00    -0.354 N 
ATOM     51  N   UNL     1      -0.727  -4.645   6.247  1.00  0.00    -0.248 NA
ATOM     52  C   UNL     1       1.110  -5.936   6.795  1.00  0.00     0.031 C 
ATOM     53  C   UNL     1      -3.751  -4.230   8.029  1.00  0.00     0.029 A 
ATOM     54  C   UNL     1      -2.629  -3.415   8.033  1.00  0.00     0.049 A 
ATOM     55  H   UNL     1      -2.531  -1.318   7.857  1.00  0.00     0.167 HD
ATOM     56  C   UNL     1      -0.462  -4.406   7.569  1.00  0.00     0.074 A 
ATOM     57  C   UNL     1       0.723  -5.204   7.852  1.00  0.00     0.031 C 
ATOM     58  C   UNL     1      -1.237  -3.638   8.390  1.00  0.00     0.031 A 
BRANCH  45  59
ATOM     59  C   UNL     1      -6.246  -0.340   6.960  1.00  0.00    -0.014 A 
ATOM     60  C   UNL     1      -6.986  -0.763   8.085  1.00  0.00     0.009 A 
ATOM     61  C   UNL     1      -6.808   0.715   6.222  1.00  0.00     0.009 A 
ATOM     62  C   UNL     1      -8.227  -0.207   8.423  1.00  0.00     0.001 A 
ATOM     63  C   UNL     1      -8.057   1.272   6.550  1.00  0.00     0.001 A 
ATOM     64  C   UNL     1      -8.769   0.807   7.648  1.00  0.00     0.000 A 
ENDBRANCH  45  59
BRANCH  46  65
ATOM     65  C   UNL     1       0.829  -6.094   3.281  1.00  0.00    -0.014 A 
ATOM     66  C   UNL     1       0.765  -7.059   2.246  1.00  0.00     0.009 A 
ATOM     67  C   UNL     1       1.511  -4.901   3.001  1.00  0.00     0.009 A 
ATOM     68  C   UNL     1       1.259  -6.803   0.960  1.00  0.00     0.001 A 
ATOM     69  C   UNL     1       2.036  -4.657   1.716  1.00  0.00     0.001 A 
ATOM     70  C   UNL     1       1.884  -5.592   0.691  1.00  0.00     0.000 A 
ENDBRANCH  46  65
BRANCH  58  71
ATOM     71  C   UNL     1      -0.755  -3.060   9.693  1.00  0.00    -0.014 A 
ATOM     72  C   UNL     1       0.599  -2.867   9.989  1.00  0.00     0.009 A 
ATOM     73  C   UNL     1      -1.693  -2.510  10.594  1.00  0.00     0.009 A 
ATOM     74  C   UNL     1       0.998  -2.217  11.159  1.00  0.00     0.001 A 
ATOM     75  C   UNL     1      -1.299  -1.797  11.724  1.00  0.00     0.001 A 
ATOM     76  C   UNL     1       0.050  -1.669  12.017  1.00  0.00     0.000 A 
ENDBRANCH  58  71
ENDBRANCH  32  33
ENDBRANCH  25  27
ENDBRANCH  24  25
ENDBRANCH   1  24
TORSDOF 12
