REMARK SMILES O=C(CCc1nc(-c2ccccc2)c(-c2ccccc2)o1)OCCOC(=O)c1ccc(-c2c3nc(c(-c4ccccc4)c4ccc([nH]4)c(-c4ccccc4)c4nc(c(-c5ccccc5)c5ccc2[nH]5)C=C4)C=C3)cc1
REMARK SMILES IDX 23 1 22 2 2 3 1 4 3 5 4 6 5 7 6 8 21 9 7 10 14 11 8 12 9 13
REMARK SMILES IDX 13 14 10 15 12 16 11 17 15 18 16 19 20 20 17 21 19 22 18 23
REMARK SMILES IDX 24 24 25 25 26 26 27 27 28 28 29 29 75 30 30 31 74 32 31 33
REMARK SMILES IDX 32 34 33 35 68 36 34 37 73 38 67 39 69 40 35 41 72 42 66 43
REMARK SMILES IDX 65 44 36 46 58 47 43 48 57 49 44 50 47 51 56 52 70 53 45 54
REMARK SMILES IDX 46 55 55 57 71 58 48 59 37 60 38 61 42 62 39 63 41 64 40 65
REMARK SMILES IDX 59 66 60 67 64 68 61 69 63 70 62 71 49 72 50 73 54 74 51 75
REMARK SMILES IDX 53 76 52 77
REMARK H PARENT 69 45 47 56
REMARK Flexibility Score: inf
ROOT
ATOM      1  C   UNL     1       3.120   1.543  -0.714  1.00  0.00     0.274 C 
ENDROOT
BRANCH   1   2
ATOM      2  O   UNL     1       2.187   0.522  -0.321  1.00  0.00    -0.462 OA
BRANCH   2   3
ATOM      3  C   UNL     1       2.553  -0.753  -0.612  1.00  0.00     0.306 C 
ATOM      4  O   UNL     1       2.024  -1.392  -1.513  1.00  0.00    -0.252 OA
BRANCH   3   5
ATOM      5  C   UNL     1       3.480  -1.369   0.412  1.00  0.00     0.132 C 
BRANCH   5   6
ATOM      6  C   UNL     1       4.467  -2.346  -0.212  1.00  0.00     0.109 C 
BRANCH   6   7
ATOM      7  C   UNL     1       5.567  -1.694  -0.978  1.00  0.00     0.196 A 
ATOM      8  N   UNL     1       6.444  -2.266  -1.779  1.00  0.00    -0.213 NA
ATOM      9  O   UNL     1       5.665  -0.328  -0.919  1.00  0.00    -0.440 OA
ATOM     10  C   UNL     1       7.122  -1.206  -2.334  1.00  0.00     0.117 A 
ATOM     11  C   UNL     1       6.616  -0.017  -1.852  1.00  0.00     0.162 A 
BRANCH  10  12
ATOM     12  C   UNL     1       8.089  -1.320  -3.401  1.00  0.00     0.004 A 
ATOM     13  C   UNL     1       9.286  -0.591  -3.368  1.00  0.00     0.010 A 
ATOM     14  C   UNL     1       7.789  -2.107  -4.517  1.00  0.00     0.010 A 
ATOM     15  C   UNL     1      10.157  -0.625  -4.457  1.00  0.00     0.001 A 
ATOM     16  C   UNL     1       8.658  -2.133  -5.608  1.00  0.00     0.001 A 
ATOM     17  C   UNL     1       9.838  -1.388  -5.579  1.00  0.00     0.000 A 
ENDBRANCH  10  12
BRANCH  11  18
ATOM     18  C   UNL     1       6.710   1.375  -2.248  1.00  0.00     0.020 A 
ATOM     19  C   UNL     1       7.143   2.370  -1.369  1.00  0.00     0.012 A 
ATOM     20  C   UNL     1       6.344   1.730  -3.556  1.00  0.00     0.012 A 
ATOM     21  C   UNL     1       7.211   3.701  -1.796  1.00  0.00     0.001 A 
ATOM     22  C   UNL     1       6.410   3.056  -3.980  1.00  0.00     0.001 A 
ATOM     23  C   UNL     1       6.844   4.042  -3.099  1.00  0.00     0.000 A 
ENDBRANCH  11  18
ENDBRANCH   6   7
ENDBRANCH   5   6
ENDBRANCH   3   5
ENDBRANCH   2   3
ENDBRANCH   1   2
BRANCH   1  24
ATOM     24  C   UNL     1       3.763   2.278   0.474  1.00  0.00     0.275 C 
BRANCH  24  25
ATOM     25  O   UNL     1       3.602   1.573   1.711  1.00  0.00    -0.458 OA
BRANCH  25  26
ATOM     26  C   UNL     1       2.369   1.726   2.252  1.00  0.00     0.338 C 
ATOM     27  O   UNL     1       1.530   2.547   1.934  1.00  0.00    -0.246 OA
BRANCH  26  28
ATOM     28  C   UNL     1       2.102   0.609   3.181  1.00  0.00     0.060 A 
ATOM     29  C   UNL     1       0.830   0.029   3.126  1.00  0.00     0.016 A 
ATOM     30  C   UNL     1       3.045   0.168   4.115  1.00  0.00     0.016 A 
ATOM     31  C   UNL     1       0.462  -0.924   4.071  1.00  0.00     0.010 A 
ATOM     32  C   UNL     1       2.675  -0.794   5.061  1.00  0.00     0.010 A 
ATOM     33  C   UNL     1       1.362  -1.294   5.080  1.00  0.00    -0.014 A 
BRANCH  33  34
ATOM     34  C   UNL     1       0.832  -2.014   6.262  1.00  0.00     0.031 A 
ATOM     35  C   UNL     1       0.434  -1.208   7.470  1.00  0.00     0.074 A 
ATOM     36  C   UNL     1       0.614  -3.340   6.235  1.00  0.00     0.049 A 
ATOM     37  N   UNL     1      -0.198  -1.591   8.551  1.00  0.00    -0.248 NA
ATOM     38  C   UNL     1       0.787   0.221   7.454  1.00  0.00     0.031 C 
ATOM     39  C   UNL     1       0.930  -4.231   5.121  1.00  0.00     0.029 A 
ATOM     40  N   UNL     1       0.048  -4.162   7.177  1.00  0.00    -0.354 N 
ATOM     41  C   UNL     1      -0.327  -0.450   9.333  1.00  0.00     0.074 A 
ATOM     42  C   UNL     1       0.332   0.627   8.629  1.00  0.00     0.031 C 
ATOM     43  C   UNL     1       0.536  -5.478   5.437  1.00  0.00     0.029 A 
ATOM     44  C   UNL     1      -0.054  -5.470   6.774  1.00  0.00     0.049 A 
ATOM     45  H   UNL     1      -0.257  -3.844   8.057  1.00  0.00     0.167 HD
ATOM     46  C   UNL     1      -0.954  -0.301  10.524  1.00  0.00     0.031 A 
ATOM     47  C   UNL     1      -0.580  -6.536   7.409  1.00  0.00     0.031 A 
ATOM     48  C   UNL     1      -1.599  -1.366  11.238  1.00  0.00     0.049 A 
ATOM     49  C   UNL     1      -1.219  -6.357   8.760  1.00  0.00     0.074 A 
ATOM     50  C   UNL     1      -2.282  -1.310  12.441  1.00  0.00     0.029 A 
ATOM     51  N   UNL     1      -1.632  -2.685  10.818  1.00  0.00    -0.354 N 
ATOM     52  N   UNL     1      -1.393  -5.260   9.457  1.00  0.00    -0.248 NA
ATOM     53  C   UNL     1      -1.755  -7.567   9.401  1.00  0.00     0.031 C 
ATOM     54  C   UNL     1      -2.687  -2.607  12.772  1.00  0.00     0.029 A 
ATOM     55  C   UNL     1      -2.299  -3.460  11.751  1.00  0.00     0.049 A 
ATOM     56  H   UNL     1      -1.239  -3.022   9.980  1.00  0.00     0.167 HD
ATOM     57  C   UNL     1      -2.091  -5.642  10.597  1.00  0.00     0.074 A 
ATOM     58  C   UNL     1      -2.313  -7.069  10.495  1.00  0.00     0.031 C 
ATOM     59  C   UNL     1      -2.516  -4.877  11.633  1.00  0.00     0.031 A 
BRANCH  46  60
ATOM     60  C   UNL     1      -0.945   1.071  11.133  1.00  0.00    -0.014 A 
ATOM     61  C   UNL     1      -1.736   2.105  10.607  1.00  0.00     0.009 A 
ATOM     62  C   UNL     1      -0.142   1.331  12.254  1.00  0.00     0.009 A 
ATOM     63  C   UNL     1      -1.696   3.382  11.170  1.00  0.00     0.001 A 
ATOM     64  C   UNL     1      -0.122   2.602  12.830  1.00  0.00     0.001 A 
ATOM     65  C   UNL     1      -0.891   3.628  12.283  1.00  0.00     0.000 A 
ENDBRANCH  46  60
BRANCH  47  66
ATOM     66  C   UNL     1      -0.553  -7.874   6.766  1.00  0.00    -0.014 A 
ATOM     67  C   UNL     1      -1.735  -8.461   6.288  1.00  0.00     0.009 A 
ATOM     68  C   UNL     1       0.651  -8.586   6.658  1.00  0.00     0.009 A 
ATOM     69  C   UNL     1      -1.715  -9.746   5.741  1.00  0.00     0.001 A 
ATOM     70  C   UNL     1       0.672  -9.861   6.088  1.00  0.00     0.001 A 
ATOM     71  C   UNL     1      -0.512 -10.444   5.639  1.00  0.00     0.000 A 
ENDBRANCH  47  66
BRANCH  59  72
ATOM     72  C   UNL     1      -3.299  -5.560  12.718  1.00  0.00    -0.014 A 
ATOM     73  C   UNL     1      -2.677  -6.412  13.643  1.00  0.00     0.009 A 
ATOM     74  C   UNL     1      -4.676  -5.313  12.839  1.00  0.00     0.009 A 
ATOM     75  C   UNL     1      -3.425  -7.031  14.646  1.00  0.00     0.001 A 
ATOM     76  C   UNL     1      -5.416  -5.912  13.859  1.00  0.00     0.001 A 
ATOM     77  C   UNL     1      -4.792  -6.777  14.756  1.00  0.00     0.000 A 
ENDBRANCH  59  72
ENDBRANCH  33  34
ENDBRANCH  26  28
ENDBRANCH  25  26
ENDBRANCH  24  25
ENDBRANCH   1  24
TORSDOF 15
