REMARK SMILES NS(=O)(=O)c1ccc(/N=N/c2ccc(O)c(C(=O)OCCOC(=O)c3ccc(-c4c5nc(c(-c6ccccc6)c6ccc([nH]6)c(-c6ccccc6)c6nc(c(-c7ccccc7)c7ccc4[nH]7)C=C6)C=C5)cc3)c2)cc1
REMARK SMILES IDX 20 1 19 2 17 3 18 4 16 5 11 6 12 7 73 8 13 9 14 10 10 11
REMARK SMILES IDX 9 12 8 13 5 14 6 15 75 16 7 17 74 18 2 19 3 20 4 21 1 22
REMARK SMILES IDX 15 25 21 27 22 28 23 29 24 30 25 31 26 32 72 33 27 34 71 35
REMARK SMILES IDX 28 36 29 37 30 38 65 39 31 40 70 41 64 42 66 43 32 44 69 45
REMARK SMILES IDX 63 46 62 47 33 49 55 50 40 51 54 52 41 53 44 54 53 55 67 56
REMARK SMILES IDX 42 57 43 58 52 60 68 61 45 62 34 63 35 64 39 65 36 66 38 67
REMARK SMILES IDX 37 68 56 69 57 70 61 71 58 72 60 73 59 74 46 75 47 76 51 77
REMARK SMILES IDX 48 78 50 79 49 80
REMARK H PARENT 1 23 1 24 15 26 66 48 44 59
REMARK Flexibility Score: inf
ROOT
ATOM      1  C   UNL     1       5.523  -7.918   7.605  1.00  0.00     0.275 C 
ENDROOT
BRANCH   1   2
ATOM      2  O   UNL     1       4.609  -6.818   7.776  1.00  0.00    -0.458 OA
BRANCH   2   3
ATOM      3  C   UNL     1       3.778  -6.874   8.843  1.00  0.00     0.342 C 
ATOM      4  O   UNL     1       3.697  -7.780   9.660  1.00  0.00    -0.246 OA
BRANCH   3   5
ATOM      5  C   UNL     1       3.014  -5.612   8.997  1.00  0.00     0.104 A 
ATOM      6  C   UNL     1       2.294  -3.448   8.150  1.00  0.00     0.087 A 
ATOM      7  C   UNL     1       1.780  -3.135   9.414  1.00  0.00     0.034 A 
ATOM      8  C   UNL     1       2.936  -4.679   7.957  1.00  0.00     0.049 A 
ATOM      9  C   UNL     1       1.828  -4.067  10.450  1.00  0.00     0.049 A 
ATOM     10  C   UNL     1       2.414  -5.312  10.230  1.00  0.00     0.130 A 
BRANCH   6  11
ATOM     11  N   UNL     1       2.186  -2.509   7.111  1.00  0.00    -0.151 NA
ATOM     12  N   UNL     1       1.529  -2.995   6.165  1.00  0.00    -0.151 NA
BRANCH  12  13
ATOM     13  C   UNL     1       1.321  -2.092   5.102  1.00  0.00     0.086 A 
ATOM     14  C   UNL     1       0.755  -0.416   2.921  1.00  0.00     0.082 A 
ATOM     15  C   UNL     1       0.660  -1.801   2.771  1.00  0.00     0.024 A 
ATOM     16  C   UNL     1       1.141   0.141   4.141  1.00  0.00     0.024 A 
ATOM     17  C   UNL     1       0.944  -2.629   3.862  1.00  0.00     0.031 A 
ATOM     18  C   UNL     1       1.416  -0.696   5.225  1.00  0.00     0.031 A 
BRANCH  14  19
ATOM     19  S   UNL     1       0.385   0.649   1.561  1.00  0.00     0.238 S 
ATOM     20  O   UNL     1       1.073   1.908   1.748  1.00  0.00    -0.207 OA
ATOM     21  O   UNL     1      -1.026   0.562   1.284  1.00  0.00    -0.207 OA
BRANCH  19  22
ATOM     22  N   UNL     1       1.168  -0.086   0.268  1.00  0.00    -0.225 NA
ATOM     23  H   UNL     1       1.013   0.461  -0.579  1.00  0.00     0.137 HD
ATOM     24  H   UNL     1       0.798  -1.027   0.138  1.00  0.00     0.137 HD
ENDBRANCH  19  22
ENDBRANCH  14  19
ENDBRANCH  12  13
ENDBRANCH   6  11
BRANCH  10  25
ATOM     25  O   UNL     1       2.410  -6.171  11.297  1.00  0.00    -0.507 OA
ATOM     26  H   UNL     1       1.994  -5.921  12.099  1.00  0.00     0.293 HD
ENDBRANCH  10  25
ENDBRANCH   3   5
ENDBRANCH   2   3
ENDBRANCH   1   2
BRANCH   1  27
ATOM     27  C   UNL     1       6.944  -7.534   8.030  1.00  0.00     0.275 C 
BRANCH  27  28
ATOM     28  O   UNL     1       7.032  -7.340   9.456  1.00  0.00    -0.458 OA
BRANCH  28  29
ATOM     29  C   UNL     1       6.944  -6.052   9.866  1.00  0.00     0.338 C 
ATOM     30  O   UNL     1       6.866  -5.058   9.162  1.00  0.00    -0.246 OA
BRANCH  29  31
ATOM     31  C   UNL     1       6.749  -6.010  11.326  1.00  0.00     0.060 A 
ATOM     32  C   UNL     1       5.584  -5.394  11.784  1.00  0.00     0.016 A 
ATOM     33  C   UNL     1       7.683  -6.506  12.236  1.00  0.00     0.016 A 
ATOM     34  C   UNL     1       5.312  -5.309  13.145  1.00  0.00     0.010 A 
ATOM     35  C   UNL     1       7.428  -6.387  13.612  1.00  0.00     0.010 A 
ATOM     36  C   UNL     1       6.240  -5.789  14.073  1.00  0.00    -0.014 A 
BRANCH  36  37
ATOM     37  C   UNL     1       5.991  -5.559  15.517  1.00  0.00     0.031 A 
ATOM     38  C   UNL     1       6.697  -4.434  16.219  1.00  0.00     0.074 A 
ATOM     39  C   UNL     1       5.083  -6.297  16.183  1.00  0.00     0.049 A 
ATOM     40  N   UNL     1       6.637  -4.073  17.475  1.00  0.00    -0.248 NA
ATOM     41  C   UNL     1       7.582  -3.600  15.391  1.00  0.00     0.031 C 
ATOM     42  C   UNL     1       4.262  -7.357  15.600  1.00  0.00     0.029 A 
ATOM     43  N   UNL     1       4.695  -6.256  17.500  1.00  0.00    -0.354 N 
ATOM     44  C   UNL     1       7.483  -2.977  17.592  1.00  0.00     0.074 A 
ATOM     45  C   UNL     1       8.062  -2.749  16.285  1.00  0.00     0.031 C 
ATOM     46  C   UNL     1       3.466  -7.867  16.556  1.00  0.00     0.029 A 
ATOM     47  C   UNL     1       3.754  -7.202  17.825  1.00  0.00     0.049 A 
ATOM     48  H   UNL     1       5.056  -5.609  18.148  1.00  0.00     0.167 HD
ATOM     49  C   UNL     1       7.752  -2.227  18.688  1.00  0.00     0.031 A 
ATOM     50  C   UNL     1       3.206  -7.514  19.016  1.00  0.00     0.031 A 
ATOM     51  C   UNL     1       7.189  -2.462  19.992  1.00  0.00     0.049 A 
ATOM     52  C   UNL     1       3.610  -6.738  20.242  1.00  0.00     0.074 A 
ATOM     53  C   UNL     1       7.412  -1.761  21.166  1.00  0.00     0.029 A 
ATOM     54  N   UNL     1       6.298  -3.479  20.298  1.00  0.00    -0.354 N 
ATOM     55  N   UNL     1       4.418  -5.711  20.345  1.00  0.00    -0.248 NA
ATOM     56  C   UNL     1       3.018  -7.165  21.518  1.00  0.00     0.031 C 
ATOM     57  C   UNL     1       6.709  -2.396  22.195  1.00  0.00     0.029 A 
ATOM     58  C   UNL     1       5.986  -3.444  21.648  1.00  0.00     0.049 A 
ATOM     59  H   UNL     1       5.941  -4.130  19.652  1.00  0.00     0.167 HD
ATOM     60  C   UNL     1       4.403  -5.347  21.686  1.00  0.00     0.074 A 
ATOM     61  C   UNL     1       3.493  -6.254  22.355  1.00  0.00     0.031 C 
ATOM     62  C   UNL     1       5.079  -4.349  22.307  1.00  0.00     0.031 A 
BRANCH  49  63
ATOM     63  C   UNL     1       8.748  -1.111  18.531  1.00  0.00    -0.014 A 
ATOM     64  C   UNL     1       8.447   0.046  17.795  1.00  0.00     0.009 A 
ATOM     65  C   UNL     1      10.002  -1.211  19.153  1.00  0.00     0.009 A 
ATOM     66  C   UNL     1       9.397   1.061  17.654  1.00  0.00     0.001 A 
ATOM     67  C   UNL     1      10.937  -0.182  19.038  1.00  0.00     0.001 A 
ATOM     68  C   UNL     1      10.638   0.948  18.279  1.00  0.00     0.000 A 
ENDBRANCH  49  63
BRANCH  50  69
ATOM     69  C   UNL     1       2.241  -8.643  19.126  1.00  0.00    -0.014 A 
ATOM     70  C   UNL     1       0.903  -8.415  19.481  1.00  0.00     0.009 A 
ATOM     71  C   UNL     1       2.670  -9.964  18.918  1.00  0.00     0.009 A 
ATOM     72  C   UNL     1       0.025  -9.488  19.658  1.00  0.00     0.001 A 
ATOM     73  C   UNL     1       1.782 -11.031  19.061  1.00  0.00     0.001 A 
ATOM     74  C   UNL     1       0.464 -10.794  19.444  1.00  0.00     0.000 A 
ENDBRANCH  50  69
BRANCH  62  75
ATOM     75  C   UNL     1       4.821  -4.148  23.777  1.00  0.00    -0.014 A 
ATOM     76  C   UNL     1       5.253  -5.077  24.737  1.00  0.00     0.009 A 
ATOM     77  C   UNL     1       4.156  -2.989  24.210  1.00  0.00     0.009 A 
ATOM     78  C   UNL     1       4.986  -4.870  26.093  1.00  0.00     0.001 A 
ATOM     79  C   UNL     1       3.922  -2.767  25.568  1.00  0.00     0.001 A 
ATOM     80  C   UNL     1       4.326  -3.714  26.507  1.00  0.00     0.000 A 
ENDBRANCH  62  75
ENDBRANCH  36  37
ENDBRANCH  29  31
ENDBRANCH  28  29
ENDBRANCH  27  28
ENDBRANCH   1  27
TORSDOF 16
