REMARK SMILES CN(CC(=O)OCCOC(=O)c1ccc(-c2c3nc(c(-c4ccccc4)c4ccc([nH]4)c(-c4ccccc4)c4nc(c(-c5ccccc5)c5ccc2[nH]5)C=C4)C=C3)cc1)c1ncc(-c2nnnn2-c2ccccc2)c(-c2ccc(Cl)cc2)n1
REMARK SMILES IDX 7 1 6 2 4 3 5 4 3 5 2 6 1 7 60 8 61 9 83 10 62 11 75 12
REMARK SMILES IDX 63 13 76 14 77 15 82 16 78 17 81 18 79 19 80 20 64 21 65 22
REMARK SMILES IDX 68 23 66 24 67 25 69 26 70 27 74 28 71 29 73 30 72 31 8 32
REMARK SMILES IDX 9 33 10 34 11 35 12 36 13 37 59 38 14 39 58 40 15 41 16 42
REMARK SMILES IDX 17 43 52 44 18 45 57 46 51 47 53 48 19 49 56 50 50 51 49 52
REMARK SMILES IDX 20 54 42 55 27 56 41 57 28 58 31 59 40 60 54 61 29 62 30 63
REMARK SMILES IDX 39 65 55 66 32 67 21 68 22 69 26 70 23 71 25 72 24 73 43 74
REMARK SMILES IDX 44 75 48 76 45 77 47 78 46 79 33 80 34 81 38 82 35 83 37 84
REMARK SMILES IDX 36 85
REMARK H PARENT 53 53 31 64
REMARK Flexibility Score: inf
ROOT
ATOM      1  C   UNL     1      -3.568   0.311   1.671  1.00  0.00     0.274 C 
ENDROOT
BRANCH   1   2
ATOM      2  O   UNL     1      -2.204   0.204   1.219  1.00  0.00    -0.461 OA
BRANCH   2   3
ATOM      3  C   UNL     1      -1.525   1.376   1.145  1.00  0.00     0.325 C 
ATOM      4  O   UNL     1      -2.043   2.483   1.294  1.00  0.00    -0.250 OA
BRANCH   3   5
ATOM      5  C   UNL     1      -0.043   1.259   0.819  1.00  0.00     0.241 C 
BRANCH   5   6
ATOM      6  N   UNL     1       0.552  -0.079   0.743  1.00  0.00    -0.333 N 
ATOM      7  C   UNL     1       1.491  -0.322  -0.335  1.00  0.00     0.147 C 
BRANCH   6   8
ATOM      8  C   UNL     1       0.891  -0.621   1.972  1.00  0.00     0.226 A 
ATOM      9  N   UNL     1      -0.088  -0.840   2.850  1.00  0.00    -0.221 NA
ATOM     10  N   UNL     1       2.176  -0.908   2.241  1.00  0.00    -0.212 NA
ATOM     11  C   UNL     1       0.233  -1.471   3.995  1.00  0.00     0.129 A 
ATOM     12  C   UNL     1       2.488  -1.480   3.434  1.00  0.00     0.087 A 
ATOM     13  C   UNL     1       1.515  -1.844   4.346  1.00  0.00     0.066 A 
BRANCH  12  14
ATOM     14  C   UNL     1       3.933  -1.659   3.654  1.00  0.00     0.001 A 
ATOM     15  C   UNL     1       4.772  -0.533   3.753  1.00  0.00     0.012 A 
ATOM     16  C   UNL     1       4.520  -2.931   3.775  1.00  0.00     0.012 A 
ATOM     17  C   UNL     1       6.144  -0.670   3.986  1.00  0.00     0.021 A 
ATOM     18  C   UNL     1       5.893  -3.071   4.007  1.00  0.00     0.021 A 
ATOM     19  C   UNL     1       6.698  -1.940   4.115  1.00  0.00     0.041 A 
ATOM     20  Cl  UNL     1       8.385  -2.114   4.403  1.00  0.00    -0.084 Cl
ENDBRANCH  12  14
BRANCH  13  21
ATOM     21  C   UNL     1       1.752  -2.553   5.593  1.00  0.00     0.190 A 
ATOM     22  N   UNL     1       2.454  -2.116   6.621  1.00  0.00    -0.108 NA
ATOM     23  N   UNL     1       1.119  -3.730   5.978  1.00  0.00    -0.193 N 
ATOM     24  N   UNL     1       2.166  -2.951   7.667  1.00  0.00    -0.023 NA
ATOM     25  N   UNL     1       1.303  -3.889   7.307  1.00  0.00    -0.040 NA
BRANCH  23  26
ATOM     26  C   UNL     1       0.355  -4.638   5.207  1.00  0.00     0.069 A 
ATOM     27  C   UNL     1      -0.721  -5.307   5.800  1.00  0.00     0.028 A 
ATOM     28  C   UNL     1       0.645  -4.845   3.850  1.00  0.00     0.028 A 
ATOM     29  C   UNL     1      -1.547  -6.117   5.016  1.00  0.00     0.002 A 
ATOM     30  C   UNL     1      -0.167  -5.678   3.082  1.00  0.00     0.002 A 
ATOM     31  C   UNL     1      -1.273  -6.298   3.659  1.00  0.00     0.000 A 
ENDBRANCH  23  26
ENDBRANCH  13  21
ENDBRANCH   6   8
ENDBRANCH   5   6
ENDBRANCH   3   5
ENDBRANCH   2   3
ENDBRANCH   1   2
BRANCH   1  32
ATOM     32  C   UNL     1      -3.649   0.232   3.196  1.00  0.00     0.275 C 
BRANCH  32  33
ATOM     33  O   UNL     1      -2.911   1.316   3.789  1.00  0.00    -0.458 OA
BRANCH  33  34
ATOM     34  C   UNL     1      -2.315   1.021   4.965  1.00  0.00     0.338 C 
ATOM     35  O   UNL     1      -2.403  -0.023   5.591  1.00  0.00    -0.246 OA
BRANCH  34  36
ATOM     36  C   UNL     1      -1.527   2.171   5.457  1.00  0.00     0.060 A 
ATOM     37  C   UNL     1      -0.684   2.908   4.619  1.00  0.00     0.016 A 
ATOM     38  C   UNL     1      -1.554   2.433   6.829  1.00  0.00     0.016 A 
ATOM     39  C   UNL     1       0.187   3.856   5.167  1.00  0.00     0.010 A 
ATOM     40  C   UNL     1      -0.719   3.410   7.368  1.00  0.00     0.010 A 
ATOM     41  C   UNL     1       0.190   4.096   6.549  1.00  0.00    -0.014 A 
BRANCH  41  42
ATOM     42  C   UNL     1       1.184   5.002   7.176  1.00  0.00     0.031 A 
ATOM     43  C   UNL     1       2.278   4.426   8.036  1.00  0.00     0.074 A 
ATOM     44  C   UNL     1       1.090   6.333   7.010  1.00  0.00     0.049 A 
ATOM     45  N   UNL     1       3.164   5.046   8.774  1.00  0.00    -0.248 NA
ATOM     46  C   UNL     1       2.381   2.958   8.076  1.00  0.00     0.031 C 
ATOM     47  C   UNL     1       0.098   7.015   6.179  1.00  0.00     0.029 A 
ATOM     48  N   UNL     1       1.841   7.350   7.542  1.00  0.00    -0.354 N 
ATOM     49  C   UNL     1       3.911   4.046   9.387  1.00  0.00     0.074 A 
ATOM     50  C   UNL     1       3.366   2.780   8.944  1.00  0.00     0.031 C 
ATOM     51  C   UNL     1       0.313   8.339   6.243  1.00  0.00     0.029 A 
ATOM     52  C   UNL     1       1.423   8.599   7.156  1.00  0.00     0.049 A 
ATOM     53  H   UNL     1       2.607   7.199   8.142  1.00  0.00     0.167 HD
ATOM     54  C   UNL     1       4.954   4.170  10.243  1.00  0.00     0.031 A 
ATOM     55  C   UNL     1       1.870   9.817   7.512  1.00  0.00     0.031 A 
ATOM     56  C   UNL     1       5.496   5.428  10.685  1.00  0.00     0.049 A 
ATOM     57  C   UNL     1       3.000   9.931   8.494  1.00  0.00     0.074 A 
ATOM     58  C   UNL     1       6.549   5.658  11.554  1.00  0.00     0.029 A 
ATOM     59  N   UNL     1       5.027   6.669  10.286  1.00  0.00    -0.354 N 
ATOM     60  N   UNL     1       3.678   8.978   9.085  1.00  0.00    -0.248 NA
ATOM     61  C   UNL     1       3.421  11.291   8.860  1.00  0.00     0.031 C 
ATOM     62  C   UNL     1       6.698   7.043  11.703  1.00  0.00     0.029 A 
ATOM     63  C   UNL     1       5.764   7.671  10.896  1.00  0.00     0.049 A 
ATOM     64  H   UNL     1       4.281   6.818   9.661  1.00  0.00     0.167 HD
ATOM     65  C   UNL     1       4.620   9.621   9.878  1.00  0.00     0.074 A 
ATOM     66  C   UNL     1       4.431  11.045   9.683  1.00  0.00     0.031 C 
ATOM     67  C   UNL     1       5.558   9.081  10.693  1.00  0.00     0.031 A 
BRANCH  54  68
ATOM     68  C   UNL     1       5.555   2.903  10.782  1.00  0.00    -0.014 A 
ATOM     69  C   UNL     1       6.368   2.086   9.982  1.00  0.00     0.009 A 
ATOM     70  C   UNL     1       5.320   2.532  12.115  1.00  0.00     0.009 A 
ATOM     71  C   UNL     1       6.908   0.905  10.498  1.00  0.00     0.001 A 
ATOM     72  C   UNL     1       5.879   1.363  12.634  1.00  0.00     0.001 A 
ATOM     73  C   UNL     1       6.666   0.547  11.824  1.00  0.00     0.000 A 
ENDBRANCH  54  68
BRANCH  55  74
ATOM     74  C   UNL     1       1.244  11.028   6.927  1.00  0.00    -0.014 A 
ATOM     75  C   UNL     1       1.921  11.768   5.946  1.00  0.00     0.009 A 
ATOM     76  C   UNL     1      -0.039  11.434   7.323  1.00  0.00     0.009 A 
ATOM     77  C   UNL     1       1.326  12.895   5.376  1.00  0.00     0.001 A 
ATOM     78  C   UNL     1      -0.640  12.549   6.736  1.00  0.00     0.001 A 
ATOM     79  C   UNL     1       0.044  13.280   5.766  1.00  0.00     0.000 A 
ENDBRANCH  55  74
BRANCH  67  80
ATOM     80  C   UNL     1       6.470  10.038  11.402  1.00  0.00    -0.014 A 
ATOM     81  C   UNL     1       6.031  10.765  12.519  1.00  0.00     0.009 A 
ATOM     82  C   UNL     1       7.788  10.204  10.952  1.00  0.00     0.009 A 
ATOM     83  C   UNL     1       6.889  11.667  13.151  1.00  0.00     0.001 A 
ATOM     84  C   UNL     1       8.649  11.092  11.598  1.00  0.00     0.001 A 
ATOM     85  C   UNL     1       8.196  11.829  12.691  1.00  0.00     0.000 A 
ENDBRANCH  67  80
ENDBRANCH  41  42
ENDBRANCH  34  36
ENDBRANCH  33  34
ENDBRANCH  32  33
ENDBRANCH   1  32
TORSDOF 16
