REMARK SMILES C[C@H]1C[N@H+]2CCCC[C@@H]2CN1c1ccc(C(=O)OCCOC(=O)c2ccc(-c3c4nc(c(-c5ccccc5)c5ccc([nH]5)c(-c5ccccc5)c5nc(c(-c6ccccc6)c6ccc3[nH]6)C=C5)C=C4)cc2)cc1Cl
REMARK SMILES IDX 20 1 19 2 18 3 16 4 17 5 15 6 12 7 13 8 73 9 14 10 72 11
REMARK SMILES IDX 74 12 11 13 1 14 2 15 3 16 4 17 10 18 5 19 9 20 6 22 8 23
REMARK SMILES IDX 7 24 21 25 22 26 23 27 24 28 25 29 71 30 26 31 70 32 27 33
REMARK SMILES IDX 28 34 29 35 64 36 30 37 69 38 63 39 65 40 31 41 68 42 62 43
REMARK SMILES IDX 61 44 32 46 54 47 39 48 53 49 40 50 43 51 52 52 66 53 41 54
REMARK SMILES IDX 42 55 51 57 67 58 44 59 33 60 34 61 38 62 35 63 37 64 36 65
REMARK SMILES IDX 55 66 56 67 60 68 57 69 59 70 58 71 45 72 46 73 50 74 47 75
REMARK SMILES IDX 49 76 48 77
REMARK H PARENT 4 21 65 45 43 56
REMARK Flexibility Score: inf
ROOT
ATOM      1  C   UNL     1      -3.450   4.584   4.861  1.00  0.00     0.275 C 
ENDROOT
BRANCH   1   2
ATOM      2  C   UNL     1      -4.179   3.253   5.039  1.00  0.00     0.275 C 
BRANCH   2   3
ATOM      3  O   UNL     1      -3.467   2.188   4.378  1.00  0.00    -0.458 OA
BRANCH   3   4
ATOM      4  C   UNL     1      -3.958   1.793   3.178  1.00  0.00     0.338 C 
ATOM      5  O   UNL     1      -4.949   2.230   2.615  1.00  0.00    -0.246 OA
BRANCH   4   6
ATOM      6  C   UNL     1      -3.042   0.812   2.546  1.00  0.00     0.061 A 
ATOM      7  C   UNL     1      -1.214  -0.910   1.248  1.00  0.00     0.056 A 
ATOM      8  C   UNL     1      -2.075  -0.091   0.509  1.00  0.00     0.028 A 
ATOM      9  C   UNL     1      -1.331  -0.883   2.658  1.00  0.00     0.065 A 
ATOM     10  C   UNL     1      -2.996   0.741   1.148  1.00  0.00     0.018 A 
ATOM     11  C   UNL     1      -2.222  -0.021   3.304  1.00  0.00     0.038 A 
ATOM     12  Cl  UNL     1      -0.347  -1.899   3.663  1.00  0.00    -0.082 Cl
BRANCH   7  13
ATOM     13  N   UNL     1      -0.306  -1.741   0.612  1.00  0.00    -0.356 N 
ATOM     14  C   UNL     1       1.222   0.106  -0.117  1.00  0.00     0.037 C 
ATOM     15  C   UNL     1       0.653  -1.286  -0.418  1.00  0.00     0.134 C 
ATOM     16  C   UNL     1       1.850  -2.293  -0.484  1.00  0.00     0.287 C 
ATOM     17  N   UNL     1       1.479  -3.730  -0.570  1.00  0.00    -0.329 N 
ATOM     18  C   UNL     1      -0.739  -3.138   0.449  1.00  0.00     0.182 C 
ATOM     19  C   UNL     1       2.685  -4.563  -0.431  1.00  0.00     0.262 C 
ATOM     20  C   UNL     1       0.502  -4.056   0.504  1.00  0.00     0.203 C 
ATOM     21  H   UNL     1       1.051  -3.918  -1.476  1.00  0.00     0.348 HD
ATOM     22  C   UNL     1       2.357  -6.057  -0.486  1.00  0.00     0.062 C 
ATOM     23  C   UNL     1       0.074  -5.525   0.399  1.00  0.00     0.067 C 
ATOM     24  C   UNL     1       1.286  -6.440   0.529  1.00  0.00     0.012 C 
ENDBRANCH   7  13
ENDBRANCH   4   6
ENDBRANCH   3   4
ENDBRANCH   2   3
ENDBRANCH   1   2
BRANCH   1  25
ATOM     25  O   UNL     1      -3.466   4.968   3.474  1.00  0.00    -0.458 OA
BRANCH  25  26
ATOM     26  C   UNL     1      -2.256   5.122   2.890  1.00  0.00     0.338 C 
ATOM     27  O   UNL     1      -1.157   5.030   3.407  1.00  0.00    -0.246 OA
BRANCH  26  28
ATOM     28  C   UNL     1      -2.440   5.407   1.459  1.00  0.00     0.060 A 
ATOM     29  C   UNL     1      -2.896   4.392   0.622  1.00  0.00     0.016 A 
ATOM     30  C   UNL     1      -2.041   6.630   0.925  1.00  0.00     0.016 A 
ATOM     31  C   UNL     1      -2.887   4.564  -0.760  1.00  0.00     0.010 A 
ATOM     32  C   UNL     1      -2.113   6.832  -0.459  1.00  0.00     0.010 A 
ATOM     33  C   UNL     1      -2.505   5.790  -1.322  1.00  0.00    -0.014 A 
BRANCH  33  34
ATOM     34  C   UNL     1      -2.470   5.971  -2.802  1.00  0.00     0.031 A 
ATOM     35  C   UNL     1      -1.180   6.338  -3.491  1.00  0.00     0.074 A 
ATOM     36  C   UNL     1      -3.583   5.799  -3.543  1.00  0.00     0.049 A 
ATOM     37  N   UNL     1      -0.980   6.708  -4.732  1.00  0.00    -0.248 NA
ATOM     38  C   UNL     1       0.044   6.293  -2.675  1.00  0.00     0.031 C 
ATOM     39  C   UNL     1      -4.893   5.391  -3.032  1.00  0.00     0.029 A 
ATOM     40  N   UNL     1      -3.786   5.940  -4.895  1.00  0.00    -0.354 N 
ATOM     41  C   UNL     1       0.376   6.999  -4.827  1.00  0.00     0.074 A 
ATOM     42  C   UNL     1       0.951   6.761  -3.520  1.00  0.00     0.031 C 
ATOM     43  C   UNL     1      -5.750   5.277  -4.058  1.00  0.00     0.029 A 
ATOM     44  C   UNL     1      -5.080   5.688  -5.286  1.00  0.00     0.049 A 
ATOM     45  H   UNL     1      -3.074   6.197  -5.523  1.00  0.00     0.167 HD
ATOM     46  C   UNL     1       1.079   7.431  -5.902  1.00  0.00     0.031 A 
ATOM     47  C   UNL     1      -5.677   5.814  -6.486  1.00  0.00     0.031 A 
ATOM     48  C   UNL     1       0.522   7.626  -7.215  1.00  0.00     0.049 A 
ATOM     49  C   UNL     1      -4.888   6.328  -7.655  1.00  0.00     0.074 A 
ATOM     50  C   UNL     1       1.160   8.052  -8.368  1.00  0.00     0.029 A 
ATOM     51  N   UNL     1      -0.801   7.392  -7.554  1.00  0.00    -0.354 N 
ATOM     52  N   UNL     1      -3.621   6.658  -7.714  1.00  0.00    -0.248 NA
ATOM     53  C   UNL     1      -5.618   6.506  -8.919  1.00  0.00     0.031 C 
ATOM     54  C   UNL     1       0.213   8.110  -9.397  1.00  0.00     0.029 A 
ATOM     55  C   UNL     1      -1.002   7.675  -8.895  1.00  0.00     0.049 A 
ATOM     56  H   UNL     1      -1.495   7.072  -6.933  1.00  0.00     0.167 HD
ATOM     57  C   UNL     1      -3.400   7.071  -9.021  1.00  0.00     0.074 A 
ATOM     58  C   UNL     1      -4.657   6.931  -9.727  1.00  0.00     0.031 C 
ATOM     59  C   UNL     1      -2.257   7.532  -9.584  1.00  0.00     0.031 A 
BRANCH  46  60
ATOM     60  C   UNL     1       2.529   7.768  -5.694  1.00  0.00    -0.014 A 
ATOM     61  C   UNL     1       3.501   6.770  -5.526  1.00  0.00     0.009 A 
ATOM     62  C   UNL     1       2.932   9.113  -5.706  1.00  0.00     0.009 A 
ATOM     63  C   UNL     1       4.842   7.115  -5.342  1.00  0.00     0.001 A 
ATOM     64  C   UNL     1       4.276   9.454  -5.549  1.00  0.00     0.001 A 
ATOM     65  C   UNL     1       5.229   8.456  -5.358  1.00  0.00     0.000 A 
ENDBRANCH  46  60
BRANCH  47  66
ATOM     66  C   UNL     1      -7.122   5.494  -6.630  1.00  0.00    -0.014 A 
ATOM     67  C   UNL     1      -7.535   4.368  -7.357  1.00  0.00     0.009 A 
ATOM     68  C   UNL     1      -8.095   6.314  -6.036  1.00  0.00     0.009 A 
ATOM     69  C   UNL     1      -8.895   4.077  -7.496  1.00  0.00     0.001 A 
ATOM     70  C   UNL     1      -9.451   6.003  -6.150  1.00  0.00     0.001 A 
ATOM     71  C   UNL     1      -9.850   4.889  -6.886  1.00  0.00     0.000 A 
ENDBRANCH  47  66
BRANCH  59  72
ATOM     72  C   UNL     1      -2.307   7.886 -11.042  1.00  0.00    -0.014 A 
ATOM     73  C   UNL     1      -2.929   9.063 -11.482  1.00  0.00     0.009 A 
ATOM     74  C   UNL     1      -1.696   7.043 -11.983  1.00  0.00     0.009 A 
ATOM     75  C   UNL     1      -2.965   9.375 -12.843  1.00  0.00     0.001 A 
ATOM     76  C   UNL     1      -1.712   7.369 -13.339  1.00  0.00     0.001 A 
ATOM     77  C   UNL     1      -2.353   8.529 -13.769  1.00  0.00     0.000 A 
ENDBRANCH  59  72
ENDBRANCH  33  34
ENDBRANCH  26  28
ENDBRANCH  25  26
ENDBRANCH   1  25
TORSDOF 12
