REMARK SMILES O=C(NC(=S)Nc1cc(C(=O)OCCOC(=O)c2ccc(-c3c4nc(c(-c5ccccc5)c5ccc([nH]5)c(-c5ccccc5)c5nc(c(-c6ccccc6)c6ccc3[nH]6)C=C5)C=C4)cc2)ccc1Br)c1ccc(F)cc1
REMARK SMILES IDX 13 1 12 2 10 3 11 4 9 5 7 6 8 7 68 8 67 9 69 10 66 11 6 12
REMARK SMILES IDX 4 14 5 15 3 16 1 17 2 18 70 20 71 21 76 22 72 23 75 24 73 25
REMARK SMILES IDX 74 26 14 27 15 28 16 29 17 30 18 31 19 32 65 33 20 34 64 35
REMARK SMILES IDX 21 36 22 37 23 38 58 39 24 40 63 41 57 42 59 43 25 44 62 45
REMARK SMILES IDX 56 46 55 47 26 49 48 50 33 51 47 52 34 53 37 54 46 55 60 56
REMARK SMILES IDX 35 57 36 58 45 60 61 61 38 62 27 63 28 64 32 65 29 66 31 67
REMARK SMILES IDX 30 68 49 69 50 70 54 71 51 72 53 73 52 74 39 75 40 76 44 77
REMARK SMILES IDX 41 78 43 79 42 80
REMARK H PARENT 6 13 3 19 59 48 37 59
REMARK Flexibility Score: inf
ROOT
ATOM      1  C   UNL     1       4.334  -4.800   5.621  1.00  0.00     0.275 C 
ENDROOT
BRANCH   1   2
ATOM      2  O   UNL     1       3.828  -4.103   4.465  1.00  0.00    -0.458 OA
BRANCH   2   3
ATOM      3  C   UNL     1       3.912  -2.752   4.439  1.00  0.00     0.338 C 
ATOM      4  O   UNL     1       4.350  -2.005   5.292  1.00  0.00    -0.246 OA
BRANCH   3   5
ATOM      5  C   UNL     1       3.595  -2.344   3.056  1.00  0.00     0.062 A 
ATOM      6  C   UNL     1       4.692  -0.829   0.554  1.00  0.00     0.055 A 
ATOM      7  C   UNL     1       4.660  -1.135   2.293  1.00  0.00     0.043 A 
ATOM      8  C   UNL     1       3.641  -1.819  -0.512  1.00  0.00     0.041 A 
ATOM      9  C   UNL     1       2.360  -3.108   0.379  1.00  0.00     0.019 A 
ATOM     10  Br  UNL     1       4.263  -1.298  -2.417  1.00  0.00    -0.049 Br
ATOM     11  C   UNL     1       2.429  -3.307   2.164  1.00  0.00     0.017 A 
BRANCH   6  12
ATOM     12  N   UNL     1       4.878   0.514   0.200  1.00  0.00    -0.331 N 
ATOM     13  H   UNL     1       5.777   0.879   0.371  1.00  0.00     0.169 HD
BRANCH  12  14
ATOM     14  C   UNL     1       3.989   1.381  -0.348  1.00  0.00     0.177 C 
ATOM     15  S   UNL     1       4.570   2.908  -0.739  1.00  0.00    -0.040 S 
BRANCH  14  16
ATOM     16  N   UNL     1       2.619   1.168  -0.533  1.00  0.00    -0.299 N 
ATOM     17  O   UNL     1       0.365   0.696  -0.760  1.00  0.00    -0.269 OA
ATOM     18  C   UNL     1       1.488   0.286  -0.481  1.00  0.00     0.257 C 
ATOM     19  H   UNL     1       2.262   2.030  -0.848  1.00  0.00     0.172 HD
BRANCH  18  20
ATOM     20  C   UNL     1       1.655  -1.144  -0.179  1.00  0.00     0.040 A 
ATOM     21  C   UNL     1       2.784  -1.443   1.156  1.00  0.00     0.017 A 
ATOM     22  C   UNL     1       1.675  -2.261  -1.550  1.00  0.00     0.017 A 
ATOM     23  C   UNL     1       4.159  -2.909   0.955  1.00  0.00     0.040 A 
ATOM     24  C   UNL     1       2.834  -3.621  -1.703  1.00  0.00     0.040 A 
ATOM     25  C   UNL     1       4.085  -3.944  -0.506  1.00  0.00     0.123 A 
ATOM     26  F   UNL     1       4.961  -4.939  -0.677  1.00  0.00    -0.207 F 
ENDBRANCH  18  20
ENDBRANCH  14  16
ENDBRANCH  12  14
ENDBRANCH   6  12
ENDBRANCH   3   5
ENDBRANCH   2   3
ENDBRANCH   1   2
BRANCH   1  27
ATOM     27  C   UNL     1       5.649  -5.514   5.295  1.00  0.00     0.275 C 
BRANCH  27  28
ATOM     28  O   UNL     1       6.710  -4.553   5.132  1.00  0.00    -0.458 OA
BRANCH  28  29
ATOM     29  C   UNL     1       7.240  -4.468   3.892  1.00  0.00     0.338 C 
ATOM     30  O   UNL     1       6.962  -5.136   2.911  1.00  0.00    -0.246 OA
BRANCH  29  31
ATOM     31  C   UNL     1       8.095  -3.275   3.804  1.00  0.00     0.060 A 
ATOM     32  C   UNL     1       7.438  -2.072   3.608  1.00  0.00     0.016 A 
ATOM     33  C   UNL     1       9.480  -3.324   3.712  1.00  0.00     0.016 A 
ATOM     34  C   UNL     1       8.121  -0.941   3.187  1.00  0.00     0.010 A 
ATOM     35  C   UNL     1      10.188  -2.142   3.429  1.00  0.00     0.010 A 
ATOM     36  C   UNL     1       9.515  -0.939   3.123  1.00  0.00    -0.014 A 
BRANCH  36  37
ATOM     37  C   UNL     1      10.239   0.297   2.695  1.00  0.00     0.031 A 
ATOM     38  C   UNL     1      11.230   0.232   1.559  1.00  0.00     0.074 A 
ATOM     39  C   UNL     1       9.992   1.493   3.276  1.00  0.00     0.049 A 
ATOM     40  N   UNL     1      12.127   1.111   1.190  1.00  0.00    -0.248 NA
ATOM     41  C   UNL     1      11.216  -0.988   0.735  1.00  0.00     0.031 C 
ATOM     42  C   UNL     1       8.989   1.756   4.314  1.00  0.00     0.029 A 
ATOM     43  N   UNL     1      10.563   2.727   3.065  1.00  0.00    -0.354 N 
ATOM     44  C   UNL     1      12.822   0.527   0.138  1.00  0.00     0.074 A 
ATOM     45  C   UNL     1      12.250  -0.785  -0.070  1.00  0.00     0.031 C 
ATOM     46  C   UNL     1       8.985   3.063   4.611  1.00  0.00     0.029 A 
ATOM     47  C   UNL     1      10.069   3.712   3.889  1.00  0.00     0.049 A 
ATOM     48  H   UNL     1      11.260   2.889   2.389  1.00  0.00     0.167 HD
ATOM     49  C   UNL     1      13.847   1.036  -0.588  1.00  0.00     0.031 A 
ATOM     50  C   UNL     1      10.481   4.977   4.101  1.00  0.00     0.031 A 
ATOM     51  C   UNL     1      14.390   2.357  -0.404  1.00  0.00     0.049 A 
ATOM     52  C   UNL     1      11.695   5.477   3.368  1.00  0.00     0.074 A 
ATOM     53  C   UNL     1      15.449   2.955  -1.066  1.00  0.00     0.029 A 
ATOM     54  N   UNL     1      13.899   3.292   0.493  1.00  0.00    -0.354 N 
ATOM     55  N   UNL     1      12.408   4.880   2.445  1.00  0.00    -0.248 NA
ATOM     56  C   UNL     1      12.173   6.821   3.724  1.00  0.00     0.031 C 
ATOM     57  C   UNL     1      15.630   4.235  -0.534  1.00  0.00     0.029 A 
ATOM     58  C   UNL     1      14.641   4.458   0.410  1.00  0.00     0.049 A 
ATOM     59  H   UNL     1      13.136   3.149   1.098  1.00  0.00     0.167 HD
ATOM     60  C   UNL     1      13.395   5.789   2.085  1.00  0.00     0.074 A 
ATOM     61  C   UNL     1      13.177   6.982   2.875  1.00  0.00     0.031 C 
ATOM     62  C   UNL     1      14.397   5.646   1.184  1.00  0.00     0.031 A 
BRANCH  49  63
ATOM     63  C   UNL     1      14.483   0.147  -1.622  1.00  0.00    -0.014 A 
ATOM     64  C   UNL     1      13.826  -0.180  -2.818  1.00  0.00     0.009 A 
ATOM     65  C   UNL     1      15.788  -0.331  -1.413  1.00  0.00     0.009 A 
ATOM     66  C   UNL     1      14.452  -0.991  -3.768  1.00  0.00     0.001 A 
ATOM     67  C   UNL     1      16.422  -1.115  -2.378  1.00  0.00     0.001 A 
ATOM     68  C   UNL     1      15.750  -1.452  -3.551  1.00  0.00     0.000 A 
ENDBRANCH  49  63
BRANCH  50  69
ATOM     69  C   UNL     1       9.812   5.840   5.117  1.00  0.00    -0.014 A 
ATOM     70  C   UNL     1       9.181   7.036   4.739  1.00  0.00     0.009 A 
ATOM     71  C   UNL     1       9.855   5.504   6.481  1.00  0.00     0.009 A 
ATOM     72  C   UNL     1       8.648   7.894   5.706  1.00  0.00     0.001 A 
ATOM     73  C   UNL     1       9.283   6.341   7.441  1.00  0.00     0.001 A 
ATOM     74  C   UNL     1       8.696   7.544   7.055  1.00  0.00     0.000 A 
ENDBRANCH  50  69
BRANCH  62  75
ATOM     75  C   UNL     1      15.284   6.836   0.949  1.00  0.00    -0.014 A 
ATOM     76  C   UNL     1      16.211   7.266   1.910  1.00  0.00     0.009 A 
ATOM     77  C   UNL     1      15.207   7.517  -0.277  1.00  0.00     0.009 A 
ATOM     78  C   UNL     1      17.017   8.378   1.663  1.00  0.00     0.001 A 
ATOM     79  C   UNL     1      16.039   8.607  -0.535  1.00  0.00     0.001 A 
ATOM     80  C   UNL     1      16.935   9.043   0.439  1.00  0.00     0.000 A 
ENDBRANCH  62  75
ENDBRANCH  36  37
ENDBRANCH  29  31
ENDBRANCH  28  29
ENDBRANCH  27  28
ENDBRANCH   1  27
TORSDOF 15
