REMARK SMILES [NH3+][C@@H](CCCCC(=O)OCCOC(=O)c1ccc(-c2c3nc(c(-c4ccccc4)c4ccc([nH]4)c(-c4ccccc4)c4nc(c(-c5ccccc5)c5ccc2[nH]5)C=C4)C=C3)cc1)c1ccc(-c2ccccc2)cc1
REMARK SMILES IDX 7 1 8 2 6 3 5 4 4 5 3 6 2 7 1 8 63 12 64 13 74 14 65 15
REMARK SMILES IDX 73 16 66 17 67 18 68 19 72 20 69 21 71 22 70 23 9 24 10 25
REMARK SMILES IDX 11 26 12 27 13 28 14 29 15 30 16 31 62 32 17 33 61 34 18 35
REMARK SMILES IDX 19 36 20 37 55 38 21 39 60 40 54 41 56 42 22 43 59 44 53 45
REMARK SMILES IDX 52 46 23 48 45 49 30 50 44 51 31 52 34 53 43 54 57 55 32 56
REMARK SMILES IDX 33 57 42 59 58 60 35 61 24 62 25 63 29 64 26 65 28 66 27 67
REMARK SMILES IDX 46 68 47 69 51 70 48 71 50 72 49 73 36 74 37 75 41 76 38 77
REMARK SMILES IDX 40 78 39 79
REMARK H PARENT 1 9 1 10 1 11 56 47 34 58
REMARK Flexibility Score: inf
ROOT
ATOM      1  C   UNL     1      -0.524   5.328   1.024  1.00  0.00     0.305 C 
ATOM      2  O   UNL     1      -1.203   6.110   1.680  1.00  0.00    -0.252 OA
ENDROOT
BRANCH   1   3
ATOM      3  C   UNL     1      -0.753   3.839   1.079  1.00  0.00     0.123 C 
BRANCH   3   4
ATOM      4  C   UNL     1      -0.333   3.025  -0.144  1.00  0.00     0.012 C 
BRANCH   4   5
ATOM      5  C   UNL     1       1.062   2.399  -0.042  1.00  0.00     0.007 C 
BRANCH   5   6
ATOM      6  C   UNL     1       1.330   1.462   1.155  1.00  0.00     0.070 C 
BRANCH   6   7
ATOM      7  C   UNL     1       0.638   0.070   1.181  1.00  0.00     0.211 C 
BRANCH   7   8
ATOM      8  N   UNL     1       1.095  -0.715   0.026  1.00  0.00    -0.351 N 
ATOM      9  H   UNL     1       2.114  -0.685  -0.024  1.00  0.00     0.345 HD
ATOM     10  H   UNL     1       0.701  -0.322  -0.829  1.00  0.00     0.345 HD
ATOM     11  H   UNL     1       0.788  -1.682   0.129  1.00  0.00     0.345 HD
ENDBRANCH   7   8
BRANCH   7  12
ATOM     12  C   UNL     1      -0.879   0.081   1.333  1.00  0.00     0.009 A 
ATOM     13  C   UNL     1      -1.497   0.862   2.323  1.00  0.00     0.010 A 
ATOM     14  C   UNL     1      -1.714  -0.701   0.519  1.00  0.00     0.010 A 
ATOM     15  C   UNL     1      -2.892   0.971   2.398  1.00  0.00     0.009 A 
ATOM     16  C   UNL     1      -3.108  -0.606   0.603  1.00  0.00     0.009 A 
ATOM     17  C   UNL     1      -3.715   0.265   1.514  1.00  0.00    -0.018 A 
BRANCH  17  18
ATOM     18  C   UNL     1      -5.167   0.459   1.506  1.00  0.00    -0.018 A 
ATOM     19  C   UNL     1      -5.770   1.222   0.492  1.00  0.00     0.009 A 
ATOM     20  C   UNL     1      -5.985  -0.103   2.496  1.00  0.00     0.009 A 
ATOM     21  C   UNL     1      -7.152   1.422   0.468  1.00  0.00     0.001 A 
ATOM     22  C   UNL     1      -7.369   0.091   2.470  1.00  0.00     0.001 A 
ATOM     23  C   UNL     1      -7.951   0.854   1.458  1.00  0.00     0.000 A 
ENDBRANCH  17  18
ENDBRANCH   7  12
ENDBRANCH   6   7
ENDBRANCH   5   6
ENDBRANCH   4   5
ENDBRANCH   3   4
ENDBRANCH   1   3
BRANCH   1  24
ATOM     24  O   UNL     1       0.522   5.681   0.237  1.00  0.00    -0.462 OA
BRANCH  24  25
ATOM     25  C   UNL     1       0.780   7.094   0.147  1.00  0.00     0.274 C 
BRANCH  25  26
ATOM     26  C   UNL     1       0.109   7.718  -1.079  1.00  0.00     0.275 C 
BRANCH  26  27
ATOM     27  O   UNL     1      -1.328   7.652  -1.002  1.00  0.00    -0.458 OA
BRANCH  27  28
ATOM     28  C   UNL     1      -1.895   6.623  -1.671  1.00  0.00     0.338 C 
ATOM     29  O   UNL     1      -1.334   5.774  -2.347  1.00  0.00    -0.246 OA
BRANCH  28  30
ATOM     30  C   UNL     1      -3.340   6.593  -1.410  1.00  0.00     0.060 A 
ATOM     31  C   UNL     1      -3.847   5.597  -0.571  1.00  0.00     0.016 A 
ATOM     32  C   UNL     1      -4.202   7.463  -2.077  1.00  0.00     0.016 A 
ATOM     33  C   UNL     1      -5.222   5.458  -0.399  1.00  0.00     0.010 A 
ATOM     34  C   UNL     1      -5.582   7.330  -1.896  1.00  0.00     0.010 A 
ATOM     35  C   UNL     1      -6.102   6.318  -1.067  1.00  0.00    -0.014 A 
BRANCH  35  36
ATOM     36  C   UNL     1      -7.568   6.130  -0.944  1.00  0.00     0.031 A 
ATOM     37  C   UNL     1      -8.357   5.616  -2.115  1.00  0.00     0.074 A 
ATOM     38  C   UNL     1      -8.193   6.418   0.212  1.00  0.00     0.049 A 
ATOM     39  N   UNL     1      -9.654   5.521  -2.259  1.00  0.00    -0.248 NA
ATOM     40  C   UNL     1      -7.583   5.151  -3.277  1.00  0.00     0.031 C 
ATOM     41  C   UNL     1      -7.540   6.866   1.442  1.00  0.00     0.029 A 
ATOM     42  N   UNL     1      -9.527   6.380   0.534  1.00  0.00    -0.354 N 
ATOM     43  C   UNL     1      -9.855   5.027  -3.542  1.00  0.00     0.074 A 
ATOM     44  C   UNL     1      -8.547   4.837  -4.132  1.00  0.00     0.031 C 
ATOM     45  C   UNL     1      -8.474   7.055   2.388  1.00  0.00     0.029 A 
ATOM     46  C   UNL     1      -9.791   6.798   1.815  1.00  0.00     0.049 A 
ATOM     47  H   UNL     1     -10.226   6.081  -0.092  1.00  0.00     0.167 HD
ATOM     48  C   UNL     1     -11.024   4.765  -4.172  1.00  0.00     0.031 A 
ATOM     49  C   UNL     1     -10.965   6.989   2.445  1.00  0.00     0.031 A 
ATOM     50  C   UNL     1     -12.324   4.935  -3.581  1.00  0.00     0.049 A 
ATOM     51  C   UNL     1     -12.250   6.740   1.707  1.00  0.00     0.074 A 
ATOM     52  C   UNL     1     -13.566   4.686  -4.140  1.00  0.00     0.029 A 
ATOM     53  N   UNL     1     -12.549   5.394  -2.293  1.00  0.00    -0.354 N 
ATOM     54  N   UNL     1     -12.428   6.306   0.483  1.00  0.00    -0.248 NA
ATOM     55  C   UNL     1     -13.495   7.020   2.436  1.00  0.00     0.031 C 
ATOM     56  C   UNL     1     -14.545   5.026  -3.199  1.00  0.00     0.029 A 
ATOM     57  C   UNL     1     -13.910   5.449  -2.043  1.00  0.00     0.049 A 
ATOM     58  H   UNL     1     -11.846   5.643  -1.651  1.00  0.00     0.167 HD
ATOM     59  C   UNL     1     -13.803   6.250   0.299  1.00  0.00     0.074 A 
ATOM     60  C   UNL     1     -14.412   6.677   1.541  1.00  0.00     0.031 C 
ATOM     61  C   UNL     1     -14.498   5.878  -0.803  1.00  0.00     0.031 A 
BRANCH  48  62
ATOM     62  C   UNL     1     -10.949   4.305  -5.599  1.00  0.00    -0.014 A 
ATOM     63  C   UNL     1     -10.569   2.995  -5.927  1.00  0.00     0.009 A 
ATOM     64  C   UNL     1     -11.296   5.193  -6.630  1.00  0.00     0.009 A 
ATOM     65  C   UNL     1     -10.512   2.592  -7.264  1.00  0.00     0.001 A 
ATOM     66  C   UNL     1     -11.258   4.781  -7.963  1.00  0.00     0.001 A 
ATOM     67  C   UNL     1     -10.859   3.483  -8.279  1.00  0.00     0.000 A 
ENDBRANCH  48  62
BRANCH  49  68
ATOM     68  C   UNL     1     -10.983   7.484   3.845  1.00  0.00    -0.014 A 
ATOM     69  C   UNL     1     -11.351   6.632   4.896  1.00  0.00     0.009 A 
ATOM     70  C   UNL     1     -10.634   8.812   4.134  1.00  0.00     0.009 A 
ATOM     71  C   UNL     1     -11.385   7.107   6.209  1.00  0.00     0.001 A 
ATOM     72  C   UNL     1     -10.646   9.277   5.450  1.00  0.00     0.001 A 
ATOM     73  C   UNL     1     -11.028   8.427   6.485  1.00  0.00     0.000 A 
ENDBRANCH  49  68
BRANCH  61  74
ATOM     74  C   UNL     1     -15.995   5.892  -0.700  1.00  0.00    -0.014 A 
ATOM     75  C   UNL     1     -16.713   7.097  -0.753  1.00  0.00     0.009 A 
ATOM     76  C   UNL     1     -16.696   4.683  -0.580  1.00  0.00     0.009 A 
ATOM     77  C   UNL     1     -18.106   7.090  -0.659  1.00  0.00     0.001 A 
ATOM     78  C   UNL     1     -18.089   4.678  -0.507  1.00  0.00     0.001 A 
ATOM     79  C   UNL     1     -18.792   5.881  -0.539  1.00  0.00     0.000 A 
ENDBRANCH  61  74
ENDBRANCH  35  36
ENDBRANCH  28  30
ENDBRANCH  27  28
ENDBRANCH  26  27
ENDBRANCH  25  26
ENDBRANCH  24  25
ENDBRANCH   1  24
TORSDOF 18
