REMARK SMILES CC(C)(C)c1ccc(OCC(=O)N/N=C/c2ccc(C(=O)OCCOC(=O)c3ccc(-c4c5nc(c(-c6ccccc6)c6ccc([nH]6)c(-c6ccccc6)c6nc(c(-c7ccccc7)c7ccc4[nH]7)C=C6)C=C5)cc3)cc2)cc1
REMARK SMILES IDX 20 1 21 2 19 3 16 4 17 5 77 6 18 7 76 8 15 9 14 10 13 11
REMARK SMILES IDX 11 12 12 13 10 15 9 16 8 17 5 18 6 19 79 20 7 21 78 22 2 23
REMARK SMILES IDX 1 24 3 25 4 26 22 27 23 28 24 29 25 30 26 31 27 32 28 33
REMARK SMILES IDX 29 34 75 35 30 36 74 37 31 38 32 39 33 40 68 41 34 42 73 43
REMARK SMILES IDX 67 44 69 45 35 46 72 47 66 48 65 49 36 51 58 52 43 53 57 54
REMARK SMILES IDX 44 55 47 56 56 57 70 58 45 59 46 60 55 62 71 63 48 64 37 65
REMARK SMILES IDX 38 66 42 67 39 68 41 69 40 70 59 71 60 72 64 73 61 74 63 75
REMARK SMILES IDX 62 76 49 77 50 78 54 79 51 80 53 81 52 82
REMARK H PARENT 13 14 69 50 47 61
REMARK Flexibility Score: inf
ROOT
ATOM      1  C   UNL     1       8.226   7.099  -5.987  1.00  0.00     0.338 C 
ATOM      2  O   UNL     1       8.871   6.083  -5.792  1.00  0.00    -0.246 OA
ENDROOT
BRANCH   1   3
ATOM      3  C   UNL     1       6.795   7.221  -5.620  1.00  0.00     0.060 A 
ATOM      4  C   UNL     1       4.144   7.421  -4.807  1.00  0.00    -0.005 A 
ATOM      5  C   UNL     1       5.031   6.657  -4.054  1.00  0.00     0.010 A 
ATOM      6  C   UNL     1       4.553   8.067  -5.977  1.00  0.00     0.010 A 
ATOM      7  C   UNL     1       6.346   6.526  -4.488  1.00  0.00     0.016 A 
ATOM      8  C   UNL     1       5.894   7.985  -6.373  1.00  0.00     0.016 A 
BRANCH   4   9
ATOM      9  C   UNL     1       2.774   7.547  -4.302  1.00  0.00     0.141 C 
ATOM     10  N   UNL     1       1.774   7.119  -4.990  1.00  0.00    -0.181 NA
BRANCH  10  11
ATOM     11  N   UNL     1       0.509   7.149  -4.482  1.00  0.00    -0.244 N 
ATOM     12  C   UNL     1      -0.004   7.055  -3.213  1.00  0.00     0.277 C 
ATOM     13  O   UNL     1      -1.235   7.095  -3.084  1.00  0.00    -0.269 OA
ATOM     14  H   UNL     1      -0.183   7.263  -5.173  1.00  0.00     0.193 HD
BRANCH  12  15
ATOM     15  C   UNL     1       0.874   6.925  -1.966  1.00  0.00     0.331 C 
BRANCH  15  16
ATOM     16  O   UNL     1       1.845   5.893  -1.960  1.00  0.00    -0.484 OA
BRANCH  16  17
ATOM     17  C   UNL     1       1.401   4.611  -1.784  1.00  0.00     0.120 A 
ATOM     18  C   UNL     1       0.735   1.858  -1.495  1.00  0.00    -0.042 A 
ATOM     19  C   UNL     1       2.061   2.274  -1.712  1.00  0.00     0.008 A 
ATOM     20  C   UNL     1      -0.238   2.864  -1.396  1.00  0.00     0.008 A 
ATOM     21  C   UNL     1       2.386   3.628  -1.858  1.00  0.00     0.047 A 
ATOM     22  C   UNL     1       0.088   4.220  -1.540  1.00  0.00     0.047 A 
BRANCH  18  23
ATOM     23  C   UNL     1       0.394   0.364  -1.357  1.00  0.00    -0.013 C 
ATOM     24  C   UNL     1       0.981  -0.167  -0.035  1.00  0.00     0.016 C 
ATOM     25  C   UNL     1       0.989  -0.437  -2.537  1.00  0.00     0.016 C 
ATOM     26  C   UNL     1      -1.126   0.076  -1.346  1.00  0.00     0.016 C 
ENDBRANCH  18  23
ENDBRANCH  16  17
ENDBRANCH  15  16
ENDBRANCH  12  15
ENDBRANCH  10  11
ENDBRANCH   4   9
ENDBRANCH   1   3
BRANCH   1  27
ATOM     27  O   UNL     1       8.697   8.288  -6.439  1.00  0.00    -0.458 OA
BRANCH  27  28
ATOM     28  C   UNL     1      10.116   8.340  -6.699  1.00  0.00     0.275 C 
BRANCH  28  29
ATOM     29  C   UNL     1      10.868   8.959  -5.522  1.00  0.00     0.275 C 
BRANCH  29  30
ATOM     30  O   UNL     1      10.785   8.091  -4.377  1.00  0.00    -0.458 OA
BRANCH  30  31
ATOM     31  C   UNL     1      10.386   8.672  -3.223  1.00  0.00     0.338 C 
ATOM     32  O   UNL     1      10.129   9.847  -3.030  1.00  0.00    -0.246 OA
BRANCH  31  33
ATOM     33  C   UNL     1      10.284   7.654  -2.162  1.00  0.00     0.060 A 
ATOM     34  C   UNL     1       9.403   6.587  -2.314  1.00  0.00     0.016 A 
ATOM     35  C   UNL     1      10.959   7.832  -0.956  1.00  0.00     0.016 A 
ATOM     36  C   UNL     1       9.112   5.755  -1.234  1.00  0.00     0.010 A 
ATOM     37  C   UNL     1      10.743   6.934   0.097  1.00  0.00     0.010 A 
ATOM     38  C   UNL     1       9.783   5.911  -0.011  1.00  0.00    -0.014 A 
BRANCH  38  39
ATOM     39  C   UNL     1       9.449   5.051   1.163  1.00  0.00     0.031 A 
ATOM     40  C   UNL     1       9.000   5.679   2.461  1.00  0.00     0.074 A 
ATOM     41  C   UNL     1       9.528   3.707   1.087  1.00  0.00     0.049 A 
ATOM     42  N   UNL     1       8.850   5.128   3.641  1.00  0.00    -0.248 NA
ATOM     43  C   UNL     1       8.694   7.118   2.432  1.00  0.00     0.031 C 
ATOM     44  C   UNL     1       9.896   2.939  -0.104  1.00  0.00     0.029 A 
ATOM     45  N   UNL     1       9.292   2.743   2.039  1.00  0.00    -0.354 N 
ATOM     46  C   UNL     1       8.504   6.162   4.503  1.00  0.00     0.074 A 
ATOM     47  C   UNL     1       8.458   7.372   3.712  1.00  0.00     0.031 C 
ATOM     48  C   UNL     1       9.813   1.629   0.173  1.00  0.00     0.029 A 
ATOM     49  C   UNL     1       9.476   1.461   1.582  1.00  0.00     0.049 A 
ATOM     50  H   UNL     1       9.017   2.953   2.961  1.00  0.00     0.167 HD
ATOM     51  C   UNL     1       8.254   6.112   5.834  1.00  0.00     0.031 A 
ATOM     52  C   UNL     1       9.422   0.279   2.225  1.00  0.00     0.031 A 
ATOM     53  C   UNL     1       8.237   4.907   6.619  1.00  0.00     0.049 A 
ATOM     54  C   UNL     1       9.155   0.247   3.702  1.00  0.00     0.074 A 
ATOM     55  C   UNL     1       7.984   4.762   7.973  1.00  0.00     0.029 A 
ATOM     56  N   UNL     1       8.457   3.636   6.115  1.00  0.00    -0.354 N 
ATOM     57  N   UNL     1       8.908   1.243   4.516  1.00  0.00    -0.248 NA
ATOM     58  C   UNL     1       9.182  -1.072   4.351  1.00  0.00     0.031 C 
ATOM     59  C   UNL     1       8.079   3.403   8.294  1.00  0.00     0.029 A 
ATOM     60  C   UNL     1       8.352   2.701   7.132  1.00  0.00     0.049 A 
ATOM     61  H   UNL     1       8.658   3.427   5.174  1.00  0.00     0.167 HD
ATOM     62  C   UNL     1       8.750   0.672   5.772  1.00  0.00     0.074 A 
ATOM     63  C   UNL     1       8.903  -0.758   5.609  1.00  0.00     0.031 C 
ATOM     64  C   UNL     1       8.509   1.282   6.957  1.00  0.00     0.031 A 
BRANCH  51  65
ATOM     65  C   UNL     1       8.018   7.416   6.543  1.00  0.00    -0.014 A 
ATOM     66  C   UNL     1       6.805   8.110   6.423  1.00  0.00     0.009 A 
ATOM     67  C   UNL     1       9.020   7.936   7.378  1.00  0.00     0.009 A 
ATOM     68  C   UNL     1       6.613   9.315   7.104  1.00  0.00     0.001 A 
ATOM     69  C   UNL     1       8.816   9.127   8.075  1.00  0.00     0.001 A 
ATOM     70  C   UNL     1       7.616   9.820   7.932  1.00  0.00     0.000 A 
ENDBRANCH  51  65
BRANCH  52  71
ATOM     71  C   UNL     1       9.680  -0.980   1.479  1.00  0.00    -0.014 A 
ATOM     72  C   UNL     1       8.636  -1.877   1.211  1.00  0.00     0.009 A 
ATOM     73  C   UNL     1      10.973  -1.286   1.025  1.00  0.00     0.009 A 
ATOM     74  C   UNL     1       8.884  -3.060   0.512  1.00  0.00     0.001 A 
ATOM     75  C   UNL     1      11.212  -2.455   0.302  1.00  0.00     0.001 A 
ATOM     76  C   UNL     1      10.169  -3.344   0.052  1.00  0.00     0.000 A 
ENDBRANCH  52  71
BRANCH  64  77
ATOM     77  C   UNL     1       8.375   0.401   8.163  1.00  0.00    -0.014 A 
ATOM     78  C   UNL     1       9.505  -0.162   8.776  1.00  0.00     0.009 A 
ATOM     79  C   UNL     1       7.106   0.153   8.709  1.00  0.00     0.009 A 
ATOM     80  C   UNL     1       9.363  -0.981   9.898  1.00  0.00     0.001 A 
ATOM     81  C   UNL     1       6.969  -0.650   9.842  1.00  0.00     0.001 A 
ATOM     82  C   UNL     1       8.096  -1.222  10.431  1.00  0.00     0.000 A 
ENDBRANCH  64  77
ENDBRANCH  38  39
ENDBRANCH  31  33
ENDBRANCH  30  31
ENDBRANCH  29  30
ENDBRANCH  28  29
ENDBRANCH  27  28
ENDBRANCH   1  27
TORSDOF 17
