REMARK SMILES Cc1cc(=O)c(Oc2ccc(C(=O)OCCOC(=O)c3ccc(-c4c5nc(c(-c6ccccc6)c6ccc([nH]6)c(-c6ccccc6)c6nc(c(-c7ccccc7)c7ccc4[nH]7)C=C6)C=C5)cc3)cc2)c(-c2ccc(S(C)(=O)=O)cc2)o1
REMARK SMILES IDX 15 1 14 2 12 3 13 4 11 5 8 6 9 7 69 8 10 9 68 10 7 11 6 12
REMARK SMILES IDX 1 13 2 14 3 15 81 16 4 17 70 18 5 19 71 20 72 21 80 22 73 23
REMARK SMILES IDX 79 24 74 25 75 26 76 27 77 28 78 29 16 30 17 31 18 32 19 33
REMARK SMILES IDX 20 34 21 35 67 36 22 37 66 38 23 39 24 40 25 41 60 42 26 43
REMARK SMILES IDX 65 44 59 45 61 46 27 47 64 48 58 49 57 50 28 52 50 53 35 54
REMARK SMILES IDX 49 55 36 56 39 57 48 58 62 59 37 60 38 61 47 63 63 64 40 65
REMARK SMILES IDX 29 66 30 67 34 68 31 69 33 70 32 71 51 72 52 73 56 74 53 75
REMARK SMILES IDX 55 76 54 77 41 78 42 79 46 80 43 81 45 82 44 83
REMARK H PARENT 61 51 39 62
REMARK Flexibility Score: inf
ROOT
ATOM      1  C   UNL     1      -7.023  -7.306  -5.292  1.00  0.00     0.275 C 
ENDROOT
BRANCH   1   2
ATOM      2  O   UNL     1      -5.923  -7.361  -4.362  1.00  0.00    -0.458 OA
BRANCH   2   3
ATOM      3  C   UNL     1      -4.674  -7.410  -4.894  1.00  0.00     0.338 C 
ATOM      4  O   UNL     1      -4.398  -7.573  -6.073  1.00  0.00    -0.246 OA
BRANCH   3   5
ATOM      5  C   UNL     1      -3.661  -7.048  -3.862  1.00  0.00     0.060 A 
ATOM      6  C   UNL     1      -1.869  -5.955  -2.016  1.00  0.00     0.127 A 
ATOM      7  C   UNL     1      -1.557  -5.918  -3.372  1.00  0.00     0.048 A 
ATOM      8  C   UNL     1      -3.009  -6.633  -1.574  1.00  0.00     0.048 A 
ATOM      9  C   UNL     1      -2.447  -6.486  -4.291  1.00  0.00     0.019 A 
ATOM     10  C   UNL     1      -3.921  -7.155  -2.493  1.00  0.00     0.019 A 
BRANCH   6  11
ATOM     11  O   UNL     1      -1.057  -5.446  -1.041  1.00  0.00    -0.449 OA
BRANCH  11  12
ATOM     12  C   UNL     1      -0.579  -4.146  -1.067  1.00  0.00     0.217 A 
ATOM     13  C   UNL     1       0.894  -0.173  -0.255  1.00  0.00     0.088 C 
ATOM     14  C   UNL     1       0.529  -1.594  -0.544  1.00  0.00     0.105 A 
ATOM     15  C   UNL     1       1.252  -2.637  -0.130  1.00  0.00     0.098 A 
ATOM     16  O   UNL     1      -0.623  -1.743  -1.282  1.00  0.00    -0.457 OA
ATOM     17  C   UNL     1       0.769  -3.994  -0.429  1.00  0.00     0.228 A 
ATOM     18  C   UNL     1      -1.201  -3.002  -1.446  1.00  0.00     0.180 A 
ATOM     19  O   UNL     1       1.462  -4.959  -0.119  1.00  0.00    -0.285 OA
BRANCH  18  20
ATOM     20  C   UNL     1      -2.565  -2.838  -1.995  1.00  0.00     0.021 A 
ATOM     21  C   UNL     1      -2.751  -2.050  -3.146  1.00  0.00     0.013 A 
ATOM     22  C   UNL     1      -3.696  -3.283  -1.301  1.00  0.00     0.013 A 
ATOM     23  C   UNL     1      -4.033  -1.689  -3.578  1.00  0.00     0.021 A 
ATOM     24  C   UNL     1      -4.982  -2.942  -1.738  1.00  0.00     0.021 A 
ATOM     25  C   UNL     1      -5.148  -2.128  -2.863  1.00  0.00     0.067 A 
BRANCH  25  26
ATOM     26  S   UNL     1      -6.790  -1.594  -3.302  1.00  0.00     0.175 S 
ATOM     27  C   UNL     1      -6.626   0.100  -3.789  1.00  0.00     0.163 C 
ATOM     28  O   UNL     1      -7.226  -2.328  -4.473  1.00  0.00    -0.224 OA
ATOM     29  O   UNL     1      -7.584  -1.600  -2.086  1.00  0.00    -0.224 OA
ENDBRANCH  25  26
ENDBRANCH  18  20
ENDBRANCH  11  12
ENDBRANCH   6  11
ENDBRANCH   3   5
ENDBRANCH   2   3
ENDBRANCH   1   2
BRANCH   1  30
ATOM     30  C   UNL     1      -7.551  -5.875  -5.478  1.00  0.00     0.275 C 
BRANCH  30  31
ATOM     31  O   UNL     1      -6.710  -5.054  -6.315  1.00  0.00    -0.458 OA
BRANCH  31  32
ATOM     32  C   UNL     1      -5.699  -4.451  -5.649  1.00  0.00     0.338 C 
ATOM     33  O   UNL     1      -5.378  -4.637  -4.487  1.00  0.00    -0.246 OA
BRANCH  32  34
ATOM     34  C   UNL     1      -4.934  -3.530  -6.507  1.00  0.00     0.060 A 
ATOM     35  C   UNL     1      -5.540  -2.498  -7.229  1.00  0.00     0.016 A 
ATOM     36  C   UNL     1      -3.542  -3.625  -6.452  1.00  0.00     0.016 A 
ATOM     37  C   UNL     1      -4.742  -1.581  -7.926  1.00  0.00     0.010 A 
ATOM     38  C   UNL     1      -2.747  -2.713  -7.134  1.00  0.00     0.010 A 
ATOM     39  C   UNL     1      -3.344  -1.704  -7.900  1.00  0.00    -0.014 A 
BRANCH  39  40
ATOM     40  C   UNL     1      -2.472  -0.926  -8.808  1.00  0.00     0.031 A 
ATOM     41  C   UNL     1      -1.951  -1.623 -10.034  1.00  0.00     0.074 A 
ATOM     42  C   UNL     1      -2.087   0.328  -8.513  1.00  0.00     0.049 A 
ATOM     43  N   UNL     1      -1.086  -1.207 -10.921  1.00  0.00    -0.248 NA
ATOM     44  C   UNL     1      -2.451  -2.989 -10.272  1.00  0.00     0.031 C 
ATOM     45  C   UNL     1      -2.516   1.095  -7.345  1.00  0.00     0.029 A 
ATOM     46  N   UNL     1      -1.235   1.174  -9.178  1.00  0.00    -0.354 N 
ATOM     47  C   UNL     1      -0.928  -2.265 -11.807  1.00  0.00     0.074 A 
ATOM     48  C   UNL     1      -1.743  -3.357 -11.327  1.00  0.00     0.031 C 
ATOM     49  C   UNL     1      -1.938   2.309  -7.386  1.00  0.00     0.029 A 
ATOM     50  C   UNL     1      -1.078   2.394  -8.565  1.00  0.00     0.049 A 
ATOM     51  H   UNL     1      -0.778   0.930 -10.015  1.00  0.00     0.167 HD
ATOM     52  C   UNL     1      -0.187  -2.316 -12.937  1.00  0.00     0.031 A 
ATOM     53  C   UNL     1      -0.327   3.455  -8.924  1.00  0.00     0.031 A 
ATOM     54  C   UNL     1       0.610  -1.223 -13.415  1.00  0.00     0.049 A 
ATOM     55  C   UNL     1       0.497   3.378 -10.184  1.00  0.00     0.074 A 
ATOM     56  C   UNL     1       1.380  -1.156 -14.560  1.00  0.00     0.029 A 
ATOM     57  N   UNL     1       0.725   0.001 -12.773  1.00  0.00    -0.354 N 
ATOM     58  N   UNL     1       0.609   2.387 -11.036  1.00  0.00    -0.248 NA
ATOM     59  C   UNL     1       1.290   4.565 -10.541  1.00  0.00     0.031 C 
ATOM     60  C   UNL     1       1.992   0.099 -14.594  1.00  0.00     0.029 A 
ATOM     61  C   UNL     1       1.559   0.830 -13.498  1.00  0.00     0.049 A 
ATOM     62  H   UNL     1       0.280   0.242 -11.929  1.00  0.00     0.167 HD
ATOM     63  C   UNL     1       1.458   2.838 -12.040  1.00  0.00     0.074 A 
ATOM     64  C   UNL     1       1.828   4.195 -11.697  1.00  0.00     0.031 C 
ATOM     65  C   UNL     1       1.892   2.186 -13.146  1.00  0.00     0.031 A 
BRANCH  52  66
ATOM     66  C   UNL     1      -0.215  -3.591 -13.729  1.00  0.00    -0.014 A 
ATOM     67  C   UNL     1       0.932  -4.396 -13.808  1.00  0.00     0.009 A 
ATOM     68  C   UNL     1      -1.370  -3.982 -14.425  1.00  0.00     0.009 A 
ATOM     69  C   UNL     1       0.921  -5.569 -14.564  1.00  0.00     0.001 A 
ATOM     70  C   UNL     1      -1.387  -5.172 -15.155  1.00  0.00     0.001 A 
ATOM     71  C   UNL     1      -0.240  -5.961 -15.229  1.00  0.00     0.000 A 
ENDBRANCH  52  66
BRANCH  53  72
ATOM     72  C   UNL     1      -0.362   4.698  -8.107  1.00  0.00    -0.014 A 
ATOM     73  C   UNL     1       0.224   4.744  -6.832  1.00  0.00     0.009 A 
ATOM     74  C   UNL     1      -1.010   5.845  -8.593  1.00  0.00     0.009 A 
ATOM     75  C   UNL     1       0.149   5.904  -6.056  1.00  0.00     0.001 A 
ATOM     76  C   UNL     1      -1.061   7.012  -7.826  1.00  0.00     0.001 A 
ATOM     77  C   UNL     1      -0.489   7.039  -6.556  1.00  0.00     0.000 A 
ENDBRANCH  53  72
BRANCH  65  78
ATOM     78  C   UNL     1       2.790   2.919 -14.100  1.00  0.00    -0.014 A 
ATOM     79  C   UNL     1       2.300   3.285 -15.365  1.00  0.00     0.009 A 
ATOM     80  C   UNL     1       4.152   3.092 -13.818  1.00  0.00     0.009 A 
ATOM     81  C   UNL     1       3.164   3.783 -16.340  1.00  0.00     0.001 A 
ATOM     82  C   UNL     1       5.009   3.614 -14.789  1.00  0.00     0.001 A 
ATOM     83  C   UNL     1       4.518   3.945 -16.052  1.00  0.00     0.000 A 
ENDBRANCH  65  78
ENDBRANCH  39  40
ENDBRANCH  32  34
ENDBRANCH  31  32
ENDBRANCH  30  31
ENDBRANCH   1  30
TORSDOF 15
