REMARK SMILES Cc1cc(C[N@H+]2CCN(C)C(=O)C2(C)C)oc1C(=O)OCCOC(=O)c1ccc(-c2c3nc(c(-c4ccccc4)c4ccc([nH]4)c(-c4ccccc4)c4nc(c(-c5ccccc5)c5ccc2[nH]5)C=C4)C=C3)cc1
REMARK SMILES IDX 21 1 20 2 18 3 19 4 17 5 1 6 2 7 3 8 4 9 16 10 5 11 6 12
REMARK SMILES IDX 7 13 13 14 8 16 11 17 14 18 15 19 9 20 12 21 10 22 22 23
REMARK SMILES IDX 23 24 24 25 25 26 26 27 27 28 73 29 28 30 72 31 29 32 30 33
REMARK SMILES IDX 31 34 66 35 32 36 71 37 65 38 67 39 33 40 70 41 64 42 63 43
REMARK SMILES IDX 34 45 56 46 41 47 55 48 42 49 45 50 54 51 68 52 43 53 44 54
REMARK SMILES IDX 53 56 69 57 46 58 35 59 36 60 40 61 37 62 39 63 38 64 57 65
REMARK SMILES IDX 58 66 62 67 59 68 61 69 60 70 47 71 48 72 52 73 49 74 51 75
REMARK SMILES IDX 50 76
REMARK H PARENT 6 15 67 44 45 55
REMARK Flexibility Score: inf
ROOT
ATOM      1  C   UNL     1      -1.754  -4.281   0.035  1.00  0.00     0.275 C 
ENDROOT
BRANCH   1   2
ATOM      2  O   UNL     1      -1.643  -2.851   0.162  1.00  0.00    -0.456 OA
BRANCH   2   3
ATOM      3  C   UNL     1      -0.491  -2.389   0.738  1.00  0.00     0.374 C 
ATOM      4  O   UNL     1       0.393  -3.106   1.171  1.00  0.00    -0.242 OA
BRANCH   3   5
ATOM      5  C   UNL     1      -0.445  -0.940   0.680  1.00  0.00     0.215 A 
ATOM      6  C   UNL     1      -2.878  -0.032   0.570  1.00  0.00     0.049 C 
ATOM      7  C   UNL     1      -1.399   0.065   0.612  1.00  0.00     0.003 A 
ATOM      8  C   UNL     1      -0.672   1.290   0.584  1.00  0.00     0.056 A 
ATOM      9  C   UNL     1       0.665   0.975   0.503  1.00  0.00     0.159 A 
ATOM     10  O   UNL     1       0.806  -0.372   0.650  1.00  0.00    -0.448 OA
BRANCH   9  11
ATOM     11  C   UNL     1       1.926   1.758   0.324  1.00  0.00     0.339 C 
BRANCH  11  12
ATOM     12  N   UNL     1       2.142   2.432  -0.973  1.00  0.00    -0.315 N 
ATOM     13  C   UNL     1       2.404   1.507  -2.082  1.00  0.00     0.285 C 
ATOM     14  C   UNL     1       1.185   3.506  -1.367  1.00  0.00     0.172 C 
ATOM     15  H   UNL     1       2.998   2.949  -0.774  1.00  0.00     0.349 HD
ATOM     16  C   UNL     1       1.150   0.909  -2.724  1.00  0.00     0.180 C 
ATOM     17  C   UNL     1      -0.124   2.935  -1.998  1.00  0.00     0.283 C 
ATOM     18  C   UNL     1       0.871   4.457  -0.192  1.00  0.00     0.090 C 
ATOM     19  C   UNL     1       1.811   4.399  -2.469  1.00  0.00     0.090 C 
ATOM     20  N   UNL     1       0.000   1.805  -2.805  1.00  0.00    -0.335 N 
ATOM     21  O   UNL     1      -1.200   3.525  -1.867  1.00  0.00    -0.268 OA
ATOM     22  C   UNL     1      -1.152   1.302  -3.530  1.00  0.00     0.147 C 
ENDBRANCH  11  12
ENDBRANCH   9  11
ENDBRANCH   3   5
ENDBRANCH   2   3
ENDBRANCH   1   2
BRANCH   1  23
ATOM     23  C   UNL     1      -1.271  -4.772  -1.335  1.00  0.00     0.275 C 
BRANCH  23  24
ATOM     24  O   UNL     1       0.164  -4.731  -1.444  1.00  0.00    -0.458 OA
BRANCH  24  25
ATOM     25  C   UNL     1       0.675  -3.608  -1.999  1.00  0.00     0.338 C 
ATOM     26  O   UNL     1       0.051  -2.668  -2.466  1.00  0.00    -0.246 OA
BRANCH  25  27
ATOM     27  C   UNL     1       2.140  -3.590  -1.832  1.00  0.00     0.060 A 
ATOM     28  C   UNL     1       2.702  -2.466  -1.222  1.00  0.00     0.016 A 
ATOM     29  C   UNL     1       2.958  -4.620  -2.298  1.00  0.00     0.016 A 
ATOM     30  C   UNL     1       4.079  -2.359  -1.069  1.00  0.00     0.010 A 
ATOM     31  C   UNL     1       4.346  -4.511  -2.153  1.00  0.00     0.010 A 
ATOM     32  C   UNL     1       4.914  -3.376  -1.544  1.00  0.00    -0.014 A 
BRANCH  32  33
ATOM     33  C   UNL     1       6.380  -3.206  -1.446  1.00  0.00     0.031 A 
ATOM     34  C   UNL     1       7.161  -2.783  -2.657  1.00  0.00     0.074 A 
ATOM     35  C   UNL     1       7.001  -3.371  -0.265  1.00  0.00     0.049 A 
ATOM     36  N   UNL     1       8.450  -2.592  -2.783  1.00  0.00    -0.248 NA
ATOM     37  C   UNL     1       6.389  -2.536  -3.885  1.00  0.00     0.031 C 
ATOM     38  C   UNL     1       6.341  -3.717   0.995  1.00  0.00     0.029 A 
ATOM     39  N   UNL     1       8.325  -3.258   0.068  1.00  0.00    -0.354 N 
ATOM     40  C   UNL     1       8.646  -2.218  -4.106  1.00  0.00     0.074 A 
ATOM     41  C   UNL     1       7.347  -2.220  -4.745  1.00  0.00     0.031 C 
ATOM     42  C   UNL     1       7.266  -3.778   1.968  1.00  0.00     0.029 A 
ATOM     43  C   UNL     1       8.582  -3.515   1.393  1.00  0.00     0.049 A 
ATOM     44  H   UNL     1       9.026  -3.015  -0.580  1.00  0.00     0.167 HD
ATOM     45  C   UNL     1       9.805  -1.903  -4.731  1.00  0.00     0.031 A 
ATOM     46  C   UNL     1       9.750  -3.553   2.061  1.00  0.00     0.031 A 
ATOM     47  C   UNL     1      11.096  -1.904  -4.098  1.00  0.00     0.049 A 
ATOM     48  C   UNL     1      11.030  -3.271   1.325  1.00  0.00     0.074 A 
ATOM     49  C   UNL     1      12.328  -1.600  -4.651  1.00  0.00     0.029 A 
ATOM     50  N   UNL     1      11.322  -2.228  -2.770  1.00  0.00    -0.354 N 
ATOM     51  N   UNL     1      11.203  -2.927   0.072  1.00  0.00    -0.248 NA
ATOM     52  C   UNL     1      12.276  -3.387   2.096  1.00  0.00     0.031 C 
ATOM     53  C   UNL     1      13.306  -1.781  -3.666  1.00  0.00     0.029 A 
ATOM     54  C   UNL     1      12.675  -2.154  -2.490  1.00  0.00     0.049 A 
ATOM     55  H   UNL     1      10.623  -2.474  -2.122  1.00  0.00     0.167 HD
ATOM     56  C   UNL     1      12.573  -2.768  -0.091  1.00  0.00     0.074 A 
ATOM     57  C   UNL     1      13.184  -3.039   1.195  1.00  0.00     0.031 C 
ATOM     58  C   UNL     1      13.264  -2.430  -1.206  1.00  0.00     0.031 A 
BRANCH  45  59
ATOM     59  C   UNL     1       9.726  -1.571  -6.192  1.00  0.00    -0.014 A 
ATOM     60  C   UNL     1       9.229  -0.336  -6.634  1.00  0.00     0.009 A 
ATOM     61  C   UNL     1      10.181  -2.502  -7.139  1.00  0.00     0.009 A 
ATOM     62  C   UNL     1       9.162  -0.051  -8.000  1.00  0.00     0.001 A 
ATOM     63  C   UNL     1      10.132  -2.206  -8.502  1.00  0.00     0.001 A 
ATOM     64  C   UNL     1       9.616  -0.985  -8.932  1.00  0.00     0.000 A 
ENDBRANCH  45  59
BRANCH  46  65
ATOM     65  C   UNL     1       9.770  -3.900   3.505  1.00  0.00    -0.014 A 
ATOM     66  C   UNL     1      10.075  -2.929   4.470  1.00  0.00     0.009 A 
ATOM     67  C   UNL     1       9.495  -5.212   3.923  1.00  0.00     0.009 A 
ATOM     68  C   UNL     1      10.124  -3.271   5.824  1.00  0.00     0.001 A 
ATOM     69  C   UNL     1       9.521  -5.544   5.278  1.00  0.00     0.001 A 
ATOM     70  C   UNL     1       9.843  -4.576   6.227  1.00  0.00     0.000 A 
ENDBRANCH  46  65
BRANCH  58  71
ATOM     71  C   UNL     1      14.755  -2.311  -1.076  1.00  0.00    -0.014 A 
ATOM     72  C   UNL     1      15.569  -3.451  -0.994  1.00  0.00     0.009 A 
ATOM     73  C   UNL     1      15.354  -1.042  -1.072  1.00  0.00     0.009 A 
ATOM     74  C   UNL     1      16.954  -3.320  -0.883  1.00  0.00     0.001 A 
ATOM     75  C   UNL     1      16.741  -0.915  -0.984  1.00  0.00     0.001 A 
ATOM     76  C   UNL     1      17.539  -2.054  -0.881  1.00  0.00     0.000 A 
ENDBRANCH  58  71
ENDBRANCH  32  33
ENDBRANCH  25  27
ENDBRANCH  24  25
ENDBRANCH  23  24
ENDBRANCH   1  23
TORSDOF 13
