REMARK SMILES O=C(OCCOC(=O)[C@H]1[C@@H]2CC[C@@H](C2)[C@@H]1C(=O)Nc1ccc([N+](=O)[O-])cc1)c1ccc(-c2c3nc(c(-c4ccccc4)c4ccc([nH]4)c(-c4ccccc4)c4nc(c(-c5ccccc5)c5ccc2[nH]5)C=C4)C=C3)cc1
REMARK SMILES IDX 5 1 4 2 3 3 2 4 1 5 28 6 29 7 75 8 30 9 74 10 31 11 32 12
REMARK SMILES IDX 33 13 68 14 34 15 73 16 67 17 69 18 35 19 72 20 66 21 65 22
REMARK SMILES IDX 36 24 58 25 43 26 57 27 44 28 47 29 56 30 70 31 45 32 46 33
REMARK SMILES IDX 55 35 71 36 48 37 37 38 38 39 42 40 39 41 41 42 40 43 59 44
REMARK SMILES IDX 60 45 64 46 61 47 63 48 62 49 49 50 50 51 54 52 51 53 53 54
REMARK SMILES IDX 52 55 6 56 7 57 8 58 9 59 10 60 15 61 11 62 14 63 13 64
REMARK SMILES IDX 12 65 16 66 17 67 18 68 19 70 20 71 27 72 21 73 26 74 22 75
REMARK SMILES IDX 23 76 24 77 25 78
REMARK H PARENT 69 23 47 34 18 69
REMARK Flexibility Score: inf
ROOT
ATOM      1  C   UNL     1       4.214  -1.866  -0.948  1.00  0.00     0.274 C 
ENDROOT
BRANCH   1   2
ATOM      2  C   UNL     1       4.581  -1.259   0.412  1.00  0.00     0.275 C 
BRANCH   2   3
ATOM      3  O   UNL     1       3.634  -0.309   0.914  1.00  0.00    -0.458 OA
BRANCH   3   4
ATOM      4  C   UNL     1       3.890   1.006   1.106  1.00  0.00     0.338 C 
ATOM      5  O   UNL     1       3.405   1.615   2.054  1.00  0.00    -0.246 OA
BRANCH   4   6
ATOM      6  C   UNL     1       4.492   1.788  -0.008  1.00  0.00     0.060 A 
ATOM      7  C   UNL     1       5.719   1.516  -0.627  1.00  0.00     0.016 A 
ATOM      8  C   UNL     1       3.772   2.915  -0.416  1.00  0.00     0.016 A 
ATOM      9  C   UNL     1       6.186   2.305  -1.690  1.00  0.00     0.010 A 
ATOM     10  C   UNL     1       4.211   3.675  -1.500  1.00  0.00     0.010 A 
ATOM     11  C   UNL     1       5.434   3.388  -2.140  1.00  0.00    -0.014 A 
BRANCH  11  12
ATOM     12  C   UNL     1       5.937   4.372  -3.133  1.00  0.00     0.031 A 
ATOM     13  C   UNL     1       6.169   5.767  -2.634  1.00  0.00     0.074 A 
ATOM     14  C   UNL     1       6.056   4.110  -4.451  1.00  0.00     0.049 A 
ATOM     15  N   UNL     1       6.394   6.860  -3.311  1.00  0.00    -0.248 NA
ATOM     16  C   UNL     1       6.150   5.948  -1.170  1.00  0.00     0.031 C 
ATOM     17  C   UNL     1       5.967   2.803  -5.093  1.00  0.00     0.029 A 
ATOM     18  N   UNL     1       6.140   4.982  -5.512  1.00  0.00    -0.354 N 
ATOM     19  C   UNL     1       6.617   7.833  -2.352  1.00  0.00     0.074 A 
ATOM     20  C   UNL     1       6.319   7.253  -1.063  1.00  0.00     0.031 C 
ATOM     21  C   UNL     1       5.747   2.971  -6.410  1.00  0.00     0.029 A 
ATOM     22  C   UNL     1       5.791   4.396  -6.710  1.00  0.00     0.049 A 
ATOM     23  H   UNL     1       6.420   5.922  -5.425  1.00  0.00     0.167 HD
ATOM     24  C   UNL     1       7.146   9.065  -2.517  1.00  0.00     0.031 A 
ATOM     25  C   UNL     1       5.516   4.955  -7.903  1.00  0.00     0.031 A 
ATOM     26  C   UNL     1       7.425   9.637  -3.798  1.00  0.00     0.049 A 
ATOM     27  C   UNL     1       5.836   6.409  -8.091  1.00  0.00     0.074 A 
ATOM     28  C   UNL     1       8.034  10.836  -4.109  1.00  0.00     0.029 A 
ATOM     29  N   UNL     1       7.078   9.033  -4.998  1.00  0.00    -0.354 N 
ATOM     30  N   UNL     1       6.215   7.285  -7.193  1.00  0.00    -0.248 NA
ATOM     31  C   UNL     1       5.808   6.925  -9.467  1.00  0.00     0.031 C 
ATOM     32  C   UNL     1       8.019  10.975  -5.503  1.00  0.00     0.029 A 
ATOM     33  C   UNL     1       7.431   9.846  -6.055  1.00  0.00     0.049 A 
ATOM     34  H   UNL     1       6.644   8.153  -5.082  1.00  0.00     0.167 HD
ATOM     35  C   UNL     1       6.599   8.412  -7.906  1.00  0.00     0.074 A 
ATOM     36  C   UNL     1       6.326   8.136  -9.303  1.00  0.00     0.031 C 
ATOM     37  C   UNL     1       7.189   9.539  -7.443  1.00  0.00     0.031 A 
BRANCH  24  38
ATOM     38  C   UNL     1       7.495   9.784  -1.250  1.00  0.00    -0.014 A 
ATOM     39  C   UNL     1       8.540   9.299  -0.438  1.00  0.00     0.009 A 
ATOM     40  C   UNL     1       6.699  10.835  -0.784  1.00  0.00     0.009 A 
ATOM     41  C   UNL     1       8.723   9.796   0.851  1.00  0.00     0.001 A 
ATOM     42  C   UNL     1       6.905  11.351   0.497  1.00  0.00     0.001 A 
ATOM     43  C   UNL     1       7.899  10.817   1.320  1.00  0.00     0.000 A 
ENDBRANCH  24  38
BRANCH  25  44
ATOM     44  C   UNL     1       4.994   4.135  -9.026  1.00  0.00    -0.014 A 
ATOM     45  C   UNL     1       5.853   3.635 -10.015  1.00  0.00     0.009 A 
ATOM     46  C   UNL     1       3.619   3.864  -9.124  1.00  0.00     0.009 A 
ATOM     47  C   UNL     1       5.345   2.905 -11.093  1.00  0.00     0.001 A 
ATOM     48  C   UNL     1       3.115   3.125 -10.199  1.00  0.00     0.001 A 
ATOM     49  C   UNL     1       3.977   2.652 -11.186  1.00  0.00     0.000 A 
ENDBRANCH  25  44
BRANCH  37  50
ATOM     50  C   UNL     1       7.705  10.516  -8.453  1.00  0.00    -0.014 A 
ATOM     51  C   UNL     1       6.854  11.401  -9.126  1.00  0.00     0.009 A 
ATOM     52  C   UNL     1       9.093  10.608  -8.652  1.00  0.00     0.009 A 
ATOM     53  C   UNL     1       7.388  12.364  -9.984  1.00  0.00     0.001 A 
ATOM     54  C   UNL     1       9.624  11.586  -9.490  1.00  0.00     0.001 A 
ATOM     55  C   UNL     1       8.770  12.464 -10.156  1.00  0.00     0.000 A 
ENDBRANCH  37  50
ENDBRANCH  11  12
ENDBRANCH   4   6
ENDBRANCH   3   4
ENDBRANCH   2   3
ENDBRANCH   1   2
BRANCH   1  56
ATOM     56  O   UNL     1       3.638  -0.978  -1.925  1.00  0.00    -0.462 OA
BRANCH  56  57
ATOM     57  C   UNL     1       2.285  -0.817  -1.835  1.00  0.00     0.310 C 
ATOM     58  O   UNL     1       1.627  -1.212  -0.892  1.00  0.00    -0.252 OA
BRANCH  57  59
ATOM     59  C   UNL     1       1.659  -0.039  -2.999  1.00  0.00     0.115 C 
ATOM     60  C   UNL     1       2.251   1.368  -3.011  1.00  0.00     0.004 C 
ATOM     61  C   UNL     1       1.931  -0.548  -4.434  1.00  0.00     0.096 C 
ATOM     62  C   UNL     1       1.364   2.328  -3.807  1.00  0.00     0.005 C 
ATOM     63  C   UNL     1       3.439   1.221  -3.945  1.00  0.00     0.009 C 
ATOM     64  C   UNL     1       2.598   0.699  -5.097  1.00  0.00     0.003 C 
ATOM     65  C   UNL     1       1.634   1.901  -5.253  1.00  0.00     0.005 C 
BRANCH  61  66
ATOM     66  C   UNL     1       0.712  -1.001  -5.249  1.00  0.00     0.228 C 
ATOM     67  O   UNL     1       0.514  -0.614  -6.403  1.00  0.00    -0.274 OA
ATOM     68  N   UNL     1      -0.174  -1.905  -4.734  1.00  0.00    -0.326 N 
ATOM     69  H   UNL     1      -1.066  -1.939  -5.149  1.00  0.00     0.169 HD
BRANCH  68  70
ATOM     70  C   UNL     1       0.062  -2.780  -3.679  1.00  0.00     0.041 A 
ATOM     71  C   UNL     1       0.905  -3.877  -3.865  1.00  0.00     0.033 A 
ATOM     72  C   UNL     1      -0.548  -2.539  -2.448  1.00  0.00     0.033 A 
ATOM     73  C   UNL     1       1.222  -4.691  -2.779  1.00  0.00     0.088 A 
ATOM     74  C   UNL     1      -0.213  -3.331  -1.348  1.00  0.00     0.088 A 
ATOM     75  C   UNL     1       0.695  -4.381  -1.518  1.00  0.00     0.269 A 
BRANCH  75  76
ATOM     76  N   UNL     1       1.165  -5.122  -0.353  1.00  0.00     0.062 N 
ATOM     77  O   UNL     1       1.430  -6.322  -0.514  1.00  0.00    -0.258 OA
ATOM     78  O   UNL     1       1.305  -4.499   0.708  1.00  0.00    -0.258 OA
ENDBRANCH  75  76
ENDBRANCH  68  70
ENDBRANCH  61  66
ENDBRANCH  57  59
ENDBRANCH  56  57
ENDBRANCH   1  56
TORSDOF 14
