REMARK SMILES Cc1cc(NC(=O)c2ccc(Br)cc2N)ccc1C(=O)OCCOC(=O)c1ccc(-c2c3nc(c(-c4ccccc4)c4ccc([nH]4)c(-c4ccccc4)c4nc(c(-c5ccccc5)c5ccc2[nH]5)C=C4)C=C3)cc1
REMARK SMILES IDX 22 1 21 2 19 3 20 4 18 5 1 6 2 7 3 8 4 9 17 10 16 11 5 12
REMARK SMILES IDX 6 13 7 15 8 16 9 17 14 18 10 19 13 20 11 21 12 22 15 23
REMARK SMILES IDX 23 26 24 27 25 28 26 29 27 30 28 31 74 32 29 33 73 34 30 35
REMARK SMILES IDX 31 36 32 37 67 38 33 39 72 40 66 41 68 42 34 43 71 44 65 45
REMARK SMILES IDX 64 46 35 48 57 49 42 50 56 51 43 52 46 53 55 54 69 55 44 56
REMARK SMILES IDX 45 57 54 59 70 60 47 61 36 62 37 63 41 64 38 65 40 66 39 67
REMARK SMILES IDX 58 68 59 69 63 70 60 71 62 72 61 73 48 74 49 75 53 76 50 77
REMARK SMILES IDX 52 78 51 79
REMARK H PARENT 5 14 15 24 15 25 68 47 46 58
REMARK Flexibility Score: inf
ROOT
ATOM      1  C   UNL     1       3.212   2.885  -2.141  1.00  0.00     0.275 C 
ENDROOT
BRANCH   1   2
ATOM      2  O   UNL     1       2.107   1.972  -2.190  1.00  0.00    -0.458 OA
BRANCH   2   3
ATOM      3  C   UNL     1       2.010   1.228  -1.062  1.00  0.00     0.338 C 
ATOM      4  O   UNL     1       2.701   1.341  -0.061  1.00  0.00    -0.246 OA
BRANCH   3   5
ATOM      5  C   UNL     1       1.064   0.111  -1.179  1.00  0.00     0.063 A 
ATOM      6  C   UNL     1       3.025  -1.497  -0.794  1.00  0.00     0.045 C 
ATOM      7  C   UNL     1       1.565  -1.178  -0.962  1.00  0.00    -0.035 A 
ATOM      8  C   UNL     1       0.657  -2.226  -0.809  1.00  0.00     0.030 A 
ATOM      9  C   UNL     1      -0.717  -1.996  -0.755  1.00  0.00     0.041 A 
ATOM     10  C   UNL     1      -0.316   0.329  -1.297  1.00  0.00     0.018 A 
ATOM     11  C   UNL     1      -1.209  -0.730  -1.076  1.00  0.00     0.027 A 
BRANCH   9  12
ATOM     12  N   UNL     1      -1.613  -3.002  -0.348  1.00  0.00    -0.322 N 
ATOM     13  C   UNL     1      -1.363  -4.126   0.425  1.00  0.00     0.257 C 
ATOM     14  H   UNL     1      -2.543  -2.893  -0.653  1.00  0.00     0.170 HD
ATOM     15  O   UNL     1      -2.157  -5.065   0.422  1.00  0.00    -0.269 OA
BRANCH  13  16
ATOM     16  C   UNL     1      -0.164  -4.200   1.311  1.00  0.00     0.063 A 
ATOM     17  C   UNL     1       0.652  -5.337   1.176  1.00  0.00     0.017 A 
ATOM     18  C   UNL     1       0.181  -3.177   2.223  1.00  0.00     0.045 A 
ATOM     19  C   UNL     1       1.829  -5.452   1.918  1.00  0.00     0.016 A 
ATOM     20  C   UNL     1       1.351  -3.329   2.982  1.00  0.00     0.042 A 
ATOM     21  C   UNL     1       2.174  -4.445   2.814  1.00  0.00     0.020 A 
ATOM     22  Br  UNL     1       3.769  -4.586   3.822  1.00  0.00    -0.051 Br
BRANCH  18  23
ATOM     23  N   UNL     1      -0.639  -2.085   2.497  1.00  0.00    -0.398 N 
ATOM     24  H   UNL     1      -1.467  -1.950   1.982  1.00  0.00     0.156 HD
ATOM     25  H   UNL     1      -0.390  -1.448   3.205  1.00  0.00     0.156 HD
ENDBRANCH  18  23
ENDBRANCH  13  16
ENDBRANCH   9  12
ENDBRANCH   3   5
ENDBRANCH   2   3
ENDBRANCH   1   2
BRANCH   1  26
ATOM     26  C   UNL     1       2.946   4.214  -2.854  1.00  0.00     0.275 C 
BRANCH  26  27
ATOM     27  O   UNL     1       1.591   4.746  -2.912  1.00  0.00    -0.458 OA
BRANCH  27  28
ATOM     28  C   UNL     1       0.565   4.577  -2.047  1.00  0.00     0.338 C 
ATOM     29  O   UNL     1      -0.608   4.601  -2.414  1.00  0.00    -0.246 OA
BRANCH  28  30
ATOM     30  C   UNL     1       0.888   4.347  -0.635  1.00  0.00     0.060 A 
ATOM     31  C   UNL     1       0.043   3.530   0.137  1.00  0.00     0.016 A 
ATOM     32  C   UNL     1       2.064   4.870  -0.110  1.00  0.00     0.016 A 
ATOM     33  C   UNL     1       0.427   3.149   1.413  1.00  0.00     0.010 A 
ATOM     34  C   UNL     1       2.525   4.373   1.079  1.00  0.00     0.010 A 
ATOM     35  C   UNL     1       1.678   3.569   1.858  1.00  0.00    -0.014 A 
BRANCH  35  36
ATOM     36  C   UNL     1       2.046   3.580   3.259  1.00  0.00     0.031 A 
ATOM     37  C   UNL     1       2.632   2.396   3.895  1.00  0.00     0.074 A 
ATOM     38  C   UNL     1       1.885   4.824   3.767  1.00  0.00     0.049 A 
ATOM     39  N   UNL     1       2.528   2.123   5.147  1.00  0.00    -0.248 NA
ATOM     40  C   UNL     1       3.335   1.345   3.156  1.00  0.00     0.031 C 
ATOM     41  C   UNL     1       2.353   5.471   4.973  1.00  0.00     0.029 A 
ATOM     42  N   UNL     1       1.037   5.783   3.198  1.00  0.00    -0.354 N 
ATOM     43  C   UNL     1       3.470   1.147   5.415  1.00  0.00     0.074 A 
ATOM     44  C   UNL     1       3.779   0.554   4.142  1.00  0.00     0.031 C 
ATOM     45  C   UNL     1       1.577   6.555   5.201  1.00  0.00     0.029 A 
ATOM     46  C   UNL     1       0.500   6.557   4.208  1.00  0.00     0.049 A 
ATOM     47  H   UNL     1       0.854   5.888   2.236  1.00  0.00     0.167 HD
ATOM     48  C   UNL     1       4.071   1.141   6.639  1.00  0.00     0.031 A 
ATOM     49  C   UNL     1      -0.830   6.370   4.467  1.00  0.00     0.031 A 
ATOM     50  C   UNL     1       3.526   2.230   7.448  1.00  0.00     0.049 A 
ATOM     51  C   UNL     1      -0.976   5.653   5.788  1.00  0.00     0.074 A 
ATOM     52  C   UNL     1       3.982   3.522   7.655  1.00  0.00     0.029 A 
ATOM     53  N   UNL     1       2.179   2.221   7.783  1.00  0.00    -0.354 N 
ATOM     54  N   UNL     1      -0.159   4.729   6.226  1.00  0.00    -0.248 NA
ATOM     55  C   UNL     1      -1.986   6.038   6.764  1.00  0.00     0.031 C 
ATOM     56  C   UNL     1       2.860   4.318   8.012  1.00  0.00     0.029 A 
ATOM     57  C   UNL     1       1.735   3.509   8.018  1.00  0.00     0.049 A 
ATOM     58  H   UNL     1       1.620   1.413   7.844  1.00  0.00     0.167 HD
ATOM     59  C   UNL     1      -0.426   4.504   7.550  1.00  0.00     0.074 A 
ATOM     60  C   UNL     1      -1.605   5.310   7.827  1.00  0.00     0.031 C 
ATOM     61  C   UNL     1       0.347   3.742   8.378  1.00  0.00     0.031 A 
BRANCH  48  62
ATOM     62  C   UNL     1       5.359   0.431   6.993  1.00  0.00    -0.014 A 
ATOM     63  C   UNL     1       6.096   0.882   8.109  1.00  0.00     0.009 A 
ATOM     64  C   UNL     1       5.923  -0.644   6.285  1.00  0.00     0.009 A 
ATOM     65  C   UNL     1       7.338   0.340   8.462  1.00  0.00     0.001 A 
ATOM     66  C   UNL     1       7.175  -1.185   6.625  1.00  0.00     0.001 A 
ATOM     67  C   UNL     1       7.886  -0.689   7.710  1.00  0.00     0.000 A 
ENDBRANCH  48  62
BRANCH  49  68
ATOM     68  C   UNL     1      -1.691   6.151   3.247  1.00  0.00    -0.014 A 
ATOM     69  C   UNL     1      -1.620   7.097   2.194  1.00  0.00     0.009 A 
ATOM     70  C   UNL     1      -2.374   4.954   2.984  1.00  0.00     0.009 A 
ATOM     71  C   UNL     1      -2.106   6.817   0.910  1.00  0.00     0.001 A 
ATOM     72  C   UNL     1      -2.891   4.687   1.700  1.00  0.00     0.001 A 
ATOM     73  C   UNL     1      -2.729   5.602   0.659  1.00  0.00     0.000 A 
ENDBRANCH  49  68
BRANCH  61  74
ATOM     74  C   UNL     1      -0.127   3.187   9.693  1.00  0.00    -0.014 A 
ATOM     75  C   UNL     1      -1.479   2.997   9.999  1.00  0.00     0.009 A 
ATOM     76  C   UNL     1       0.818   2.653  10.598  1.00  0.00     0.009 A 
ATOM     77  C   UNL     1      -1.870   2.363  11.180  1.00  0.00     0.001 A 
ATOM     78  C   UNL     1       0.431   1.958  11.741  1.00  0.00     0.001 A 
ATOM     79  C   UNL     1      -0.916   1.831  12.042  1.00  0.00     0.000 A 
ENDBRANCH  61  74
ENDBRANCH  35  36
ENDBRANCH  28  30
ENDBRANCH  27  28
ENDBRANCH  26  27
ENDBRANCH   1  26
TORSDOF 14
