REMARK SMILES O=C(OCCOC(=O)C1(CCc2ccc3c(c2)CCO3)CCCCCC1)c1ccc(-c2c3nc(c(-c4ccccc4)c4ccc([nH]4)c(-c4ccccc4)c4nc(c(-c5ccccc5)c5ccc2[nH]5)C=C4)C=C3)cc1
REMARK SMILES IDX 5 1 4 2 3 3 2 4 1 5 27 6 28 7 74 8 29 9 73 10 30 11 31 12
REMARK SMILES IDX 32 13 67 14 33 15 72 16 66 17 68 18 34 19 71 20 65 21 64 22
REMARK SMILES IDX 35 24 57 25 42 26 56 27 43 28 46 29 55 30 69 31 44 32 45 33
REMARK SMILES IDX 54 35 70 36 47 37 36 38 37 39 41 40 38 41 40 42 39 43 58 44
REMARK SMILES IDX 59 45 63 46 60 47 62 48 61 49 48 50 49 51 53 52 50 53 52 54
REMARK SMILES IDX 51 55 6 56 7 57 8 58 9 59 10 60 11 61 12 62 13 63 17 64
REMARK SMILES IDX 14 65 16 66 15 67 18 68 20 69 19 70 21 71 22 72 23 73 26 75
REMARK SMILES IDX 25 76 24 77
REMARK H PARENT 68 23 46 34
REMARK Flexibility Score: 100.00
ROOT
ATOM      1  C   UNL     1       4.011  -0.071   1.949  1.00  0.00     0.274 C 
ENDROOT
BRANCH   1   2
ATOM      2  C   UNL     1       4.719   0.917   1.023  1.00  0.00     0.275 C 
BRANCH   2   3
ATOM      3  O   UNL     1       3.992   1.281  -0.165  1.00  0.00    -0.458 OA
BRANCH   3   4
ATOM      4  C   UNL     1       4.068   0.692  -1.383  1.00  0.00     0.338 C 
ATOM      5  O   UNL     1       3.558   1.219  -2.369  1.00  0.00    -0.246 OA
BRANCH   4   6
ATOM      6  C   UNL     1       4.644  -0.667  -1.540  1.00  0.00     0.060 A 
ATOM      7  C   UNL     1       5.942  -1.018  -1.159  1.00  0.00     0.016 A 
ATOM      8  C   UNL     1       3.851  -1.617  -2.196  1.00  0.00     0.016 A 
ATOM      9  C   UNL     1       6.399  -2.331  -1.330  1.00  0.00     0.010 A 
ATOM     10  C   UNL     1       4.293  -2.931  -2.351  1.00  0.00     0.010 A 
ATOM     11  C   UNL     1       5.577  -3.297  -1.922  1.00  0.00    -0.014 A 
BRANCH  11  12
ATOM     12  C   UNL     1       6.096  -4.648  -2.238  1.00  0.00     0.031 A 
ATOM     13  C   UNL     1       6.508  -4.952  -3.644  1.00  0.00     0.074 A 
ATOM     14  C   UNL     1       6.198  -5.609  -1.302  1.00  0.00     0.049 A 
ATOM     15  N   UNL     1       7.075  -6.035  -4.106  1.00  0.00    -0.248 NA
ATOM     16  C   UNL     1       6.306  -3.894  -4.647  1.00  0.00     0.031 C 
ATOM     17  C   UNL     1       5.911  -5.442   0.115  1.00  0.00     0.029 A 
ATOM     18  N   UNL     1       6.525  -6.937  -1.415  1.00  0.00    -0.354 N 
ATOM     19  C   UNL     1       7.403  -5.743  -5.418  1.00  0.00     0.074 A 
ATOM     20  C   UNL     1       6.851  -4.442  -5.722  1.00  0.00     0.031 C 
ATOM     21  C   UNL     1       5.935  -6.646   0.715  1.00  0.00     0.029 A 
ATOM     22  C   UNL     1       6.287  -7.656  -0.268  1.00  0.00     0.049 A 
ATOM     23  H   UNL     1       6.893  -7.336  -2.237  1.00  0.00     0.167 HD
ATOM     24  C   UNL     1       8.178  -6.461  -6.261  1.00  0.00     0.031 A 
ATOM     25  C   UNL     1       6.343  -8.979  -0.036  1.00  0.00     0.031 A 
ATOM     26  C   UNL     1       8.677  -7.775  -5.973  1.00  0.00     0.049 A 
ATOM     27  C   UNL     1       6.946  -9.859  -1.088  1.00  0.00     0.074 A 
ATOM     28  C   UNL     1       9.520  -8.569  -6.728  1.00  0.00     0.029 A 
ATOM     29  N   UNL     1       8.338  -8.505  -4.844  1.00  0.00    -0.354 N 
ATOM     30  N   UNL     1       7.403  -9.523  -2.269  1.00  0.00    -0.248 NA
ATOM     31  C   UNL     1       7.127 -11.276  -0.748  1.00  0.00     0.031 C 
ATOM     32  C   UNL     1       9.648  -9.804  -6.078  1.00  0.00     0.029 A 
ATOM     33  C   UNL     1       8.912  -9.762  -4.904  1.00  0.00     0.049 A 
ATOM     34  H   UNL     1       7.772  -8.177  -4.109  1.00  0.00     0.167 HD
ATOM     35  C   UNL     1       8.018 -10.659  -2.771  1.00  0.00     0.074 A 
ATOM     36  C   UNL     1       7.826 -11.708  -1.789  1.00  0.00     0.031 C 
ATOM     37  C   UNL     1       8.724 -10.796  -3.919  1.00  0.00     0.031 A 
BRANCH  24  38
ATOM     38  C   UNL     1       8.558  -5.784  -7.540  1.00  0.00    -0.014 A 
ATOM     39  C   UNL     1       9.504  -4.743  -7.527  1.00  0.00     0.009 A 
ATOM     40  C   UNL     1       7.951  -6.143  -8.749  1.00  0.00     0.009 A 
ATOM     41  C   UNL     1       9.806  -4.048  -8.697  1.00  0.00     0.001 A 
ATOM     42  C   UNL     1       8.269  -5.455  -9.922  1.00  0.00     0.001 A 
ATOM     43  C   UNL     1       9.186  -4.404  -9.893  1.00  0.00     0.000 A 
ENDBRANCH  24  38
BRANCH  25  44
ATOM     44  C   UNL     1       5.854  -9.547   1.246  1.00  0.00    -0.014 A 
ATOM     45  C   UNL     1       6.744  -9.968   2.244  1.00  0.00     0.009 A 
ATOM     46  C   UNL     1       4.474  -9.707   1.455  1.00  0.00     0.009 A 
ATOM     47  C   UNL     1       6.264 -10.569   3.412  1.00  0.00     0.001 A 
ATOM     48  C   UNL     1       3.997 -10.295   2.629  1.00  0.00     0.001 A 
ATOM     49  C   UNL     1       4.892 -10.734   3.602  1.00  0.00     0.000 A 
ENDBRANCH  25  44
BRANCH  37  50
ATOM     50  C   UNL     1       9.413 -12.108  -4.135  1.00  0.00    -0.014 A 
ATOM     51  C   UNL     1       8.703 -13.255  -4.516  1.00  0.00     0.009 A 
ATOM     52  C   UNL     1      10.806 -12.184  -3.976  1.00  0.00     0.009 A 
ATOM     53  C   UNL     1       9.375 -14.463  -4.709  1.00  0.00     0.001 A 
ATOM     54  C   UNL     1      11.477 -13.386  -4.195  1.00  0.00     0.001 A 
ATOM     55  C   UNL     1      10.760 -14.525  -4.555  1.00  0.00     0.000 A 
ENDBRANCH  37  50
ENDBRANCH  11  12
ENDBRANCH   4   6
ENDBRANCH   3   4
ENDBRANCH   2   3
ENDBRANCH   1   2
BRANCH   1  56
ATOM     56  O   UNL     1       3.304  -1.095   1.242  1.00  0.00    -0.462 OA
BRANCH  56  57
ATOM     57  C   UNL     1       2.494  -1.861   2.038  1.00  0.00     0.312 C 
ATOM     58  O   UNL     1       2.460  -1.771   3.260  1.00  0.00    -0.252 OA
BRANCH  57  59
ATOM     59  C   UNL     1       1.712  -2.916   1.226  1.00  0.00     0.068 C 
BRANCH  59  60
ATOM     60  C   UNL     1       1.133  -2.305  -0.092  1.00  0.00     0.023 C 
BRANCH  60  61
ATOM     61  C   UNL     1      -0.127  -1.414  -0.040  1.00  0.00     0.036 C 
BRANCH  61  62
ATOM     62  C   UNL     1       0.104   0.004   0.425  1.00  0.00    -0.047 A 
ATOM     63  C   UNL     1       0.334   0.297   1.785  1.00  0.00     0.007 A 
ATOM     64  C   UNL     1       0.078   1.058  -0.504  1.00  0.00     0.011 A 
ATOM     65  C   UNL     1       0.659   1.589   2.207  1.00  0.00     0.047 A 
ATOM     66  C   UNL     1       0.354   2.340  -0.062  1.00  0.00    -0.002 A 
ATOM     67  C   UNL     1       0.679   2.586   1.261  1.00  0.00     0.122 A 
ATOM     68  C   UNL     1       0.292   3.630  -0.784  1.00  0.00     0.081 C 
ATOM     69  O   UNL     1       0.980   3.899   1.518  1.00  0.00    -0.493 OA
ATOM     70  C   UNL     1       1.116   4.469   0.192  1.00  0.00     0.234 C 
ENDBRANCH  61  62
ENDBRANCH  60  61
ENDBRANCH  59  60
BRANCH  59  71
ATOM     71  C   UNL     1       2.795  -3.977   0.878  1.00  0.00     0.019 C 
BRANCH  71  72
ATOM     72  C   UNL     1       3.055  -4.981   2.011  1.00  0.00     0.001 C 
BRANCH  72  73
ATOM     73  C   UNL     1       2.248  -6.260   1.820  1.00  0.00     0.000 CG0
ATOM     74  G   UNL     1       0.762  -6.115   2.134  1.00  0.00     0.000 G0
ENDBRANCH  72  73
ENDBRANCH  71  72
ENDBRANCH  59  71
BRANCH  59  75
ATOM     75  C   UNL     1       0.579  -3.559   2.075  1.00  0.00     0.019 C 
BRANCH  75  76
ATOM     76  C   UNL     1       0.062  -4.898   1.522  1.00  0.00     0.001 C 
BRANCH  76  77
ATOM     77  C   UNL     1       0.762  -6.115   2.134  1.00  0.00     0.000 CG0
ATOM     78  G   UNL     1       2.248  -6.260   1.820  1.00  0.00     0.000 G0
ENDBRANCH  76  77
ENDBRANCH  75  76
ENDBRANCH  59  75
ENDBRANCH  57  59
ENDBRANCH  56  57
ENDBRANCH   1  56
TORSDOF 14
