REMARK SMILES O=C(OCCOC(=O)[C@H]1CCCCN1c1cc(-c2ccccc2)nc(-c2cccc(Cl)c2)n1)c1ccc(-c2c3nc(c(-c4ccccc4)c4ccc([nH]4)c(-c4ccccc4)c4nc(c(-c5ccccc5)c5ccc2[nH]5)C=C4)C=C3)cc1
REMARK SMILES IDX 4 1 3 2 2 3 1 4 34 5 35 6 81 7 36 8 80 9 37 10 38 11 39 12
REMARK SMILES IDX 74 13 40 14 79 15 73 16 75 17 41 18 78 19 72 20 71 21 42 23
REMARK SMILES IDX 64 24 49 25 63 26 50 27 53 28 62 29 76 30 51 31 52 32 61 34
REMARK SMILES IDX 77 35 54 36 43 37 44 38 48 39 45 40 47 41 46 42 65 43 66 44
REMARK SMILES IDX 70 45 67 46 69 47 68 48 55 49 56 50 60 51 57 52 59 53 58 54
REMARK SMILES IDX 5 55 6 56 7 57 8 58 9 59 10 60 14 61 11 62 13 63 12 64 15 65
REMARK SMILES IDX 16 66 33 67 17 68 25 69 24 70 18 71 19 72 23 73 20 74 22 75
REMARK SMILES IDX 21 76 26 77 27 78 32 79 28 80 30 81 29 82 31 83
REMARK H PARENT 75 22 53 33
REMARK Flexibility Score: inf
ROOT
ATOM      1  C   UNL     1       1.412  -2.606  -3.478  1.00  0.00     0.275 C 
ENDROOT
BRANCH   1   2
ATOM      2  O   UNL     1       2.638  -3.325  -3.297  1.00  0.00    -0.458 OA
BRANCH   2   3
ATOM      3  C   UNL     1       3.800  -2.852  -2.795  1.00  0.00     0.338 C 
ATOM      4  O   UNL     1       4.835  -3.495  -2.974  1.00  0.00    -0.246 OA
BRANCH   3   5
ATOM      5  C   UNL     1       3.854  -1.691  -1.850  1.00  0.00     0.060 A 
ATOM      6  C   UNL     1       3.063  -0.541  -1.841  1.00  0.00     0.016 A 
ATOM      7  C   UNL     1       4.800  -1.821  -0.834  1.00  0.00     0.016 A 
ATOM      8  C   UNL     1       3.146   0.384  -0.788  1.00  0.00     0.010 A 
ATOM      9  C   UNL     1       4.880  -0.923   0.223  1.00  0.00     0.010 A 
ATOM     10  C   UNL     1       4.052   0.192   0.256  1.00  0.00    -0.014 A 
BRANCH  10  11
ATOM     11  C   UNL     1       4.276   1.226   1.285  1.00  0.00     0.031 A 
ATOM     12  C   UNL     1       5.558   2.007   1.222  1.00  0.00     0.074 A 
ATOM     13  C   UNL     1       3.365   1.455   2.250  1.00  0.00     0.049 A 
ATOM     14  N   UNL     1       5.938   3.030   1.939  1.00  0.00    -0.248 NA
ATOM     15  C   UNL     1       6.556   1.568   0.228  1.00  0.00     0.031 C 
ATOM     16  C   UNL     1       2.122   0.706   2.445  1.00  0.00     0.029 A 
ATOM     17  N   UNL     1       3.342   2.398   3.245  1.00  0.00    -0.354 N 
ATOM     18  C   UNL     1       7.206   3.352   1.475  1.00  0.00     0.074 A 
ATOM     19  C   UNL     1       7.573   2.368   0.487  1.00  0.00     0.031 C 
ATOM     20  C   UNL     1       1.440   1.245   3.473  1.00  0.00     0.029 A 
ATOM     21  C   UNL     1       2.201   2.369   4.012  1.00  0.00     0.049 A 
ATOM     22  H   UNL     1       4.076   3.037   3.397  1.00  0.00     0.167 HD
ATOM     23  C   UNL     1       7.982   4.408   1.801  1.00  0.00     0.031 A 
ATOM     24  C   UNL     1       1.815   3.181   5.016  1.00  0.00     0.031 A 
ATOM     25  C   UNL     1       7.614   5.378   2.787  1.00  0.00     0.049 A 
ATOM     26  C   UNL     1       2.709   4.340   5.382  1.00  0.00     0.074 A 
ATOM     27  C   UNL     1       8.295   6.511   3.183  1.00  0.00     0.029 A 
ATOM     28  N   UNL     1       6.453   5.311   3.542  1.00  0.00    -0.354 N 
ATOM     29  N   UNL     1       3.851   4.707   4.848  1.00  0.00    -0.248 NA
ATOM     30  C   UNL     1       2.249   5.213   6.472  1.00  0.00     0.031 C 
ATOM     31  C   UNL     1       7.564   7.109   4.214  1.00  0.00     0.029 A 
ATOM     32  C   UNL     1       6.402   6.378   4.416  1.00  0.00     0.049 A 
ATOM     33  H   UNL     1       5.769   4.607   3.468  1.00  0.00     0.167 HD
ATOM     34  C   UNL     1       4.225   5.870   5.509  1.00  0.00     0.074 A 
ATOM     35  C   UNL     1       3.180   6.158   6.470  1.00  0.00     0.031 C 
ATOM     36  C   UNL     1       5.332   6.637   5.343  1.00  0.00     0.031 A 
BRANCH  23  37
ATOM     37  C   UNL     1       9.283   4.545   1.065  1.00  0.00    -0.014 A 
ATOM     38  C   UNL     1       9.307   4.864  -0.304  1.00  0.00     0.009 A 
ATOM     39  C   UNL     1      10.493   4.313   1.731  1.00  0.00     0.009 A 
ATOM     40  C   UNL     1      10.515   4.900  -1.002  1.00  0.00     0.001 A 
ATOM     41  C   UNL     1      11.703   4.381   1.037  1.00  0.00     0.001 A 
ATOM     42  C   UNL     1      11.712   4.661  -0.330  1.00  0.00     0.000 A 
ENDBRANCH  23  37
BRANCH  24  43
ATOM     43  C   UNL     1       0.519   2.972   5.722  1.00  0.00    -0.014 A 
ATOM     44  C   UNL     1      -0.521   3.910   5.609  1.00  0.00     0.009 A 
ATOM     45  C   UNL     1       0.333   1.864   6.563  1.00  0.00     0.009 A 
ATOM     46  C   UNL     1      -1.695   3.768   6.355  1.00  0.00     0.001 A 
ATOM     47  C   UNL     1      -0.854   1.708   7.285  1.00  0.00     0.001 A 
ATOM     48  C   UNL     1      -1.861   2.667   7.193  1.00  0.00     0.000 A 
ENDBRANCH  24  43
BRANCH  36  49
ATOM     49  C   UNL     1       5.444   7.877   6.181  1.00  0.00    -0.014 A 
ATOM     50  C   UNL     1       5.725   7.807   7.553  1.00  0.00     0.009 A 
ATOM     51  C   UNL     1       5.346   9.135   5.565  1.00  0.00     0.009 A 
ATOM     52  C   UNL     1       5.881   8.976   8.298  1.00  0.00     0.001 A 
ATOM     53  C   UNL     1       5.536  10.301   6.305  1.00  0.00     0.001 A 
ATOM     54  C   UNL     1       5.795  10.220   7.672  1.00  0.00     0.000 A 
ENDBRANCH  36  49
ENDBRANCH  10  11
ENDBRANCH   3   5
ENDBRANCH   2   3
ENDBRANCH   1   2
BRANCH   1  55
ATOM     55  C   UNL     1       0.460  -2.657  -2.278  1.00  0.00     0.274 C 
BRANCH  55  56
ATOM     56  O   UNL     1       1.115  -2.513  -1.001  1.00  0.00    -0.461 OA
BRANCH  56  57
ATOM     57  C   UNL     1       1.465  -3.684  -0.387  1.00  0.00     0.328 C 
ATOM     58  O   UNL     1       1.155  -4.788  -0.836  1.00  0.00    -0.250 OA
BRANCH  57  59
ATOM     59  C   UNL     1       2.239  -3.443   0.943  1.00  0.00     0.193 C 
ATOM     60  C   UNL     1       1.256  -3.441   2.113  1.00  0.00     0.037 C 
ATOM     61  N   UNL     1       3.276  -4.479   1.156  1.00  0.00    -0.343 N 
ATOM     62  C   UNL     1       0.686  -4.836   2.365  1.00  0.00     0.005 C 
ATOM     63  C   UNL     1       2.830  -5.848   1.392  1.00  0.00     0.119 C 
ATOM     64  C   UNL     1       1.793  -5.881   2.516  1.00  0.00     0.022 C 
BRANCH  61  65
ATOM     65  C   UNL     1       4.572  -4.157   1.537  1.00  0.00     0.134 A 
ATOM     66  C   UNL     1       5.623  -4.649   0.773  1.00  0.00     0.076 A 
ATOM     67  N   UNL     1       4.797  -3.332   2.576  1.00  0.00    -0.211 NA
ATOM     68  C   UNL     1       6.899  -4.194   1.051  1.00  0.00     0.076 A 
ATOM     69  C   UNL     1       6.086  -3.006   2.833  1.00  0.00     0.162 A 
ATOM     70  N   UNL     1       7.144  -3.379   2.091  1.00  0.00    -0.228 NA
BRANCH  68  71
ATOM     71  C   UNL     1       8.050  -4.465   0.173  1.00  0.00     0.000 A 
ATOM     72  C   UNL     1       9.149  -5.209   0.627  1.00  0.00     0.010 A 
ATOM     73  C   UNL     1       8.108  -3.955  -1.138  1.00  0.00     0.010 A 
ATOM     74  C   UNL     1      10.249  -5.451  -0.205  1.00  0.00     0.001 A 
ATOM     75  C   UNL     1       9.212  -4.181  -1.965  1.00  0.00     0.001 A 
ATOM     76  C   UNL     1      10.280  -4.936  -1.499  1.00  0.00     0.000 A 
ENDBRANCH  68  71
BRANCH  69  77
ATOM     77  C   UNL     1       6.380  -2.100   3.954  1.00  0.00     0.021 A 
ATOM     78  C   UNL     1       5.909  -2.364   5.252  1.00  0.00     0.012 A 
ATOM     79  C   UNL     1       7.196  -0.965   3.772  1.00  0.00     0.032 A 
ATOM     80  C   UNL     1       6.252  -1.539   6.329  1.00  0.00     0.002 A 
ATOM     81  C   UNL     1       7.519  -0.131   4.844  1.00  0.00     0.041 A 
ATOM     82  C   UNL     1       7.056  -0.418   6.125  1.00  0.00     0.020 A 
ATOM     83  Cl  UNL     1       8.514   1.250   4.586  1.00  0.00    -0.084 Cl
ENDBRANCH  69  77
ENDBRANCH  61  65
ENDBRANCH  57  59
ENDBRANCH  56  57
ENDBRANCH  55  56
ENDBRANCH   1  55
TORSDOF 14
