REMARK SMILES CC1(C)O[C@@H]2C[C@H]3[C@H]4CCC5=CC(=O)C=C[C@@]5(C)[C@]4(F)[C@H](O)C[C@]3(C)[C@]2(C(=O)OCCOC(=O)c2ccc(-c3c4nc(c(-c5ccccc5)c5ccc([nH]5)c(-c5ccccc5)c5nc(c(-c6ccccc6)c6ccc3[nH]6)C=C5)C=C4)cc2)O1
REMARK SMILES IDX 31 1 30 2 29 3 27 4 28 5 26 6 1 7 2 8 4 9 83 10 3 11 5 12
REMARK SMILES IDX 6 13 24 14 7 15 23 16 25 17 8 18 21 19 9 20 19 21 10 22
REMARK SMILES IDX 17 23 20 24 11 25 16 26 18 27 12 28 15 29 13 30 14 31 22 32
REMARK SMILES IDX 32 34 33 35 34 36 35 37 36 38 82 39 37 40 81 41 38 42 39 43
REMARK SMILES IDX 40 44 75 45 41 46 80 47 74 48 76 49 42 50 79 51 73 52 72 53
REMARK SMILES IDX 43 55 65 56 50 57 64 58 51 59 54 60 63 61 77 62 52 63 53 64
REMARK SMILES IDX 62 66 78 67 55 68 44 69 45 70 49 71 46 72 48 73 47 74 66 75
REMARK SMILES IDX 67 76 71 77 68 78 70 79 69 80 56 81 57 82 61 83 58 84 60 85
REMARK SMILES IDX 59 86
REMARK H PARENT 22 33 76 54 54 65
REMARK Flexibility Score: inf
ROOT
ATOM      1  C   UNL     1      -4.194  -3.684   0.967  1.00  0.00     0.275 C 
ENDROOT
BRANCH   1   2
ATOM      2  C   UNL     1      -3.061  -2.989   0.217  1.00  0.00     0.274 C 
BRANCH   2   3
ATOM      3  O   UNL     1      -2.378  -2.062   1.086  1.00  0.00    -0.460 OA
BRANCH   3   4
ATOM      4  C   UNL     1      -2.598  -0.726   0.897  1.00  0.00     0.342 C 
ATOM      5  O   UNL     1      -3.428  -0.254   0.132  1.00  0.00    -0.249 OA
BRANCH   4   6
ATOM      6  C   UNL     1      -1.613   0.098   1.735  1.00  0.00     0.200 C 
ATOM      7  C   UNL     1       0.736  -0.540  -0.549  1.00  0.00     0.075 C 
ATOM      8  C   UNL     1       0.486   0.257   0.729  1.00  0.00     0.165 C 
ATOM      9  O   UNL     1      -0.200   1.462   0.387  1.00  0.00    -0.344 OA
ATOM     10  O   UNL     1      -0.309  -0.535   1.631  1.00  0.00    -0.329 OA
ATOM     11  C   UNL     1       1.816   0.608   1.410  1.00  0.00     0.075 C 
ATOM     12  C   UNL     1      -1.376   1.528   1.194  1.00  0.00     0.166 C 
ATOM     13  C   UNL     1      -1.096   2.433   2.433  1.00  0.00     0.040 C 
ATOM     14  C   UNL     1      -1.978   0.337   3.250  1.00  0.00     0.016 C 
ATOM     15  C   UNL     1      -0.878   1.390   3.523  1.00  0.00     0.008 C 
ATOM     16  C   UNL     1      -1.904  -0.887   4.192  1.00  0.00     0.046 C 
ATOM     17  C   UNL     1      -3.389   0.939   3.405  1.00  0.00     0.015 C 
ATOM     18  C   UNL     1      -0.329   1.665   4.910  1.00  0.00     0.035 C 
ATOM     19  C   UNL     1      -0.844  -0.777   5.296  1.00  0.00     0.154 C 
ATOM     20  C   UNL     1      -0.340   3.095   5.418  1.00  0.00     0.012 C 
ATOM     21  C   UNL     1      -0.800   0.645   5.960  1.00  0.00     0.152 C 
ATOM     22  C   UNL     1       0.752   3.190   6.486  1.00  0.00     0.032 C 
ATOM     23  C   UNL     1       0.091   0.748   7.273  1.00  0.00     0.044 C 
ATOM     24  F   UNL     1      -2.090   0.984   6.292  1.00  0.00    -0.239 F 
ATOM     25  C   UNL     1       0.545   2.196   7.604  1.00  0.00    -0.053 C 
ATOM     26  C   UNL     1      -0.654   0.177   8.484  1.00  0.00    -0.009 C 
ATOM     27  C   UNL     1       1.382  -0.102   7.144  1.00  0.00     0.024 C 
ATOM     28  C   UNL     1       0.824   2.573   8.866  1.00  0.00     0.052 C 
ATOM     29  C   UNL     1      -0.410   0.573   9.744  1.00  0.00     0.048 C 
ATOM     30  C   UNL     1       0.557   1.663  10.000  1.00  0.00     0.178 C 
ATOM     31  O   UNL     1       1.057   1.844  11.102  1.00  0.00    -0.290 OA
BRANCH  19  32
ATOM     32  O   UNL     1       0.417  -1.144   4.719  1.00  0.00    -0.390 OA
ATOM     33  H   UNL     1       0.631  -0.535   3.995  1.00  0.00     0.211 HD
ENDBRANCH  19  32
ENDBRANCH   4   6
ENDBRANCH   3   4
ENDBRANCH   2   3
ENDBRANCH   1   2
BRANCH   1  34
ATOM     34  O   UNL     1      -5.194  -2.701   1.276  1.00  0.00    -0.458 OA
BRANCH  34  35
ATOM     35  C   UNL     1      -5.728  -2.747   2.519  1.00  0.00     0.338 C 
ATOM     36  O   UNL     1      -5.573  -3.628   3.345  1.00  0.00    -0.246 OA
BRANCH  35  37
ATOM     37  C   UNL     1      -6.467  -1.486   2.793  1.00  0.00     0.060 A 
ATOM     38  C   UNL     1      -6.184  -0.325   2.078  1.00  0.00     0.016 A 
ATOM     39  C   UNL     1      -7.332  -1.412   3.886  1.00  0.00     0.016 A 
ATOM     40  C   UNL     1      -6.623   0.912   2.552  1.00  0.00     0.010 A 
ATOM     41  C   UNL     1      -7.890  -0.180   4.264  1.00  0.00     0.010 A 
ATOM     42  C   UNL     1      -7.509   1.018   3.633  1.00  0.00    -0.014 A 
BRANCH  42  43
ATOM     43  C   UNL     1      -8.014   2.352   4.106  1.00  0.00     0.031 A 
ATOM     44  C   UNL     1      -8.075   2.683   5.584  1.00  0.00     0.074 A 
ATOM     45  C   UNL     1      -8.435   3.298   3.236  1.00  0.00     0.049 A 
ATOM     46  N   UNL     1      -8.781   3.604   6.196  1.00  0.00    -0.248 NA
ATOM     47  C   UNL     1      -7.253   1.867   6.492  1.00  0.00     0.031 C 
ATOM     48  C   UNL     1      -8.394   3.208   1.774  1.00  0.00     0.029 A 
ATOM     49  N   UNL     1      -8.990   4.539   3.463  1.00  0.00    -0.354 N 
ATOM     50  C   UNL     1      -8.567   3.412   7.558  1.00  0.00     0.074 A 
ATOM     51  C   UNL     1      -7.642   2.305   7.683  1.00  0.00     0.031 C 
ATOM     52  C   UNL     1      -8.828   4.356   1.243  1.00  0.00     0.029 A 
ATOM     53  C   UNL     1      -9.346   5.198   2.310  1.00  0.00     0.049 A 
ATOM     54  H   UNL     1      -9.119   4.916   4.364  1.00  0.00     0.167 HD
ATOM     55  C   UNL     1      -9.107   4.085   8.604  1.00  0.00     0.031 A 
ATOM     56  C   UNL     1     -10.092   6.298   2.099  1.00  0.00     0.031 A 
ATOM     57  C   UNL     1      -9.957   5.244   8.481  1.00  0.00     0.049 A 
ATOM     58  C   UNL     1     -10.724   6.997   3.262  1.00  0.00     0.074 A 
ATOM     59  C   UNL     1     -10.532   6.002   9.489  1.00  0.00     0.029 A 
ATOM     60  N   UNL     1     -10.326   5.832   7.283  1.00  0.00    -0.354 N 
ATOM     61  N   UNL     1     -10.627   6.724   4.538  1.00  0.00    -0.248 NA
ATOM     62  C   UNL     1     -11.599   8.135   2.949  1.00  0.00     0.031 C 
ATOM     63  C   UNL     1     -11.284   7.023   8.899  1.00  0.00     0.029 A 
ATOM     64  C   UNL     1     -11.132   6.933   7.526  1.00  0.00     0.049 A 
ATOM     65  H   UNL     1     -10.056   5.514   6.391  1.00  0.00     0.167 HD
ATOM     66  C   UNL     1     -11.425   7.659   5.182  1.00  0.00     0.074 A 
ATOM     67  C   UNL     1     -11.977   8.522   4.159  1.00  0.00     0.031 C 
ATOM     68  C   UNL     1     -11.682   7.784   6.506  1.00  0.00     0.031 A 
BRANCH  55  69
ATOM     69  C   UNL     1      -8.851   3.568   9.995  1.00  0.00    -0.014 A 
ATOM     70  C   UNL     1      -7.621   3.746  10.643  1.00  0.00     0.009 A 
ATOM     71  C   UNL     1      -9.912   2.980  10.706  1.00  0.00     0.009 A 
ATOM     72  C   UNL     1      -7.456   3.332  11.969  1.00  0.00     0.001 A 
ATOM     73  C   UNL     1      -9.753   2.593  12.038  1.00  0.00     0.001 A 
ATOM     74  C   UNL     1      -8.523   2.765  12.667  1.00  0.00     0.000 A 
ENDBRANCH  55  69
BRANCH  56  75
ATOM     75  C   UNL     1     -10.387   6.726   0.704  1.00  0.00    -0.014 A 
ATOM     76  C   UNL     1      -9.856   7.916   0.189  1.00  0.00     0.009 A 
ATOM     77  C   UNL     1     -11.187   5.921  -0.126  1.00  0.00     0.009 A 
ATOM     78  C   UNL     1     -10.123   8.292  -1.130  1.00  0.00     0.001 A 
ATOM     79  C   UNL     1     -11.417   6.279  -1.454  1.00  0.00     0.001 A 
ATOM     80  C   UNL     1     -10.892   7.468  -1.953  1.00  0.00     0.000 A 
ENDBRANCH  56  75
BRANCH  68  81
ATOM     81  C   UNL     1     -12.566   8.923   6.921  1.00  0.00    -0.014 A 
ATOM     82  C   UNL     1     -13.950   8.891   6.690  1.00  0.00     0.009 A 
ATOM     83  C   UNL     1     -12.005  10.044   7.550  1.00  0.00     0.009 A 
ATOM     84  C   UNL     1     -14.749   9.979   7.047  1.00  0.00     0.001 A 
ATOM     85  C   UNL     1     -12.809  11.119   7.930  1.00  0.00     0.001 A 
ATOM     86  C   UNL     1     -14.178  11.090   7.668  1.00  0.00     0.000 A 
ENDBRANCH  68  81
ENDBRANCH  42  43
ENDBRANCH  35  37
ENDBRANCH  34  35
ENDBRANCH   1  34
TORSDOF 12
