REMARK SMILES Cc1cc2cc(-c3ccc([C@@H](C)C(=O)OCCOC(=O)c4ccc(-c5c6nc(c(-c7ccccc7)c7ccc([nH]7)c(-c7ccccc7)c7nc(c(-c8ccccc8)c8ccc5[nH]8)C=C7)C=C6)cc4)cc3)ccc2[nH]1
REMARK SMILES IDX 16 1 15 2 13 3 14 4 11 5 12 6 10 7 7 8 8 9 70 10 9 11 69 12
REMARK SMILES IDX 6 13 1 14 2 15 3 16 74 17 4 18 73 19 5 21 72 22 71 23 17 24
REMARK SMILES IDX 18 25 19 26 20 27 21 28 22 29 68 30 23 31 67 32 24 33 25 34
REMARK SMILES IDX 26 35 61 36 27 37 66 38 60 39 62 40 28 41 65 42 59 43 58 44
REMARK SMILES IDX 29 46 51 47 36 48 50 49 37 50 40 51 49 52 63 53 38 54 39 55
REMARK SMILES IDX 48 57 64 58 41 59 30 60 31 61 35 62 32 63 34 64 33 65 52 66
REMARK SMILES IDX 53 67 57 68 54 69 56 70 55 71 42 72 43 73 47 74 44 75 46 76
REMARK SMILES IDX 45 77
REMARK H PARENT 74 20 62 45 40 56
REMARK Flexibility Score: inf
ROOT
ATOM      1  C   UNL     1       8.480  -3.371  -3.633  1.00  0.00     0.274 C 
ENDROOT
BRANCH   1   2
ATOM      2  O   UNL     1       7.596  -3.644  -2.530  1.00  0.00    -0.462 OA
BRANCH   2   3
ATOM      3  C   UNL     1       8.166  -4.062  -1.370  1.00  0.00     0.313 C 
ATOM      4  O   UNL     1       9.366  -4.287  -1.232  1.00  0.00    -0.252 OA
BRANCH   3   5
ATOM      5  C   UNL     1       7.166  -4.287  -0.243  1.00  0.00     0.126 C 
ATOM      6  C   UNL     1       6.769  -5.761  -0.189  1.00  0.00     0.025 C 
BRANCH   5   7
ATOM      7  C   UNL     1       5.960  -3.360  -0.235  1.00  0.00    -0.034 A 
ATOM      8  C   UNL     1       3.680  -1.670  -0.137  1.00  0.00    -0.018 A 
ATOM      9  C   UNL     1       3.829  -2.634  -1.146  1.00  0.00     0.009 A 
ATOM     10  C   UNL     1       4.707  -1.542   0.805  1.00  0.00     0.009 A 
ATOM     11  C   UNL     1       4.946  -3.469  -1.193  1.00  0.00     0.005 A 
ATOM     12  C   UNL     1       5.829  -2.378   0.760  1.00  0.00     0.005 A 
BRANCH   8  13
ATOM     13  C   UNL     1       2.450  -0.867  -0.057  1.00  0.00    -0.018 A 
ATOM     14  C   UNL     1      -3.570   0.244   0.041  1.00  0.00     0.064 C 
ATOM     15  C   UNL     1      -2.103   0.032   0.044  1.00  0.00     0.013 A 
ATOM     16  C   UNL     1      -1.365  -1.133   0.043  1.00  0.00     0.031 A 
ATOM     17  N   UNL     1      -1.212   1.079   0.042  1.00  0.00    -0.359 N 
ATOM     18  C   UNL     1       0.009  -0.779   0.019  1.00  0.00     0.000 A 
ATOM     19  C   UNL     1       0.083   0.611   0.022  1.00  0.00     0.046 A 
ATOM     20  H   UNL     1      -1.465   2.031   0.054  1.00  0.00     0.166 HD
ATOM     21  C   UNL     1       1.203  -1.520  -0.013  1.00  0.00     0.019 A 
ATOM     22  C   UNL     1       1.301   1.298   0.003  1.00  0.00     0.027 A 
ATOM     23  C   UNL     1       2.478   0.535  -0.039  1.00  0.00     0.011 A 
ENDBRANCH   8  13
ENDBRANCH   5   7
ENDBRANCH   3   5
ENDBRANCH   2   3
ENDBRANCH   1   2
BRANCH   1  24
ATOM     24  C   UNL     1       8.762  -1.873  -3.760  1.00  0.00     0.275 C 
BRANCH  24  25
ATOM     25  O   UNL     1       9.576  -1.409  -2.668  1.00  0.00    -0.458 OA
BRANCH  25  26
ATOM     26  C   UNL     1       8.902  -0.791  -1.672  1.00  0.00     0.338 C 
ATOM     27  O   UNL     1       7.715  -0.525  -1.625  1.00  0.00    -0.246 OA
BRANCH  26  28
ATOM     28  C   UNL     1       9.810  -0.555  -0.542  1.00  0.00     0.060 A 
ATOM     29  C   UNL     1       9.606  -1.286   0.630  1.00  0.00     0.016 A 
ATOM     30  C   UNL     1      10.782   0.445  -0.596  1.00  0.00     0.016 A 
ATOM     31  C   UNL     1      10.356  -1.008   1.767  1.00  0.00     0.010 A 
ATOM     32  C   UNL     1      11.542   0.720   0.545  1.00  0.00     0.010 A 
ATOM     33  C   UNL     1      11.317   0.010   1.738  1.00  0.00    -0.014 A 
BRANCH  33  34
ATOM     34  C   UNL     1      12.031   0.372   2.984  1.00  0.00     0.031 A 
ATOM     35  C   UNL     1      11.643   1.616   3.731  1.00  0.00     0.074 A 
ATOM     36  C   UNL     1      12.996  -0.432   3.465  1.00  0.00     0.049 A 
ATOM     37  N   UNL     1      12.166   2.124   4.818  1.00  0.00    -0.248 NA
ATOM     38  C   UNL     1      10.518   2.389   3.183  1.00  0.00     0.031 C 
ATOM     39  C   UNL     1      13.430  -1.691   2.858  1.00  0.00     0.029 A 
ATOM     40  N   UNL     1      13.782  -0.308   4.582  1.00  0.00    -0.354 N 
ATOM     41  C   UNL     1      11.449   3.285   5.073  1.00  0.00     0.074 A 
ATOM     42  C   UNL     1      10.463   3.414   4.021  1.00  0.00     0.031 C 
ATOM     43  C   UNL     1      14.400  -2.228   3.616  1.00  0.00     0.029 A 
ATOM     44  C   UNL     1      14.680  -1.335   4.737  1.00  0.00     0.049 A 
ATOM     45  H   UNL     1      13.709   0.445   5.212  1.00  0.00     0.167 HD
ATOM     46  C   UNL     1      11.597   4.164   6.092  1.00  0.00     0.031 A 
ATOM     47  C   UNL     1      15.632  -1.524   5.669  1.00  0.00     0.031 A 
ATOM     48  C   UNL     1      12.574   4.038   7.140  1.00  0.00     0.049 A 
ATOM     49  C   UNL     1      15.807  -0.510   6.764  1.00  0.00     0.074 A 
ATOM     50  C   UNL     1      12.801   4.879   8.215  1.00  0.00     0.029 A 
ATOM     51  N   UNL     1      13.486   3.000   7.244  1.00  0.00    -0.354 N 
ATOM     52  N   UNL     1      15.127   0.589   6.988  1.00  0.00    -0.248 NA
ATOM     53  C   UNL     1      16.881  -0.764   7.734  1.00  0.00     0.031 C 
ATOM     54  C   UNL     1      13.876   4.367   8.952  1.00  0.00     0.029 A 
ATOM     55  C   UNL     1      14.288   3.186   8.357  1.00  0.00     0.049 A 
ATOM     56  H   UNL     1      13.553   2.242   6.619  1.00  0.00     0.167 HD
ATOM     57  C   UNL     1      15.678   1.146   8.134  1.00  0.00     0.074 A 
ATOM     58  C   UNL     1      16.737   0.257   8.567  1.00  0.00     0.031 C 
ATOM     59  C   UNL     1      15.337   2.292   8.771  1.00  0.00     0.031 A 
BRANCH  46  60
ATOM     60  C   UNL     1      10.696   5.365   6.098  1.00  0.00    -0.014 A 
ATOM     61  C   UNL     1       9.346   5.261   6.464  1.00  0.00     0.009 A 
ATOM     62  C   UNL     1      11.214   6.623   5.751  1.00  0.00     0.009 A 
ATOM     63  C   UNL     1       8.524   6.390   6.454  1.00  0.00     0.001 A 
ATOM     64  C   UNL     1      10.396   7.753   5.763  1.00  0.00     0.001 A 
ATOM     65  C   UNL     1       9.050   7.635   6.106  1.00  0.00     0.000 A 
ENDBRANCH  46  60
BRANCH  47  66
ATOM     66  C   UNL     1      16.509  -2.720   5.598  1.00  0.00    -0.014 A 
ATOM     67  C   UNL     1      16.369  -3.764   6.523  1.00  0.00     0.009 A 
ATOM     68  C   UNL     1      17.496  -2.817   4.606  1.00  0.00     0.009 A 
ATOM     69  C   UNL     1      17.214  -4.875   6.467  1.00  0.00     0.001 A 
ATOM     70  C   UNL     1      18.323  -3.939   4.537  1.00  0.00     0.001 A 
ATOM     71  C   UNL     1      18.187  -4.963   5.472  1.00  0.00     0.000 A 
ENDBRANCH  47  66
BRANCH  59  72
ATOM     72  C   UNL     1      16.099   2.631  10.020  1.00  0.00    -0.014 A 
ATOM     73  C   UNL     1      17.410   3.127   9.957  1.00  0.00     0.009 A 
ATOM     74  C   UNL     1      15.486   2.475  11.272  1.00  0.00     0.009 A 
ATOM     75  C   UNL     1      18.103   3.433  11.130  1.00  0.00     0.001 A 
ATOM     76  C   UNL     1      16.174   2.803  12.441  1.00  0.00     0.001 A 
ATOM     77  C   UNL     1      17.484   3.273  12.370  1.00  0.00     0.000 A 
ENDBRANCH  59  72
ENDBRANCH  33  34
ENDBRANCH  26  28
ENDBRANCH  25  26
ENDBRANCH  24  25
ENDBRANCH   1  24
TORSDOF 13
