REMARK SMILES CC(=O)CCCCC/C=C/C(=O)OCCOC(=O)c1ccc(-c2c3nc(c(-c4ccccc4)c4ccc([nH]4)c(-c4ccccc4)c4nc(c(-c5ccccc5)c5ccc2[nH]5)C=C4)C=C3)cc1
REMARK SMILES IDX 11 1 12 2 10 3 9 4 8 5 7 6 6 7 5 8 4 9 2 10 1 11 3 12 13 13
REMARK SMILES IDX 14 14 15 15 16 16 17 17 18 18 19 19 20 20 66 21 21 22 65 23
REMARK SMILES IDX 22 24 23 25 24 26 59 27 25 28 64 29 58 30 60 31 26 32 63 33
REMARK SMILES IDX 57 34 56 35 27 37 49 38 34 39 48 40 35 41 38 42 47 43 61 44
REMARK SMILES IDX 36 45 37 46 46 48 62 49 39 50 28 51 29 52 33 53 30 54 32 55
REMARK SMILES IDX 31 56 50 57 51 58 55 59 52 60 54 61 53 62 40 63 41 64 45 65
REMARK SMILES IDX 42 66 44 67 43 68
REMARK H PARENT 60 36 38 47
REMARK Flexibility Score: inf
ROOT
ATOM      1  C   UNL     1       2.403  -7.462  -2.839  1.00  0.00     0.330 C 
ATOM      2  O   UNL     1       3.018  -8.501  -3.029  1.00  0.00    -0.247 OA
ENDROOT
BRANCH   1   3
ATOM      3  C   UNL     1       2.828  -6.488  -1.810  1.00  0.00     0.089 C 
ATOM      4  C   UNL     1       2.118  -5.413  -1.437  1.00  0.00    -0.019 C 
BRANCH   4   5
ATOM      5  C   UNL     1       2.647  -4.354  -0.513  1.00  0.00     0.027 C 
BRANCH   5   6
ATOM      6  C   UNL     1       2.352  -2.937  -1.024  1.00  0.00     0.004 C 
BRANCH   6   7
ATOM      7  C   UNL     1       0.867  -2.546  -1.041  1.00  0.00     0.001 C 
BRANCH   7   8
ATOM      8  C   UNL     1       0.138  -2.641   0.305  1.00  0.00     0.008 C 
BRANCH   8   9
ATOM      9  C   UNL     1       0.727  -1.796   1.432  1.00  0.00     0.075 C 
BRANCH   9  10
ATOM     10  C   UNL     1       0.297  -0.344   1.367  1.00  0.00     0.129 C 
ATOM     11  C   UNL     1       0.960   0.548   0.352  1.00  0.00     0.087 C 
ATOM     12  O   UNL     1      -0.601   0.085   2.092  1.00  0.00    -0.300 OA
ENDBRANCH   9  10
ENDBRANCH   8   9
ENDBRANCH   7   8
ENDBRANCH   6   7
ENDBRANCH   5   6
ENDBRANCH   4   5
ENDBRANCH   1   3
BRANCH   1  13
ATOM     13  O   UNL     1       1.370  -6.989  -3.576  1.00  0.00    -0.459 OA
BRANCH  13  14
ATOM     14  C   UNL     1       1.048  -7.729  -4.766  1.00  0.00     0.275 C 
BRANCH  14  15
ATOM     15  C   UNL     1       1.655  -7.070  -6.009  1.00  0.00     0.275 C 
BRANCH  15  16
ATOM     16  O   UNL     1       3.093  -7.152  -6.012  1.00  0.00    -0.458 OA
BRANCH  16  17
ATOM     17  C   UNL     1       3.735  -6.078  -5.491  1.00  0.00     0.338 C 
ATOM     18  O   UNL     1       3.232  -5.051  -5.070  1.00  0.00    -0.246 OA
BRANCH  17  19
ATOM     19  C   UNL     1       5.178  -6.365  -5.373  1.00  0.00     0.060 A 
ATOM     20  C   UNL     1       5.787  -6.139  -4.135  1.00  0.00     0.016 A 
ATOM     21  C   UNL     1       5.938  -6.789  -6.466  1.00  0.00     0.016 A 
ATOM     22  C   UNL     1       7.155  -6.345  -3.979  1.00  0.00     0.010 A 
ATOM     23  C   UNL     1       7.316  -6.986  -6.311  1.00  0.00     0.010 A 
ATOM     24  C   UNL     1       7.933  -6.758  -5.069  1.00  0.00    -0.014 A 
BRANCH  24  25
ATOM     25  C   UNL     1       9.400  -6.906  -4.905  1.00  0.00     0.031 A 
ATOM     26  C   UNL     1      10.325  -5.841  -5.421  1.00  0.00     0.074 A 
ATOM     27  C   UNL     1       9.899  -7.979  -4.263  1.00  0.00     0.049 A 
ATOM     28  N   UNL     1      11.633  -5.792  -5.380  1.00  0.00    -0.248 NA
ATOM     29  C   UNL     1       9.697  -4.677  -6.066  1.00  0.00     0.031 C 
ATOM     30  C   UNL     1       9.105  -9.060  -3.678  1.00  0.00     0.029 A 
ATOM     31  N   UNL     1      11.198  -8.330  -3.990  1.00  0.00    -0.354 N 
ATOM     32  C   UNL     1      11.986  -4.603  -6.006  1.00  0.00     0.074 A 
ATOM     33  C   UNL     1      10.757  -3.967  -6.430  1.00  0.00     0.031 C 
ATOM     34  C   UNL     1       9.934  -9.951  -3.107  1.00  0.00     0.029 A 
ATOM     35  C   UNL     1      11.315  -9.524  -3.319  1.00  0.00     0.049 A 
ATOM     36  H   UNL     1      11.971  -7.780  -4.250  1.00  0.00     0.167 HD
ATOM     37  C   UNL     1      13.222  -4.090  -6.210  1.00  0.00     0.031 A 
ATOM     38  C   UNL     1      12.412 -10.204  -2.936  1.00  0.00     0.031 A 
ATOM     39  C   UNL     1      14.445  -4.718  -5.785  1.00  0.00     0.049 A 
ATOM     40  C   UNL     1      13.774  -9.640  -3.237  1.00  0.00     0.074 A 
ATOM     41  C   UNL     1      15.743  -4.253  -5.920  1.00  0.00     0.029 A 
ATOM     42  N   UNL     1      14.524  -5.947  -5.152  1.00  0.00    -0.354 N 
ATOM     43  N   UNL     1      14.091  -8.499  -3.800  1.00  0.00    -0.248 NA
ATOM     44  C   UNL     1      14.930 -10.461  -2.847  1.00  0.00     0.031 C 
ATOM     45  C   UNL     1      16.610  -5.227  -5.414  1.00  0.00     0.029 A 
ATOM     46  C   UNL     1      15.849  -6.273  -4.919  1.00  0.00     0.049 A 
ATOM     47  H   UNL     1      13.752  -6.506  -4.905  1.00  0.00     0.167 HD
ATOM     48  C   UNL     1      15.479  -8.454  -3.806  1.00  0.00     0.074 A 
ATOM     49  C   UNL     1      15.943  -9.674  -3.179  1.00  0.00     0.031 C 
ATOM     50  C   UNL     1      16.296  -7.487  -4.289  1.00  0.00     0.031 A 
BRANCH  37  51
ATOM     51  C   UNL     1      13.322  -2.793  -6.961  1.00  0.00    -0.014 A 
ATOM     52  C   UNL     1      12.984  -1.571  -6.360  1.00  0.00     0.009 A 
ATOM     53  C   UNL     1      13.816  -2.792  -8.275  1.00  0.00     0.009 A 
ATOM     54  C   UNL     1      13.117  -0.376  -7.070  1.00  0.00     0.001 A 
ATOM     55  C   UNL     1      13.969  -1.595  -8.975  1.00  0.00     0.001 A 
ATOM     56  C   UNL     1      13.613  -0.388  -8.374  1.00  0.00     0.000 A 
ENDBRANCH  37  51
BRANCH  38  57
ATOM     57  C   UNL     1      12.279 -11.515  -2.248  1.00  0.00    -0.014 A 
ATOM     58  C   UNL     1      12.650 -11.658  -0.902  1.00  0.00     0.009 A 
ATOM     59  C   UNL     1      11.817 -12.641  -2.947  1.00  0.00     0.009 A 
ATOM     60  C   UNL     1      12.588 -12.907  -0.280  1.00  0.00     0.001 A 
ATOM     61  C   UNL     1      11.728 -13.882  -2.314  1.00  0.00     0.001 A 
ATOM     62  C   UNL     1      12.124 -14.017  -0.985  1.00  0.00     0.000 A 
ENDBRANCH  38  57
BRANCH  50  63
ATOM     63  C   UNL     1      17.775  -7.692  -4.123  1.00  0.00    -0.014 A 
ATOM     64  C   UNL     1      18.474  -8.623  -4.907  1.00  0.00     0.009 A 
ATOM     65  C   UNL     1      18.483  -6.916  -3.192  1.00  0.00     0.009 A 
ATOM     66  C   UNL     1      19.850  -8.794  -4.739  1.00  0.00     0.001 A 
ATOM     67  C   UNL     1      19.863  -7.071  -3.045  1.00  0.00     0.001 A 
ATOM     68  C   UNL     1      20.543  -8.015  -3.812  1.00  0.00     0.000 A 
ENDBRANCH  50  63
ENDBRANCH  24  25
ENDBRANCH  17  19
ENDBRANCH  16  17
ENDBRANCH  15  16
ENDBRANCH  14  15
ENDBRANCH  13  14
ENDBRANCH   1  13
TORSDOF 17
