REMARK SMILES O=C(OCCOC(=O)[C@]1(NC(=O)C2CCN(C(=O)C3CC3)CC2)CCCc2ccccc21)c1ccc(-c2c3nc(c(-c4ccccc4)c4ccc([nH]4)c(-c4ccccc4)c4nc(c(-c5ccccc5)c5ccc2[nH]5)C=C4)C=C3)cc1
REMARK SMILES IDX 5 1 4 2 3 3 2 4 1 5 33 6 34 7 80 8 35 9 79 10 36 11 37 12
REMARK SMILES IDX 38 13 73 14 39 15 78 16 72 17 74 18 40 19 77 20 71 21 70 22
REMARK SMILES IDX 41 24 63 25 48 26 62 27 49 28 52 29 61 30 75 31 50 32 51 33
REMARK SMILES IDX 60 35 76 36 53 37 42 38 43 39 47 40 44 41 46 42 45 43 64 44
REMARK SMILES IDX 65 45 69 46 66 47 68 48 67 49 54 50 55 51 59 52 56 53 58 54
REMARK SMILES IDX 57 55 6 56 7 57 8 58 9 59 24 60 32 61 25 62 27 63 31 64
REMARK SMILES IDX 26 65 28 66 30 67 29 68 10 69 11 70 12 72 13 73 14 74 23 75
REMARK SMILES IDX 15 76 22 77 16 78 17 79 18 80 19 81 20 82 21 83
REMARK H PARENT 74 23 52 34 10 71
REMARK Flexibility Score: inf
ROOT
ATOM      1  C   UNL     1       3.958  -1.407  -1.032  1.00  0.00     0.274 C 
ENDROOT
BRANCH   1   2
ATOM      2  C   UNL     1       4.493  -1.429   0.400  1.00  0.00     0.275 C 
BRANCH   2   3
ATOM      3  O   UNL     1       3.726  -0.654   1.315  1.00  0.00    -0.458 OA
BRANCH   3   4
ATOM      4  C   UNL     1       3.702   0.687   1.457  1.00  0.00     0.338 C 
ATOM      5  O   UNL     1       2.900   1.157   2.264  1.00  0.00    -0.246 OA
BRANCH   4   6
ATOM      6  C   UNL     1       4.517   1.656   0.636  1.00  0.00     0.060 A 
ATOM      7  C   UNL     1       5.496   1.384  -0.337  1.00  0.00     0.016 A 
ATOM      8  C   UNL     1       4.137   2.993   0.794  1.00  0.00     0.016 A 
ATOM      9  C   UNL     1       5.961   2.366  -1.232  1.00  0.00     0.010 A 
ATOM     10  C   UNL     1       4.565   3.960  -0.112  1.00  0.00     0.010 A 
ATOM     11  C   UNL     1       5.463   3.658  -1.160  1.00  0.00    -0.014 A 
BRANCH  11  12
ATOM     12  C   UNL     1       5.918   4.779  -2.029  1.00  0.00     0.031 A 
ATOM     13  C   UNL     1       6.409   5.994  -1.297  1.00  0.00     0.074 A 
ATOM     14  C   UNL     1       5.751   4.835  -3.368  1.00  0.00     0.049 A 
ATOM     15  N   UNL     1       6.462   7.237  -1.685  1.00  0.00    -0.248 NA
ATOM     16  C   UNL     1       6.734   5.784   0.128  1.00  0.00     0.031 C 
ATOM     17  C   UNL     1       5.262   3.767  -4.238  1.00  0.00     0.029 A 
ATOM     18  N   UNL     1       5.936   5.892  -4.231  1.00  0.00    -0.354 N 
ATOM     19  C   UNL     1       6.732   7.940  -0.523  1.00  0.00     0.074 A 
ATOM     20  C   UNL     1       6.599   7.017   0.578  1.00  0.00     0.031 C 
ATOM     21  C   UNL     1       5.141   4.233  -5.497  1.00  0.00     0.029 A 
ATOM     22  C   UNL     1       5.556   5.632  -5.529  1.00  0.00     0.049 A 
ATOM     23  H   UNL     1       6.307   6.758  -3.945  1.00  0.00     0.167 HD
ATOM     24  C   UNL     1       7.194   9.200  -0.375  1.00  0.00     0.031 A 
ATOM     25  C   UNL     1       5.561   6.437  -6.612  1.00  0.00     0.031 A 
ATOM     26  C   UNL     1       7.484  10.051  -1.485  1.00  0.00     0.049 A 
ATOM     27  C   UNL     1       6.101   7.841  -6.468  1.00  0.00     0.074 A 
ATOM     28  C   UNL     1       8.099  11.285  -1.495  1.00  0.00     0.029 A 
ATOM     29  N   UNL     1       7.210   9.715  -2.803  1.00  0.00    -0.354 N 
ATOM     30  N   UNL     1       6.479   8.473  -5.382  1.00  0.00    -0.248 NA
ATOM     31  C   UNL     1       6.268   8.622  -7.703  1.00  0.00     0.031 C 
ATOM     32  C   UNL     1       8.184  11.706  -2.827  1.00  0.00     0.029 A 
ATOM     33  C   UNL     1       7.655  10.714  -3.642  1.00  0.00     0.049 A 
ATOM     34  H   UNL     1       6.764   8.887  -3.095  1.00  0.00     0.167 HD
ATOM     35  C   UNL     1       7.000   9.690  -5.810  1.00  0.00     0.074 A 
ATOM     36  C   UNL     1       6.866   9.717  -7.252  1.00  0.00     0.031 C 
ATOM     37  C   UNL     1       7.557  10.685  -5.079  1.00  0.00     0.031 A 
BRANCH  24  38
ATOM     38  C   UNL     1       7.485   9.633   1.033  1.00  0.00    -0.014 A 
ATOM     39  C   UNL     1       8.459   8.966   1.803  1.00  0.00     0.009 A 
ATOM     40  C   UNL     1       6.697  10.616   1.641  1.00  0.00     0.009 A 
ATOM     41  C   UNL     1       8.549   9.184   3.177  1.00  0.00     0.001 A 
ATOM     42  C   UNL     1       6.831  10.875   3.007  1.00  0.00     0.001 A 
ATOM     43  C   UNL     1       7.731  10.137   3.778  1.00  0.00     0.000 A 
ENDBRANCH  24  38
BRANCH  25  44
ATOM     44  C   UNL     1       5.144   5.931  -7.950  1.00  0.00    -0.014 A 
ATOM     45  C   UNL     1       6.113   5.638  -8.925  1.00  0.00     0.009 A 
ATOM     46  C   UNL     1       3.790   5.785  -8.286  1.00  0.00     0.009 A 
ATOM     47  C   UNL     1       5.737   5.251 -10.215  1.00  0.00     0.001 A 
ATOM     48  C   UNL     1       3.416   5.375  -9.572  1.00  0.00     0.001 A 
ATOM     49  C   UNL     1       4.388   5.120 -10.538  1.00  0.00     0.000 A 
ENDBRANCH  25  44
BRANCH  37  50
ATOM     50  C   UNL     1       8.164  11.846  -5.811  1.00  0.00    -0.014 A 
ATOM     51  C   UNL     1       7.370  12.848  -6.384  1.00  0.00     0.009 A 
ATOM     52  C   UNL     1       9.561  11.999  -5.800  1.00  0.00     0.009 A 
ATOM     53  C   UNL     1       7.966  13.983  -6.935  1.00  0.00     0.001 A 
ATOM     54  C   UNL     1      10.151  13.148  -6.324  1.00  0.00     0.001 A 
ATOM     55  C   UNL     1       9.353  14.139  -6.892  1.00  0.00     0.000 A 
ENDBRANCH  37  50
ENDBRANCH  11  12
ENDBRANCH   4   6
ENDBRANCH   3   4
ENDBRANCH   2   3
ENDBRANCH   1   2
BRANCH   1  56
ATOM     56  O   UNL     1       3.346  -0.162  -1.470  1.00  0.00    -0.460 OA
BRANCH  56  57
ATOM     57  C   UNL     1       1.983  -0.216  -1.615  1.00  0.00     0.336 C 
ATOM     58  O   UNL     1       1.337  -1.181  -1.204  1.00  0.00    -0.249 OA
BRANCH  57  59
ATOM     59  C   UNL     1       1.361   0.899  -2.586  1.00  0.00     0.164 C 
ATOM     60  C   UNL     1       2.271   2.084  -2.976  1.00  0.00     0.046 C 
ATOM     61  C   UNL     1       0.078   1.391  -1.857  1.00  0.00    -0.008 A 
ATOM     62  C   UNL     1       2.278   3.218  -1.985  1.00  0.00     0.008 C 
ATOM     63  C   UNL     1       0.001   2.660  -1.244  1.00  0.00    -0.042 A 
ATOM     64  C   UNL     1      -0.955   0.473  -1.594  1.00  0.00     0.007 A 
ATOM     65  C   UNL     1       0.926   3.773  -1.629  1.00  0.00     0.036 C 
ATOM     66  C   UNL     1      -0.978   2.916  -0.272  1.00  0.00     0.004 A 
ATOM     67  C   UNL     1      -1.929   0.741  -0.633  1.00  0.00     0.000 A 
ATOM     68  C   UNL     1      -1.915   1.945   0.059  1.00  0.00     0.000 A 
BRANCH  59  69
ATOM     69  N   UNL     1       0.989   0.283  -3.900  1.00  0.00    -0.336 N 
ATOM     70  C   UNL     1       1.885  -0.195  -4.829  1.00  0.00     0.224 C 
ATOM     71  H   UNL     1       0.031   0.216  -4.115  1.00  0.00     0.164 HD
ATOM     72  O   UNL     1       1.793   0.176  -5.997  1.00  0.00    -0.275 OA
BRANCH  70  73
ATOM     73  C   UNL     1       2.870  -1.278  -4.413  1.00  0.00     0.082 C 
ATOM     74  C   UNL     1       4.333  -0.980  -4.777  1.00  0.00     0.035 C 
ATOM     75  C   UNL     1       2.360  -2.632  -4.912  1.00  0.00     0.035 C 
ATOM     76  C   UNL     1       4.719  -1.436  -6.182  1.00  0.00     0.120 C 
ATOM     77  C   UNL     1       2.800  -2.906  -6.341  1.00  0.00     0.120 C 
ATOM     78  N   UNL     1       4.249  -2.803  -6.410  1.00  0.00    -0.342 N 
ATOM     79  C   UNL     1       5.198  -3.830  -6.449  1.00  0.00     0.225 C 
ATOM     80  O   UNL     1       6.390  -3.583  -6.303  1.00  0.00    -0.275 OA
BRANCH  79  81
ATOM     81  C   UNL     1       4.867  -5.276  -6.654  1.00  0.00     0.079 C 
ATOM     82  C   UNL     1       3.727  -6.014  -6.009  1.00  0.00     0.014 C 
ATOM     83  C   UNL     1       3.757  -5.824  -7.506  1.00  0.00     0.014 C 
ENDBRANCH  79  81
ENDBRANCH  70  73
ENDBRANCH  59  69
ENDBRANCH  57  59
ENDBRANCH  56  57
ENDBRANCH   1  56
TORSDOF 14
