REMARK SMILES O=C(OCCOC(=O)[C@@H](c1ccccc1)N1C(=O)/C(=C\c2ccc(-c3ccc(F)cc3)o2)SC1=S)c1ccc(-c2c3nc(c(-c4ccccc4)c4ccc([nH]4)c(-c4ccccc4)c4nc(c(-c5ccccc5)c5ccc2[nH]5)C=C4)C=C3)cc1
REMARK SMILES IDX 5 1 4 2 3 3 2 4 1 5 36 6 37 7 83 8 38 9 82 10 39 11 40 12
REMARK SMILES IDX 41 13 76 14 42 15 81 16 75 17 77 18 43 19 80 20 74 21 73 22
REMARK SMILES IDX 44 24 66 25 51 26 65 27 52 28 55 29 64 30 78 31 53 32 54 33
REMARK SMILES IDX 63 35 79 36 56 37 45 38 46 39 50 40 47 41 49 42 48 43 67 44
REMARK SMILES IDX 68 45 72 46 69 47 71 48 70 49 57 50 58 51 62 52 59 53 61 54
REMARK SMILES IDX 60 55 6 56 7 57 8 58 9 59 10 60 11 61 15 62 12 63 14 64
REMARK SMILES IDX 13 65 16 66 17 67 34 68 18 69 19 70 33 71 35 72 20 73 21 74
REMARK SMILES IDX 22 75 32 76 23 77 24 78 25 79 26 80 31 81 27 82 30 83 28 84
REMARK SMILES IDX 29 85
REMARK H PARENT 77 23 55 34
REMARK Flexibility Score: inf
ROOT
ATOM      1  C   UNL     1       3.774   0.357   2.385  1.00  0.00     0.274 C 
ENDROOT
BRANCH   1   2
ATOM      2  C   UNL     1       3.874   1.492   1.358  1.00  0.00     0.275 C 
BRANCH   2   3
ATOM      3  O   UNL     1       2.659   1.653   0.611  1.00  0.00    -0.458 OA
BRANCH   3   4
ATOM      4  C   UNL     1       2.187   0.896  -0.398  1.00  0.00     0.338 C 
ATOM      5  O   UNL     1       1.068   1.139  -0.845  1.00  0.00    -0.246 OA
BRANCH   4   6
ATOM      6  C   UNL     1       2.892  -0.291  -0.980  1.00  0.00     0.060 A 
ATOM      7  C   UNL     1       4.530  -0.875  -0.545  1.00  0.00     0.016 A 
ATOM      8  C   UNL     1       1.895  -1.127  -2.171  1.00  0.00     0.016 A 
ATOM      9  C   UNL     1       5.296  -2.298  -1.210  1.00  0.00     0.010 A 
ATOM     10  C   UNL     1       2.567  -2.589  -2.970  1.00  0.00     0.010 A 
ATOM     11  C   UNL     1       4.419  -3.245  -2.454  1.00  0.00    -0.014 A 
BRANCH  11  12
ATOM     12  C   UNL     1       5.409  -4.493  -2.685  1.00  0.00     0.031 A 
ATOM     13  C   UNL     1       6.363  -4.525  -3.828  1.00  0.00     0.074 A 
ATOM     14  C   UNL     1       5.557  -5.510  -1.804  1.00  0.00     0.049 A 
ATOM     15  N   UNL     1       6.835  -5.559  -4.467  1.00  0.00    -0.248 NA
ATOM     16  C   UNL     1       6.833  -3.232  -4.331  1.00  0.00     0.031 C 
ATOM     17  C   UNL     1       5.068  -5.489  -0.446  1.00  0.00     0.029 A 
ATOM     18  N   UNL     1       6.134  -6.756  -1.895  1.00  0.00    -0.354 N 
ATOM     19  C   UNL     1       7.511  -5.033  -5.554  1.00  0.00     0.074 A 
ATOM     20  C   UNL     1       7.384  -3.594  -5.480  1.00  0.00     0.031 C 
ATOM     21  C   UNL     1       5.220  -6.681   0.139  1.00  0.00     0.029 A 
ATOM     22  C   UNL     1       5.823  -7.572  -0.823  1.00  0.00     0.049 A 
ATOM     23  H   UNL     1       6.707  -7.037  -2.644  1.00  0.00     0.167 HD
ATOM     24  C   UNL     1       8.176  -5.715  -6.512  1.00  0.00     0.031 A 
ATOM     25  C   UNL     1       5.963  -8.897  -0.635  1.00  0.00     0.031 A 
ATOM     26  C   UNL     1       8.467  -7.122  -6.416  1.00  0.00     0.049 A 
ATOM     27  C   UNL     1       6.667  -9.656  -1.711  1.00  0.00     0.074 A 
ATOM     28  C   UNL     1       9.204  -7.908  -7.281  1.00  0.00     0.029 A 
ATOM     29  N   UNL     1       8.101  -7.932  -5.348  1.00  0.00    -0.354 N 
ATOM     30  N   UNL     1       7.147  -9.199  -2.841  1.00  0.00    -0.248 NA
ATOM     31  C   UNL     1       6.893 -11.086  -1.483  1.00  0.00     0.031 C 
ATOM     32  C   UNL     1       9.258  -9.201  -6.753  1.00  0.00     0.029 A 
ATOM     33  C   UNL     1       8.598  -9.211  -5.534  1.00  0.00     0.049 A 
ATOM     34  H   UNL     1       7.567  -7.641  -4.574  1.00  0.00     0.167 HD
ATOM     35  C   UNL     1       7.785 -10.270  -3.435  1.00  0.00     0.074 A 
ATOM     36  C   UNL     1       7.635 -11.398  -2.535  1.00  0.00     0.031 C 
ATOM     37  C   UNL     1       8.443 -10.311  -4.617  1.00  0.00     0.031 A 
BRANCH  24  38
ATOM     38  C   UNL     1       8.578  -4.963  -7.746  1.00  0.00    -0.014 A 
ATOM     39  C   UNL     1       9.534  -3.938  -7.736  1.00  0.00     0.009 A 
ATOM     40  C   UNL     1       7.960  -5.300  -8.962  1.00  0.00     0.009 A 
ATOM     41  C   UNL     1       9.820  -3.228  -8.904  1.00  0.00     0.001 A 
ATOM     42  C   UNL     1       8.281  -4.621 -10.137  1.00  0.00     0.001 A 
ATOM     43  C   UNL     1       9.200  -3.575 -10.104  1.00  0.00     0.000 A 
ENDBRANCH  24  38
BRANCH  25  44
ATOM     44  C   UNL     1       5.413  -9.587   0.569  1.00  0.00    -0.014 A 
ATOM     45  C   UNL     1       6.262 -10.192   1.509  1.00  0.00     0.009 A 
ATOM     46  C   UNL     1       4.024  -9.705   0.751  1.00  0.00     0.009 A 
ATOM     47  C   UNL     1       5.737 -10.951   2.561  1.00  0.00     0.001 A 
ATOM     48  C   UNL     1       3.501 -10.438   1.822  1.00  0.00     0.001 A 
ATOM     49  C   UNL     1       4.358 -11.078   2.715  1.00  0.00     0.000 A 
ENDBRANCH  25  44
BRANCH  37  50
ATOM     50  C   UNL     1       9.093 -11.613  -4.970  1.00  0.00    -0.014 A 
ATOM     51  C   UNL     1       8.328 -12.731  -5.331  1.00  0.00     0.009 A 
ATOM     52  C   UNL     1      10.492 -11.705  -4.968  1.00  0.00     0.009 A 
ATOM     53  C   UNL     1       8.956 -13.932  -5.655  1.00  0.00     0.001 A 
ATOM     54  C   UNL     1      11.118 -12.895  -5.331  1.00  0.00     0.001 A 
ATOM     55  C   UNL     1      10.349 -14.010  -5.665  1.00  0.00     0.000 A 
ENDBRANCH  37  50
ENDBRANCH  11  12
ENDBRANCH   4   6
ENDBRANCH   3   4
ENDBRANCH   2   3
ENDBRANCH   1   2
BRANCH   1  56
ATOM     56  O   UNL     1       3.624  -0.912   1.726  1.00  0.00    -0.460 OA
BRANCH  56  57
ATOM     57  C   UNL     1       2.404  -1.433   1.454  1.00  0.00     0.334 C 
ATOM     58  O   UNL     1       1.404  -1.123   2.095  1.00  0.00    -0.249 OA
BRANCH  57  59
ATOM     59  C   UNL     1       2.412  -2.567   0.384  1.00  0.00     0.232 C 
BRANCH  59  60
ATOM     60  C   UNL     1       3.128  -2.624  -1.153  1.00  0.00    -0.014 A 
ATOM     61  C   UNL     1       2.655  -4.285  -1.772  1.00  0.00     0.006 A 
ATOM     62  C   UNL     1       3.945  -1.401  -2.554  1.00  0.00     0.006 A 
ATOM     63  C   UNL     1       2.942  -4.707  -3.470  1.00  0.00     0.000 A 
ATOM     64  C   UNL     1       4.154  -1.969  -4.239  1.00  0.00     0.000 A 
ATOM     65  C   UNL     1       3.657  -3.589  -4.638  1.00  0.00     0.000 A 
ENDBRANCH  59  60
BRANCH  59  66
ATOM     66  N   UNL     1       2.530  -3.812   1.213  1.00  0.00    -0.274 N 
ATOM     67  C   UNL     1       3.669  -3.961   1.980  1.00  0.00     0.267 C 
ATOM     68  C   UNL     1       1.583  -4.806   1.371  1.00  0.00     0.149 C 
ATOM     69  O   UNL     1       4.657  -3.244   1.919  1.00  0.00    -0.268 OA
ATOM     70  C   UNL     1       3.594  -5.175   2.837  1.00  0.00     0.084 C 
ATOM     71  S   UNL     1       2.248  -6.123   2.356  1.00  0.00    -0.054 SA
ATOM     72  S   UNL     1       0.028  -4.887   0.772  1.00  0.00    -0.052 S 
ATOM     73  C   UNL     1       4.421  -5.451   3.855  1.00  0.00     0.068 C 
BRANCH  73  74
ATOM     74  C   UNL     1       5.192  -4.403   4.435  1.00  0.00     0.128 A 
ATOM     75  C   UNL     1       4.689  -3.218   4.966  1.00  0.00     0.051 A 
ATOM     76  O   UNL     1       6.562  -4.385   4.582  1.00  0.00    -0.457 OA
ATOM     77  C   UNL     1       5.773  -2.442   5.401  1.00  0.00     0.051 A 
ATOM     78  C   UNL     1       6.897  -3.195   5.162  1.00  0.00     0.134 A 
BRANCH  78  79
ATOM     79  C   UNL     1       8.290  -2.964   5.492  1.00  0.00     0.017 A 
ATOM     80  C   UNL     1       9.291  -2.932   4.513  1.00  0.00     0.015 A 
ATOM     81  C   UNL     1       8.622  -2.676   6.826  1.00  0.00     0.015 A 
ATOM     82  C   UNL     1      10.605  -2.607   4.870  1.00  0.00     0.040 A 
ATOM     83  C   UNL     1       9.932  -2.363   7.181  1.00  0.00     0.040 A 
ATOM     84  C   UNL     1      10.912  -2.328   6.199  1.00  0.00     0.123 A 
ATOM     85  F   UNL     1      12.168  -2.012   6.537  1.00  0.00    -0.207 F 
ENDBRANCH  78  79
ENDBRANCH  73  74
ENDBRANCH  59  66
ENDBRANCH  57  59
ENDBRANCH  56  57
ENDBRANCH   1  56
TORSDOF 15
