REMARK SMILES C[C@@H](C(=O)OCCOC(=O)c1ccc(-c2c3nc(c(-c4ccccc4)c4ccc([nH]4)c(-c4ccccc4)c4nc(c(-c5ccccc5)c5ccc2[nH]5)C=C4)C=C3)cc1)S(=O)(=O)N[C@@]12C[C@@H]3C[C@@](C)(C[C@@](C)(C3)C1)C2
REMARK SMILES IDX 6 1 5 2 3 3 4 4 2 5 1 6 59 7 60 8 61 9 62 10 63 12 64 13
REMARK SMILES IDX 73 14 74 15 65 16 70 17 67 18 72 19 66 20 69 21 71 22 68 23
REMARK SMILES IDX 7 24 8 25 9 26 10 27 11 28 12 29 58 30 13 31 57 32 14 33
REMARK SMILES IDX 15 34 16 35 51 36 17 37 56 38 50 39 52 40 18 41 55 42 49 43
REMARK SMILES IDX 48 44 19 46 41 47 26 48 40 49 27 50 30 51 39 52 53 53 28 54
REMARK SMILES IDX 29 55 38 57 54 58 31 59 20 60 21 61 25 62 22 63 24 64 23 65
REMARK SMILES IDX 42 66 43 67 47 68 44 69 46 70 45 71 32 72 33 73 37 74 34 75
REMARK SMILES IDX 36 76 35 77
REMARK H PARENT 62 11 52 45 30 56
REMARK Flexibility Score: inf
ROOT
ATOM      1  C   UNL     1       2.587  -3.357   1.645  1.00  0.00     0.274 C 
ENDROOT
BRANCH   1   2
ATOM      2  O   UNL     1       2.007  -2.264   0.892  1.00  0.00    -0.461 OA
BRANCH   2   3
ATOM      3  C   UNL     1       1.002  -2.605   0.035  1.00  0.00     0.325 C 
ATOM      4  O   UNL     1       0.497  -3.722   0.006  1.00  0.00    -0.251 OA
BRANCH   3   5
ATOM      5  C   UNL     1       0.677  -1.535  -0.969  1.00  0.00     0.230 C 
ATOM      6  C   UNL     1       1.672  -0.397  -1.159  1.00  0.00     0.039 C 
BRANCH   5   7
ATOM      7  S   UNL     1      -1.030  -1.016  -0.847  1.00  0.00     0.225 S 
ATOM      8  O   UNL     1      -1.260   0.030  -1.817  1.00  0.00    -0.212 OA
ATOM      9  O   UNL     1      -1.867  -2.197  -0.901  1.00  0.00    -0.212 OA
BRANCH   7  10
ATOM     10  N   UNL     1      -1.305  -0.414   0.687  1.00  0.00    -0.208 NA
ATOM     11  H   UNL     1      -0.776  -1.032   1.303  1.00  0.00     0.141 HD
BRANCH  10  12
ATOM     12  C   UNL     1      -1.037   0.949   1.211  1.00  0.00     0.034 C 
ATOM     13  C   UNL     1      -1.214   2.060   0.163  1.00  0.00     0.027 C 
ATOM     14  C   UNL     1      -2.049   1.235   2.366  1.00  0.00     0.030 C 
ATOM     15  C   UNL     1       0.362   0.986   1.847  1.00  0.00     0.030 C 
ATOM     16  C   UNL     1      -0.942   3.437   0.777  1.00  0.00    -0.008 C 
ATOM     17  C   UNL     1      -1.792   2.625   3.008  1.00  0.00    -0.030 C 
ATOM     18  C   UNL     1       0.669   2.384   2.426  1.00  0.00    -0.030 C 
ATOM     19  C   UNL     1      -1.937   3.703   1.913  1.00  0.00     0.010 C 
ATOM     20  C   UNL     1       0.496   3.450   1.319  1.00  0.00     0.010 C 
ATOM     21  C   UNL     1      -0.345   2.673   3.553  1.00  0.00     0.013 C 
ATOM     22  C   UNL     1      -2.784   2.896   4.144  1.00  0.00     0.011 C 
ATOM     23  C   UNL     1       2.102   2.413   2.964  1.00  0.00     0.011 C 
ENDBRANCH  10  12
ENDBRANCH   7  10
ENDBRANCH   5   7
ENDBRANCH   3   5
ENDBRANCH   2   3
ENDBRANCH   1   2
BRANCH   1  24
ATOM     24  C   UNL     1       2.085  -3.380   3.085  1.00  0.00     0.275 C 
BRANCH  24  25
ATOM     25  O   UNL     1       0.656  -3.509   3.085  1.00  0.00    -0.458 OA
BRANCH  25  26
ATOM     26  C   UNL     1      -0.011  -2.687   3.926  1.00  0.00     0.338 C 
ATOM     27  O   UNL     1       0.474  -1.936   4.756  1.00  0.00    -0.246 OA
BRANCH  26  28
ATOM     28  C   UNL     1      -1.467  -2.778   3.679  1.00  0.00     0.060 A 
ATOM     29  C   UNL     1      -1.966  -3.024   2.402  1.00  0.00     0.016 A 
ATOM     30  C   UNL     1      -2.353  -2.495   4.719  1.00  0.00     0.016 A 
ATOM     31  C   UNL     1      -3.327  -2.871   2.139  1.00  0.00     0.010 A 
ATOM     32  C   UNL     1      -3.731  -2.454   4.473  1.00  0.00     0.010 A 
ATOM     33  C   UNL     1      -4.236  -2.600   3.170  1.00  0.00    -0.014 A 
BRANCH  33  34
ATOM     34  C   UNL     1      -5.696  -2.455   2.892  1.00  0.00     0.031 A 
ATOM     35  C   UNL     1      -6.448  -1.224   3.337  1.00  0.00     0.074 A 
ATOM     36  C   UNL     1      -6.368  -3.423   2.234  1.00  0.00     0.049 A 
ATOM     37  N   UNL     1      -7.740  -1.010   3.369  1.00  0.00    -0.248 NA
ATOM     38  C   UNL     1      -5.645  -0.088   3.819  1.00  0.00     0.031 C 
ATOM     39  C   UNL     1      -5.783  -4.649   1.687  1.00  0.00     0.029 A 
ATOM     40  N   UNL     1      -7.698  -3.519   1.904  1.00  0.00    -0.354 N 
ATOM     41  C   UNL     1      -7.906   0.251   3.931  1.00  0.00     0.074 A 
ATOM     42  C   UNL     1      -6.583   0.761   4.217  1.00  0.00     0.031 C 
ATOM     43  C   UNL     1      -6.731  -5.339   1.038  1.00  0.00     0.029 A 
ATOM     44  C   UNL     1      -8.012  -4.670   1.222  1.00  0.00     0.049 A 
ATOM     45  H   UNL     1      -8.363  -2.830   2.134  1.00  0.00     0.167 HD
ATOM     46  C   UNL     1      -9.056   0.917   4.197  1.00  0.00     0.031 A 
ATOM     47  C   UNL     1      -9.198  -5.171   0.830  1.00  0.00     0.031 A 
ATOM     48  C   UNL     1     -10.373   0.435   3.876  1.00  0.00     0.049 A 
ATOM     49  C   UNL     1     -10.459  -4.443   1.182  1.00  0.00     0.074 A 
ATOM     50  C   UNL     1     -11.595   1.047   4.103  1.00  0.00     0.029 A 
ATOM     51  N   UNL     1     -10.642  -0.768   3.243  1.00  0.00    -0.354 N 
ATOM     52  N   UNL     1     -10.604  -3.294   1.795  1.00  0.00    -0.248 NA
ATOM     53  C   UNL     1     -11.722  -5.100   0.820  1.00  0.00     0.031 C 
ATOM     54  C   UNL     1     -12.606   0.195   3.644  1.00  0.00     0.029 A 
ATOM     55  C   UNL     1     -12.010  -0.926   3.091  1.00  0.00     0.049 A 
ATOM     56  H   UNL     1      -9.962  -1.415   2.947  1.00  0.00     0.167 HD
ATOM     57  C   UNL     1     -11.973  -3.091   1.893  1.00  0.00     0.074 A 
ATOM     58  C   UNL     1     -12.615  -4.222   1.255  1.00  0.00     0.031 C 
ATOM     59  C   UNL     1     -12.637  -2.062   2.471  1.00  0.00     0.031 A 
BRANCH  46  60
ATOM     60  C   UNL     1      -8.949   2.230   4.921  1.00  0.00    -0.014 A 
ATOM     61  C   UNL     1      -8.534   3.400   4.270  1.00  0.00     0.009 A 
ATOM     62  C   UNL     1      -9.332   2.301   6.271  1.00  0.00     0.009 A 
ATOM     63  C   UNL     1      -8.484   4.612   4.963  1.00  0.00     0.001 A 
ATOM     64  C   UNL     1      -9.303   3.517   6.954  1.00  0.00     0.001 A 
ATOM     65  C   UNL     1      -8.873   4.671   6.302  1.00  0.00     0.000 A 
ENDBRANCH  46  60
BRANCH  47  66
ATOM     66  C   UNL     1      -9.244  -6.476   0.121  1.00  0.00    -0.014 A 
ATOM     67  C   UNL     1      -9.576  -6.537  -1.239  1.00  0.00     0.009 A 
ATOM     68  C   UNL     1      -8.926  -7.664   0.800  1.00  0.00     0.009 A 
ATOM     69  C   UNL     1      -9.589  -7.765  -1.906  1.00  0.00     0.001 A 
ATOM     70  C   UNL     1      -8.910  -8.884   0.123  1.00  0.00     0.001 A 
ATOM     71  C   UNL     1      -9.247  -8.934  -1.228  1.00  0.00     0.000 A 
ENDBRANCH  47  66
BRANCH  59  72
ATOM     72  C   UNL     1     -14.135  -2.111   2.423  1.00  0.00    -0.014 A 
ATOM     73  C   UNL     1     -14.856  -2.970   3.267  1.00  0.00     0.009 A 
ATOM     74  C   UNL     1     -14.834  -1.283   1.532  1.00  0.00     0.009 A 
ATOM     75  C   UNL     1     -16.249  -3.022   3.195  1.00  0.00     0.001 A 
ATOM     76  C   UNL     1     -16.227  -1.322   1.478  1.00  0.00     0.001 A 
ATOM     77  C   UNL     1     -16.933  -2.197   2.302  1.00  0.00     0.000 A 
ENDBRANCH  59  72
ENDBRANCH  33  34
ENDBRANCH  26  28
ENDBRANCH  25  26
ENDBRANCH  24  25
ENDBRANCH   1  24
TORSDOF 14
