REMARK SMILES CC(C)[C@H](NC(=O)[C@H](Cc1ccccc1)n1c(=O)[nH]c2ccccc2c1=O)C(=O)OCCOC(=O)c1ccc(-c2c3nc(c(-c4ccccc4)c4ccc([nH]4)c(-c4ccccc4)c4nc(c(-c5ccccc5)c5ccc2[nH]5)C=C4)C=C3)cc1
REMARK SMILES IDX 31 1 30 2 28 3 29 4 4 5 2 6 1 7 3 8 5 9 6 10 7 12 8 13 16 14
REMARK SMILES IDX 17 15 26 16 18 17 19 18 25 19 27 20 20 21 24 23 21 24 23 25
REMARK SMILES IDX 22 26 9 27 10 28 11 29 15 30 12 31 14 32 13 33 32 34 33 35
REMARK SMILES IDX 34 36 35 37 36 38 37 39 83 40 38 41 82 42 39 43 40 44 41 45
REMARK SMILES IDX 76 46 42 47 81 48 75 49 77 50 43 51 80 52 74 53 73 54 44 56
REMARK SMILES IDX 66 57 51 58 65 59 52 60 55 61 64 62 78 63 53 64 54 65 63 67
REMARK SMILES IDX 79 68 56 69 45 70 46 71 50 72 47 73 49 74 48 75 67 76 68 77
REMARK SMILES IDX 72 78 69 79 71 80 70 81 57 82 58 83 62 84 59 85 61 86 60 87
REMARK H PARENT 5 11 19 22 77 55 55 66
REMARK Flexibility Score: inf
ROOT
ATOM      1  C   UNL     1       2.023  -2.473   6.141  1.00  0.00     0.274 C 
ENDROOT
BRANCH   1   2
ATOM      2  O   UNL     1       0.776  -1.882   5.714  1.00  0.00    -0.461 OA
BRANCH   2   3
ATOM      3  C   UNL     1      -0.368  -2.618   5.721  1.00  0.00     0.329 C 
ATOM      4  O   UNL     1      -0.459  -3.771   6.123  1.00  0.00    -0.250 OA
BRANCH   3   5
ATOM      5  C   UNL     1      -1.584  -1.737   5.315  1.00  0.00     0.194 C 
BRANCH   5   6
ATOM      6  C   UNL     1      -2.901  -2.458   4.915  1.00  0.00     0.017 C 
ATOM      7  C   UNL     1      -4.108  -1.973   5.735  1.00  0.00     0.010 C 
ATOM      8  C   UNL     1      -3.278  -2.302   3.457  1.00  0.00     0.010 C 
ENDBRANCH   5   6
BRANCH   5   9
ATOM      9  N   UNL     1      -1.308  -0.447   4.703  1.00  0.00    -0.341 N 
ATOM     10  C   UNL     1      -0.385   0.019   3.832  1.00  0.00     0.244 C 
ATOM     11  H   UNL     1      -1.942   0.250   4.990  1.00  0.00     0.164 HD
ATOM     12  O   UNL     1      -0.147   1.215   4.056  1.00  0.00    -0.273 OA
BRANCH  10  13
ATOM     13  C   UNL     1       0.532  -0.812   2.881  1.00  0.00     0.189 C 
BRANCH  13  14
ATOM     14  N   UNL     1      -0.009  -2.067   2.294  1.00  0.00    -0.247 N 
ATOM     15  C   UNL     1      -0.939  -2.016   1.276  1.00  0.00     0.329 A 
ATOM     16  C   UNL     1       0.469  -3.291   2.763  1.00  0.00     0.264 A 
ATOM     17  O   UNL     1      -1.542  -1.009   0.925  1.00  0.00    -0.248 OA
ATOM     18  N   UNL     1      -1.319  -3.203   0.703  1.00  0.00    -0.307 N 
ATOM     19  C   UNL     1      -0.361  -4.476   2.482  1.00  0.00     0.064 A 
ATOM     20  O   UNL     1       1.511  -3.451   3.389  1.00  0.00    -0.268 OA
ATOM     21  C   UNL     1      -1.184  -4.420   1.368  1.00  0.00     0.055 A 
ATOM     22  H   UNL     1      -1.698  -3.195  -0.206  1.00  0.00     0.171 HD
ATOM     23  C   UNL     1      -0.415  -5.571   3.347  1.00  0.00     0.016 A 
ATOM     24  C   UNL     1      -2.015  -5.491   1.049  1.00  0.00     0.027 A 
ATOM     25  C   UNL     1      -1.304  -6.614   3.076  1.00  0.00     0.001 A 
ATOM     26  C   UNL     1      -2.085  -6.583   1.917  1.00  0.00     0.002 A 
ENDBRANCH  13  14
BRANCH  13  27
ATOM     27  C   UNL     1       1.351   0.101   1.896  1.00  0.00     0.071 C 
BRANCH  27  28
ATOM     28  C   UNL     1       0.594   1.124   1.070  1.00  0.00    -0.045 A 
ATOM     29  C   UNL     1       0.112   0.805  -0.201  1.00  0.00     0.004 A 
ATOM     30  C   UNL     1       0.267   2.380   1.603  1.00  0.00     0.004 A 
ATOM     31  C   UNL     1      -0.841   1.620  -0.819  1.00  0.00     0.000 A 
ATOM     32  C   UNL     1      -0.684   3.195   0.992  1.00  0.00     0.000 A 
ATOM     33  C   UNL     1      -1.268   2.795  -0.203  1.00  0.00     0.000 A 
ENDBRANCH  27  28
ENDBRANCH  13  27
ENDBRANCH  10  13
ENDBRANCH   5   9
ENDBRANCH   3   5
ENDBRANCH   2   3
ENDBRANCH   1   2
BRANCH   1  34
ATOM     34  C   UNL     1       2.683  -1.571   7.184  1.00  0.00     0.275 C 
BRANCH  34  35
ATOM     35  O   UNL     1       1.929  -1.616   8.404  1.00  0.00    -0.458 OA
BRANCH  35  36
ATOM     36  C   UNL     1       0.899  -0.741   8.456  1.00  0.00     0.338 C 
ATOM     37  O   UNL     1       0.633   0.170   7.697  1.00  0.00    -0.246 OA
BRANCH  36  38
ATOM     38  C   UNL     1      -0.028  -1.220   9.478  1.00  0.00     0.060 A 
ATOM     39  C   UNL     1      -1.191  -1.852   9.043  1.00  0.00     0.016 A 
ATOM     40  C   UNL     1       0.224  -1.035  10.830  1.00  0.00     0.016 A 
ATOM     41  C   UNL     1      -2.153  -2.260   9.940  1.00  0.00     0.010 A 
ATOM     42  C   UNL     1      -0.710  -1.510  11.747  1.00  0.00     0.010 A 
ATOM     43  C   UNL     1      -1.899  -2.119  11.301  1.00  0.00    -0.014 A 
BRANCH  43  44
ATOM     44  C   UNL     1      -2.886  -2.630  12.263  1.00  0.00     0.031 A 
ATOM     45  C   UNL     1      -3.616  -1.663  13.134  1.00  0.00     0.074 A 
ATOM     46  C   UNL     1      -3.096  -3.956  12.337  1.00  0.00     0.049 A 
ATOM     47  N   UNL     1      -4.359  -1.901  14.178  1.00  0.00    -0.248 NA
ATOM     48  C   UNL     1      -3.481  -0.237  12.792  1.00  0.00     0.031 C 
ATOM     49  C   UNL     1      -2.488  -4.965  11.463  1.00  0.00     0.029 A 
ATOM     50  N   UNL     1      -3.871  -4.686  13.197  1.00  0.00    -0.354 N 
ATOM     51  C   UNL     1      -4.743  -0.654  14.650  1.00  0.00     0.074 A 
ATOM     52  C   UNL     1      -4.150   0.338  13.781  1.00  0.00     0.031 C 
ATOM     53  C   UNL     1      -2.910  -6.182  11.836  1.00  0.00     0.029 A 
ATOM     54  C   UNL     1      -3.740  -6.042  13.024  1.00  0.00     0.049 A 
ATOM     55  H   UNL     1      -4.462  -4.280  13.872  1.00  0.00     0.167 HD
ATOM     56  C   UNL     1      -5.514  -0.379  15.726  1.00  0.00     0.031 A 
ATOM     57  C   UNL     1      -4.187  -7.056  13.784  1.00  0.00     0.031 A 
ATOM     58  C   UNL     1      -6.082  -1.395  16.569  1.00  0.00     0.049 A 
ATOM     59  C   UNL     1      -4.954  -6.718  15.030  1.00  0.00     0.074 A 
ATOM     60  C   UNL     1      -6.885  -1.243  17.683  1.00  0.00     0.029 A 
ATOM     61  N   UNL     1      -5.897  -2.760  16.387  1.00  0.00    -0.354 N 
ATOM     62  N   UNL     1      -5.306  -5.539  15.486  1.00  0.00    -0.248 NA
ATOM     63  C   UNL     1      -5.372  -7.844  15.871  1.00  0.00     0.031 C 
ATOM     64  C   UNL     1      -7.132  -2.513  18.214  1.00  0.00     0.029 A 
ATOM     65  C   UNL     1      -6.538  -3.461  17.392  1.00  0.00     0.049 A 
ATOM     66  H   UNL     1      -5.385  -3.167  15.652  1.00  0.00     0.167 HD
ATOM     67  C   UNL     1      -5.999  -5.780  16.662  1.00  0.00     0.074 A 
ATOM     68  C   UNL     1      -6.039  -7.220  16.832  1.00  0.00     0.031 C 
ATOM     69  C   UNL     1      -6.549  -4.895  17.530  1.00  0.00     0.031 A 
BRANCH  56  70
ATOM     70  C   UNL     1      -5.721   1.066  16.079  1.00  0.00    -0.014 A 
ATOM     71  C   UNL     1      -6.509   1.915  15.286  1.00  0.00     0.009 A 
ATOM     72  C   UNL     1      -5.125   1.583  17.240  1.00  0.00     0.009 A 
ATOM     73  C   UNL     1      -6.668   3.259  15.632  1.00  0.00     0.001 A 
ATOM     74  C   UNL     1      -5.309   2.918  17.599  1.00  0.00     0.001 A 
ATOM     75  C   UNL     1      -6.073   3.758  16.791  1.00  0.00     0.000 A 
ENDBRANCH  56  70
BRANCH  57  76
ATOM     76  C   UNL     1      -3.856  -8.460  13.429  1.00  0.00    -0.014 A 
ATOM     77  C   UNL     1      -4.861  -9.352  13.032  1.00  0.00     0.009 A 
ATOM     78  C   UNL     1      -2.527  -8.915  13.476  1.00  0.00     0.009 A 
ATOM     79  C   UNL     1      -4.546 -10.676  12.713  1.00  0.00     0.001 A 
ATOM     80  C   UNL     1      -2.211 -10.228  13.124  1.00  0.00     0.001 A 
ATOM     81  C   UNL     1      -3.222 -11.111  12.753  1.00  0.00     0.000 A 
ENDBRANCH  57  76
BRANCH  69  82
ATOM     82  C   UNL     1      -7.257  -5.470  18.722  1.00  0.00    -0.014 A 
ATOM     83  C   UNL     1      -6.540  -6.046  19.782  1.00  0.00     0.009 A 
ATOM     84  C   UNL     1      -8.655  -5.386  18.805  1.00  0.00     0.009 A 
ATOM     85  C   UNL     1      -7.216  -6.554  20.892  1.00  0.00     0.001 A 
ATOM     86  C   UNL     1      -9.324  -5.864  19.931  1.00  0.00     0.001 A 
ATOM     87  C   UNL     1      -8.605  -6.455  20.969  1.00  0.00     0.000 A 
ENDBRANCH  69  82
ENDBRANCH  43  44
ENDBRANCH  36  38
ENDBRANCH  35  36
ENDBRANCH  34  35
ENDBRANCH   1  34
TORSDOF 17
