REMARK SMILES O=C(CSc1nnc2sc3ccccc3n12)N[C@H](Cc1c[nH]c2ccccc12)C(=O)OCCOC(=O)c1ccc(-c2c3nc(c(-c4ccccc4)c4ccc([nH]4)c(-c4ccccc4)c4nc(c(-c5ccccc5)c5ccc2[nH]5)C=C4)C=C3)cc1
REMARK SMILES IDX 32 1 31 2 29 3 30 4 18 5 17 6 1 7 2 8 3 10 4 11 5 12 6 13
REMARK SMILES IDX 16 14 7 15 8 16 15 17 9 18 10 19 14 20 11 21 13 22 12 23
REMARK SMILES IDX 19 24 20 25 21 26 28 27 22 28 23 29 27 30 24 32 26 33 25 34
REMARK SMILES IDX 33 35 34 36 35 37 36 38 37 39 38 40 84 41 39 42 83 43 40 44
REMARK SMILES IDX 41 45 42 46 77 47 43 48 82 49 76 50 78 51 44 52 81 53 75 54
REMARK SMILES IDX 74 55 45 57 67 58 52 59 66 60 53 61 56 62 65 63 79 64 54 65
REMARK SMILES IDX 55 66 64 68 80 69 57 70 46 71 47 72 51 73 48 74 50 75 49 76
REMARK SMILES IDX 68 77 69 78 73 79 70 80 72 81 71 82 58 83 59 84 63 85 60 86
REMARK SMILES IDX 62 87 61 88
REMARK H PARENT 17 9 22 31 78 56 56 67
REMARK Flexibility Score: inf
ROOT
ATOM      1  C   UNL     1       3.568  -1.008  -5.769  1.00  0.00     0.274 C 
ENDROOT
BRANCH   1   2
ATOM      2  O   UNL     1       3.668  -0.761  -4.352  1.00  0.00    -0.461 OA
BRANCH   2   3
ATOM      3  C   UNL     1       3.015   0.321  -3.870  1.00  0.00     0.329 C 
ATOM      4  O   UNL     1       2.187   0.970  -4.503  1.00  0.00    -0.250 OA
BRANCH   3   5
ATOM      5  C   UNL     1       3.519   0.778  -2.484  1.00  0.00     0.196 C 
BRANCH   5   6
ATOM      6  N   UNL     1       4.003   2.177  -2.678  1.00  0.00    -0.342 N 
ATOM      7  O   UNL     1       5.396   1.617  -4.398  1.00  0.00    -0.274 OA
ATOM      8  C   UNL     1       4.901   2.490  -3.683  1.00  0.00     0.231 C 
ATOM      9  H   UNL     1       3.678   2.889  -2.081  1.00  0.00     0.164 HD
BRANCH   8  10
ATOM     10  C   UNL     1       5.398   3.920  -3.780  1.00  0.00     0.178 C 
BRANCH  10  11
ATOM     11  S   UNL     1       4.154   5.217  -3.669  1.00  0.00    -0.076 SA
BRANCH  11  12
ATOM     12  C   UNL     1       3.511   5.308  -5.275  1.00  0.00     0.197 A 
ATOM     13  N   UNL     1       3.251   4.279  -6.061  1.00  0.00    -0.122 NA
ATOM     14  N   UNL     1       3.037   6.450  -5.868  1.00  0.00    -0.260 N 
ATOM     15  N   UNL     1       2.529   4.739  -7.163  1.00  0.00    -0.118 NA
ATOM     16  C   UNL     1       2.384   6.024  -6.987  1.00  0.00     0.217 A 
ATOM     17  C   UNL     1       3.047   7.832  -5.674  1.00  0.00     0.068 A 
ATOM     18  S   UNL     1       1.631   7.301  -7.880  1.00  0.00    -0.094 S 
ATOM     19  C   UNL     1       2.298   8.462  -6.686  1.00  0.00     0.055 A 
ATOM     20  C   UNL     1       3.713   8.555  -4.701  1.00  0.00     0.028 A 
ATOM     21  C   UNL     1       2.171   9.842  -6.712  1.00  0.00     0.021 A 
ATOM     22  C   UNL     1       3.597   9.948  -4.738  1.00  0.00     0.002 A 
ATOM     23  C   UNL     1       2.827  10.586  -5.727  1.00  0.00     0.002 A 
ENDBRANCH  11  12
ENDBRANCH  10  11
ENDBRANCH   8  10
ENDBRANCH   5   6
BRANCH   5  24
ATOM     24  C   UNL     1       4.546  -0.098  -1.735  1.00  0.00     0.074 C 
BRANCH  24  25
ATOM     25  C   UNL     1       4.047  -1.402  -1.140  1.00  0.00    -0.020 A 
ATOM     26  C   UNL     1       3.559  -1.595   0.144  1.00  0.00     0.087 A 
ATOM     27  C   UNL     1       4.090  -2.711  -1.740  1.00  0.00     0.003 A 
ATOM     28  N   UNL     1       3.265  -2.926   0.311  1.00  0.00    -0.361 N 
ATOM     29  C   UNL     1       3.523  -3.619  -0.844  1.00  0.00     0.046 A 
ATOM     30  C   UNL     1       4.559  -3.218  -2.968  1.00  0.00     0.010 A 
ATOM     31  H   UNL     1       2.918  -3.325   1.142  1.00  0.00     0.166 HD
ATOM     32  C   UNL     1       3.317  -4.972  -1.153  1.00  0.00     0.026 A 
ATOM     33  C   UNL     1       4.330  -4.556  -3.311  1.00  0.00     0.001 A 
ATOM     34  C   UNL     1       3.699  -5.416  -2.421  1.00  0.00     0.002 A 
ENDBRANCH  24  25
ENDBRANCH   5  24
ENDBRANCH   3   5
ENDBRANCH   2   3
ENDBRANCH   1   2
BRANCH   1  35
ATOM     35  C   UNL     1       2.784  -2.289  -6.067  1.00  0.00     0.275 C 
BRANCH  35  36
ATOM     36  O   UNL     1       1.398  -2.074  -5.791  1.00  0.00    -0.458 OA
BRANCH  36  37
ATOM     37  C   UNL     1       0.932  -2.473  -4.581  1.00  0.00     0.338 C 
ATOM     38  O   UNL     1       1.326  -3.391  -3.889  1.00  0.00    -0.246 OA
BRANCH  37  39
ATOM     39  C   UNL     1       0.042  -1.387  -4.134  1.00  0.00     0.060 A 
ATOM     40  C   UNL     1      -0.704  -0.706  -5.094  1.00  0.00     0.016 A 
ATOM     41  C   UNL     1       0.191  -0.885  -2.830  1.00  0.00     0.016 A 
ATOM     42  C   UNL     1      -1.155   0.562  -4.798  1.00  0.00     0.010 A 
ATOM     43  C   UNL     1      -0.287   0.391  -2.529  1.00  0.00     0.010 A 
ATOM     44  C   UNL     1      -0.903   1.131  -3.537  1.00  0.00    -0.014 A 
BRANCH  44  45
ATOM     45  C   UNL     1      -1.520   2.434  -3.344  1.00  0.00     0.031 A 
ATOM     46  C   UNL     1      -2.979   2.350  -3.196  1.00  0.00     0.074 A 
ATOM     47  C   UNL     1      -0.952   3.649  -3.430  1.00  0.00     0.049 A 
ATOM     48  N   UNL     1      -3.863   2.507  -4.122  1.00  0.00    -0.248 NA
ATOM     49  C   UNL     1      -3.498   1.911  -1.898  1.00  0.00     0.031 C 
ATOM     50  C   UNL     1       0.440   4.016  -3.212  1.00  0.00     0.029 A 
ATOM     51  N   UNL     1      -1.571   4.845  -3.697  1.00  0.00    -0.354 N 
ATOM     52  C   UNL     1      -5.081   2.347  -3.488  1.00  0.00     0.074 A 
ATOM     53  C   UNL     1      -4.800   1.834  -2.168  1.00  0.00     0.031 C 
ATOM     54  C   UNL     1       0.530   5.367  -3.174  1.00  0.00     0.029 A 
ATOM     55  C   UNL     1      -0.744   5.944  -3.574  1.00  0.00     0.049 A 
ATOM     56  H   UNL     1      -2.519   4.913  -3.953  1.00  0.00     0.167 HD
ATOM     57  C   UNL     1      -6.213   2.885  -4.007  1.00  0.00     0.031 A 
ATOM     58  C   UNL     1      -1.048   7.243  -3.802  1.00  0.00     0.031 A 
ATOM     59  C   UNL     1      -6.059   3.298  -5.378  1.00  0.00     0.049 A 
ATOM     60  C   UNL     1      -2.240   7.324  -4.676  1.00  0.00     0.074 A 
ATOM     61  C   UNL     1      -6.125   2.707  -6.620  1.00  0.00     0.029 A 
ATOM     62  N   UNL     1      -5.464   4.521  -5.541  1.00  0.00    -0.354 N 
ATOM     63  N   UNL     1      -2.252   6.972  -5.932  1.00  0.00    -0.248 NA
ATOM     64  C   UNL     1      -3.550   7.586  -4.089  1.00  0.00     0.031 C 
ATOM     65  C   UNL     1      -5.424   3.568  -7.519  1.00  0.00     0.029 A 
ATOM     66  C   UNL     1      -4.941   4.659  -6.803  1.00  0.00     0.049 A 
ATOM     67  H   UNL     1      -5.418   5.213  -4.842  1.00  0.00     0.167 HD
ATOM     68  C   UNL     1      -3.561   6.600  -6.175  1.00  0.00     0.074 A 
ATOM     69  C   UNL     1      -4.337   7.145  -5.073  1.00  0.00     0.031 C 
ATOM     70  C   UNL     1      -3.875   5.610  -7.054  1.00  0.00     0.031 A 
BRANCH  57  71
ATOM     71  C   UNL     1      -7.317   3.428  -3.143  1.00  0.00    -0.014 A 
ATOM     72  C   UNL     1      -7.130   3.784  -1.792  1.00  0.00     0.009 A 
ATOM     73  C   UNL     1      -8.509   3.852  -3.751  1.00  0.00     0.009 A 
ATOM     74  C   UNL     1      -8.088   4.499  -1.073  1.00  0.00     0.001 A 
ATOM     75  C   UNL     1      -9.454   4.606  -3.045  1.00  0.00     0.001 A 
ATOM     76  C   UNL     1      -9.245   4.926  -1.707  1.00  0.00     0.000 A 
ENDBRANCH  57  71
BRANCH  58  77
ATOM     77  C   UNL     1      -0.422   8.447  -3.216  1.00  0.00    -0.014 A 
ATOM     78  C   UNL     1       0.099   8.402  -1.911  1.00  0.00     0.009 A 
ATOM     79  C   UNL     1      -0.543   9.704  -3.829  1.00  0.00     0.009 A 
ATOM     80  C   UNL     1       0.470   9.566  -1.233  1.00  0.00     0.001 A 
ATOM     81  C   UNL     1      -0.181  10.873  -3.147  1.00  0.00     0.001 A 
ATOM     82  C   UNL     1       0.316  10.804  -1.847  1.00  0.00     0.000 A 
ENDBRANCH  58  77
BRANCH  70  83
ATOM     83  C   UNL     1      -2.943   5.354  -8.199  1.00  0.00    -0.014 A 
ATOM     84  C   UNL     1      -3.428   5.565  -9.501  1.00  0.00     0.009 A 
ATOM     85  C   UNL     1      -1.647   4.845  -8.039  1.00  0.00     0.009 A 
ATOM     86  C   UNL     1      -2.640   5.272 -10.616  1.00  0.00     0.001 A 
ATOM     87  C   UNL     1      -0.853   4.566  -9.157  1.00  0.00     0.001 A 
ATOM     88  C   UNL     1      -1.351   4.775 -10.443  1.00  0.00     0.000 A 
ENDBRANCH  70  83
ENDBRANCH  44  45
ENDBRANCH  37  39
ENDBRANCH  36  37
ENDBRANCH  35  36
ENDBRANCH   1  35
TORSDOF 17
