REMARK SMILES CC(C)(C(=O)N1C[C@@H]2c3ccccc3OC[C@]2(C(=O)OCCOC(=O)c2ccc(-c3c4nc(c(-c5ccccc5)c5ccc([nH]5)c(-c5ccccc5)c5nc(c(-c6ccccc6)c6ccc3[nH]6)C=C5)C=C4)cc2)C1)[NH+]1CCOCC1
REMARK SMILES IDX 21 1 20 2 18 3 19 4 17 5 6 6 7 7 74 8 8 9 9 10 16 11 10 12
REMARK SMILES IDX 14 13 15 14 11 15 13 16 12 17 4 18 5 19 2 20 1 21 3 22 75 23
REMARK SMILES IDX 76 24 80 25 77 27 79 28 78 29 22 30 23 31 24 32 25 33 26 34
REMARK SMILES IDX 27 35 73 36 28 37 72 38 29 39 30 40 31 41 66 42 32 43 71 44
REMARK SMILES IDX 65 45 67 46 33 47 70 48 64 49 63 50 34 52 56 53 41 54 55 55
REMARK SMILES IDX 42 56 45 57 54 58 68 59 43 60 44 61 53 63 69 64 46 65 35 66
REMARK SMILES IDX 36 67 40 68 37 69 39 70 38 71 57 72 58 73 62 74 59 75 61 76
REMARK SMILES IDX 60 77 47 78 48 79 52 80 49 81 51 82 50 83
REMARK H PARENT 75 26 67 51 45 62
REMARK Flexibility Score: inf
ROOT
ATOM      1  C   UNL     1      -1.240   4.164  -2.288  1.00  0.00     0.274 C 
ENDROOT
BRANCH   1   2
ATOM      2  O   UNL     1      -1.576   3.055  -1.431  1.00  0.00    -0.461 OA
BRANCH   2   3
ATOM      3  C   UNL     1      -1.903   3.298  -0.123  1.00  0.00     0.318 C 
ATOM      4  O   UNL     1      -1.655   4.323   0.488  1.00  0.00    -0.251 OA
BRANCH   3   5
ATOM      5  C   UNL     1      -2.553   2.047   0.447  1.00  0.00     0.128 C 
ATOM      6  N   UNL     1      -1.536   0.115   1.433  1.00  0.00    -0.335 N 
ATOM      7  C   UNL     1      -2.636   0.518   2.281  1.00  0.00     0.129 C 
ATOM      8  C   UNL     1      -1.423   1.010   0.307  1.00  0.00     0.142 C 
ATOM      9  C   UNL     1      -2.816   2.010   1.957  1.00  0.00     0.065 C 
ATOM     10  C   UNL     1      -4.186   2.434   2.374  1.00  0.00     0.000 A 
ATOM     11  C   UNL     1      -3.815   1.693  -0.352  1.00  0.00     0.251 C 
ATOM     12  C   UNL     1      -4.449   2.753   3.718  1.00  0.00     0.008 A 
ATOM     13  C   UNL     1      -5.228   2.438   1.456  1.00  0.00     0.122 A 
ATOM     14  O   UNL     1      -5.065   2.206   0.125  1.00  0.00    -0.492 OA
ATOM     15  C   UNL     1      -5.743   3.069   4.133  1.00  0.00     0.001 A 
ATOM     16  C   UNL     1      -6.525   2.748   1.875  1.00  0.00     0.047 A 
ATOM     17  C   UNL     1      -6.785   3.062   3.210  1.00  0.00     0.004 A 
BRANCH   6  18
ATOM     18  C   UNL     1      -0.723  -0.935   1.806  1.00  0.00     0.283 C 
ATOM     19  O   UNL     1      -1.175  -1.759   2.607  1.00  0.00    -0.268 OA
BRANCH  18  20
ATOM     20  C   UNL     1       0.806  -0.901   1.424  1.00  0.00     0.171 C 
ATOM     21  C   UNL     1       1.130  -0.553  -0.042  1.00  0.00     0.090 C 
ATOM     22  C   UNL     1       1.372   0.218   2.334  1.00  0.00     0.090 C 
BRANCH  20  23
ATOM     23  N   UNL     1       1.484  -2.212   1.616  1.00  0.00    -0.319 N 
ATOM     24  C   UNL     1       0.794  -3.435   1.174  1.00  0.00     0.291 C 
ATOM     25  C   UNL     1       2.310  -2.464   2.794  1.00  0.00     0.291 C 
ATOM     26  H   UNL     1       2.167  -1.977   0.896  1.00  0.00     0.349 HD
ATOM     27  C   UNL     1       0.251  -4.351   2.300  1.00  0.00     0.221 C 
ATOM     28  C   UNL     1       1.553  -3.208   3.890  1.00  0.00     0.221 C 
ATOM     29  O   UNL     1       1.159  -4.495   3.401  1.00  0.00    -0.370 OA
ENDBRANCH  20  23
ENDBRANCH  18  20
ENDBRANCH   6  18
ENDBRANCH   3   5
ENDBRANCH   2   3
ENDBRANCH   1   2
BRANCH   1  30
ATOM     30  C   UNL     1      -2.522   4.592  -2.995  1.00  0.00     0.275 C 
BRANCH  30  31
ATOM     31  O   UNL     1      -3.312   5.269  -2.010  1.00  0.00    -0.458 OA
BRANCH  31  32
ATOM     32  C   UNL     1      -4.651   5.209  -2.139  1.00  0.00     0.338 C 
ATOM     33  O   UNL     1      -5.285   4.745  -3.078  1.00  0.00    -0.246 OA
BRANCH  32  34
ATOM     34  C   UNL     1      -5.229   5.852  -0.947  1.00  0.00     0.060 A 
ATOM     35  C   UNL     1      -6.285   6.744  -1.080  1.00  0.00     0.016 A 
ATOM     36  C   UNL     1      -4.717   5.564   0.322  1.00  0.00     0.016 A 
ATOM     37  C   UNL     1      -6.778   7.381   0.060  1.00  0.00     0.010 A 
ATOM     38  C   UNL     1      -5.259   6.135   1.465  1.00  0.00     0.010 A 
ATOM     39  C   UNL     1      -6.276   7.075   1.344  1.00  0.00    -0.014 A 
BRANCH  39  40
ATOM     40  C   UNL     1      -6.879   7.705   2.540  1.00  0.00     0.031 A 
ATOM     41  C   UNL     1      -6.107   8.650   3.412  1.00  0.00     0.074 A 
ATOM     42  C   UNL     1      -8.173   7.444   2.803  1.00  0.00     0.049 A 
ATOM     43  N   UNL     1      -6.569   9.530   4.264  1.00  0.00    -0.248 NA
ATOM     44  C   UNL     1      -4.638   8.594   3.348  1.00  0.00     0.031 C 
ATOM     45  C   UNL     1      -8.983   6.443   2.107  1.00  0.00     0.029 A 
ATOM     46  N   UNL     1      -9.048   8.043   3.672  1.00  0.00    -0.354 N 
ATOM     47  C   UNL     1      -5.453  10.148   4.812  1.00  0.00     0.074 A 
ATOM     48  C   UNL     1      -4.290   9.493   4.260  1.00  0.00     0.031 C 
ATOM     49  C   UNL     1     -10.261   6.575   2.489  1.00  0.00     0.029 A 
ATOM     50  C   UNL     1     -10.351   7.659   3.463  1.00  0.00     0.049 A 
ATOM     51  H   UNL     1      -8.773   8.680   4.370  1.00  0.00     0.167 HD
ATOM     52  C   UNL     1      -5.409  11.191   5.674  1.00  0.00     0.031 A 
ATOM     53  C   UNL     1     -11.499   8.170   3.946  1.00  0.00     0.031 A 
ATOM     54  C   UNL     1      -6.579  11.823   6.222  1.00  0.00     0.049 A 
ATOM     55  C   UNL     1     -11.438   9.374   4.841  1.00  0.00     0.074 A 
ATOM     56  C   UNL     1      -6.656  12.932   7.045  1.00  0.00     0.029 A 
ATOM     57  N   UNL     1      -7.879  11.391   6.007  1.00  0.00    -0.354 N 
ATOM     58  N   UNL     1     -10.388  10.054   5.238  1.00  0.00    -0.248 NA
ATOM     59  C   UNL     1     -12.718   9.897   5.335  1.00  0.00     0.031 C 
ATOM     60  C   UNL     1      -7.999  13.135   7.375  1.00  0.00     0.029 A 
ATOM     61  C   UNL     1      -8.764  12.191   6.707  1.00  0.00     0.049 A 
ATOM     62  H   UNL     1      -8.135  10.627   5.440  1.00  0.00     0.167 HD
ATOM     63  C   UNL     1     -10.880  11.084   6.029  1.00  0.00     0.074 A 
ATOM     64  C   UNL     1     -12.324  10.962   6.021  1.00  0.00     0.031 C 
ATOM     65  C   UNL     1     -10.197  12.037   6.708  1.00  0.00     0.031 A 
BRANCH  52  66
ATOM     66  C   UNL     1      -4.059  11.738   6.055  1.00  0.00    -0.014 A 
ATOM     67  C   UNL     1      -3.608  11.648   7.381  1.00  0.00     0.009 A 
ATOM     68  C   UNL     1      -3.268  12.420   5.116  1.00  0.00     0.009 A 
ATOM     69  C   UNL     1      -2.398  12.235   7.760  1.00  0.00     0.001 A 
ATOM     70  C   UNL     1      -2.045  12.981   5.491  1.00  0.00     0.001 A 
ATOM     71  C   UNL     1      -1.615  12.896   6.814  1.00  0.00     0.000 A 
ENDBRANCH  52  66
BRANCH  53  72
ATOM     72  C   UNL     1     -12.793   7.598   3.493  1.00  0.00    -0.014 A 
ATOM     73  C   UNL     1     -13.177   6.305   3.880  1.00  0.00     0.009 A 
ATOM     74  C   UNL     1     -13.616   8.313   2.609  1.00  0.00     0.009 A 
ATOM     75  C   UNL     1     -14.346   5.731   3.375  1.00  0.00     0.001 A 
ATOM     76  C   UNL     1     -14.800   7.748   2.129  1.00  0.00     0.001 A 
ATOM     77  C   UNL     1     -15.158   6.454   2.504  1.00  0.00     0.000 A 
ENDBRANCH  53  72
BRANCH  65  78
ATOM     78  C   UNL     1     -10.996  13.007   7.532  1.00  0.00    -0.014 A 
ATOM     79  C   UNL     1     -11.048  14.363   7.170  1.00  0.00     0.009 A 
ATOM     80  C   UNL     1     -11.621  12.595   8.719  1.00  0.00     0.009 A 
ATOM     81  C   UNL     1     -11.703  15.287   7.985  1.00  0.00     0.001 A 
ATOM     82  C   UNL     1     -12.302  13.516   9.515  1.00  0.00     0.001 A 
ATOM     83  C   UNL     1     -12.335  14.862   9.153  1.00  0.00     0.000 A 
ENDBRANCH  65  78
ENDBRANCH  39  40
ENDBRANCH  32  34
ENDBRANCH  31  32
ENDBRANCH  30  31
ENDBRANCH   1  30
TORSDOF 14
