REMARK SMILES C[C@@H](C(=O)OCCOC(=O)c1ccc(-c2c3nc(c(-c4ccccc4)c4ccc([nH]4)c(-c4ccccc4)c4nc(c(-c5ccccc5)c5ccc2[nH]5)C=C4)C=C3)cc1)c1ccc(NC2CCCC2)cc1F
REMARK SMILES IDX 6 1 5 2 3 3 4 4 2 5 1 6 59 7 60 8 70 9 61 10 69 11 71 12
REMARK SMILES IDX 62 13 63 14 64 16 65 17 68 18 66 19 67 20 7 21 8 22 9 23
REMARK SMILES IDX 10 24 11 25 12 26 58 27 13 28 57 29 14 30 15 31 16 32 51 33
REMARK SMILES IDX 17 34 56 35 50 36 52 37 18 38 55 39 49 40 48 41 19 43 41 44
REMARK SMILES IDX 26 45 40 46 27 47 30 48 39 49 53 50 28 51 29 52 38 54 54 55
REMARK SMILES IDX 31 56 20 57 21 58 25 59 22 60 24 61 23 62 42 63 43 64 47 65
REMARK SMILES IDX 44 66 46 67 45 68 32 69 33 70 37 71 34 72 36 73 35 74
REMARK H PARENT 63 15 52 42 30 53
REMARK Flexibility Score: inf
ROOT
ATOM      1  C   UNL     1       2.936  -0.119   3.185  1.00  0.00     0.274 C 
ENDROOT
BRANCH   1   2
ATOM      2  O   UNL     1       2.337  -0.502   1.928  1.00  0.00    -0.462 OA
BRANCH   2   3
ATOM      3  C   UNL     1       1.170  -1.209   1.994  1.00  0.00     0.313 C 
ATOM      4  O   UNL     1       0.661  -1.590   3.043  1.00  0.00    -0.252 OA
BRANCH   3   5
ATOM      5  C   UNL     1       0.580  -1.499   0.604  1.00  0.00     0.129 C 
ATOM      6  C   UNL     1       1.294  -0.738  -0.524  1.00  0.00     0.025 C 
BRANCH   5   7
ATOM      7  C   UNL     1      -0.920  -1.247   0.599  1.00  0.00     0.002 A 
ATOM      8  C   UNL     1      -1.435   0.030   0.418  1.00  0.00     0.010 A 
ATOM      9  C   UNL     1      -1.837  -2.259   0.897  1.00  0.00     0.129 A 
ATOM     10  C   UNL     1      -2.805   0.272   0.575  1.00  0.00     0.026 A 
ATOM     11  C   UNL     1      -3.213  -2.005   1.037  1.00  0.00     0.065 A 
ATOM     12  F   UNL     1      -1.395  -3.510   1.099  1.00  0.00    -0.207 F 
ATOM     13  C   UNL     1      -3.737  -0.715   0.896  1.00  0.00     0.037 A 
BRANCH  13  14
ATOM     14  N   UNL     1      -5.065  -0.459   1.194  1.00  0.00    -0.382 N 
ATOM     15  H   UNL     1      -5.413  -0.927   1.987  1.00  0.00     0.160 HD
BRANCH  14  16
ATOM     16  C   UNL     1      -6.040   0.412   0.500  1.00  0.00     0.079 C 
ATOM     17  C   UNL     1      -7.497   0.813   1.681  1.00  0.00     0.025 C 
ATOM     18  C   UNL     1      -5.346   1.874  -0.375  1.00  0.00     0.025 C 
ATOM     19  C   UNL     1      -7.653   2.823   1.881  1.00  0.00     0.002 C 
ATOM     20  C   UNL     1      -6.058   3.514   0.385  1.00  0.00     0.002 C 
ENDBRANCH  14  16
ENDBRANCH  13  14
ENDBRANCH   5   7
ENDBRANCH   3   5
ENDBRANCH   2   3
ENDBRANCH   1   2
BRANCH   1  21
ATOM     21  C   UNL     1       2.539   1.313   3.545  1.00  0.00     0.275 C 
BRANCH  21  22
ATOM     22  O   UNL     1       1.121   1.346   3.762  1.00  0.00    -0.458 OA
BRANCH  22  23
ATOM     23  C   UNL     1       0.506   2.528   3.539  1.00  0.00     0.338 C 
ATOM     24  O   UNL     1       1.052   3.597   3.319  1.00  0.00    -0.246 OA
BRANCH  23  25
ATOM     25  C   UNL     1      -0.966   2.325   3.503  1.00  0.00     0.060 A 
ATOM     26  C   UNL     1      -1.558   1.091   3.767  1.00  0.00     0.016 A 
ATOM     27  C   UNL     1      -1.777   3.395   3.123  1.00  0.00     0.016 A 
ATOM     28  C   UNL     1      -2.939   0.927   3.614  1.00  0.00     0.010 A 
ATOM     29  C   UNL     1      -3.162   3.226   2.993  1.00  0.00     0.010 A 
ATOM     30  C   UNL     1      -3.777   1.987   3.228  1.00  0.00    -0.014 A 
BRANCH  30  31
ATOM     31  C   UNL     1      -5.263   1.809   3.089  1.00  0.00     0.031 A 
ATOM     32  C   UNL     1      -5.961   2.484   1.799  1.00  0.00     0.074 A 
ATOM     33  C   UNL     1      -5.974   1.368   4.181  1.00  0.00     0.049 A 
ATOM     34  N   UNL     1      -7.114   2.179   0.434  1.00  0.00    -0.248 NA
ATOM     35  C   UNL     1      -6.339   4.394   2.207  1.00  0.00     0.031 C 
ATOM     36  C   UNL     1      -5.424   0.697   5.373  1.00  0.00     0.029 A 
ATOM     37  N   UNL     1      -7.340   1.294   4.444  1.00  0.00    -0.354 N 
ATOM     38  C   UNL     1      -8.035   3.681   0.090  1.00  0.00     0.074 A 
ATOM     39  C   UNL     1      -7.385   4.907   1.299  1.00  0.00     0.031 C 
ATOM     40  C   UNL     1      -6.412   0.050   6.023  1.00  0.00     0.029 A 
ATOM     41  C   UNL     1      -7.676   0.344   5.369  1.00  0.00     0.049 A 
ATOM     42  H   UNL     1      -8.004   1.872   4.003  1.00  0.00     0.167 HD
ATOM     43  C   UNL     1      -9.243   3.899  -0.479  1.00  0.00     0.031 A 
ATOM     44  C   UNL     1      -8.872  -0.252   5.542  1.00  0.00     0.031 A 
ATOM     45  C   UNL     1     -10.455   3.169  -0.193  1.00  0.00     0.049 A 
ATOM     46  C   UNL     1     -10.115   0.150   4.747  1.00  0.00     0.074 A 
ATOM     47  C   UNL     1     -11.736   3.421  -0.658  1.00  0.00     0.029 A 
ATOM     48  N   UNL     1     -10.607   2.208   0.804  1.00  0.00    -0.354 N 
ATOM     49  N   UNL     1     -10.269   0.816   3.620  1.00  0.00    -0.248 NA
ATOM     50  C   UNL     1     -11.378  -0.309   5.346  1.00  0.00     0.031 C 
ATOM     51  C   UNL     1     -12.642   2.817   0.236  1.00  0.00     0.029 A 
ATOM     52  C   UNL     1     -11.923   2.124   1.202  1.00  0.00     0.049 A 
ATOM     53  H   UNL     1      -9.874   1.664   1.173  1.00  0.00     0.167 HD
ATOM     54  C   UNL     1     -11.652   0.849   3.372  1.00  0.00     0.074 A 
ATOM     55  C   UNL     1     -12.271   0.116   4.465  1.00  0.00     0.031 C 
ATOM     56  C   UNL     1     -12.394   1.413   2.371  1.00  0.00     0.031 A 
BRANCH  43  57
ATOM     57  C   UNL     1      -9.268   5.216  -1.179  1.00  0.00    -0.014 A 
ATOM     58  C   UNL     1      -8.614   5.326  -2.419  1.00  0.00     0.009 A 
ATOM     59  C   UNL     1      -9.891   6.347  -0.637  1.00  0.00     0.009 A 
ATOM     60  C   UNL     1      -8.563   6.546  -3.092  1.00  0.00     0.001 A 
ATOM     61  C   UNL     1      -9.829   7.571  -1.308  1.00  0.00     0.001 A 
ATOM     62  C   UNL     1      -9.164   7.670  -2.531  1.00  0.00     0.000 A 
ENDBRANCH  43  57
BRANCH  44  63
ATOM     63  C   UNL     1      -8.950  -1.428   6.447  1.00  0.00    -0.014 A 
ATOM     64  C   UNL     1      -9.085  -2.708   5.884  1.00  0.00     0.009 A 
ATOM     65  C   UNL     1      -8.901  -1.296   7.840  1.00  0.00     0.009 A 
ATOM     66  C   UNL     1      -9.177  -3.834   6.701  1.00  0.00     0.001 A 
ATOM     67  C   UNL     1      -8.982  -2.428   8.655  1.00  0.00     0.001 A 
ATOM     68  C   UNL     1      -9.123  -3.694   8.086  1.00  0.00     0.000 A 
ENDBRANCH  44  63
BRANCH  56  69
ATOM     69  C   UNL     1     -13.893   1.334   2.523  1.00  0.00    -0.014 A 
ATOM     70  C   UNL     1     -14.563   2.142   3.458  1.00  0.00     0.009 A 
ATOM     71  C   UNL     1     -14.644   0.498   1.684  1.00  0.00     0.009 A 
ATOM     72  C   UNL     1     -15.953   2.090   3.570  1.00  0.00     0.001 A 
ATOM     73  C   UNL     1     -16.035   0.464   1.784  1.00  0.00     0.001 A 
ATOM     74  C   UNL     1     -16.687   1.254   2.731  1.00  0.00     0.000 A 
ENDBRANCH  56  69
ENDBRANCH  30  31
ENDBRANCH  23  25
ENDBRANCH  22  23
ENDBRANCH  21  22
ENDBRANCH   1  21
TORSDOF 14
