REMARK SMILES O=C(OCCOC(=O)c1cccc(Nc2ccnc3ccc(Cl)cc23)c1)c1ccc(-c2c3nc(c(-c4ccccc4)c4ccc([nH]4)c(-c4ccccc4)c4nc(c(-c5ccccc5)c5ccc2[nH]5)C=C4)C=C3)cc1
REMARK SMILES IDX 4 1 3 2 2 3 1 4 27 5 28 6 74 7 29 8 73 9 30 10 31 11 32 12
REMARK SMILES IDX 67 13 33 14 72 15 66 16 68 17 34 18 71 19 65 20 64 21 35 23
REMARK SMILES IDX 57 24 42 25 56 26 43 27 46 28 55 29 69 30 44 31 45 32 54 34
REMARK SMILES IDX 70 35 47 36 36 37 37 38 41 39 38 40 40 41 39 42 58 43 59 44
REMARK SMILES IDX 63 45 60 46 62 47 61 48 48 49 49 50 53 51 50 52 52 53 51 54
REMARK SMILES IDX 5 55 6 56 7 57 8 58 9 59 10 60 26 61 11 62 13 63 12 64 14 65
REMARK SMILES IDX 15 67 16 68 25 69 17 70 19 71 24 72 18 73 20 74 22 75 21 76
REMARK SMILES IDX 23 77
REMARK H PARENT 68 22 46 33 14 66
REMARK Flexibility Score: inf
ROOT
ATOM      1  C   UNL     1       3.975   1.657  -0.333  1.00  0.00     0.275 C 
ENDROOT
BRANCH   1   2
ATOM      2  O   UNL     1       2.987   0.787  -0.919  1.00  0.00    -0.458 OA
BRANCH   2   3
ATOM      3  C   UNL     1       2.998  -0.566  -1.026  1.00  0.00     0.338 C 
ATOM      4  O   UNL     1       2.224  -1.107  -1.813  1.00  0.00    -0.246 OA
BRANCH   3   5
ATOM      5  C   UNL     1       3.774  -1.455  -0.107  1.00  0.00     0.060 A 
ATOM      6  C   UNL     1       5.071  -1.218   0.344  1.00  0.00     0.016 A 
ATOM      7  C   UNL     1       3.143  -2.651   0.289  1.00  0.00     0.016 A 
ATOM      8  C   UNL     1       5.691  -2.107   1.225  1.00  0.00     0.010 A 
ATOM      9  C   UNL     1       3.752  -3.537   1.184  1.00  0.00     0.010 A 
ATOM     10  C   UNL     1       5.038  -3.268   1.655  1.00  0.00    -0.014 A 
BRANCH  10  11
ATOM     11  C   UNL     1       5.771  -4.215   2.521  1.00  0.00     0.031 A 
ATOM     12  C   UNL     1       6.381  -5.445   1.917  1.00  0.00     0.074 A 
ATOM     13  C   UNL     1       5.980  -3.911   3.815  1.00  0.00     0.049 A 
ATOM     14  N   UNL     1       7.211  -6.300   2.455  1.00  0.00    -0.248 NA
ATOM     15  C   UNL     1       6.035  -5.737   0.516  1.00  0.00     0.031 C 
ATOM     16  C   UNL     1       5.468  -2.720   4.497  1.00  0.00     0.029 A 
ATOM     17  N   UNL     1       6.696  -4.568   4.782  1.00  0.00    -0.354 N 
ATOM     18  C   UNL     1       7.524  -7.202   1.447  1.00  0.00     0.074 A 
ATOM     19  C   UNL     1       6.745  -6.831   0.286  1.00  0.00     0.031 C 
ATOM     20  C   UNL     1       5.885  -2.734   5.775  1.00  0.00     0.029 A 
ATOM     21  C   UNL     1       6.700  -3.924   5.996  1.00  0.00     0.049 A 
ATOM     22  H   UNL     1       7.161  -5.420   4.622  1.00  0.00     0.167 HD
ATOM     23  C   UNL     1       8.406  -8.228   1.473  1.00  0.00     0.031 A 
ATOM     24  C   UNL     1       7.309  -4.253   7.151  1.00  0.00     0.031 A 
ATOM     25  C   UNL     1       9.145  -8.625   2.639  1.00  0.00     0.049 A 
ATOM     26  C   UNL     1       8.205  -5.461   7.181  1.00  0.00     0.074 A 
ATOM     27  C   UNL     1      10.032  -9.677   2.786  1.00  0.00     0.029 A 
ATOM     28  N   UNL     1       9.069  -7.987   3.868  1.00  0.00    -0.354 N 
ATOM     29  N   UNL     1       8.528  -6.274   6.204  1.00  0.00    -0.248 NA
ATOM     30  C   UNL     1       8.845  -5.776   8.466  1.00  0.00     0.031 C 
ATOM     31  C   UNL     1      10.463  -9.698   4.118  1.00  0.00     0.029 A 
ATOM     32  C   UNL     1       9.878  -8.633   4.786  1.00  0.00     0.049 A 
ATOM     33  H   UNL     1       8.521  -7.193   4.059  1.00  0.00     0.167 HD
ATOM     34  C   UNL     1       9.426  -7.182   6.749  1.00  0.00     0.074 A 
ATOM     35  C   UNL     1       9.614  -6.804   8.136  1.00  0.00     0.031 C 
ATOM     36  C   UNL     1      10.042  -8.236   6.160  1.00  0.00     0.031 A 
BRANCH  23  37
ATOM     37  C   UNL     1       8.598  -8.988   0.193  1.00  0.00    -0.014 A 
ATOM     38  C   UNL     1       9.317  -8.424  -0.874  1.00  0.00     0.009 A 
ATOM     39  C   UNL     1       8.047 -10.268   0.042  1.00  0.00     0.009 A 
ATOM     40  C   UNL     1       9.449  -9.113  -2.081  1.00  0.00     0.001 A 
ATOM     41  C   UNL     1       8.198 -10.964  -1.159  1.00  0.00     0.001 A 
ATOM     42  C   UNL     1       8.891 -10.383  -2.222  1.00  0.00     0.000 A 
ENDBRANCH  23  37
BRANCH  24  43
ATOM     43  C   UNL     1       7.105  -3.427   8.369  1.00  0.00    -0.014 A 
ATOM     44  C   UNL     1       8.149  -2.658   8.906  1.00  0.00     0.009 A 
ATOM     45  C   UNL     1       5.863  -3.436   9.025  1.00  0.00     0.009 A 
ATOM     46  C   UNL     1       7.964  -1.943  10.092  1.00  0.00     0.001 A 
ATOM     47  C   UNL     1       5.674  -2.700  10.196  1.00  0.00     0.001 A 
ATOM     48  C   UNL     1       6.727  -1.963  10.735  1.00  0.00     0.000 A 
ENDBRANCH  24  43
BRANCH  36  49
ATOM     49  C   UNL     1      10.984  -9.036   7.013  1.00  0.00    -0.014 A 
ATOM     50  C   UNL     1      10.502  -9.899   8.009  1.00  0.00     0.009 A 
ATOM     51  C   UNL     1      12.367  -8.947   6.796  1.00  0.00     0.009 A 
ATOM     52  C   UNL     1      11.392 -10.632   8.796  1.00  0.00     0.001 A 
ATOM     53  C   UNL     1      13.253  -9.700   7.566  1.00  0.00     0.001 A 
ATOM     54  C   UNL     1      12.765 -10.534   8.572  1.00  0.00     0.000 A 
ENDBRANCH  36  49
ENDBRANCH  10  11
ENDBRANCH   3   5
ENDBRANCH   2   3
ENDBRANCH   1   2
BRANCH   1  55
ATOM     55  C   UNL     1       3.740   1.966   1.147  1.00  0.00     0.275 C 
BRANCH  55  56
ATOM     56  O   UNL     1       3.134   0.846   1.799  1.00  0.00    -0.458 OA
BRANCH  56  57
ATOM     57  C   UNL     1       2.169   1.131   2.708  1.00  0.00     0.338 C 
ATOM     58  O   UNL     1       1.908   2.208   3.206  1.00  0.00    -0.246 OA
BRANCH  57  59
ATOM     59  C   UNL     1       1.458  -0.129   2.992  1.00  0.00     0.062 A 
ATOM     60  C   UNL     1       0.863  -0.814   1.928  1.00  0.00     0.016 A 
ATOM     61  C   UNL     1       1.410  -0.640   4.294  1.00  0.00     0.041 A 
ATOM     62  C   UNL     1       0.296  -2.062   2.145  1.00  0.00     0.003 A 
ATOM     63  C   UNL     1       0.828  -1.893   4.519  1.00  0.00     0.039 A 
ATOM     64  C   UNL     1       0.311  -2.608   3.425  1.00  0.00     0.026 A 
BRANCH  63  65
ATOM     65  N   UNL     1       0.852  -2.490   5.792  1.00  0.00    -0.355 N 
ATOM     66  H   UNL     1       0.633  -1.917   6.562  1.00  0.00     0.167 HD
BRANCH  65  67
ATOM     67  C   UNL     1       1.165  -3.842   6.059  1.00  0.00     0.050 A 
ATOM     68  C   UNL     1       2.386  -4.345   5.608  1.00  0.00     0.047 A 
ATOM     69  C   UNL     1       0.304  -4.691   6.788  1.00  0.00     0.025 A 
ATOM     70  C   UNL     1       2.726  -5.647   5.898  1.00  0.00     0.114 A 
ATOM     71  C   UNL     1       0.745  -6.017   7.016  1.00  0.00     0.072 A 
ATOM     72  C   UNL     1      -0.976  -4.303   7.244  1.00  0.00     0.033 A 
ATOM     73  N   UNL     1       1.931  -6.480   6.594  1.00  0.00    -0.256 NA
ATOM     74  C   UNL     1      -0.090  -6.895   7.691  1.00  0.00     0.030 A 
ATOM     75  C   UNL     1      -1.797  -5.214   7.906  1.00  0.00     0.041 A 
ATOM     76  C   UNL     1      -1.357  -6.511   8.135  1.00  0.00     0.023 A 
ATOM     77  Cl  UNL     1      -3.366  -4.741   8.424  1.00  0.00    -0.084 Cl
ENDBRANCH  65  67
ENDBRANCH  63  65
ENDBRANCH  57  59
ENDBRANCH  56  57
ENDBRANCH  55  56
ENDBRANCH   1  55
TORSDOF 13
