REMARK SMILES CCN(C(=O)N(CCOC)CC(=O)OCCOC(=O)c1ccc(-c2c3nc(c(-c4ccccc4)c4ccc([nH]4)c(-c4ccccc4)c4nc(c(-c5ccccc5)c5ccc2[nH]5)C=C4)C=C3)cc1)C1CCCC1
REMARK SMILES IDX 15 1 14 2 12 3 13 4 11 5 6 6 4 7 5 8 3 9 2 10 1 11 68 12
REMARK SMILES IDX 69 13 72 14 70 15 71 16 7 17 8 18 9 19 10 20 16 21 17 22
REMARK SMILES IDX 18 23 19 24 20 25 21 26 67 27 22 28 66 29 23 30 24 31 25 32
REMARK SMILES IDX 60 33 26 34 65 35 59 36 61 37 27 38 64 39 58 40 57 41 28 43
REMARK SMILES IDX 50 44 35 45 49 46 36 47 39 48 48 49 62 50 37 51 38 52 47 54
REMARK SMILES IDX 63 55 40 56 29 57 30 58 34 59 31 60 33 61 32 62 51 63 52 64
REMARK SMILES IDX 56 65 53 66 55 67 54 68 41 69 42 70 46 71 43 72 45 73 44 74
REMARK H PARENT 61 42 39 53
REMARK Flexibility Score: inf
ROOT
ATOM      1  C   UNL     1      -2.031   5.444  -3.868  1.00  0.00     0.274 C 
ENDROOT
BRANCH   1   2
ATOM      2  O   UNL     1      -1.883   4.121  -3.307  1.00  0.00    -0.461 OA
BRANCH   2   3
ATOM      3  C   UNL     1      -2.635   3.151  -3.902  1.00  0.00     0.325 C 
ATOM      4  O   UNL     1      -3.451   3.363  -4.797  1.00  0.00    -0.250 OA
BRANCH   3   5
ATOM      5  C   UNL     1      -2.360   1.732  -3.394  1.00  0.00     0.244 C 
BRANCH   5   6
ATOM      6  N   UNL     1      -1.456   1.546  -2.241  1.00  0.00    -0.311 N 
BRANCH   6   7
ATOM      7  C   UNL     1      -0.108   1.629  -2.540  1.00  0.00     0.320 C 
ATOM      8  O   UNL     1       0.203   1.795  -3.727  1.00  0.00    -0.248 OA
BRANCH   7   9
ATOM      9  N   UNL     1       0.889   1.534  -1.584  1.00  0.00    -0.322 N 
BRANCH   9  10
ATOM     10  C   UNL     1       0.751   1.551  -0.128  1.00  0.00     0.118 C 
ATOM     11  C   UNL     1       0.866   0.146   0.457  1.00  0.00     0.027 C 
ENDBRANCH   9  10
BRANCH   9  12
ATOM     12  C   UNL     1       2.300   1.519  -2.025  1.00  0.00     0.087 C 
ATOM     13  C   UNL     1       2.723   0.428  -3.010  1.00  0.00     0.025 C 
ATOM     14  C   UNL     1       2.808   2.815  -2.661  1.00  0.00     0.025 C 
ATOM     15  C   UNL     1       4.124   0.881  -3.412  1.00  0.00     0.002 C 
ATOM     16  C   UNL     1       4.081   2.411  -3.408  1.00  0.00     0.002 C 
ENDBRANCH   9  12
ENDBRANCH   7   9
ENDBRANCH   6   7
BRANCH   6  17
ATOM     17  C   UNL     1      -2.171   1.200  -1.003  1.00  0.00     0.150 C 
BRANCH  17  18
ATOM     18  C   UNL     1      -2.950   2.397  -0.437  1.00  0.00     0.181 C 
BRANCH  18  19
ATOM     19  O   UNL     1      -4.199   2.479  -1.133  1.00  0.00    -0.383 OA
ATOM     20  C   UNL     1      -4.718   3.797  -1.201  1.00  0.00     0.194 C 
ENDBRANCH  18  19
ENDBRANCH  17  18
ENDBRANCH   6  17
ENDBRANCH   5   6
ENDBRANCH   3   5
ENDBRANCH   2   3
ENDBRANCH   1   2
BRANCH   1  21
ATOM     21  C   UNL     1      -0.904   5.753  -4.851  1.00  0.00     0.275 C 
BRANCH  21  22
ATOM     22  O   UNL     1      -0.827   4.701  -5.822  1.00  0.00    -0.458 OA
BRANCH  22  23
ATOM     23  C   UNL     1       0.412   4.226  -6.082  1.00  0.00     0.338 C 
ATOM     24  O   UNL     1       1.477   4.709  -5.719  1.00  0.00    -0.246 OA
BRANCH  23  25
ATOM     25  C   UNL     1       0.304   3.053  -6.972  1.00  0.00     0.060 A 
ATOM     26  C   UNL     1      -0.740   2.133  -6.837  1.00  0.00     0.016 A 
ATOM     27  C   UNL     1       1.276   2.858  -7.951  1.00  0.00     0.016 A 
ATOM     28  C   UNL     1      -0.799   1.003  -7.645  1.00  0.00     0.010 A 
ATOM     29  C   UNL     1       1.171   1.772  -8.819  1.00  0.00     0.010 A 
ATOM     30  C   UNL     1       0.135   0.833  -8.670  1.00  0.00    -0.014 A 
BRANCH  30  31
ATOM     31  C   UNL     1       0.034  -0.306  -9.612  1.00  0.00     0.031 A 
ATOM     32  C   UNL     1       1.146  -1.308  -9.694  1.00  0.00     0.074 A 
ATOM     33  C   UNL     1      -1.031  -0.402 -10.431  1.00  0.00     0.049 A 
ATOM     34  N   UNL     1       1.370  -2.221 -10.603  1.00  0.00    -0.248 NA
ATOM     35  C   UNL     1       2.149  -1.267  -8.617  1.00  0.00     0.031 C 
ATOM     36  C   UNL     1      -2.202   0.478 -10.413  1.00  0.00     0.029 A 
ATOM     37  N   UNL     1      -1.291  -1.279 -11.454  1.00  0.00    -0.354 N 
ATOM     38  C   UNL     1       2.564  -2.829 -10.237  1.00  0.00     0.074 A 
ATOM     39  C   UNL     1       3.017  -2.182  -9.024  1.00  0.00     0.031 C 
ATOM     40  C   UNL     1      -3.058   0.091 -11.370  1.00  0.00     0.029 A 
ATOM     41  C   UNL     1      -2.461  -1.006 -12.121  1.00  0.00     0.049 A 
ATOM     42  H   UNL     1      -0.698  -2.029 -11.687  1.00  0.00     0.167 HD
ATOM     43  C   UNL     1       3.222  -3.831 -10.866  1.00  0.00     0.031 A 
ATOM     44  C   UNL     1      -2.970  -1.540 -13.246  1.00  0.00     0.031 A 
ATOM     45  C   UNL     1       2.753  -4.474 -12.066  1.00  0.00     0.049 A 
ATOM     46  C   UNL     1      -2.187  -2.600 -13.963  1.00  0.00     0.074 A 
ATOM     47  C   UNL     1       3.338  -5.505 -12.779  1.00  0.00     0.029 A 
ATOM     48  N   UNL     1       1.578  -4.146 -12.725  1.00  0.00    -0.354 N 
ATOM     49  N   UNL     1      -1.040  -3.144 -13.634  1.00  0.00    -0.248 NA
ATOM     50  C   UNL     1      -2.759  -3.106 -15.218  1.00  0.00     0.031 C 
ATOM     51  C   UNL     1       2.537  -5.772 -13.896  1.00  0.00     0.029 A 
ATOM     52  C   UNL     1       1.430  -4.939 -13.850  1.00  0.00     0.049 A 
ATOM     53  H   UNL     1       0.943  -3.451 -12.436  1.00  0.00     0.167 HD
ATOM     54  C   UNL     1      -0.756  -4.062 -14.634  1.00  0.00     0.074 A 
ATOM     55  C   UNL     1      -1.862  -4.017 -15.570  1.00  0.00     0.031 C 
ATOM     56  C   UNL     1       0.325  -4.867 -14.770  1.00  0.00     0.031 A 
BRANCH  43  57
ATOM     57  C   UNL     1       4.544  -4.256 -10.292  1.00  0.00    -0.014 A 
ATOM     58  C   UNL     1       4.624  -4.993  -9.101  1.00  0.00     0.009 A 
ATOM     59  C   UNL     1       5.729  -3.928 -10.969  1.00  0.00     0.009 A 
ATOM     60  C   UNL     1       5.867  -5.364  -8.582  1.00  0.00     0.001 A 
ATOM     61  C   UNL     1       6.969  -4.321 -10.461  1.00  0.00     0.001 A 
ATOM     62  C   UNL     1       7.037  -5.031  -9.263  1.00  0.00     0.000 A 
ENDBRANCH  43  57
BRANCH  44  63
ATOM     63  C   UNL     1      -4.258  -1.038 -13.789  1.00  0.00    -0.014 A 
ATOM     64  C   UNL     1      -5.409  -1.838 -13.744  1.00  0.00     0.009 A 
ATOM     65  C   UNL     1      -4.348   0.251 -14.340  1.00  0.00     0.009 A 
ATOM     66  C   UNL     1      -6.620  -1.362 -14.252  1.00  0.00     0.001 A 
ATOM     67  C   UNL     1      -5.566   0.734 -14.821  1.00  0.00     0.001 A 
ATOM     68  C   UNL     1      -6.699  -0.076 -14.783  1.00  0.00     0.000 A 
ENDBRANCH  44  63
BRANCH  56  69
ATOM     69  C   UNL     1       0.344  -5.777 -15.963  1.00  0.00    -0.014 A 
ATOM     70  C   UNL     1       0.618  -5.280 -17.247  1.00  0.00     0.009 A 
ATOM     71  C   UNL     1       0.110  -7.150 -15.795  1.00  0.00     0.009 A 
ATOM     72  C   UNL     1       0.629  -6.141 -18.346  1.00  0.00     0.001 A 
ATOM     73  C   UNL     1       0.146  -8.011 -16.892  1.00  0.00     0.001 A 
ATOM     74  C   UNL     1       0.398  -7.505 -18.167  1.00  0.00     0.000 A 
ENDBRANCH  56  69
ENDBRANCH  30  31
ENDBRANCH  23  25
ENDBRANCH  22  23
ENDBRANCH  21  22
ENDBRANCH   1  21
TORSDOF 19
