REMARK SMILES O=C(OCCOC(=O)[C@H]1CC2=c3ccccc3=N[C@H]2[C@@H](c2ccccc2)[NH2+]1)c1ccc(-c2c3nc(c(-c4ccccc4)c4ccc([nH]4)c(-c4ccccc4)c4nc(c(-c5ccccc5)c5ccc2[nH]5)C=C4)C=C3)cc1
REMARK SMILES IDX 4 1 3 2 2 3 1 4 28 5 29 6 75 7 30 8 74 9 31 10 32 11 33 12
REMARK SMILES IDX 68 13 34 14 73 15 67 16 69 17 35 18 72 19 66 20 65 21 36 23
REMARK SMILES IDX 58 24 43 25 57 26 44 27 47 28 56 29 70 30 45 31 46 32 55 34
REMARK SMILES IDX 71 35 48 36 37 37 38 38 42 39 39 40 41 41 40 42 59 43 60 44
REMARK SMILES IDX 64 45 61 46 63 47 62 48 49 49 50 50 54 51 51 52 53 53 52 54
REMARK SMILES IDX 5 55 6 56 7 57 8 58 9 59 10 60 27 61 11 62 20 63 12 66 19 67
REMARK SMILES IDX 13 68 17 69 18 70 14 71 16 72 15 73 21 74 22 75 26 76 23 77
REMARK SMILES IDX 25 78 24 79
REMARK H PARENT 69 22 47 33 27 64 27 65
REMARK Flexibility Score: inf
ROOT
ATOM      1  C   UNL     1       4.086   1.358   0.095  1.00  0.00     0.275 C 
ENDROOT
BRANCH   1   2
ATOM      2  O   UNL     1       3.078   0.451  -0.388  1.00  0.00    -0.458 OA
BRANCH   2   3
ATOM      3  C   UNL     1       3.350  -0.828  -0.762  1.00  0.00     0.338 C 
ATOM      4  O   UNL     1       2.717  -1.390  -1.649  1.00  0.00    -0.246 OA
BRANCH   3   5
ATOM      5  C   UNL     1       4.218  -1.632   0.132  1.00  0.00     0.060 A 
ATOM      6  C   UNL     1       3.604  -2.690   0.801  1.00  0.00     0.016 A 
ATOM      7  C   UNL     1       5.586  -1.395   0.329  1.00  0.00     0.016 A 
ATOM      8  C   UNL     1       4.330  -3.421   1.737  1.00  0.00     0.010 A 
ATOM      9  C   UNL     1       6.308  -2.113   1.295  1.00  0.00     0.010 A 
ATOM     10  C   UNL     1       5.679  -3.116   2.034  1.00  0.00    -0.014 A 
BRANCH  10  11
ATOM     11  C   UNL     1       6.409  -4.010   2.976  1.00  0.00     0.031 A 
ATOM     12  C   UNL     1       6.738  -3.643   4.403  1.00  0.00     0.074 A 
ATOM     13  C   UNL     1       6.550  -5.279   2.551  1.00  0.00     0.049 A 
ATOM     14  N   UNL     1       7.088  -4.441   5.388  1.00  0.00    -0.248 NA
ATOM     15  C   UNL     1       6.587  -2.238   4.814  1.00  0.00     0.031 C 
ATOM     16  C   UNL     1       6.251  -5.726   1.186  1.00  0.00     0.029 A 
ATOM     17  N   UNL     1       6.894  -6.425   3.215  1.00  0.00    -0.354 N 
ATOM     18  C   UNL     1       7.037  -3.672   6.551  1.00  0.00     0.074 A 
ATOM     19  C   UNL     1       6.763  -2.312   6.132  1.00  0.00     0.031 C 
ATOM     20  C   UNL     1       6.364  -7.055   1.129  1.00  0.00     0.029 A 
ATOM     21  C   UNL     1       6.798  -7.547   2.430  1.00  0.00     0.049 A 
ATOM     22  H   UNL     1       7.181  -6.442   4.156  1.00  0.00     0.167 HD
ATOM     23  C   UNL     1       7.077  -4.103   7.838  1.00  0.00     0.031 A 
ATOM     24  C   UNL     1       7.040  -8.841   2.704  1.00  0.00     0.031 A 
ATOM     25  C   UNL     1       7.310  -5.474   8.236  1.00  0.00     0.049 A 
ATOM     26  C   UNL     1       7.372  -9.230   4.104  1.00  0.00     0.074 A 
ATOM     27  C   UNL     1       7.408  -5.984   9.523  1.00  0.00     0.029 A 
ATOM     28  N   UNL     1       7.472  -6.544   7.374  1.00  0.00    -0.354 N 
ATOM     29  N   UNL     1       7.356  -8.483   5.180  1.00  0.00    -0.248 NA
ATOM     30  C   UNL     1       7.751 -10.628   4.336  1.00  0.00     0.031 C 
ATOM     31  C   UNL     1       7.603  -7.364   9.439  1.00  0.00     0.029 A 
ATOM     32  C   UNL     1       7.652  -7.712   8.100  1.00  0.00     0.049 A 
ATOM     33  H   UNL     1       7.461  -6.486   6.391  1.00  0.00     0.167 HD
ATOM     34  C   UNL     1       7.734  -9.316   6.219  1.00  0.00     0.074 A 
ATOM     35  C   UNL     1       7.943 -10.632   5.650  1.00  0.00     0.031 C 
ATOM     36  C   UNL     1       7.893  -9.008   7.527  1.00  0.00     0.031 A 
BRANCH  23  37
ATOM     37  C   UNL     1       6.757  -3.146   8.959  1.00  0.00    -0.014 A 
ATOM     38  C   UNL     1       7.701  -2.245   9.467  1.00  0.00     0.009 A 
ATOM     39  C   UNL     1       5.547  -3.319   9.659  1.00  0.00     0.009 A 
ATOM     40  C   UNL     1       7.439  -1.542  10.651  1.00  0.00     0.001 A 
ATOM     41  C   UNL     1       5.300  -2.635  10.852  1.00  0.00     0.001 A 
ATOM     42  C   UNL     1       6.246  -1.743  11.346  1.00  0.00     0.000 A 
ENDBRANCH  23  37
BRANCH  24  43
ATOM     43  C   UNL     1       7.016  -9.807   1.579  1.00  0.00    -0.014 A 
ATOM     44  C   UNL     1       7.966  -9.671   0.547  1.00  0.00     0.009 A 
ATOM     45  C   UNL     1       5.998 -10.756   1.445  1.00  0.00     0.009 A 
ATOM     46  C   UNL     1       7.859 -10.421  -0.622  1.00  0.00     0.001 A 
ATOM     47  C   UNL     1       5.916 -11.533   0.285  1.00  0.00     0.001 A 
ATOM     48  C   UNL     1       6.832 -11.351  -0.752  1.00  0.00     0.000 A 
ENDBRANCH  24  43
BRANCH  36  49
ATOM     49  C   UNL     1       8.351 -10.110   8.434  1.00  0.00    -0.014 A 
ATOM     50  C   UNL     1       7.454 -10.723   9.322  1.00  0.00     0.009 A 
ATOM     51  C   UNL     1       9.696 -10.508   8.435  1.00  0.00     0.009 A 
ATOM     52  C   UNL     1       7.898 -11.716  10.196  1.00  0.00     0.001 A 
ATOM     53  C   UNL     1      10.132 -11.516   9.294  1.00  0.00     0.001 A 
ATOM     54  C   UNL     1       9.234 -12.116  10.177  1.00  0.00     0.000 A 
ENDBRANCH  36  49
ENDBRANCH  10  11
ENDBRANCH   3   5
ENDBRANCH   2   3
ENDBRANCH   1   2
BRANCH   1  55
ATOM     55  C   UNL     1       4.097   1.527   1.619  1.00  0.00     0.274 C 
BRANCH  55  56
ATOM     56  O   UNL     1       3.735   0.306   2.280  1.00  0.00    -0.458 OA
BRANCH  56  57
ATOM     57  C   UNL     1       2.832   0.418   3.298  1.00  0.00     0.365 C 
ATOM     58  O   UNL     1       2.550   1.462   3.874  1.00  0.00    -0.245 OA
BRANCH  57  59
ATOM     59  C   UNL     1       2.143  -0.930   3.541  1.00  0.00     0.298 C 
ATOM     60  C   UNL     1       3.049  -1.932   4.310  1.00  0.00     0.111 C 
ATOM     61  N   UNL     1       0.765  -0.725   4.102  1.00  0.00    -0.326 N 
ATOM     62  C   UNL     1       2.301  -3.225   4.522  1.00  0.00    -0.024 C 
ATOM     63  C   UNL     1       0.378  -1.762   5.113  1.00  0.00     0.243 C 
ATOM     64  H   UNL     1       0.095  -0.756   3.333  1.00  0.00     0.347 HD
ATOM     65  H   UNL     1       0.762   0.177   4.577  1.00  0.00     0.347 HD
ATOM     66  C   UNL     1       2.624  -4.427   4.989  1.00  0.00     0.002 A 
ATOM     67  C   UNL     1       0.804  -3.110   4.418  1.00  0.00     0.196 C 
ATOM     68  C   UNL     1       3.796  -5.044   5.499  1.00  0.00     0.010 A 
ATOM     69  C   UNL     1       1.317  -5.104   5.114  1.00  0.00     0.066 A 
ATOM     70  N   UNL     1       0.246  -4.386   4.939  1.00  0.00    -0.270 NA
ATOM     71  C   UNL     1       3.760  -6.325   5.895  1.00  0.00     0.001 A 
ATOM     72  C   UNL     1       1.358  -6.542   5.473  1.00  0.00     0.028 A 
ATOM     73  C   UNL     1       2.536  -7.098   5.805  1.00  0.00     0.002 A 
BRANCH  63  74
ATOM     74  C   UNL     1       1.020  -1.466   6.497  1.00  0.00     0.012 A 
ATOM     75  C   UNL     1       1.500  -0.184   6.840  1.00  0.00     0.010 A 
ATOM     76  C   UNL     1       1.286  -2.505   7.404  1.00  0.00     0.010 A 
ATOM     77  C   UNL     1       2.370   0.003   7.915  1.00  0.00     0.001 A 
ATOM     78  C   UNL     1       2.166  -2.322   8.475  1.00  0.00     0.001 A 
ATOM     79  C   UNL     1       2.735  -1.076   8.708  1.00  0.00     0.000 A 
ENDBRANCH  63  74
ENDBRANCH  57  59
ENDBRANCH  56  57
ENDBRANCH  55  56
ENDBRANCH   1  55
TORSDOF 12
