REMARK SMILES C=CCN(CC(=O)OCCOC(=O)c1ccc(-c2c3nc(c(-c4ccccc4)c4ccc([nH]4)c(-c4ccccc4)c4nc(c(-c5ccccc5)c5ccc2[nH]5)C=C4)C=C3)cc1)C(=O)c1ccc(C[NH3+])cc1
REMARK SMILES IDX 8 1 6 2 7 3 5 4 4 5 3 6 2 7 1 8 62 9 63 10 64 11 65 12 71 13
REMARK SMILES IDX 66 14 70 15 67 16 68 17 69 18 9 22 10 23 11 24 12 25 13 26
REMARK SMILES IDX 14 27 15 28 61 29 16 30 60 31 17 32 18 33 19 34 54 35 20 36
REMARK SMILES IDX 59 37 53 38 55 39 21 40 58 41 52 42 51 43 22 45 44 46 29 47
REMARK SMILES IDX 43 48 30 49 33 50 42 51 56 52 31 53 32 54 41 56 57 57 34 58
REMARK SMILES IDX 23 59 24 60 28 61 25 62 27 63 26 64 45 65 46 66 50 67 47 68
REMARK SMILES IDX 49 69 48 70 35 71 36 72 40 73 37 74 39 75 38 76
REMARK H PARENT 69 19 69 20 69 21 55 44 33 55
REMARK Flexibility Score: inf
ROOT
ATOM      1  O   UNL     1      -4.349  -2.097   0.021  1.00  0.00    -0.461 OA
ENDROOT
BRANCH   1   2
ATOM      2  C   UNL     1      -3.424  -2.596   0.884  1.00  0.00     0.325 C 
ATOM      3  O   UNL     1      -3.713  -3.205   1.913  1.00  0.00    -0.250 OA
BRANCH   2   4
ATOM      4  C   UNL     1      -1.974  -2.538   0.385  1.00  0.00     0.242 C 
BRANCH   4   5
ATOM      5  N   UNL     1      -1.516  -1.509  -0.557  1.00  0.00    -0.324 N 
BRANCH   5   6
ATOM      6  C   UNL     1      -1.146  -0.224   0.022  1.00  0.00     0.147 C 
BRANCH   6   7
ATOM      7  C   UNL     1       0.242  -0.331   0.593  1.00  0.00    -0.014 C 
ATOM      8  C   UNL     1       1.331   0.228   0.048  1.00  0.00     0.006 C 
ENDBRANCH   6   7
ENDBRANCH   5   6
BRANCH   5   9
ATOM      9  C   UNL     1      -1.336  -1.667  -1.936  1.00  0.00     0.254 C 
ATOM     10  O   UNL     1      -0.933  -0.765  -2.671  1.00  0.00    -0.269 OA
BRANCH   9  11
ATOM     11  C   UNL     1      -1.653  -2.947  -2.600  1.00  0.00     0.040 A 
ATOM     12  C   UNL     1      -0.848  -4.078  -2.438  1.00  0.00     0.014 A 
ATOM     13  C   UNL     1      -2.756  -2.987  -3.459  1.00  0.00     0.014 A 
ATOM     14  C   UNL     1      -1.218  -5.282  -3.051  1.00  0.00     0.010 A 
ATOM     15  C   UNL     1      -3.128  -4.194  -4.060  1.00  0.00     0.010 A 
ATOM     16  C   UNL     1      -2.387  -5.364  -3.827  1.00  0.00     0.006 A 
BRANCH  16  17
ATOM     17  C   UNL     1      -2.885  -6.694  -4.336  1.00  0.00     0.295 C 
BRANCH  17  18
ATOM     18  N   UNL     1      -2.745  -6.824  -5.777  1.00  0.00    -0.354 N 
ATOM     19  H   UNL     1      -3.300  -6.103  -6.239  1.00  0.00     0.344 HD
ATOM     20  H   UNL     1      -3.072  -7.745  -6.069  1.00  0.00     0.344 HD
ATOM     21  H   UNL     1      -1.764  -6.714  -6.035  1.00  0.00     0.344 HD
ENDBRANCH  17  18
ENDBRANCH  16  17
ENDBRANCH   9  11
ENDBRANCH   5   9
ENDBRANCH   4   5
ENDBRANCH   2   4
ENDBRANCH   1   2
BRANCH   1  22
ATOM     22  C   UNL     1      -5.725  -2.437   0.321  1.00  0.00     0.274 C 
BRANCH  22  23
ATOM     23  C   UNL     1      -6.230  -3.704  -0.404  1.00  0.00     0.275 C 
BRANCH  23  24
ATOM     24  O   UNL     1      -5.637  -4.939   0.066  1.00  0.00    -0.458 OA
BRANCH  24  25
ATOM     25  C   UNL     1      -4.440  -5.169  -0.501  1.00  0.00     0.338 C 
ATOM     26  O   UNL     1      -3.872  -4.404  -1.268  1.00  0.00    -0.246 OA
BRANCH  25  27
ATOM     27  C   UNL     1      -3.758  -6.405  -0.142  1.00  0.00     0.060 A 
ATOM     28  C   UNL     1      -2.623  -6.311   0.671  1.00  0.00     0.016 A 
ATOM     29  C   UNL     1      -4.012  -7.559  -0.886  1.00  0.00     0.016 A 
ATOM     30  C   UNL     1      -1.724  -7.370   0.732  1.00  0.00     0.010 A 
ATOM     31  C   UNL     1      -3.122  -8.630  -0.806  1.00  0.00     0.010 A 
ATOM     32  C   UNL     1      -1.971  -8.537  -0.003  1.00  0.00    -0.014 A 
BRANCH  32  33
ATOM     33  C   UNL     1      -1.137  -9.733   0.226  1.00  0.00     0.031 A 
ATOM     34  C   UNL     1      -0.032 -10.137  -0.699  1.00  0.00     0.074 A 
ATOM     35  C   UNL     1      -1.444 -10.476   1.303  1.00  0.00     0.049 A 
ATOM     36  N   UNL     1       0.726 -11.203  -0.649  1.00  0.00    -0.248 NA
ATOM     37  C   UNL     1       0.268  -9.236  -1.818  1.00  0.00     0.031 C 
ATOM     38  C   UNL     1      -2.496 -10.150   2.271  1.00  0.00     0.029 A 
ATOM     39  N   UNL     1      -0.927 -11.659   1.749  1.00  0.00    -0.354 N 
ATOM     40  C   UNL     1       1.594 -11.104  -1.729  1.00  0.00     0.074 A 
ATOM     41  C   UNL     1       1.262  -9.876  -2.423  1.00  0.00     0.031 C 
ATOM     42  C   UNL     1      -2.569 -11.131   3.179  1.00  0.00     0.029 A 
ATOM     43  C   UNL     1      -1.593 -12.157   2.838  1.00  0.00     0.049 A 
ATOM     44  H   UNL     1      -0.156 -12.108   1.331  1.00  0.00     0.167 HD
ATOM     45  C   UNL     1       2.572 -11.966  -2.099  1.00  0.00     0.031 A 
ATOM     46  C   UNL     1      -1.460 -13.331   3.476  1.00  0.00     0.031 A 
ATOM     47  C   UNL     1       2.872 -13.195  -1.408  1.00  0.00     0.049 A 
ATOM     48  C   UNL     1      -0.410 -14.289   3.016  1.00  0.00     0.074 A 
ATOM     49  C   UNL     1       3.865 -14.121  -1.681  1.00  0.00     0.029 A 
ATOM     50  N   UNL     1       2.171 -13.674  -0.312  1.00  0.00    -0.354 N 
ATOM     51  N   UNL     1       0.421 -14.170   2.009  1.00  0.00    -0.248 NA
ATOM     52  C   UNL     1      -0.271 -15.530   3.783  1.00  0.00     0.031 C 
ATOM     53  C   UNL     1       3.739 -15.179  -0.772  1.00  0.00     0.029 A 
ATOM     54  C   UNL     1       2.692 -14.893   0.089  1.00  0.00     0.049 A 
ATOM     55  H   UNL     1       1.413 -13.215   0.118  1.00  0.00     0.167 HD
ATOM     56  C   UNL     1       1.196 -15.318   2.027  1.00  0.00     0.074 A 
ATOM     57  C   UNL     1       0.738 -16.114   3.150  1.00  0.00     0.031 C 
ATOM     58  C   UNL     1       2.202 -15.676   1.193  1.00  0.00     0.031 A 
BRANCH  45  59
ATOM     59  C   UNL     1       3.378 -11.629  -3.322  1.00  0.00    -0.014 A 
ATOM     60  C   UNL     1       4.391 -10.659  -3.279  1.00  0.00     0.009 A 
ATOM     61  C   UNL     1       3.172 -12.344  -4.513  1.00  0.00     0.009 A 
ATOM     62  C   UNL     1       5.171 -10.401  -4.410  1.00  0.00     0.001 A 
ATOM     63  C   UNL     1       3.963 -12.094  -5.637  1.00  0.00     0.001 A 
ATOM     64  C   UNL     1       4.960 -11.121  -5.586  1.00  0.00     0.000 A 
ENDBRANCH  45  59
BRANCH  46  65
ATOM     65  C   UNL     1      -2.375 -13.636   4.598  1.00  0.00    -0.014 A 
ATOM     66  C   UNL     1      -1.953 -13.475   5.924  1.00  0.00     0.009 A 
ATOM     67  C   UNL     1      -3.712 -13.980   4.338  1.00  0.00     0.009 A 
ATOM     68  C   UNL     1      -2.857 -13.650   6.973  1.00  0.00     0.001 A 
ATOM     69  C   UNL     1      -4.617 -14.136   5.388  1.00  0.00     0.001 A 
ATOM     70  C   UNL     1      -4.188 -13.972   6.705  1.00  0.00     0.000 A 
ENDBRANCH  46  65
BRANCH  58  71
ATOM     71  C   UNL     1       2.870 -16.984   1.487  1.00  0.00    -0.014 A 
ATOM     72  C   UNL     1       2.265 -18.197   1.123  1.00  0.00     0.009 A 
ATOM     73  C   UNL     1       4.110 -17.003   2.141  1.00  0.00     0.009 A 
ATOM     74  C   UNL     1       2.878 -19.409   1.441  1.00  0.00     0.001 A 
ATOM     75  C   UNL     1       4.728 -18.216   2.442  1.00  0.00     0.001 A 
ATOM     76  C   UNL     1       4.107 -19.418   2.100  1.00  0.00     0.000 A 
ENDBRANCH  58  71
ENDBRANCH  32  33
ENDBRANCH  25  27
ENDBRANCH  24  25
ENDBRANCH  23  24
ENDBRANCH  22  23
ENDBRANCH   1  22
TORSDOF 18
