REMARK SMILES C[C@H](CC(=O)OCCOC(=O)c1ccc(-c2c3nc(c(-c4ccccc4)c4ccc([nH]4)c(-c4ccccc4)c4nc(c(-c5ccccc5)c5ccc2[nH]5)C=C4)C=C3)cc1)NC(=O)[C@@H]1Cc2ccccc2O1
REMARK SMILES IDX 7 1 6 2 4 3 5 4 3 5 2 6 1 7 60 8 61 9 62 11 63 12 64 13
REMARK SMILES IDX 71 14 65 15 70 16 66 17 69 18 67 19 68 20 8 21 9 22 10 23
REMARK SMILES IDX 11 24 12 25 13 26 59 27 14 28 58 29 15 30 16 31 17 32 52 33
REMARK SMILES IDX 18 34 57 35 51 36 53 37 19 38 56 39 50 40 49 41 20 43 42 44
REMARK SMILES IDX 27 45 41 46 28 47 31 48 40 49 54 50 29 51 30 52 39 54 55 55
REMARK SMILES IDX 32 56 21 57 22 58 26 59 23 60 25 61 24 62 43 63 44 64 48 65
REMARK SMILES IDX 45 66 47 67 46 68 33 69 34 70 38 71 35 72 37 73 36 74
REMARK H PARENT 60 10 53 42 31 53
REMARK Flexibility Score: inf
ROOT
ATOM      1  C   UNL     1      -4.960  -1.625   4.799  1.00  0.00     0.274 C 
ENDROOT
BRANCH   1   2
ATOM      2  O   UNL     1      -4.672  -0.269   4.406  1.00  0.00    -0.462 OA
BRANCH   2   3
ATOM      3  C   UNL     1      -3.633   0.328   5.039  1.00  0.00     0.307 C 
ATOM      4  O   UNL     1      -2.972  -0.182   5.934  1.00  0.00    -0.252 OA
BRANCH   3   5
ATOM      5  C   UNL     1      -3.421   1.745   4.575  1.00  0.00     0.147 C 
BRANCH   5   6
ATOM      6  C   UNL     1      -3.003   1.963   3.108  1.00  0.00     0.090 C 
ATOM      7  C   UNL     1      -4.132   1.658   2.128  1.00  0.00     0.031 C 
BRANCH   6   8
ATOM      8  N   UNL     1      -2.632   3.380   2.984  1.00  0.00    -0.350 N 
ATOM      9  C   UNL     1      -1.897   4.145   2.155  1.00  0.00     0.261 C 
ATOM     10  H   UNL     1      -3.032   3.917   3.706  1.00  0.00     0.163 HD
ATOM     11  O   UNL     1      -1.935   5.351   2.451  1.00  0.00    -0.271 OA
BRANCH   9  12
ATOM     12  C   UNL     1      -1.103   3.706   0.923  1.00  0.00     0.266 C 
ATOM     13  C   UNL     1      -0.776   2.259   0.561  1.00  0.00     0.095 C 
ATOM     14  O   UNL     1       0.175   4.412   1.047  1.00  0.00    -0.480 OA
ATOM     15  C   UNL     1       0.487   2.506  -0.197  1.00  0.00    -0.002 A 
ATOM     16  C   UNL     1       0.998   3.735   0.191  1.00  0.00     0.123 A 
ATOM     17  C   UNL     1       1.175   1.730  -1.113  1.00  0.00     0.008 A 
ATOM     18  C   UNL     1       2.209   4.220  -0.258  1.00  0.00     0.047 A 
ATOM     19  C   UNL     1       2.391   2.217  -1.615  1.00  0.00     0.001 A 
ATOM     20  C   UNL     1       2.912   3.448  -1.179  1.00  0.00     0.004 A 
ENDBRANCH   9  12
ENDBRANCH   6   8
ENDBRANCH   5   6
ENDBRANCH   3   5
ENDBRANCH   2   3
ENDBRANCH   1   2
BRANCH   1  21
ATOM     21  C   UNL     1      -4.250  -2.635   3.893  1.00  0.00     0.275 C 
BRANCH  21  22
ATOM     22  O   UNL     1      -2.836  -2.693   4.160  1.00  0.00    -0.458 OA
BRANCH  22  23
ATOM     23  C   UNL     1      -2.059  -1.881   3.409  1.00  0.00     0.338 C 
ATOM     24  O   UNL     1      -2.417  -1.144   2.500  1.00  0.00    -0.246 OA
BRANCH  23  25
ATOM     25  C   UNL     1      -0.688  -1.886   3.934  1.00  0.00     0.060 A 
ATOM     26  C   UNL     1      -0.166  -0.696   4.454  1.00  0.00     0.016 A 
ATOM     27  C   UNL     1       0.097  -3.038   3.872  1.00  0.00     0.016 A 
ATOM     28  C   UNL     1       1.141  -0.656   4.930  1.00  0.00     0.010 A 
ATOM     29  C   UNL     1       1.409  -2.996   4.349  1.00  0.00     0.010 A 
ATOM     30  C   UNL     1       1.937  -1.806   4.881  1.00  0.00    -0.014 A 
BRANCH  30  31
ATOM     31  C   UNL     1       3.328  -1.764   5.385  1.00  0.00     0.031 A 
ATOM     32  C   UNL     1       4.476  -1.728   4.422  1.00  0.00     0.074 A 
ATOM     33  C   UNL     1       3.552  -1.760   6.711  1.00  0.00     0.049 A 
ATOM     34  N   UNL     1       5.760  -1.775   4.669  1.00  0.00    -0.248 NA
ATOM     35  C   UNL     1       4.136  -1.631   2.994  1.00  0.00     0.031 C 
ATOM     36  C   UNL     1       2.516  -1.749   7.745  1.00  0.00     0.029 A 
ATOM     37  N   UNL     1       4.729  -1.773   7.415  1.00  0.00    -0.354 N 
ATOM     38  C   UNL     1       6.383  -1.726   3.429  1.00  0.00     0.074 A 
ATOM     39  C   UNL     1       5.335  -1.666   2.431  1.00  0.00     0.031 C 
ATOM     40  C   UNL     1       3.105  -1.757   8.952  1.00  0.00     0.029 A 
ATOM     41  C   UNL     1       4.552  -1.820   8.775  1.00  0.00     0.049 A 
ATOM     42  H   UNL     1       5.615  -1.751   6.986  1.00  0.00     0.167 HD
ATOM     43  C   UNL     1       7.708  -1.730   3.150  1.00  0.00     0.031 A 
ATOM     44  C   UNL     1       5.455  -1.933   9.767  1.00  0.00     0.031 A 
ATOM     45  C   UNL     1       8.747  -1.796   4.144  1.00  0.00     0.049 A 
ATOM     46  C   UNL     1       6.916  -2.019   9.426  1.00  0.00     0.074 A 
ATOM     47  C   UNL     1      10.119  -1.785   3.961  1.00  0.00     0.029 A 
ATOM     48  N   UNL     1       8.527  -1.891   5.510  1.00  0.00    -0.354 N 
ATOM     49  N   UNL     1       7.494  -1.964   8.250  1.00  0.00    -0.248 NA
ATOM     50  C   UNL     1       7.848  -2.190  10.549  1.00  0.00     0.031 C 
ATOM     51  C   UNL     1      10.729  -1.927   5.212  1.00  0.00     0.029 A 
ATOM     52  C   UNL     1       9.737  -1.975   6.178  1.00  0.00     0.049 A 
ATOM     53  H   UNL     1       7.641  -1.899   5.940  1.00  0.00     0.167 HD
ATOM     54  C   UNL     1       8.856  -2.080   8.493  1.00  0.00     0.074 A 
ATOM     55  C   UNL     1       9.019  -2.187   9.928  1.00  0.00     0.031 C 
ATOM     56  C   UNL     1       9.880  -2.097   7.606  1.00  0.00     0.031 A 
BRANCH  43  57
ATOM     57  C   UNL     1       8.108  -1.701   1.703  1.00  0.00    -0.014 A 
ATOM     58  C   UNL     1       7.985  -0.534   0.934  1.00  0.00     0.009 A 
ATOM     59  C   UNL     1       8.651  -2.852   1.110  1.00  0.00     0.009 A 
ATOM     60  C   UNL     1       8.370  -0.529  -0.408  1.00  0.00     0.001 A 
ATOM     61  C   UNL     1       9.057  -2.838  -0.225  1.00  0.00     0.001 A 
ATOM     62  C   UNL     1       8.909  -1.679  -0.985  1.00  0.00     0.000 A 
ENDBRANCH  43  57
BRANCH  44  63
ATOM     63  C   UNL     1       5.000  -2.009  11.179  1.00  0.00    -0.014 A 
ATOM     64  C   UNL     1       5.232  -0.945  12.063  1.00  0.00     0.009 A 
ATOM     65  C   UNL     1       4.333  -3.151  11.649  1.00  0.00     0.009 A 
ATOM     66  C   UNL     1       4.823  -1.033  13.395  1.00  0.00     0.001 A 
ATOM     67  C   UNL     1       3.902  -3.225  12.975  1.00  0.00     0.001 A 
ATOM     68  C   UNL     1       4.154  -2.169  13.849  1.00  0.00     0.000 A 
ENDBRANCH  44  63
BRANCH  56  69
ATOM     69  C   UNL     1      11.267  -2.226   8.168  1.00  0.00    -0.014 A 
ATOM     70  C   UNL     1      11.732  -3.451   8.673  1.00  0.00     0.009 A 
ATOM     71  C   UNL     1      12.129  -1.119   8.164  1.00  0.00     0.009 A 
ATOM     72  C   UNL     1      13.024  -3.555   9.191  1.00  0.00     0.001 A 
ATOM     73  C   UNL     1      13.428  -1.232   8.659  1.00  0.00     0.001 A 
ATOM     74  C   UNL     1      13.872  -2.447   9.180  1.00  0.00     0.000 A 
ENDBRANCH  56  69
ENDBRANCH  30  31
ENDBRANCH  23  25
ENDBRANCH  22  23
ENDBRANCH  21  22
ENDBRANCH   1  21
TORSDOF 14
