REMARK SMILES NC(=O)C1CC[NH+](CC[C@H]2CN(C(=O)c3ccccc3)CC[C@H]2CC(=O)OCCOC(=O)c2ccc(-c3c4nc(c(-c5ccccc5)c5ccc([nH]5)c(-c5ccccc5)c5nc(c(-c6ccccc6)c6ccc3[nH]6)C=C5)C=C4)cc2)CC1
REMARK SMILES IDX 27 1 25 2 26 3 24 4 23 5 10 6 11 7 12 8 22 9 21 10 9 11 8 12
REMARK SMILES IDX 7 13 4 14 5 15 82 16 6 17 81 18 2 20 1 21 3 24 13 25 14 26
REMARK SMILES IDX 15 27 16 28 20 29 17 30 19 31 18 32 28 33 29 34 30 35 31 36
REMARK SMILES IDX 32 37 33 38 34 39 80 40 35 41 79 42 36 43 37 44 38 45 73 46
REMARK SMILES IDX 39 47 78 48 72 49 74 50 40 51 77 52 71 53 70 54 41 56 63 57
REMARK SMILES IDX 48 58 62 59 49 60 52 61 61 62 75 63 50 64 51 65 60 67 76 68
REMARK SMILES IDX 53 69 42 70 43 71 47 72 44 73 46 74 45 75 64 76 65 77 69 78
REMARK SMILES IDX 66 79 68 80 67 81 54 82 55 83 59 84 56 85 58 86 57 87
REMARK H PARENT 7 19 1 22 1 23 74 55 52 66
REMARK Flexibility Score: inf
ROOT
ATOM      1  O   UNL     1       5.254   2.406  -2.119  1.00  0.00    -0.462 OA
ENDROOT
BRANCH   1   2
ATOM      2  C   UNL     1       5.863   2.897  -0.998  1.00  0.00     0.306 C 
ATOM      3  O   UNL     1       6.230   4.054  -0.852  1.00  0.00    -0.252 OA
BRANCH   2   4
ATOM      4  C   UNL     1       5.960   1.821   0.103  1.00  0.00     0.126 C 
BRANCH   4   5
ATOM      5  C   UNL     1       4.588   1.141   0.245  1.00  0.00     0.007 C 
ATOM      6  C   UNL     1       4.248  -0.211  -0.964  1.00  0.00     0.018 C 
ATOM      7  C   UNL     1       2.896  -1.413  -0.846  1.00  0.00     0.124 C 
ATOM      8  N   UNL     1       2.302  -1.872   0.712  1.00  0.00    -0.338 N 
ATOM      9  C   UNL     1       3.863   0.936   2.000  1.00  0.00     0.026 C 
ATOM     10  C   UNL     1       2.434  -0.491   2.137  1.00  0.00     0.120 C 
BRANCH   6  11
ATOM     11  C   UNL     1       5.405  -1.144  -0.754  1.00  0.00     0.067 C 
BRANCH  11  12
ATOM     12  C   UNL     1       5.243  -1.385   0.713  1.00  0.00     0.262 C 
BRANCH  12  13
ATOM     13  N   UNL     1       3.945  -0.901   1.212  1.00  0.00    -0.335 N 
ATOM     14  C   UNL     1       0.343  -0.488   2.864  1.00  0.00     0.089 C 
ATOM     15  C   UNL     1       1.058   0.978   1.838  1.00  0.00     0.075 C 
ATOM     16  C   UNL     1       1.528  -2.000   3.233  1.00  0.00     0.075 C 
ATOM     17  C   UNL     1       2.479   0.406   0.544  1.00  0.00     0.263 C 
ATOM     18  C   UNL     1       3.457  -1.963   2.735  1.00  0.00     0.263 C 
ATOM     19  H   UNL     1       4.220  -0.032   0.754  1.00  0.00     0.348 HD
BRANCH  14  20
ATOM     20  C   UNL     1      -0.889  -0.960   2.054  1.00  0.00     0.220 C 
ATOM     21  N   UNL     1      -1.043  -0.488   0.778  1.00  0.00    -0.369 N 
ATOM     22  H   UNL     1      -1.816  -0.770   0.238  1.00  0.00     0.159 HD
ATOM     23  H   UNL     1      -0.380   0.135   0.400  1.00  0.00     0.159 HD
ATOM     24  O   UNL     1      -1.732  -1.718   2.523  1.00  0.00    -0.275 OA
ENDBRANCH  14  20
ENDBRANCH  12  13
ENDBRANCH  11  12
ENDBRANCH   6  11
BRANCH   8  25
ATOM     25  C   UNL     1       2.135  -3.332   0.564  1.00  0.00     0.253 C 
ATOM     26  O   UNL     1       1.740  -3.812  -0.508  1.00  0.00    -0.269 OA
BRANCH  25  27
ATOM     27  C   UNL     1       2.616  -4.397   1.510  1.00  0.00     0.040 A 
ATOM     28  C   UNL     1       3.962  -4.817   1.538  1.00  0.00     0.014 A 
ATOM     29  C   UNL     1       1.717  -5.031   2.369  1.00  0.00     0.014 A 
ATOM     30  C   UNL     1       4.440  -5.586   2.612  1.00  0.00     0.001 A 
ATOM     31  C   UNL     1       2.188  -5.810   3.432  1.00  0.00     0.001 A 
ATOM     32  C   UNL     1       3.555  -6.035   3.589  1.00  0.00     0.000 A 
ENDBRANCH  25  27
ENDBRANCH   8  25
ENDBRANCH   4   5
ENDBRANCH   2   4
ENDBRANCH   1   2
BRANCH   1  33
ATOM     33  C   UNL     1       4.907   3.318  -3.184  1.00  0.00     0.274 C 
BRANCH  33  34
ATOM     34  C   UNL     1       3.411   3.659  -3.187  1.00  0.00     0.275 C 
BRANCH  34  35
ATOM     35  O   UNL     1       3.084   4.499  -2.064  1.00  0.00    -0.458 OA
BRANCH  35  36
ATOM     36  C   UNL     1       2.220   3.971  -1.173  1.00  0.00     0.338 C 
ATOM     37  O   UNL     1       1.658   2.890  -1.225  1.00  0.00    -0.246 OA
BRANCH  36  38
ATOM     38  C   UNL     1       2.087   4.867  -0.017  1.00  0.00     0.060 A 
ATOM     39  C   UNL     1       2.711   4.507   1.177  1.00  0.00     0.016 A 
ATOM     40  C   UNL     1       1.243   5.975  -0.068  1.00  0.00     0.016 A 
ATOM     41  C   UNL     1       2.436   5.208   2.346  1.00  0.00     0.010 A 
ATOM     42  C   UNL     1       1.012   6.715   1.098  1.00  0.00     0.010 A 
ATOM     43  C   UNL     1       1.578   6.319   2.322  1.00  0.00    -0.014 A 
BRANCH  43  44
ATOM     44  C   UNL     1       1.285   7.041   3.588  1.00  0.00     0.031 A 
ATOM     45  C   UNL     1      -0.090   7.000   4.199  1.00  0.00     0.074 A 
ATOM     46  C   UNL     1       2.276   7.702   4.216  1.00  0.00     0.049 A 
ATOM     47  N   UNL     1      -0.508   7.522   5.326  1.00  0.00    -0.248 NA
ATOM     48  C   UNL     1      -1.132   6.283   3.449  1.00  0.00     0.031 C 
ATOM     49  C   UNL     1       3.655   7.812   3.734  1.00  0.00     0.029 A 
ATOM     50  N   UNL     1       2.282   8.390   5.403  1.00  0.00    -0.354 N 
ATOM     51  C   UNL     1      -1.859   7.207   5.415  1.00  0.00     0.074 A 
ATOM     52  C   UNL     1      -2.199   6.481   4.210  1.00  0.00     0.031 C 
ATOM     53  C   UNL     1       4.380   8.494   4.633  1.00  0.00     0.029 A 
ATOM     54  C   UNL     1       3.511   8.911   5.729  1.00  0.00     0.049 A 
ATOM     55  H   UNL     1       1.482   8.501   5.966  1.00  0.00     0.167 HD
ATOM     56  C   UNL     1      -2.735   7.488   6.411  1.00  0.00     0.031 A 
ATOM     57  C   UNL     1       3.896   9.649   6.787  1.00  0.00     0.031 A 
ATOM     58  C   UNL     1      -2.402   8.225   7.604  1.00  0.00     0.049 A 
ATOM     59  C   UNL     1       2.891   9.989   7.851  1.00  0.00     0.074 A 
ATOM     60  C   UNL     1      -3.216   8.539   8.680  1.00  0.00     0.029 A 
ATOM     61  N   UNL     1      -1.157   8.774   7.875  1.00  0.00    -0.354 N 
ATOM     62  N   UNL     1       1.629   9.646   7.940  1.00  0.00    -0.248 NA
ATOM     63  C   UNL     1       3.374  10.808   8.972  1.00  0.00     0.031 C 
ATOM     64  C   UNL     1      -2.483   9.333   9.569  1.00  0.00     0.029 A 
ATOM     65  C   UNL     1      -1.190   9.448   9.087  1.00  0.00     0.049 A 
ATOM     66  H   UNL     1      -0.367   8.697   7.293  1.00  0.00     0.167 HD
ATOM     67  C   UNL     1       1.176  10.179   9.140  1.00  0.00     0.074 A 
ATOM     68  C   UNL     1       2.305  10.847   9.754  1.00  0.00     0.031 C 
ATOM     69  C   UNL     1      -0.064  10.120   9.686  1.00  0.00     0.031 A 
BRANCH  56  70
ATOM     70  C   UNL     1      -4.157   7.021   6.239  1.00  0.00    -0.014 A 
ATOM     71  C   UNL     1      -4.493   5.658   6.278  1.00  0.00     0.009 A 
ATOM     72  C   UNL     1      -5.185   7.965   6.076  1.00  0.00     0.009 A 
ATOM     73  C   UNL     1      -5.819   5.249   6.120  1.00  0.00     0.001 A 
ATOM     74  C   UNL     1      -6.514   7.555   5.951  1.00  0.00     0.001 A 
ATOM     75  C   UNL     1      -6.829   6.198   5.962  1.00  0.00     0.000 A 
ENDBRANCH  56  70
BRANCH  57  76
ATOM     76  C   UNL     1       5.303  10.123   6.892  1.00  0.00    -0.014 A 
ATOM     77  C   UNL     1       6.150   9.641   7.902  1.00  0.00     0.009 A 
ATOM     78  C   UNL     1       5.800  11.076   5.989  1.00  0.00     0.009 A 
ATOM     79  C   UNL     1       7.453  10.128   8.024  1.00  0.00     0.001 A 
ATOM     80  C   UNL     1       7.114  11.533   6.091  1.00  0.00     0.001 A 
ATOM     81  C   UNL     1       7.936  11.069   7.116  1.00  0.00     0.000 A 
ENDBRANCH  57  76
BRANCH  69  82
ATOM     82  C   UNL     1      -0.247  10.757  11.039  1.00  0.00    -0.014 A 
ATOM     83  C   UNL     1      -0.170  12.147  11.217  1.00  0.00     0.009 A 
ATOM     84  C   UNL     1      -0.501   9.945  12.156  1.00  0.00     0.009 A 
ATOM     85  C   UNL     1      -0.284  12.705  12.493  1.00  0.00     0.001 A 
ATOM     86  C   UNL     1      -0.654  10.508  13.424  1.00  0.00     0.001 A 
ATOM     87  C   UNL     1      -0.529  11.886  13.594  1.00  0.00     0.000 A 
ENDBRANCH  69  82
ENDBRANCH  43  44
ENDBRANCH  36  38
ENDBRANCH  35  36
ENDBRANCH  34  35
ENDBRANCH  33  34
ENDBRANCH   1  33
TORSDOF 18
