REMARK SMILES CC(=O)NS(=O)(=O)c1ccc(-c2ccn(C(F)F)c(=O)c2)cc1C(=O)OCCOC(=O)c1ccc(-c2c3nc(c(-c4ccccc4)c4ccc([nH]4)c(-c4ccccc4)c4nc(c(-c5ccccc5)c5ccc2[nH]5)C=C4)C=C3)cc1
REMARK SMILES IDX 27 1 26 2 24 3 25 4 23 5 8 6 9 7 10 8 22 9 11 10 5 11 6 12
REMARK SMILES IDX 7 13 4 14 1 15 2 16 3 17 12 19 13 20 21 21 14 22 19 23 15 24
REMARK SMILES IDX 20 25 16 26 17 27 18 28 28 29 29 30 30 31 31 32 32 33 33 34
REMARK SMILES IDX 79 35 34 36 78 37 35 38 36 39 37 40 72 41 38 42 77 43 71 44
REMARK SMILES IDX 73 45 39 46 76 47 70 48 69 49 40 51 62 52 47 53 61 54 48 55
REMARK SMILES IDX 51 56 60 57 74 58 49 59 50 60 59 62 75 63 52 64 41 65 42 66
REMARK SMILES IDX 46 67 43 68 45 69 44 70 63 71 64 72 68 73 65 74 67 75 66 76
REMARK SMILES IDX 53 77 54 78 58 79 55 80 57 81 56 82
REMARK H PARENT 4 18 73 50 51 61
REMARK Flexibility Score: inf
ROOT
ATOM      1  C   UNL     1       1.440  -0.015   2.868  1.00  0.00     0.275 C 
ENDROOT
BRANCH   1   2
ATOM      2  O   UNL     1       2.200  -0.605   1.791  1.00  0.00    -0.458 OA
BRANCH   2   3
ATOM      3  C   UNL     1       1.650  -0.448   0.571  1.00  0.00     0.339 C 
ATOM      4  O   UNL     1       0.662   0.210   0.286  1.00  0.00    -0.246 OA
BRANCH   3   5
ATOM      5  C   UNL     1       2.319  -1.249  -0.462  1.00  0.00     0.081 A 
ATOM      6  C   UNL     1       2.136  -2.626  -0.564  1.00  0.00     0.102 A 
ATOM      7  C   UNL     1       2.626  -3.311  -1.687  1.00  0.00     0.024 A 
ATOM      8  C   UNL     1       3.142  -2.601  -2.775  1.00  0.00     0.010 A 
ATOM      9  C   UNL     1       2.862  -0.547  -1.554  1.00  0.00     0.025 A 
ATOM     10  C   UNL     1       3.177  -1.202  -2.753  1.00  0.00    -0.017 A 
BRANCH   6  11
ATOM     11  S   UNL     1       1.095  -3.538   0.543  1.00  0.00     0.264 S 
ATOM     12  O   UNL     1       1.863  -3.757   1.747  1.00  0.00    -0.201 OA
ATOM     13  O   UNL     1       0.538  -4.644  -0.204  1.00  0.00    -0.201 OA
BRANCH  11  14
ATOM     14  N   UNL     1      -0.171  -2.564   0.956  1.00  0.00    -0.249 N 
ATOM     15  C   UNL     1      -1.165  -2.111  -1.304  1.00  0.00     0.115 C 
ATOM     16  C   UNL     1      -1.248  -2.087   0.195  1.00  0.00     0.230 C 
ATOM     17  O   UNL     1      -2.206  -1.603   0.785  1.00  0.00    -0.274 OA
ATOM     18  H   UNL     1      -0.170  -2.268   1.895  1.00  0.00     0.183 HD
ENDBRANCH  11  14
ENDBRANCH   6  11
BRANCH  10  19
ATOM     19  C   UNL     1       3.285  -0.414  -4.009  1.00  0.00    -0.011 A 
ATOM     20  C   UNL     1       4.070   0.798  -4.171  1.00  0.00     0.027 A 
ATOM     21  C   UNL     1       2.454  -0.768  -5.009  1.00  0.00     0.080 A 
ATOM     22  C   UNL     1       3.944   1.553  -5.274  1.00  0.00     0.095 A 
ATOM     23  C   UNL     1       2.336   0.030  -6.257  1.00  0.00     0.255 A 
ATOM     24  N   UNL     1       3.086   1.190  -6.297  1.00  0.00    -0.258 N 
ATOM     25  O   UNL     1       1.579  -0.373  -7.134  1.00  0.00    -0.269 OA
BRANCH  24  26
ATOM     26  C   UNL     1       2.944   2.008  -7.477  1.00  0.00     0.451 C 
ATOM     27  F   UNL     1       3.352   1.333  -8.580  1.00  0.00    -0.185 F 
ATOM     28  F   UNL     1       1.650   2.368  -7.664  1.00  0.00    -0.185 F 
ENDBRANCH  24  26
ENDBRANCH  10  19
ENDBRANCH   3   5
ENDBRANCH   2   3
ENDBRANCH   1   2
BRANCH   1  29
ATOM     29  C   UNL     1       1.860   1.417   3.206  1.00  0.00     0.275 C 
BRANCH  29  30
ATOM     30  O   UNL     1       1.609   2.328   2.121  1.00  0.00    -0.458 OA
BRANCH  30  31
ATOM     31  C   UNL     1       2.692   2.616   1.370  1.00  0.00     0.338 C 
ATOM     32  O   UNL     1       3.829   2.191   1.507  1.00  0.00    -0.246 OA
BRANCH  31  33
ATOM     33  C   UNL     1       2.345   3.513   0.261  1.00  0.00     0.060 A 
ATOM     34  C   UNL     1       1.853   2.960  -0.920  1.00  0.00     0.016 A 
ATOM     35  C   UNL     1       2.747   4.845   0.301  1.00  0.00     0.016 A 
ATOM     36  C   UNL     1       1.892   3.686  -2.103  1.00  0.00     0.010 A 
ATOM     37  C   UNL     1       2.690   5.607  -0.868  1.00  0.00     0.010 A 
ATOM     38  C   UNL     1       2.317   5.016  -2.091  1.00  0.00    -0.014 A 
BRANCH  38  39
ATOM     39  C   UNL     1       2.455   5.779  -3.354  1.00  0.00     0.031 A 
ATOM     40  C   UNL     1       3.805   6.308  -3.749  1.00  0.00     0.074 A 
ATOM     41  C   UNL     1       1.391   6.000  -4.146  1.00  0.00     0.049 A 
ATOM     42  N   UNL     1       4.109   7.218  -4.636  1.00  0.00    -0.248 NA
ATOM     43  C   UNL     1       4.968   5.739  -3.046  1.00  0.00     0.031 C 
ATOM     44  C   UNL     1       0.046   5.460  -3.942  1.00  0.00     0.029 A 
ATOM     45  N   UNL     1       1.277   6.758  -5.284  1.00  0.00    -0.354 N 
ATOM     46  C   UNL     1       5.484   7.393  -4.540  1.00  0.00     0.074 A 
ATOM     47  C   UNL     1       5.961   6.469  -3.534  1.00  0.00     0.031 C 
ATOM     48  C   UNL     1      -0.757   5.899  -4.922  1.00  0.00     0.029 A 
ATOM     49  C   UNL     1      -0.009   6.826  -5.762  1.00  0.00     0.049 A 
ATOM     50  H   UNL     1       2.040   7.209  -5.714  1.00  0.00     0.167 HD
ATOM     51  C   UNL     1       6.267   8.267  -5.214  1.00  0.00     0.031 A 
ATOM     52  C   UNL     1      -0.543   7.603  -6.722  1.00  0.00     0.031 A 
ATOM     53  C   UNL     1       5.783   9.162  -6.229  1.00  0.00     0.049 A 
ATOM     54  C   UNL     1       0.330   8.603  -7.420  1.00  0.00     0.074 A 
ATOM     55  C   UNL     1       6.486  10.101  -6.963  1.00  0.00     0.029 A 
ATOM     56  N   UNL     1       4.467   9.216  -6.662  1.00  0.00    -0.354 N 
ATOM     57  N   UNL     1       1.609   8.836  -7.256  1.00  0.00    -0.248 NA
ATOM     58  C   UNL     1      -0.321   9.464  -8.416  1.00  0.00     0.031 C 
ATOM     59  C   UNL     1       5.588  10.740  -7.825  1.00  0.00     0.029 A 
ATOM     60  C   UNL     1       4.336  10.172  -7.652  1.00  0.00     0.049 A 
ATOM     61  H   UNL     1       3.735   8.658  -6.315  1.00  0.00     0.167 HD
ATOM     62  C   UNL     1       1.920   9.866  -8.133  1.00  0.00     0.074 A 
ATOM     63  C   UNL     1       0.698  10.201  -8.837  1.00  0.00     0.031 C 
ATOM     64  C   UNL     1       3.109  10.482  -8.337  1.00  0.00     0.031 A 
BRANCH  51  65
ATOM     65  C   UNL     1       7.715   8.337  -4.825  1.00  0.00    -0.014 A 
ATOM     66  C   UNL     1       8.632   7.351  -5.216  1.00  0.00     0.009 A 
ATOM     67  C   UNL     1       8.170   9.428  -4.066  1.00  0.00     0.009 A 
ATOM     68  C   UNL     1       9.972   7.442  -4.829  1.00  0.00     0.001 A 
ATOM     69  C   UNL     1       9.512   9.527  -3.700  1.00  0.00     0.001 A 
ATOM     70  C   UNL     1      10.411   8.530  -4.075  1.00  0.00     0.000 A 
ENDBRANCH  51  65
BRANCH  52  71
ATOM     71  C   UNL     1      -1.997   7.519  -7.010  1.00  0.00    -0.014 A 
ATOM     72  C   UNL     1      -2.456   6.928  -8.195  1.00  0.00     0.009 A 
ATOM     73  C   UNL     1      -2.934   8.010  -6.085  1.00  0.00     0.009 A 
ATOM     74  C   UNL     1      -3.826   6.838  -8.453  1.00  0.00     0.001 A 
ATOM     75  C   UNL     1      -4.302   7.894  -6.334  1.00  0.00     0.001 A 
ATOM     76  C   UNL     1      -4.747   7.314  -7.520  1.00  0.00     0.000 A 
ENDBRANCH  52  71
BRANCH  64  77
ATOM     77  C   UNL     1       3.148  11.549  -9.388  1.00  0.00    -0.014 A 
ATOM     78  C   UNL     1       2.658  12.838  -9.130  1.00  0.00     0.009 A 
ATOM     79  C   UNL     1       3.717  11.268 -10.639  1.00  0.00     0.009 A 
ATOM     80  C   UNL     1       2.718  13.822 -10.118  1.00  0.00     0.001 A 
ATOM     81  C   UNL     1       3.792  12.259 -11.617  1.00  0.00     0.001 A 
ATOM     82  C   UNL     1       3.287  13.533 -11.358  1.00  0.00     0.000 A 
ENDBRANCH  64  77
ENDBRANCH  38  39
ENDBRANCH  31  33
ENDBRANCH  30  31
ENDBRANCH  29  30
ENDBRANCH   1  29
TORSDOF 15
