REMARK SMILES Cc1cccc(O[C@H](C)C(=O)N2CCC[C@@H](C(=O)OCCOC(=O)c3ccc(-c4c5nc(c(-c6ccccc6)c6ccc([nH]6)c(-c6ccccc6)c6nc(c(-c7ccccc7)c7ccc4[nH]7)C=C6)C=C5)cc3)C2)c1
REMARK SMILES IDX 20 1 19 2 17 3 18 4 16 5 12 6 13 7 73 8 14 9 15 10 10 11
REMARK SMILES IDX 11 12 8 13 9 14 7 15 6 16 1 17 2 18 3 19 74 20 4 21 5 22
REMARK SMILES IDX 21 23 22 24 23 25 24 26 25 27 26 28 72 29 27 30 71 31 28 32
REMARK SMILES IDX 29 33 30 34 65 35 31 36 70 37 64 38 66 39 32 40 69 41 63 42
REMARK SMILES IDX 62 43 33 45 55 46 40 47 54 48 41 49 44 50 53 51 67 52 42 53
REMARK SMILES IDX 43 54 52 56 68 57 45 58 34 59 35 60 39 61 36 62 38 63 37 64
REMARK SMILES IDX 56 65 57 66 61 67 58 68 60 69 59 70 46 71 47 72 51 73 48 74
REMARK SMILES IDX 50 75 49 76
REMARK H PARENT 66 44 44 55
REMARK Flexibility Score: inf
ROOT
ATOM      1  C   UNL     1      -1.065  -1.521   0.070  1.00  0.00     0.274 C 
ENDROOT
BRANCH   1   2
ATOM      2  O   UNL     1      -0.528  -0.332  -0.500  1.00  0.00    -0.462 OA
BRANCH   2   3
ATOM      3  C   UNL     1       0.793  -0.297  -0.847  1.00  0.00     0.310 C 
ATOM      4  O   UNL     1       1.628  -1.152  -0.577  1.00  0.00    -0.252 OA
BRANCH   3   5
ATOM      5  C   UNL     1       1.040   1.022  -1.533  1.00  0.00     0.119 C 
ATOM      6  N   UNL     1       1.109   3.348  -0.851  1.00  0.00    -0.339 N 
ATOM      7  C   UNL     1       2.243   3.664  -1.720  1.00  0.00     0.119 C 
ATOM      8  C   UNL     1       1.086   1.997  -0.383  1.00  0.00     0.134 C 
ATOM      9  C   UNL     1       2.366   2.662  -2.879  1.00  0.00     0.022 C 
ATOM     10  C   UNL     1       2.276   1.195  -2.411  1.00  0.00     0.019 C 
BRANCH   6  11
ATOM     11  C   UNL     1       0.121   4.267  -0.546  1.00  0.00     0.263 C 
ATOM     12  O   UNL     1       0.089   5.358  -1.129  1.00  0.00    -0.271 OA
BRANCH  11  13
ATOM     13  C   UNL     1      -1.022   3.916   0.499  1.00  0.00     0.259 C 
ATOM     14  C   UNL     1      -2.151   3.079  -0.121  1.00  0.00     0.064 C 
BRANCH  13  15
ATOM     15  O   UNL     1      -0.795   3.704   1.900  1.00  0.00    -0.481 OA
BRANCH  15  16
ATOM     16  C   UNL     1      -0.182   2.610   2.434  1.00  0.00     0.120 A 
ATOM     17  C   UNL     1       2.679   2.018   4.911  1.00  0.00     0.044 C 
ATOM     18  C   UNL     1       1.575   1.785   3.924  1.00  0.00    -0.047 A 
ATOM     19  C   UNL     1       1.154   0.476   3.702  1.00  0.00     0.003 A 
ATOM     20  C   UNL     1       0.915   2.843   3.272  1.00  0.00     0.049 A 
ATOM     21  C   UNL     1       0.018   0.246   2.941  1.00  0.00     0.004 A 
ATOM     22  C   UNL     1      -0.669   1.308   2.337  1.00  0.00     0.046 A 
ENDBRANCH  15  16
ENDBRANCH  13  15
ENDBRANCH  11  13
ENDBRANCH   6  11
ENDBRANCH   3   5
ENDBRANCH   2   3
ENDBRANCH   1   2
BRANCH   1  23
ATOM     23  C   UNL     1      -2.578  -1.585  -0.199  1.00  0.00     0.275 C 
BRANCH  23  24
ATOM     24  O   UNL     1      -3.114  -0.935  -1.400  1.00  0.00    -0.458 OA
BRANCH  24  25
ATOM     25  C   UNL     1      -2.536  -0.760  -2.618  1.00  0.00     0.338 C 
ATOM     26  O   UNL     1      -2.851   0.146  -3.375  1.00  0.00    -0.246 OA
BRANCH  25  27
ATOM     27  C   UNL     1      -1.456  -1.689  -2.966  1.00  0.00     0.060 A 
ATOM     28  C   UNL     1      -0.308  -1.204  -3.616  1.00  0.00     0.016 A 
ATOM     29  C   UNL     1      -1.525  -2.986  -2.477  1.00  0.00     0.016 A 
ATOM     30  C   UNL     1       0.824  -2.002  -3.680  1.00  0.00     0.010 A 
ATOM     31  C   UNL     1      -0.358  -3.685  -2.347  1.00  0.00     0.010 A 
ATOM     32  C   UNL     1       0.786  -3.225  -3.014  1.00  0.00    -0.014 A 
BRANCH  32  33
ATOM     33  C   UNL     1       1.726  -4.293  -3.289  1.00  0.00     0.031 A 
ATOM     34  C   UNL     1       3.058  -4.279  -2.674  1.00  0.00     0.074 A 
ATOM     35  C   UNL     1       1.146  -5.216  -4.091  1.00  0.00     0.049 A 
ATOM     36  N   UNL     1       4.152  -4.585  -3.282  1.00  0.00    -0.248 NA
ATOM     37  C   UNL     1       3.291  -3.802  -1.306  1.00  0.00     0.031 C 
ATOM     38  C   UNL     1       1.502  -6.555  -4.500  1.00  0.00     0.029 A 
ATOM     39  N   UNL     1      -0.002  -4.946  -4.857  1.00  0.00    -0.354 N 
ATOM     40  C   UNL     1       5.083  -4.784  -2.280  1.00  0.00     0.074 A 
ATOM     41  C   UNL     1       4.598  -4.043  -1.145  1.00  0.00     0.031 C 
ATOM     42  C   UNL     1       0.818  -6.845  -5.631  1.00  0.00     0.029 A 
ATOM     43  C   UNL     1       0.086  -5.644  -6.043  1.00  0.00     0.049 A 
ATOM     44  H   UNL     1      -0.744  -4.356  -4.591  1.00  0.00     0.167 HD
ATOM     45  C   UNL     1       5.946  -5.836  -2.377  1.00  0.00     0.031 A 
ATOM     46  C   UNL     1       0.306  -4.898  -7.167  1.00  0.00     0.031 A 
ATOM     47  C   UNL     1       5.654  -6.593  -3.591  1.00  0.00     0.049 A 
ATOM     48  C   UNL     1       1.703  -5.161  -7.659  1.00  0.00     0.074 A 
ATOM     49  C   UNL     1       4.862  -7.715  -3.779  1.00  0.00     0.029 A 
ATOM     50  N   UNL     1       5.803  -5.995  -4.835  1.00  0.00    -0.354 N 
ATOM     51  N   UNL     1       2.737  -5.337  -6.881  1.00  0.00    -0.248 NA
ATOM     52  C   UNL     1       2.001  -5.328  -9.074  1.00  0.00     0.031 C 
ATOM     53  C   UNL     1       4.468  -7.742  -5.139  1.00  0.00     0.029 A 
ATOM     54  C   UNL     1       5.005  -6.632  -5.767  1.00  0.00     0.049 A 
ATOM     55  H   UNL     1       6.391  -5.229  -5.026  1.00  0.00     0.167 HD
ATOM     56  C   UNL     1       3.789  -5.752  -7.652  1.00  0.00     0.074 A 
ATOM     57  C   UNL     1       3.292  -5.690  -9.018  1.00  0.00     0.031 C 
ATOM     58  C   UNL     1       4.980  -6.178  -7.145  1.00  0.00     0.031 A 
BRANCH  45  59
ATOM     59  C   UNL     1       6.712  -6.426  -1.213  1.00  0.00    -0.014 A 
ATOM     60  C   UNL     1       7.019  -7.802  -1.223  1.00  0.00     0.009 A 
ATOM     61  C   UNL     1       7.148  -5.707  -0.088  1.00  0.00     0.009 A 
ATOM     62  C   UNL     1       7.651  -8.441  -0.151  1.00  0.00     0.001 A 
ATOM     63  C   UNL     1       7.769  -6.344   1.001  1.00  0.00     0.001 A 
ATOM     64  C   UNL     1       8.014  -7.713   0.972  1.00  0.00     0.000 A 
ENDBRANCH  45  59
BRANCH  46  65
ATOM     65  C   UNL     1      -0.353  -3.540  -7.206  1.00  0.00    -0.014 A 
ATOM     66  C   UNL     1      -1.746  -3.437  -6.975  1.00  0.00     0.009 A 
ATOM     67  C   UNL     1       0.378  -2.343  -7.256  1.00  0.00     0.009 A 
ATOM     68  C   UNL     1      -2.362  -2.205  -6.717  1.00  0.00     0.001 A 
ATOM     69  C   UNL     1      -0.247  -1.104  -7.024  1.00  0.00     0.001 A 
ATOM     70  C   UNL     1      -1.609  -1.037  -6.730  1.00  0.00     0.000 A 
ENDBRANCH  46  65
BRANCH  58  71
ATOM     71  C   UNL     1       6.236  -6.325  -7.952  1.00  0.00    -0.014 A 
ATOM     72  C   UNL     1       6.470  -5.621  -9.137  1.00  0.00     0.009 A 
ATOM     73  C   UNL     1       7.308  -7.077  -7.426  1.00  0.00     0.009 A 
ATOM     74  C   UNL     1       7.690  -5.727  -9.810  1.00  0.00     0.001 A 
ATOM     75  C   UNL     1       8.548  -7.132  -8.057  1.00  0.00     0.001 A 
ATOM     76  C   UNL     1       8.730  -6.473  -9.265  1.00  0.00     0.000 A 
ENDBRANCH  58  71
ENDBRANCH  32  33
ENDBRANCH  25  27
ENDBRANCH  24  25
ENDBRANCH  23  24
ENDBRANCH   1  23
TORSDOF 15
