REMARK SMILES C[C@H](CC[NH2+]Cc1cc(C(=O)OCCOC(=O)c2ccc(-c3c4nc(c(-c5ccccc5)c5ccc([nH]5)c(-c5ccccc5)c5nc(c(-c6ccccc6)c6ccc3[nH]6)C=C5)C=C4)cc2)cs1)c1ccccc1
REMARK SMILES IDX 10 1 11 2 9 3 7 4 8 5 67 6 66 7 6 8 5 9 4 12 3 13 2 14 1 15
REMARK SMILES IDX 68 16 69 17 73 18 70 19 72 20 71 21 12 22 13 23 14 24 15 25
REMARK SMILES IDX 16 26 17 27 18 28 19 29 65 30 20 31 64 32 21 33 22 34 23 35
REMARK SMILES IDX 58 36 24 37 63 38 57 39 59 40 25 41 62 42 56 43 55 44 26 46
REMARK SMILES IDX 48 47 33 48 47 49 34 50 37 51 46 52 60 53 35 54 36 55 45 57
REMARK SMILES IDX 61 58 38 59 27 60 28 61 32 62 29 63 31 64 30 65 49 66 50 67
REMARK SMILES IDX 54 68 51 69 53 70 52 71 39 72 40 73 44 74 41 75 43 76 42 77
REMARK H PARENT 5 10 5 11 59 45 37 56
REMARK Flexibility Score: inf
ROOT
ATOM      1  C   UNL     1      -0.031   2.301  -6.816  1.00  0.00     0.339 C 
ATOM      2  O   UNL     1      -0.426   3.278  -7.433  1.00  0.00    -0.246 OA
ENDROOT
BRANCH   1   3
ATOM      3  C   UNL     1       0.816   2.410  -5.627  1.00  0.00     0.071 A 
ATOM      4  C   UNL     1       2.272   1.809  -3.883  1.00  0.00     0.059 A 
ATOM      5  C   UNL     1       1.543   1.364  -4.970  1.00  0.00     0.037 A 
ATOM      6  S   UNL     1       2.052   3.487  -3.626  1.00  0.00    -0.142 S 
ATOM      7  C   UNL     1       1.025   3.617  -4.980  1.00  0.00     0.081 A 
BRANCH   4   8
ATOM      8  C   UNL     1       3.184   1.018  -2.993  1.00  0.00     0.308 C 
BRANCH   8   9
ATOM      9  N   UNL     1       2.740   0.973  -1.600  1.00  0.00    -0.342 N 
ATOM     10  H   UNL     1       3.465   0.517  -1.046  1.00  0.00     0.346 HD
ATOM     11  H   UNL     1       2.575   1.936  -1.308  1.00  0.00     0.346 HD
BRANCH   9  12
ATOM     12  C   UNL     1       1.482   0.245  -1.406  1.00  0.00     0.261 C 
BRANCH  12  13
ATOM     13  C   UNL     1       1.183   0.059   0.091  1.00  0.00     0.069 C 
BRANCH  13  14
ATOM     14  C   UNL     1       0.399   1.189   0.823  1.00  0.00     0.021 C 
ATOM     15  C   UNL     1       1.001   2.572   0.535  1.00  0.00     0.013 C 
BRANCH  14  16
ATOM     16  C   UNL     1      -1.131   1.132   0.708  1.00  0.00    -0.045 A 
ATOM     17  C   UNL     1      -1.920   2.297   0.666  1.00  0.00     0.004 A 
ATOM     18  C   UNL     1      -1.815  -0.094   0.806  1.00  0.00     0.004 A 
ATOM     19  C   UNL     1      -3.318   2.241   0.721  1.00  0.00     0.000 A 
ATOM     20  C   UNL     1      -3.213  -0.153   0.846  1.00  0.00     0.000 A 
ATOM     21  C   UNL     1      -3.965   1.015   0.811  1.00  0.00     0.000 A 
ENDBRANCH  14  16
ENDBRANCH  13  14
ENDBRANCH  12  13
ENDBRANCH   9  12
ENDBRANCH   8   9
ENDBRANCH   4   8
ENDBRANCH   1   3
BRANCH   1  22
ATOM     22  O   UNL     1      -0.339   1.009  -7.136  1.00  0.00    -0.458 OA
BRANCH  22  23
ATOM     23  C   UNL     1      -1.168   0.833  -8.302  1.00  0.00     0.275 C 
BRANCH  23  24
ATOM     24  C   UNL     1      -2.654   0.697  -7.956  1.00  0.00     0.275 C 
BRANCH  24  25
ATOM     25  O   UNL     1      -3.221   1.940  -7.497  1.00  0.00    -0.458 OA
BRANCH  25  26
ATOM     26  C   UNL     1      -3.272   2.072  -6.152  1.00  0.00     0.338 C 
ATOM     27  O   UNL     1      -2.919   1.253  -5.319  1.00  0.00    -0.246 OA
BRANCH  26  28
ATOM     28  C   UNL     1      -3.694   3.429  -5.777  1.00  0.00     0.060 A 
ATOM     29  C   UNL     1      -2.725   4.259  -5.215  1.00  0.00     0.016 A 
ATOM     30  C   UNL     1      -5.031   3.823  -5.797  1.00  0.00     0.016 A 
ATOM     31  C   UNL     1      -3.085   5.460  -4.618  1.00  0.00     0.010 A 
ATOM     32  C   UNL     1      -5.391   5.051  -5.221  1.00  0.00     0.010 A 
ATOM     33  C   UNL     1      -4.426   5.860  -4.590  1.00  0.00    -0.014 A 
BRANCH  33  34
ATOM     34  C   UNL     1      -4.806   7.059  -3.793  1.00  0.00     0.031 A 
ATOM     35  C   UNL     1      -5.650   6.897  -2.555  1.00  0.00     0.074 A 
ATOM     36  C   UNL     1      -4.335   8.278  -4.120  1.00  0.00     0.049 A 
ATOM     37  N   UNL     1      -6.143   7.815  -1.761  1.00  0.00    -0.248 NA
ATOM     38  C   UNL     1      -5.990   5.520  -2.161  1.00  0.00     0.031 C 
ATOM     39  C   UNL     1      -3.449   8.570  -5.249  1.00  0.00     0.029 A 
ATOM     40  N   UNL     1      -4.521   9.498  -3.519  1.00  0.00    -0.354 N 
ATOM     41  C   UNL     1      -6.888   7.131  -0.807  1.00  0.00     0.074 A 
ATOM     42  C   UNL     1      -6.796   5.724  -1.130  1.00  0.00     0.031 C 
ATOM     43  C   UNL     1      -3.144   9.878  -5.239  1.00  0.00     0.029 A 
ATOM     44  C   UNL     1      -3.864  10.527  -4.148  1.00  0.00     0.049 A 
ATOM     45  H   UNL     1      -5.073   9.624  -2.713  1.00  0.00     0.167 HD
ATOM     46  C   UNL     1      -7.584   7.628   0.245  1.00  0.00     0.031 A 
ATOM     47  C   UNL     1      -3.861  11.850  -3.895  1.00  0.00     0.031 A 
ATOM     48  C   UNL     1      -7.651   9.025   0.588  1.00  0.00     0.049 A 
ATOM     49  C   UNL     1      -4.677  12.381  -2.749  1.00  0.00     0.074 A 
ATOM     50  C   UNL     1      -8.329   9.626   1.635  1.00  0.00     0.029 A 
ATOM     51  N   UNL     1      -7.005  10.039  -0.103  1.00  0.00    -0.354 N 
ATOM     52  N   UNL     1      -5.411  11.727  -1.881  1.00  0.00    -0.248 NA
ATOM     53  C   UNL     1      -4.660  13.836  -2.548  1.00  0.00     0.031 C 
ATOM     54  C   UNL     1      -8.130  11.008   1.550  1.00  0.00     0.029 A 
ATOM     55  C   UNL     1      -7.277  11.262   0.489  1.00  0.00     0.049 A 
ATOM     56  H   UNL     1      -6.438   9.909  -0.897  1.00  0.00     0.167 HD
ATOM     57  C   UNL     1      -5.918  12.687  -1.015  1.00  0.00     0.074 A 
ATOM     58  C   UNL     1      -5.391  13.964  -1.450  1.00  0.00     0.031 C 
ATOM     59  C   UNL     1      -6.744  12.525   0.048  1.00  0.00     0.031 A 
BRANCH  46  60
ATOM     60  C   UNL     1      -8.370   6.650   1.077  1.00  0.00    -0.014 A 
ATOM     61  C   UNL     1      -7.740   5.724   1.923  1.00  0.00     0.009 A 
ATOM     62  C   UNL     1      -9.774   6.673   1.025  1.00  0.00     0.009 A 
ATOM     63  C   UNL     1      -8.498   4.814   2.666  1.00  0.00     0.001 A 
ATOM     64  C   UNL     1     -10.529   5.785   1.793  1.00  0.00     0.001 A 
ATOM     65  C   UNL     1      -9.890   4.848   2.604  1.00  0.00     0.000 A 
ENDBRANCH  46  60
BRANCH  47  66
ATOM     66  C   UNL     1      -3.083  12.775  -4.762  1.00  0.00    -0.014 A 
ATOM     67  C   UNL     1      -1.968  13.464  -4.261  1.00  0.00     0.009 A 
ATOM     68  C   UNL     1      -3.468  12.991  -6.095  1.00  0.00     0.009 A 
ATOM     69  C   UNL     1      -1.272  14.367  -5.068  1.00  0.00     0.001 A 
ATOM     70  C   UNL     1      -2.750  13.868  -6.909  1.00  0.00     0.001 A 
ATOM     71  C   UNL     1      -1.660  14.564  -6.392  1.00  0.00     0.000 A 
ENDBRANCH  47  66
BRANCH  59  72
ATOM     72  C   UNL     1      -7.078  13.755   0.847  1.00  0.00    -0.014 A 
ATOM     73  C   UNL     1      -7.906  14.766   0.334  1.00  0.00     0.009 A 
ATOM     74  C   UNL     1      -6.557  13.898   2.143  1.00  0.00     0.009 A 
ATOM     75  C   UNL     1      -8.163  15.916   1.083  1.00  0.00     0.001 A 
ATOM     76  C   UNL     1      -6.842  15.033   2.902  1.00  0.00     0.001 A 
ATOM     77  C   UNL     1      -7.633  16.047   2.367  1.00  0.00     0.000 A 
ENDBRANCH  59  72
ENDBRANCH  33  34
ENDBRANCH  26  28
ENDBRANCH  25  26
ENDBRANCH  24  25
ENDBRANCH  23  24
ENDBRANCH  22  23
ENDBRANCH   1  22
TORSDOF 17
