REMARK SMILES O=C(OCCOC(=O)C1(n2cnc3ccccc32)CC[NH+](Cc2cccc3nonc23)CC1)c1ccc(-c2c3nc(c(-c4ccccc4)c4ccc([nH]4)c(-c4ccccc4)c4nc(c(-c5ccccc5)c5ccc2[nH]5)C=C4)C=C3)cc1
REMARK SMILES IDX 4 1 3 2 2 3 1 4 34 5 35 6 81 7 36 8 80 9 37 10 38 11 39 12
REMARK SMILES IDX 74 13 40 14 79 15 73 16 75 17 41 18 78 19 72 20 71 21 42 23
REMARK SMILES IDX 64 24 49 25 63 26 50 27 53 28 62 29 76 30 51 31 52 32 61 34
REMARK SMILES IDX 77 35 54 36 43 37 44 38 48 39 45 40 47 41 46 42 65 43 66 44
REMARK SMILES IDX 70 45 67 46 69 47 68 48 55 49 56 50 60 51 57 52 59 53 58 54
REMARK SMILES IDX 5 55 6 56 7 57 8 58 9 59 19 60 33 61 20 62 32 63 21 64 10 66
REMARK SMILES IDX 11 67 18 68 12 69 13 70 17 71 14 72 16 73 15 74 22 75 23 76
REMARK SMILES IDX 24 77 31 78 25 79 27 80 30 81 26 82 28 83 29 84
REMARK H PARENT 75 22 53 33 21 65
REMARK Flexibility Score: inf
ROOT
ATOM      1  C   UNL     1       3.731   2.318  -0.806  1.00  0.00     0.275 C 
ENDROOT
BRANCH   1   2
ATOM      2  O   UNL     1       3.750   1.152  -1.633  1.00  0.00    -0.458 OA
BRANCH   2   3
ATOM      3  C   UNL     1       3.655   0.001  -0.943  1.00  0.00     0.338 C 
ATOM      4  O   UNL     1       2.582  -0.469  -0.642  1.00  0.00    -0.246 OA
BRANCH   3   5
ATOM      5  C   UNL     1       4.959  -0.375  -0.301  1.00  0.00     0.060 A 
ATOM      6  C   UNL     1       4.795  -0.916   0.960  1.00  0.00     0.016 A 
ATOM      7  C   UNL     1       6.143   0.283  -0.596  1.00  0.00     0.016 A 
ATOM      8  C   UNL     1       5.496  -0.373   2.024  1.00  0.00     0.010 A 
ATOM      9  C   UNL     1       6.923   0.751   0.466  1.00  0.00     0.010 A 
ATOM     10  C   UNL     1       6.480   0.582   1.783  1.00  0.00    -0.014 A 
BRANCH  10  11
ATOM     11  C   UNL     1       7.067   1.290   2.941  1.00  0.00     0.031 A 
ATOM     12  C   UNL     1       7.708   0.390   3.960  1.00  0.00     0.074 A 
ATOM     13  C   UNL     1       6.996   2.639   3.121  1.00  0.00     0.049 A 
ATOM     14  N   UNL     1       7.860   0.638   5.224  1.00  0.00    -0.248 NA
ATOM     15  C   UNL     1       8.119  -0.977   3.572  1.00  0.00     0.031 C 
ATOM     16  C   UNL     1       6.263   3.634   2.337  1.00  0.00     0.029 A 
ATOM     17  N   UNL     1       7.614   3.457   4.035  1.00  0.00    -0.354 N 
ATOM     18  C   UNL     1       8.389  -0.515   5.785  1.00  0.00     0.074 A 
ATOM     19  C   UNL     1       8.510  -1.491   4.735  1.00  0.00     0.031 C 
ATOM     20  C   UNL     1       6.730   4.878   2.550  1.00  0.00     0.029 A 
ATOM     21  C   UNL     1       7.681   4.795   3.631  1.00  0.00     0.049 A 
ATOM     22  H   UNL     1       7.975   3.133   4.892  1.00  0.00     0.167 HD
ATOM     23  C   UNL     1       8.910  -0.552   7.036  1.00  0.00     0.031 A 
ATOM     24  C   UNL     1       8.375   5.830   4.157  1.00  0.00     0.031 A 
ATOM     25  C   UNL     1       8.317   0.340   7.993  1.00  0.00     0.049 A 
ATOM     26  C   UNL     1       8.675   5.486   5.547  1.00  0.00     0.074 A 
ATOM     27  C   UNL     1       7.564   0.234   9.142  1.00  0.00     0.029 A 
ATOM     28  N   UNL     1       8.367   1.665   7.676  1.00  0.00    -0.354 N 
ATOM     29  N   UNL     1       7.795   5.516   6.499  1.00  0.00    -0.248 NA
ATOM     30  C   UNL     1       9.911   4.774   5.825  1.00  0.00     0.031 C 
ATOM     31  C   UNL     1       7.035   1.537   9.408  1.00  0.00     0.029 A 
ATOM     32  C   UNL     1       7.558   2.427   8.479  1.00  0.00     0.049 A 
ATOM     33  H   UNL     1       8.922   2.033   6.952  1.00  0.00     0.167 HD
ATOM     34  C   UNL     1       8.177   4.490   7.334  1.00  0.00     0.074 A 
ATOM     35  C   UNL     1       9.549   4.157   6.950  1.00  0.00     0.031 C 
ATOM     36  C   UNL     1       7.275   3.788   8.077  1.00  0.00     0.031 A 
BRANCH  23  37
ATOM     37  C   UNL     1      10.339  -0.994   7.172  1.00  0.00    -0.014 A 
ATOM     38  C   UNL     1      11.227  -0.944   6.074  1.00  0.00     0.009 A 
ATOM     39  C   UNL     1      10.894  -1.147   8.447  1.00  0.00     0.009 A 
ATOM     40  C   UNL     1      12.606  -1.026   6.238  1.00  0.00     0.001 A 
ATOM     41  C   UNL     1      12.281  -1.199   8.617  1.00  0.00     0.001 A 
ATOM     42  C   UNL     1      13.133  -1.131   7.516  1.00  0.00     0.000 A 
ENDBRANCH  23  37
BRANCH  24  43
ATOM     43  C   UNL     1       9.140   6.889   3.451  1.00  0.00    -0.014 A 
ATOM     44  C   UNL     1       9.493   6.751   2.099  1.00  0.00     0.009 A 
ATOM     45  C   UNL     1       9.828   7.854   4.213  1.00  0.00     0.009 A 
ATOM     46  C   UNL     1      10.572   7.464   1.562  1.00  0.00     0.001 A 
ATOM     47  C   UNL     1      10.916   8.554   3.679  1.00  0.00     0.001 A 
ATOM     48  C   UNL     1      11.305   8.337   2.361  1.00  0.00     0.000 A 
ENDBRANCH  24  43
BRANCH  36  49
ATOM     49  C   UNL     1       5.919   4.404   8.341  1.00  0.00    -0.014 A 
ATOM     50  C   UNL     1       5.450   4.457   9.663  1.00  0.00     0.009 A 
ATOM     51  C   UNL     1       5.084   4.933   7.338  1.00  0.00     0.009 A 
ATOM     52  C   UNL     1       4.202   5.007   9.975  1.00  0.00     0.001 A 
ATOM     53  C   UNL     1       3.853   5.525   7.653  1.00  0.00     0.001 A 
ATOM     54  C   UNL     1       3.409   5.553   8.972  1.00  0.00     0.000 A 
ENDBRANCH  36  49
ENDBRANCH  10  11
ENDBRANCH   3   5
ENDBRANCH   2   3
ENDBRANCH   1   2
BRANCH   1  55
ATOM     55  C   UNL     1       3.395   2.248   0.721  1.00  0.00     0.274 C 
BRANCH  55  56
ATOM     56  O   UNL     1       3.018   1.024   1.421  1.00  0.00    -0.460 OA
BRANCH  56  57
ATOM     57  C   UNL     1       1.828   0.943   2.052  1.00  0.00     0.332 C 
ATOM     58  O   UNL     1       1.024   1.873   1.981  1.00  0.00    -0.249 OA
BRANCH  57  59
ATOM     59  C   UNL     1       1.528  -0.345   2.935  1.00  0.00     0.154 C 
ATOM     60  C   UNL     1       2.276  -1.726   2.977  1.00  0.00     0.102 C 
ATOM     61  C   UNL     1       0.091  -0.757   2.510  1.00  0.00     0.102 C 
ATOM     62  C   UNL     1       1.972  -2.828   1.934  1.00  0.00     0.265 C 
ATOM     63  C   UNL     1       0.049  -1.427   1.135  1.00  0.00     0.265 C 
ATOM     64  N   UNL     1       0.858  -2.621   1.052  1.00  0.00    -0.331 N 
ATOM     65  H   UNL     1       0.231  -3.115   1.687  1.00  0.00     0.348 HD
BRANCH  59  66
ATOM     66  N   UNL     1       1.560   0.117   4.379  1.00  0.00    -0.313 N 
ATOM     67  C   UNL     1       0.628  -0.298   5.309  1.00  0.00     0.201 A 
ATOM     68  C   UNL     1       2.709   0.383   5.118  1.00  0.00     0.069 A 
ATOM     69  N   UNL     1       1.198  -0.728   6.409  1.00  0.00    -0.237 NA
ATOM     70  C   UNL     1       2.498  -0.328   6.305  1.00  0.00     0.088 A 
ATOM     71  C   UNL     1       3.884   1.103   4.895  1.00  0.00     0.028 A 
ATOM     72  C   UNL     1       3.547  -0.533   7.203  1.00  0.00     0.030 A 
ATOM     73  C   UNL     1       4.871   0.999   5.880  1.00  0.00     0.002 A 
ATOM     74  C   UNL     1       4.744   0.123   6.955  1.00  0.00     0.002 A 
ENDBRANCH  59  66
BRANCH  64  75
ATOM     75  C   UNL     1       0.760  -3.449  -0.155  1.00  0.00     0.301 C 
BRANCH  75  76
ATOM     76  C   UNL     1       1.357  -2.873  -1.413  1.00  0.00     0.038 A 
ATOM     77  C   UNL     1       2.723  -3.059  -1.780  1.00  0.00     0.012 A 
ATOM     78  C   UNL     1       0.660  -2.020  -2.308  1.00  0.00     0.144 A 
ATOM     79  C   UNL     1       3.354  -2.399  -2.880  1.00  0.00     0.003 A 
ATOM     80  C   UNL     1       1.312  -1.339  -3.425  1.00  0.00     0.135 A 
ATOM     81  N   UNL     1      -0.632  -1.660  -2.308  1.00  0.00    -0.049 NA
ATOM     82  C   UNL     1       2.678  -1.496  -3.722  1.00  0.00     0.034 A 
ATOM     83  N   UNL     1       0.404  -0.573  -4.043  1.00  0.00    -0.050 NA
ATOM     84  O   UNL     1      -0.782  -0.774  -3.359  1.00  0.00    -0.243 OA
ENDBRANCH  75  76
ENDBRANCH  64  75
ENDBRANCH  57  59
ENDBRANCH  56  57
ENDBRANCH  55  56
ENDBRANCH   1  55
TORSDOF 14
