REMARK SMILES CCCCCCNC(=O)Oc1cccc(-c2ccc([C@@H](C)C(=O)OCCOC(=O)c3ccc(-c4c5nc(c(-c6ccccc6)c6ccc([nH]6)c(-c6ccccc6)c6nc(c(-c7ccccc7)c7ccc4[nH]7)C=C6)C=C5)cc3)cc2F)c1
REMARK SMILES IDX 20 1 21 2 19 3 16 4 17 5 79 6 18 7 78 8 80 9 15 10 11 11
REMARK SMILES IDX 12 12 81 13 13 14 14 15 10 16 8 17 7 18 9 20 6 21 5 22 4 23
REMARK SMILES IDX 3 24 2 25 1 26 22 27 23 28 24 29 25 30 26 31 27 32 28 33
REMARK SMILES IDX 29 34 30 35 31 36 77 37 32 38 76 39 33 40 34 41 35 42 70 43
REMARK SMILES IDX 36 44 75 45 69 46 71 47 37 48 74 49 68 50 67 51 38 53 60 54
REMARK SMILES IDX 45 55 59 56 46 57 49 58 58 59 72 60 47 61 48 62 57 64 73 65
REMARK SMILES IDX 50 66 39 67 40 68 44 69 41 70 43 71 42 72 61 73 62 74 66 75
REMARK SMILES IDX 63 76 65 77 64 78 51 79 52 80 56 81 53 82 55 83 54 84
REMARK H PARENT 7 19 71 52 49 63
REMARK Flexibility Score: inf
ROOT
ATOM      1  C   UNL     1      -4.833  -7.789  11.383  1.00  0.00     0.126 C 
ATOM      2  C   UNL     1      -6.121  -8.417  11.912  1.00  0.00     0.025 C 
ENDROOT
BRANCH   1   3
ATOM      3  C   UNL     1      -4.863  -7.569   9.879  1.00  0.00    -0.031 A 
ATOM      4  C   UNL     1      -4.951  -7.091   7.068  1.00  0.00     0.018 A 
ATOM      5  C   UNL     1      -5.145  -8.378   7.597  1.00  0.00     0.012 A 
ATOM      6  C   UNL     1      -4.694  -6.058   7.977  1.00  0.00     0.131 A 
ATOM      7  C   UNL     1      -5.106  -8.613   8.977  1.00  0.00     0.005 A 
ATOM      8  C   UNL     1      -4.657  -6.284   9.354  1.00  0.00     0.044 A 
ATOM      9  F   UNL     1      -4.510  -4.800   7.545  1.00  0.00    -0.206 F 
BRANCH   4  10
ATOM     10  C   UNL     1      -5.052  -6.846   5.619  1.00  0.00    -0.012 A 
ATOM     11  C   UNL     1      -4.191  -5.919   3.547  1.00  0.00     0.133 A 
ATOM     12  C   UNL     1      -5.312  -6.360   2.848  1.00  0.00     0.047 A 
ATOM     13  C   UNL     1      -4.058  -6.142   4.919  1.00  0.00     0.056 A 
ATOM     14  C   UNL     1      -6.305  -7.060   3.526  1.00  0.00     0.004 A 
ATOM     15  C   UNL     1      -6.174  -7.300   4.897  1.00  0.00     0.009 A 
BRANCH  11  16
ATOM     16  O   UNL     1      -3.271  -5.135   2.834  1.00  0.00    -0.410 OA
BRANCH  16  17
ATOM     17  C   UNL     1      -1.943  -5.536   2.830  1.00  0.00     0.412 C 
ATOM     18  N   UNL     1      -1.136  -4.707   2.100  1.00  0.00    -0.321 N 
ATOM     19  H   UNL     1      -0.178  -4.934   2.077  1.00  0.00     0.167 HD
ATOM     20  O   UNL     1      -1.485  -6.526   3.385  1.00  0.00    -0.224 OA
BRANCH  18  21
ATOM     21  C   UNL     1      -1.541  -3.529   1.357  1.00  0.00     0.119 C 
BRANCH  21  22
ATOM     22  C   UNL     1      -0.930  -2.249   1.928  1.00  0.00     0.021 C 
BRANCH  22  23
ATOM     23  C   UNL     1       0.600  -2.173   1.851  1.00  0.00     0.002 C 
BRANCH  23  24
ATOM     24  C   UNL     1       1.202  -2.295   0.446  1.00  0.00    -0.000 C 
BRANCH  24  25
ATOM     25  C   UNL     1       0.722  -1.257  -0.571  1.00  0.00    -0.003 C 
ATOM     26  C   UNL     1       1.088   0.171  -0.194  1.00  0.00     0.004 C 
ENDBRANCH  24  25
ENDBRANCH  23  24
ENDBRANCH  22  23
ENDBRANCH  21  22
ENDBRANCH  18  21
ENDBRANCH  16  17
ENDBRANCH  11  16
ENDBRANCH   4  10
ENDBRANCH   1   3
BRANCH   1  27
ATOM     27  C   UNL     1      -3.625  -8.547  11.924  1.00  0.00     0.313 C 
ATOM     28  O   UNL     1      -3.172  -8.332  13.044  1.00  0.00    -0.252 OA
BRANCH  27  29
ATOM     29  O   UNL     1      -3.148  -9.494  11.075  1.00  0.00    -0.462 OA
BRANCH  29  30
ATOM     30  C   UNL     1      -1.984 -10.226  11.505  1.00  0.00     0.274 C 
BRANCH  30  31
ATOM     31  C   UNL     1      -0.703  -9.678  10.870  1.00  0.00     0.275 C 
BRANCH  31  32
ATOM     32  O   UNL     1      -0.370  -8.378  11.393  1.00  0.00    -0.458 OA
BRANCH  32  33
ATOM     33  C   UNL     1      -0.820  -7.340  10.652  1.00  0.00     0.338 C 
ATOM     34  O   UNL     1      -1.418  -7.391   9.591  1.00  0.00    -0.246 OA
BRANCH  33  35
ATOM     35  C   UNL     1      -0.608  -6.076  11.370  1.00  0.00     0.060 A 
ATOM     36  C   UNL     1      -1.739  -5.346  11.739  1.00  0.00     0.016 A 
ATOM     37  C   UNL     1       0.670  -5.551  11.567  1.00  0.00     0.016 A 
ATOM     38  C   UNL     1      -1.607  -4.068  12.269  1.00  0.00     0.010 A 
ATOM     39  C   UNL     1       0.804  -4.269  12.113  1.00  0.00     0.010 A 
ATOM     40  C   UNL     1      -0.335  -3.510  12.439  1.00  0.00    -0.014 A 
BRANCH  40  41
ATOM     41  C   UNL     1      -0.221  -2.097  12.872  1.00  0.00     0.031 A 
ATOM     42  C   UNL     1       0.138  -1.037  11.869  1.00  0.00     0.074 A 
ATOM     43  C   UNL     1      -0.502  -1.757  14.143  1.00  0.00     0.049 A 
ATOM     44  N   UNL     1       0.302   0.249  12.049  1.00  0.00    -0.248 NA
ATOM     45  C   UNL     1       0.336  -1.482  10.480  1.00  0.00     0.031 C 
ATOM     46  C   UNL     1      -0.915  -2.684  15.197  1.00  0.00     0.029 A 
ATOM     47  N   UNL     1      -0.494  -0.531  14.759  1.00  0.00    -0.354 N 
ATOM     48  C   UNL     1       0.643   0.763  10.805  1.00  0.00     0.074 A 
ATOM     49  C   UNL     1       0.677  -0.350   9.880  1.00  0.00     0.031 C 
ATOM     50  C   UNL     1      -1.132  -1.991  16.328  1.00  0.00     0.029 A 
ATOM     51  C   UNL     1      -0.837  -0.582  16.087  1.00  0.00     0.049 A 
ATOM     52  H   UNL     1      -0.264   0.305  14.293  1.00  0.00     0.167 HD
ATOM     53  C   UNL     1       0.902   2.047  10.462  1.00  0.00     0.031 A 
ATOM     54  C   UNL     1      -0.889   0.397  17.011  1.00  0.00     0.031 A 
ATOM     55  C   UNL     1       0.856   3.158  11.374  1.00  0.00     0.049 A 
ATOM     56  C   UNL     1      -0.550   1.806  16.613  1.00  0.00     0.074 A 
ATOM     57  C   UNL     1       1.098   4.497  11.117  1.00  0.00     0.029 A 
ATOM     58  N   UNL     1       0.543   3.059  12.720  1.00  0.00    -0.354 N 
ATOM     59  N   UNL     1      -0.222   2.276  15.434  1.00  0.00    -0.248 NA
ATOM     60  C   UNL     1      -0.588   2.820  17.677  1.00  0.00     0.031 C 
ATOM     61  C   UNL     1       0.968   5.203  12.318  1.00  0.00     0.029 A 
ATOM     62  C   UNL     1       0.603   4.310  13.311  1.00  0.00     0.049 A 
ATOM     63  H   UNL     1       0.312   2.224  13.187  1.00  0.00     0.167 HD
ATOM     64  C   UNL     1      -0.034   3.640  15.610  1.00  0.00     0.074 A 
ATOM     65  C   UNL     1      -0.303   3.926  17.004  1.00  0.00     0.031 C 
ATOM     66  C   UNL     1       0.333   4.574  14.699  1.00  0.00     0.031 A 
BRANCH  53  67
ATOM     67  C   UNL     1       1.293   2.316   9.037  1.00  0.00    -0.014 A 
ATOM     68  C   UNL     1       0.342   2.302   8.005  1.00  0.00     0.009 A 
ATOM     69  C   UNL     1       2.628   2.622   8.731  1.00  0.00     0.009 A 
ATOM     70  C   UNL     1       0.727   2.567   6.689  1.00  0.00     0.001 A 
ATOM     71  C   UNL     1       3.005   2.908   7.418  1.00  0.00     0.001 A 
ATOM     72  C   UNL     1       2.057   2.873   6.397  1.00  0.00     0.000 A 
ENDBRANCH  53  67
BRANCH  54  73
ATOM     73  C   UNL     1      -1.252   0.077  18.415  1.00  0.00    -0.014 A 
ATOM     74  C   UNL     1      -2.474   0.505  18.955  1.00  0.00     0.009 A 
ATOM     75  C   UNL     1      -0.360  -0.637  19.231  1.00  0.00     0.009 A 
ATOM     76  C   UNL     1      -2.784   0.246  20.292  1.00  0.00     0.001 A 
ATOM     77  C   UNL     1      -0.684  -0.917  20.559  1.00  0.00     0.001 A 
ATOM     78  C   UNL     1      -1.891  -0.467  21.092  1.00  0.00     0.000 A 
ENDBRANCH  54  73
BRANCH  66  79
ATOM     79  C   UNL     1       0.435   5.993  15.180  1.00  0.00    -0.014 A 
ATOM     80  C   UNL     1       1.513   6.412  15.975  1.00  0.00     0.009 A 
ATOM     81  C   UNL     1      -0.545   6.926  14.810  1.00  0.00     0.009 A 
ATOM     82  C   UNL     1       1.589   7.734  16.417  1.00  0.00     0.001 A 
ATOM     83  C   UNL     1      -0.453   8.252  15.233  1.00  0.00     0.001 A 
ATOM     84  C   UNL     1       0.608   8.653  16.044  1.00  0.00     0.000 A 
ENDBRANCH  66  79
ENDBRANCH  40  41
ENDBRANCH  33  35
ENDBRANCH  32  33
ENDBRANCH  31  32
ENDBRANCH  30  31
ENDBRANCH  29  30
ENDBRANCH  27  29
ENDBRANCH   1  27
TORSDOF 20
