REMARK SMILES CC(C)=C1[C@H]2CC[C@@H]1[C@H](C(=O)NNC(=O)c1ccoc1C)[C@H]2C(=O)OCCOC(=O)c1ccc(-c2c3nc(c(-c4ccccc4)c4ccc([nH]4)c(-c4ccccc4)c4nc(c(-c5ccccc5)c5ccc2[nH]5)C=C4)C=C3)cc1
REMARK SMILES IDX 26 1 25 2 23 3 24 4 22 5 1 6 2 7 3 8 4 9 5 10 8 11 6 12 7 13
REMARK SMILES IDX 9 14 10 15 11 16 12 17 13 19 14 20 15 22 16 23 17 24 20 25
REMARK SMILES IDX 18 26 19 27 21 28 27 29 28 30 29 31 30 32 31 33 32 34 78 35
REMARK SMILES IDX 33 36 77 37 34 38 35 39 36 40 71 41 37 42 76 43 70 44 72 45
REMARK SMILES IDX 38 46 75 47 69 48 68 49 39 51 61 52 46 53 60 54 47 55 50 56
REMARK SMILES IDX 59 57 73 58 48 59 49 60 58 62 74 63 51 64 40 65 41 66 45 67
REMARK SMILES IDX 42 68 44 69 43 70 62 71 63 72 67 73 64 74 66 75 65 76 52 77
REMARK SMILES IDX 53 78 57 79 54 80 56 81 55 82
REMARK H PARENT 12 18 13 21 72 50 50 61
REMARK Flexibility Score: inf
ROOT
ATOM      1  C   UNL     1       3.037  -3.133  -3.901  1.00  0.00     0.274 C 
ENDROOT
BRANCH   1   2
ATOM      2  O   UNL     1       2.329  -1.887  -3.771  1.00  0.00    -0.462 OA
BRANCH   2   3
ATOM      3  C   UNL     1       2.866  -0.825  -4.405  1.00  0.00     0.310 C 
ATOM      4  O   UNL     1       3.958  -0.830  -4.969  1.00  0.00    -0.252 OA
BRANCH   3   5
ATOM      5  C   UNL     1       2.026   0.437  -4.374  1.00  0.00     0.119 C 
ATOM      6  C   UNL     1       1.171   0.153   0.166  1.00  0.00     0.039 C 
ATOM      7  C   UNL     1       0.726  -0.223  -1.215  1.00  0.00    -0.077 C 
ATOM      8  C   UNL     1      -0.104  -1.473  -1.354  1.00  0.00     0.039 C 
ATOM      9  C   UNL     1       1.009   0.537  -2.286  1.00  0.00    -0.064 C 
ATOM     10  C   UNL     1       0.642   0.312  -3.721  1.00  0.00     0.030 C 
ATOM     11  C   UNL     1       1.706   1.864  -2.457  1.00  0.00     0.029 C 
ATOM     12  C   UNL     1      -0.161   1.595  -3.981  1.00  0.00     0.009 C 
ATOM     13  C   UNL     1       0.513   2.631  -3.064  1.00  0.00     0.009 C 
ATOM     14  C   UNL     1       2.767   1.503  -3.538  1.00  0.00     0.102 C 
BRANCH  14  15
ATOM     15  C   UNL     1       3.263   2.736  -4.300  1.00  0.00     0.243 C 
ATOM     16  O   UNL     1       3.196   3.860  -3.792  1.00  0.00    -0.273 OA
ATOM     17  N   UNL     1       3.872   2.653  -5.525  1.00  0.00    -0.267 N 
ATOM     18  H   UNL     1       4.070   3.507  -5.973  1.00  0.00     0.191 HD
BRANCH  17  19
ATOM     19  N   UNL     1       4.240   1.496  -6.205  1.00  0.00    -0.263 N 
ATOM     20  C   UNL     1       4.444   1.410  -7.571  1.00  0.00     0.273 C 
ATOM     21  H   UNL     1       4.366   0.677  -5.674  1.00  0.00     0.191 HD
ATOM     22  O   UNL     1       4.515   0.310  -8.113  1.00  0.00    -0.267 OA
BRANCH  20  23
ATOM     23  C   UNL     1       4.596   2.636  -8.330  1.00  0.00     0.082 A 
ATOM     24  C   UNL     1       3.911   3.038  -9.511  1.00  0.00     0.056 A 
ATOM     25  C   UNL     1       5.557   3.611  -8.114  1.00  0.00     0.113 A 
ATOM     26  C   UNL     1       4.487   4.215  -9.922  1.00  0.00     0.196 A 
ATOM     27  O   UNL     1       5.475   4.579  -9.069  1.00  0.00    -0.469 OA
ATOM     28  C   UNL     1       6.637   3.781  -7.120  1.00  0.00     0.088 C 
ENDBRANCH  20  23
ENDBRANCH  17  19
ENDBRANCH  14  15
ENDBRANCH   3   5
ENDBRANCH   2   3
ENDBRANCH   1   2
BRANCH   1  29
ATOM     29  C   UNL     1       2.292  -4.064  -4.860  1.00  0.00     0.275 C 
BRANCH  29  30
ATOM     30  O   UNL     1       2.224  -3.521  -6.194  1.00  0.00    -0.458 OA
BRANCH  30  31
ATOM     31  C   UNL     1       1.135  -2.757  -6.453  1.00  0.00     0.338 C 
ATOM     32  O   UNL     1       0.219  -2.494  -5.695  1.00  0.00    -0.246 OA
BRANCH  31  33
ATOM     33  C   UNL     1       1.265  -2.132  -7.781  1.00  0.00     0.060 A 
ATOM     34  C   UNL     1       1.140  -0.744  -7.864  1.00  0.00     0.016 A 
ATOM     35  C   UNL     1       1.441  -2.895  -8.936  1.00  0.00     0.016 A 
ATOM     36  C   UNL     1       1.250  -0.102  -9.092  1.00  0.00     0.010 A 
ATOM     37  C   UNL     1       1.509  -2.254 -10.178  1.00  0.00     0.010 A 
ATOM     38  C   UNL     1       1.426  -0.855 -10.258  1.00  0.00    -0.014 A 
BRANCH  38  39
ATOM     39  C   UNL     1       1.453  -0.153 -11.559  1.00  0.00     0.031 A 
ATOM     40  C   UNL     1       0.164   0.135 -12.264  1.00  0.00     0.074 A 
ATOM     41  C   UNL     1       2.620   0.297 -12.052  1.00  0.00     0.049 A 
ATOM     42  N   UNL     1      -0.035   0.763 -13.394  1.00  0.00    -0.248 NA
ATOM     43  C   UNL     1      -1.062  -0.352 -11.614  1.00  0.00     0.031 C 
ATOM     44  C   UNL     1       3.921   0.127 -11.410  1.00  0.00     0.029 A 
ATOM     45  N   UNL     1       2.893   1.037 -13.174  1.00  0.00    -0.354 N 
ATOM     46  C   UNL     1      -1.404   0.707 -13.616  1.00  0.00     0.074 A 
ATOM     47  C   UNL     1      -1.990   0.011 -12.489  1.00  0.00     0.031 C 
ATOM     48  C   UNL     1       4.843   0.814 -12.104  1.00  0.00     0.029 A 
ATOM     49  C   UNL     1       4.212   1.409 -13.279  1.00  0.00     0.049 A 
ATOM     50  H   UNL     1       2.209   1.279 -13.840  1.00  0.00     0.167 HD
ATOM     51  C   UNL     1      -2.101   1.162 -14.684  1.00  0.00     0.031 A 
ATOM     52  C   UNL     1       4.835   2.142 -14.222  1.00  0.00     0.031 A 
ATOM     53  C   UNL     1      -1.503   1.822 -15.813  1.00  0.00     0.049 A 
ATOM     54  C   UNL     1       4.038   2.614 -15.410  1.00  0.00     0.074 A 
ATOM     55  C   UNL     1      -2.111   2.271 -16.972  1.00  0.00     0.029 A 
ATOM     56  N   UNL     1      -0.153   2.121 -15.927  1.00  0.00    -0.354 N 
ATOM     57  N   UNL     1       2.748   2.523 -15.631  1.00  0.00    -0.248 NA
ATOM     58  C   UNL     1       4.790   3.259 -16.495  1.00  0.00     0.031 C 
ATOM     59  C   UNL     1      -1.119   2.792 -17.811  1.00  0.00     0.029 A 
ATOM     60  C   UNL     1       0.095   2.727 -17.147  1.00  0.00     0.049 A 
ATOM     61  H   UNL     1       0.527   1.931 -15.242  1.00  0.00     0.167 HD
ATOM     62  C   UNL     1       2.536   3.089 -16.882  1.00  0.00     0.074 A 
ATOM     63  C   UNL     1       3.822   3.566 -17.348  1.00  0.00     0.031 C 
ATOM     64  C   UNL     1       1.386   3.185 -17.594  1.00  0.00     0.031 A 
BRANCH  51  65
ATOM     65  C   UNL     1      -3.572   0.862 -14.718  1.00  0.00    -0.014 A 
ATOM     66  C   UNL     1      -4.484   1.526 -13.883  1.00  0.00     0.009 A 
ATOM     67  C   UNL     1      -4.052  -0.110 -15.611  1.00  0.00     0.009 A 
ATOM     68  C   UNL     1      -5.841   1.195 -13.918  1.00  0.00     0.001 A 
ATOM     69  C   UNL     1      -5.411  -0.418 -15.664  1.00  0.00     0.001 A 
ATOM     70  C   UNL     1      -6.304   0.227 -14.810  1.00  0.00     0.000 A 
ENDBRANCH  51  65
BRANCH  52  71
ATOM     71  C   UNL     1       6.289   2.446 -14.116  1.00  0.00    -0.014 A 
ATOM     72  C   UNL     1       6.733   3.774 -14.001  1.00  0.00     0.009 A 
ATOM     73  C   UNL     1       7.245   1.420 -14.163  1.00  0.00     0.009 A 
ATOM     74  C   UNL     1       8.100   4.066 -13.959  1.00  0.00     0.001 A 
ATOM     75  C   UNL     1       8.609   1.711 -14.083  1.00  0.00     0.001 A 
ATOM     76  C   UNL     1       9.036   3.034 -13.994  1.00  0.00     0.000 A 
ENDBRANCH  52  71
BRANCH  64  77
ATOM     77  C   UNL     1       1.470   3.830 -18.949  1.00  0.00    -0.014 A 
ATOM     78  C   UNL     1       2.091   3.178 -20.026  1.00  0.00     0.009 A 
ATOM     79  C   UNL     1       0.880   5.086 -19.163  1.00  0.00     0.009 A 
ATOM     80  C   UNL     1       2.146   3.784 -21.282  1.00  0.00     0.001 A 
ATOM     81  C   UNL     1       0.911   5.676 -20.427  1.00  0.00     0.001 A 
ATOM     82  C   UNL     1       1.552   5.030 -21.483  1.00  0.00     0.000 A 
ENDBRANCH  64  77
ENDBRANCH  38  39
ENDBRANCH  31  33
ENDBRANCH  30  31
ENDBRANCH  29  30
ENDBRANCH   1  29
TORSDOF 14
