REMARK SMILES CC(C)[C@H](NC(=O)Cc1csc(-c2c(Cl)cccc2Cl)n1)C(=O)OCCOC(=O)c1ccc(-c2c3nc(c(-c4ccccc4)c4ccc([nH]4)c(-c4ccccc4)c4nc(c(-c5ccccc5)c5ccc2[nH]5)C=C4)C=C3)cc1
REMARK SMILES IDX 25 1 24 2 22 3 23 4 4 5 2 6 1 7 3 8 5 9 6 10 7 12 8 13 9 14
REMARK SMILES IDX 10 15 21 16 11 17 12 18 13 19 14 20 19 21 15 22 16 23 18 24
REMARK SMILES IDX 20 25 17 26 26 27 27 28 28 29 29 30 30 31 31 32 77 33 32 34
REMARK SMILES IDX 76 35 33 36 34 37 35 38 70 39 36 40 75 41 69 42 71 43 37 44
REMARK SMILES IDX 74 45 68 46 67 47 38 49 60 50 45 51 59 52 46 53 49 54 58 55
REMARK SMILES IDX 72 56 47 57 48 58 57 60 73 61 50 62 39 63 40 64 44 65 41 66
REMARK SMILES IDX 43 67 42 68 61 69 62 70 66 71 63 72 65 73 64 74 51 75 52 76
REMARK SMILES IDX 56 77 53 78 55 79 54 80
REMARK H PARENT 5 11 71 48 49 59
REMARK Flexibility Score: inf
ROOT
ATOM      1  C   UNL     1      -1.104  -5.065   1.732  1.00  0.00     0.274 C 
ENDROOT
BRANCH   1   2
ATOM      2  O   UNL     1      -0.586  -3.855   1.143  1.00  0.00    -0.461 OA
BRANCH   2   3
ATOM      3  C   UNL     1      -1.514  -2.886   0.909  1.00  0.00     0.329 C 
ATOM      4  O   UNL     1      -2.702  -2.985   1.203  1.00  0.00    -0.250 OA
BRANCH   3   5
ATOM      5  C   UNL     1      -0.959  -1.688   0.117  1.00  0.00     0.194 C 
BRANCH   5   6
ATOM      6  C   UNL     1      -1.338  -1.817  -1.387  1.00  0.00     0.017 C 
ATOM      7  C   UNL     1      -0.718  -3.039  -2.074  1.00  0.00     0.010 C 
ATOM      8  C   UNL     1      -2.853  -1.826  -1.604  1.00  0.00     0.010 C 
ENDBRANCH   5   6
BRANCH   5   9
ATOM      9  N   UNL     1       0.489  -1.466   0.244  1.00  0.00    -0.342 N 
ATOM     10  C   UNL     1       1.176  -0.308   0.490  1.00  0.00     0.226 C 
ATOM     11  H   UNL     1       1.047  -2.270   0.136  1.00  0.00     0.164 HD
ATOM     12  O   UNL     1       2.388  -0.301   0.253  1.00  0.00    -0.275 OA
BRANCH  10  13
ATOM     13  C   UNL     1       0.518   0.889   1.158  1.00  0.00     0.157 C 
BRANCH  13  14
ATOM     14  C   UNL     1      -0.295   1.782   0.282  1.00  0.00     0.061 A 
ATOM     15  C   UNL     1      -0.415   3.157   0.392  1.00  0.00     0.091 A 
ATOM     16  N   UNL     1      -1.115   1.228  -0.678  1.00  0.00    -0.240 NA
ATOM     17  S   UNL     1      -1.539   3.757  -0.762  1.00  0.00    -0.122 S 
ATOM     18  C   UNL     1      -1.796   2.157  -1.312  1.00  0.00     0.126 A 
BRANCH  18  19
ATOM     19  C   UNL     1      -2.697   1.858  -2.420  1.00  0.00     0.048 A 
ATOM     20  C   UNL     1      -4.056   1.577  -2.197  1.00  0.00     0.052 A 
ATOM     21  C   UNL     1      -2.186   1.688  -3.718  1.00  0.00     0.052 A 
ATOM     22  Cl  UNL     1      -4.786   1.732  -0.633  1.00  0.00    -0.084 Cl
ATOM     23  C   UNL     1      -4.871   1.117  -3.238  1.00  0.00     0.021 A 
ATOM     24  C   UNL     1      -3.005   1.232  -4.757  1.00  0.00     0.021 A 
ATOM     25  Cl  UNL     1      -0.527   2.002  -4.104  1.00  0.00    -0.084 Cl
ATOM     26  C   UNL     1      -4.344   0.936  -4.515  1.00  0.00     0.003 A 
ENDBRANCH  18  19
ENDBRANCH  13  14
ENDBRANCH  10  13
ENDBRANCH   5   9
ENDBRANCH   3   5
ENDBRANCH   2   3
ENDBRANCH   1   2
BRANCH   1  27
ATOM     27  C   UNL     1      -0.850  -5.142   3.240  1.00  0.00     0.275 C 
BRANCH  27  28
ATOM     28  O   UNL     1      -1.469  -4.055   3.951  1.00  0.00    -0.458 OA
BRANCH  28  29
ATOM     29  C   UNL     1      -0.654  -2.999   4.163  1.00  0.00     0.338 C 
ATOM     30  O   UNL     1       0.521  -2.893   3.845  1.00  0.00    -0.246 OA
BRANCH  29  31
ATOM     31  C   UNL     1      -1.401  -1.869   4.726  1.00  0.00     0.060 A 
ATOM     32  C   UNL     1      -1.607  -0.773   3.891  1.00  0.00     0.016 A 
ATOM     33  C   UNL     1      -1.721  -1.794   6.080  1.00  0.00     0.016 A 
ATOM     34  C   UNL     1      -2.048   0.437   4.411  1.00  0.00     0.010 A 
ATOM     35  C   UNL     1      -2.209  -0.587   6.599  1.00  0.00     0.010 A 
ATOM     36  C   UNL     1      -2.332   0.549   5.778  1.00  0.00    -0.014 A 
BRANCH  36  37
ATOM     37  C   UNL     1      -2.676   1.883   6.332  1.00  0.00     0.031 A 
ATOM     38  C   UNL     1      -1.699   2.611   7.216  1.00  0.00     0.074 A 
ATOM     39  C   UNL     1      -3.827   2.484   5.975  1.00  0.00     0.049 A 
ATOM     40  N   UNL     1      -1.822   3.777   7.798  1.00  0.00    -0.248 NA
ATOM     41  C   UNL     1      -0.414   1.942   7.476  1.00  0.00     0.031 C 
ATOM     42  C   UNL     1      -4.835   1.918   5.077  1.00  0.00     0.029 A 
ATOM     43  N   UNL     1      -4.329   3.717   6.307  1.00  0.00    -0.354 N 
ATOM     44  C   UNL     1      -0.648   3.968   8.517  1.00  0.00     0.074 A 
ATOM     45  C   UNL     1       0.173   2.795   8.305  1.00  0.00     0.031 C 
ATOM     46  C   UNL     1      -5.818   2.815   4.902  1.00  0.00     0.029 A 
ATOM     47  C   UNL     1      -5.534   3.996   5.712  1.00  0.00     0.049 A 
ATOM     48  H   UNL     1      -3.869   4.341   6.913  1.00  0.00     0.167 HD
ATOM     49  C   UNL     1      -0.284   5.023   9.285  1.00  0.00     0.031 A 
ATOM     50  C   UNL     1      -6.329   5.077   5.814  1.00  0.00     0.031 A 
ATOM     51  C   UNL     1      -1.083   6.202   9.487  1.00  0.00     0.049 A 
ATOM     52  C   UNL     1      -5.917   6.220   6.697  1.00  0.00     0.074 A 
ATOM     53  C   UNL     1      -0.798   7.317  10.257  1.00  0.00     0.029 A 
ATOM     54  N   UNL     1      -2.319   6.424   8.904  1.00  0.00    -0.354 N 
ATOM     55  N   UNL     1      -4.821   6.365   7.400  1.00  0.00    -0.248 NA
ATOM     56  C   UNL     1      -6.857   7.345   6.800  1.00  0.00     0.031 C 
ATOM     57  C   UNL     1      -1.878   8.203  10.162  1.00  0.00     0.029 A 
ATOM     58  C   UNL     1      -2.816   7.653   9.303  1.00  0.00     0.049 A 
ATOM     59  H   UNL     1      -2.777   5.800   8.295  1.00  0.00     0.167 HD
ATOM     60  C   UNL     1      -4.935   7.601   8.024  1.00  0.00     0.074 A 
ATOM     61  C   UNL     1      -6.196   8.173   7.598  1.00  0.00     0.031 C 
ATOM     62  C   UNL     1      -4.074   8.205   8.877  1.00  0.00     0.031 A 
BRANCH  49  63
ATOM     63  C   UNL     1       1.033   4.928  10.000  1.00  0.00    -0.014 A 
ATOM     64  C   UNL     1       2.246   5.122   9.323  1.00  0.00     0.009 A 
ATOM     65  C   UNL     1       1.055   4.666  11.379  1.00  0.00     0.009 A 
ATOM     66  C   UNL     1       3.459   5.027  10.009  1.00  0.00     0.001 A 
ATOM     67  C   UNL     1       2.267   4.592  12.066  1.00  0.00     0.001 A 
ATOM     68  C   UNL     1       3.468   4.765  11.380  1.00  0.00     0.000 A 
ENDBRANCH  49  63
BRANCH  50  69
ATOM     69  C   UNL     1      -7.613   5.122   5.072  1.00  0.00    -0.014 A 
ATOM     70  C   UNL     1      -7.763   5.959   3.957  1.00  0.00     0.009 A 
ATOM     71  C   UNL     1      -8.695   4.325   5.478  1.00  0.00     0.009 A 
ATOM     72  C   UNL     1      -8.980   6.009   3.272  1.00  0.00     0.001 A 
ATOM     73  C   UNL     1      -9.901   4.361   4.778  1.00  0.00     0.001 A 
ATOM     74  C   UNL     1     -10.045   5.208   3.681  1.00  0.00     0.000 A 
ENDBRANCH  50  69
BRANCH  62  75
ATOM     75  C   UNL     1      -4.465   9.559   9.389  1.00  0.00    -0.014 A 
ATOM     76  C   UNL     1      -5.441   9.700  10.387  1.00  0.00     0.009 A 
ATOM     77  C   UNL     1      -3.837  10.706   8.880  1.00  0.00     0.009 A 
ATOM     78  C   UNL     1      -5.805  10.968  10.843  1.00  0.00     0.001 A 
ATOM     79  C   UNL     1      -4.189  11.971   9.351  1.00  0.00     0.001 A 
ATOM     80  C   UNL     1      -5.178  12.102  10.326  1.00  0.00     0.000 A 
ENDBRANCH  62  75
ENDBRANCH  36  37
ENDBRANCH  29  31
ENDBRANCH  28  29
ENDBRANCH  27  28
ENDBRANCH   1  27
TORSDOF 16
