REMARK SMILES Cc1cc(C(=O)N[C@@H]2C(=O)N3C(C(=O)OCCOC(=O)c4ccc(-c5c6nc(c(-c7ccccc7)c7ccc([nH]7)c(-c7ccccc7)c7nc(c(-c8ccccc8)c8ccc5[nH]8)C=C7)C=C6)cc4)=C(CSc4nnc(C)s4)CS[C@H]23)n(C)n1
REMARK SMILES IDX 16 1 15 2 13 3 14 4 12 5 8 6 9 7 80 8 10 9 11 10 79 11 78 12
REMARK SMILES IDX 69 13 7 14 5 15 6 16 4 18 1 19 2 20 3 21 83 22 81 23 82 24
REMARK SMILES IDX 70 25 71 26 72 27 73 28 77 29 74 30 75 31 76 32 17 33 18 34
REMARK SMILES IDX 19 35 20 36 21 37 22 38 68 39 23 40 67 41 24 42 25 43 26 44
REMARK SMILES IDX 61 45 27 46 66 47 60 48 62 49 28 50 65 51 59 52 58 53 29 55
REMARK SMILES IDX 51 56 36 57 50 58 37 59 40 60 49 61 63 62 38 63 39 64 48 66
REMARK SMILES IDX 64 67 41 68 30 69 31 70 35 71 32 72 34 73 33 74 52 75 53 76
REMARK SMILES IDX 57 77 54 78 56 79 55 80 42 81 43 82 47 83 44 84 46 85 45 86
REMARK H PARENT 7 17 62 54 40 65
REMARK Flexibility Score: inf
ROOT
ATOM      1  C   UNL     1      -3.857   0.693  -3.376  1.00  0.00     0.275 C 
ENDROOT
BRANCH   1   2
ATOM      2  O   UNL     1      -3.977  -0.676  -2.936  1.00  0.00    -0.457 OA
BRANCH   2   3
ATOM      3  C   UNL     1      -2.840  -1.401  -2.903  1.00  0.00     0.355 C 
ATOM      4  O   UNL     1      -1.726  -0.998  -3.217  1.00  0.00    -0.244 OA
BRANCH   3   5
ATOM      5  C   UNL     1      -3.053  -2.821  -2.472  1.00  0.00     0.132 C 
ATOM      6  C   UNL     1      -0.837  -4.275  -0.335  1.00  0.00     0.206 C 
ATOM      7  C   UNL     1      -1.952  -3.179  -0.264  1.00  0.00     0.253 C 
ATOM      8  C   UNL     1      -1.595  -4.651  -1.654  1.00  0.00     0.181 C 
ATOM      9  O   UNL     1      -2.510  -2.535   0.596  1.00  0.00    -0.272 OA
ATOM     10  N   UNL     1      -2.107  -3.293  -1.609  1.00  0.00    -0.289 N 
ATOM     11  S   UNL     1      -3.002  -5.785  -1.503  1.00  0.00    -0.129 SA
ATOM     12  C   UNL     1      -3.824  -5.178  -2.993  1.00  0.00     0.106 C 
ATOM     13  C   UNL     1      -3.859  -3.664  -3.160  1.00  0.00    -0.019 C 
BRANCH   6  14
ATOM     14  N   UNL     1      -0.725  -5.215   0.799  1.00  0.00    -0.336 N 
ATOM     15  C   UNL     1      -0.183  -6.481   0.839  1.00  0.00     0.270 C 
ATOM     16  O   UNL     1      -0.110  -7.033   1.934  1.00  0.00    -0.268 OA
ATOM     17  H   UNL     1      -1.092  -4.888   1.653  1.00  0.00     0.164 HD
BRANCH  15  18
ATOM     18  C   UNL     1       0.192  -7.114  -0.402  1.00  0.00     0.126 A 
ATOM     19  C   UNL     1       0.501  -7.375  -4.027  1.00  0.00     0.069 C 
ATOM     20  C   UNL     1       0.474  -7.556  -2.557  1.00  0.00     0.060 A 
ATOM     21  C   UNL     1       0.762  -6.604  -1.557  1.00  0.00     0.059 A 
ATOM     22  N   UNL     1       0.058  -8.704  -2.021  1.00  0.00    -0.178 NA
ATOM     23  N   UNL     1      -0.003  -8.445  -0.695  1.00  0.00    -0.263 N 
ATOM     24  C   UNL     1      -0.335  -9.539   0.187  1.00  0.00     0.174 C 
ENDBRANCH  15  18
ENDBRANCH   6  14
BRANCH  13  25
ATOM     25  C   UNL     1      -4.790  -3.242  -4.276  1.00  0.00     0.111 C 
BRANCH  25  26
ATOM     26  S   UNL     1      -6.323  -2.410  -3.806  1.00  0.00    -0.089 SA
BRANCH  26  27
ATOM     27  C   UNL     1      -6.695  -2.986  -2.205  1.00  0.00     0.174 A 
ATOM     28  N   UNL     1      -6.622  -4.252  -1.862  1.00  0.00    -0.132 NA
ATOM     29  S   UNL     1      -7.298  -1.956  -0.976  1.00  0.00    -0.091 S 
ATOM     30  N   UNL     1      -7.048  -4.464  -0.564  1.00  0.00    -0.143 NA
ATOM     31  C   UNL     1      -7.460  -3.352   0.010  1.00  0.00     0.115 A 
ATOM     32  C   UNL     1      -8.061  -3.274   1.366  1.00  0.00     0.081 C 
ENDBRANCH  26  27
ENDBRANCH  25  26
ENDBRANCH  13  25
ENDBRANCH   3   5
ENDBRANCH   2   3
ENDBRANCH   1   2
BRANCH   1  33
ATOM     33  C   UNL     1      -4.019   1.638  -2.191  1.00  0.00     0.275 C 
BRANCH  33  34
ATOM     34  O   UNL     1      -2.883   1.501  -1.319  1.00  0.00    -0.458 OA
BRANCH  34  35
ATOM     35  C   UNL     1      -3.102   0.743  -0.221  1.00  0.00     0.338 C 
ATOM     36  O   UNL     1      -4.161   0.261   0.143  1.00  0.00    -0.246 OA
BRANCH  35  37
ATOM     37  C   UNL     1      -1.835   0.555   0.503  1.00  0.00     0.060 A 
ATOM     38  C   UNL     1      -0.831  -0.229  -0.061  1.00  0.00     0.016 A 
ATOM     39  C   UNL     1      -1.723   0.998   1.818  1.00  0.00     0.016 A 
ATOM     40  C   UNL     1       0.202  -0.705   0.742  1.00  0.00     0.010 A 
ATOM     41  C   UNL     1      -0.605   0.635   2.575  1.00  0.00     0.010 A 
ATOM     42  C   UNL     1       0.346  -0.268   2.067  1.00  0.00    -0.014 A 
BRANCH  42  43
ATOM     43  C   UNL     1       1.469  -0.769   2.914  1.00  0.00     0.031 A 
ATOM     44  C   UNL     1       1.204  -1.368   4.275  1.00  0.00     0.074 A 
ATOM     45  C   UNL     1       2.740  -0.698   2.467  1.00  0.00     0.049 A 
ATOM     46  N   UNL     1       2.054  -1.659   5.229  1.00  0.00    -0.248 NA
ATOM     47  C   UNL     1      -0.198  -1.663   4.616  1.00  0.00     0.031 C 
ATOM     48  C   UNL     1       3.156  -0.193   1.156  1.00  0.00     0.029 A 
ATOM     49  N   UNL     1       3.922  -1.060   3.066  1.00  0.00    -0.354 N 
ATOM     50  C   UNL     1       1.287  -2.097   6.305  1.00  0.00     0.074 A 
ATOM     51  C   UNL     1      -0.097  -2.036   5.884  1.00  0.00     0.031 C 
ATOM     52  C   UNL     1       4.481  -0.335   1.026  1.00  0.00     0.029 A 
ATOM     53  C   UNL     1       5.028  -0.815   2.287  1.00  0.00     0.049 A 
ATOM     54  H   UNL     1       3.973  -1.456   3.966  1.00  0.00     0.167 HD
ATOM     55  C   UNL     1       1.699  -2.503   7.531  1.00  0.00     0.031 A 
ATOM     56  C   UNL     1       6.342  -0.899   2.563  1.00  0.00     0.031 A 
ATOM     57  C   UNL     1       3.081  -2.608   7.929  1.00  0.00     0.049 A 
ATOM     58  C   UNL     1       6.774  -1.304   3.940  1.00  0.00     0.074 A 
ATOM     59  C   UNL     1       3.600  -3.031   9.142  1.00  0.00     0.029 A 
ATOM     60  N   UNL     1       4.164  -2.305   7.118  1.00  0.00    -0.354 N 
ATOM     61  N   UNL     1       6.037  -1.649   4.967  1.00  0.00    -0.248 NA
ATOM     62  C   UNL     1       8.219  -1.310   4.201  1.00  0.00     0.031 C 
ATOM     63  C   UNL     1       4.994  -2.930   9.082  1.00  0.00     0.029 A 
ATOM     64  C   UNL     1       5.347  -2.508   7.811  1.00  0.00     0.049 A 
ATOM     65  H   UNL     1       4.101  -1.992   6.186  1.00  0.00     0.167 HD
ATOM     66  C   UNL     1       6.928  -1.926   5.994  1.00  0.00     0.074 A 
ATOM     67  C   UNL     1       8.260  -1.732   5.457  1.00  0.00     0.031 C 
ATOM     68  C   UNL     1       6.665  -2.302   7.269  1.00  0.00     0.031 A 
BRANCH  55  69
ATOM     69  C   UNL     1       0.643  -2.812   8.561  1.00  0.00    -0.014 A 
ATOM     70  C   UNL     1      -0.175  -3.949   8.471  1.00  0.00     0.009 A 
ATOM     71  C   UNL     1       0.499  -1.964   9.672  1.00  0.00     0.009 A 
ATOM     72  C   UNL     1      -1.139  -4.206   9.451  1.00  0.00     0.001 A 
ATOM     73  C   UNL     1      -0.442  -2.241  10.666  1.00  0.00     0.001 A 
ATOM     74  C   UNL     1      -1.268  -3.356  10.549  1.00  0.00     0.000 A 
ENDBRANCH  55  69
BRANCH  56  75
ATOM     75  C   UNL     1       7.338  -0.522   1.525  1.00  0.00    -0.014 A 
ATOM     76  C   UNL     1       8.169  -1.491   0.945  1.00  0.00     0.009 A 
ATOM     77  C   UNL     1       7.440   0.810   1.088  1.00  0.00     0.009 A 
ATOM     78  C   UNL     1       9.088  -1.131  -0.045  1.00  0.00     0.001 A 
ATOM     79  C   UNL     1       8.332   1.159   0.073  1.00  0.00     0.001 A 
ATOM     80  C   UNL     1       9.160   0.189  -0.487  1.00  0.00     0.000 A 
ENDBRANCH  56  75
BRANCH  68  81
ATOM     81  C   UNL     1       7.848  -2.563   8.157  1.00  0.00    -0.014 A 
ATOM     82  C   UNL     1       8.651  -1.515   8.632  1.00  0.00     0.009 A 
ATOM     83  C   UNL     1       8.156  -3.880   8.532  1.00  0.00     0.009 A 
ATOM     84  C   UNL     1       9.762  -1.785   9.434  1.00  0.00     0.001 A 
ATOM     85  C   UNL     1       9.248  -4.144   9.359  1.00  0.00     0.001 A 
ATOM     86  C   UNL     1      10.057  -3.098   9.799  1.00  0.00     0.000 A 
ENDBRANCH  68  81
ENDBRANCH  42  43
ENDBRANCH  35  37
ENDBRANCH  34  35
ENDBRANCH  33  34
ENDBRANCH   1  33
TORSDOF 16
