REMARK SMILES Cc1cc(OC(F)(F)F)cc2c1O[C@H](C(F)(F)F)C(C(=O)OCCOC(=O)c1ccc(-c3c4nc(c(-c5ccccc5)c5ccc([nH]5)c(-c5ccccc5)c5nc(c(-c6ccccc6)c6ccc3[nH]6)C=C5)C=C4)cc1)=C2
REMARK SMILES IDX 23 1 22 2 20 3 21 4 19 5 1 6 2 7 3 8 12 9 4 10 11 11 13 12
REMARK SMILES IDX 10 13 76 14 14 15 5 16 6 17 7 18 8 19 9 20 15 21 16 22 17 23
REMARK SMILES IDX 18 24 24 25 25 26 26 27 27 28 28 29 29 30 75 31 30 32 74 33
REMARK SMILES IDX 31 34 32 35 33 36 68 37 34 38 73 39 67 40 69 41 35 42 72 43
REMARK SMILES IDX 66 44 65 45 36 47 58 48 43 49 57 50 44 51 47 52 56 53 70 54
REMARK SMILES IDX 45 55 46 56 55 58 71 59 48 60 37 61 38 62 42 63 39 64 41 65
REMARK SMILES IDX 40 66 59 67 60 68 64 69 61 70 63 71 62 72 49 73 50 74 54 75
REMARK SMILES IDX 51 76 53 77 52 78
REMARK H PARENT 69 46 47 57
REMARK Flexibility Score: inf
ROOT
ATOM      1  C   UNL     1      -5.806   1.417   4.525  1.00  0.00     0.275 C 
ENDROOT
BRANCH   1   2
ATOM      2  O   UNL     1      -4.548   1.222   3.844  1.00  0.00    -0.459 OA
BRANCH   2   3
ATOM      3  C   UNL     1      -4.354   1.986   2.741  1.00  0.00     0.338 C 
ATOM      4  O   UNL     1      -5.132   2.790   2.265  1.00  0.00    -0.246 OA
BRANCH   3   5
ATOM      5  C   UNL     1      -3.007   1.740   2.188  1.00  0.00     0.087 C 
ATOM      6  C   UNL     1       1.179  -0.325   0.043  1.00  0.00     0.048 C 
ATOM      7  C   UNL     1       0.696   1.063   0.359  1.00  0.00    -0.005 A 
ATOM      8  C   UNL     1       1.453   2.170  -0.075  1.00  0.00     0.054 A 
ATOM      9  C   UNL     1      -0.532   1.276   1.005  1.00  0.00     0.131 A 
ATOM     10  C   UNL     1       1.013   3.473   0.157  1.00  0.00     0.130 A 
ATOM     11  C   UNL     1      -0.984   2.578   1.217  1.00  0.00     0.021 A 
ATOM     12  O   UNL     1      -1.228   0.172   1.411  1.00  0.00    -0.475 OA
ATOM     13  C   UNL     1      -0.206   3.668   0.809  1.00  0.00     0.058 A 
ATOM     14  C   UNL     1      -2.278   2.803   1.833  1.00  0.00     0.027 C 
ATOM     15  C   UNL     1      -2.566   0.324   1.957  1.00  0.00     0.316 C 
BRANCH  10  16
ATOM     16  O   UNL     1       1.651   4.626  -0.196  1.00  0.00    -0.406 OA
BRANCH  16  17
ATOM     17  C   UNL     1       2.840   4.522  -0.959  1.00  0.00     0.573 C 
ATOM     18  F   UNL     1       3.803   3.871  -0.273  1.00  0.00    -0.132 F 
ATOM     19  F   UNL     1       2.613   3.887  -2.129  1.00  0.00    -0.132 F 
ATOM     20  F   UNL     1       3.290   5.766  -1.236  1.00  0.00    -0.132 F 
ENDBRANCH  16  17
ENDBRANCH  10  16
BRANCH  15  21
ATOM     21  C   UNL     1      -3.550  -0.424   1.043  1.00  0.00     0.430 C 
ATOM     22  F   UNL     1      -3.142  -1.695   0.813  1.00  0.00    -0.167 F 
ATOM     23  F   UNL     1      -4.784  -0.510   1.597  1.00  0.00    -0.167 F 
ATOM     24  F   UNL     1      -3.689   0.182  -0.158  1.00  0.00    -0.167 F 
ENDBRANCH  15  21
ENDBRANCH   3   5
ENDBRANCH   2   3
ENDBRANCH   1   2
BRANCH   1  25
ATOM     25  C   UNL     1      -5.622   2.264   5.784  1.00  0.00     0.275 C 
BRANCH  25  26
ATOM     26  O   UNL     1      -5.222   3.599   5.429  1.00  0.00    -0.458 OA
BRANCH  26  27
ATOM     27  C   UNL     1      -3.924   3.891   5.661  1.00  0.00     0.338 C 
ATOM     28  O   UNL     1      -3.079   3.174   6.173  1.00  0.00    -0.246 OA
BRANCH  27  29
ATOM     29  C   UNL     1      -3.605   5.233   5.151  1.00  0.00     0.060 A 
ATOM     30  C   UNL     1      -3.691   5.483   3.784  1.00  0.00     0.016 A 
ATOM     31  C   UNL     1      -3.034   6.176   6.003  1.00  0.00     0.016 A 
ATOM     32  C   UNL     1      -3.067   6.603   3.243  1.00  0.00     0.010 A 
ATOM     33  C   UNL     1      -2.519   7.361   5.470  1.00  0.00     0.010 A 
ATOM     34  C   UNL     1      -2.474   7.559   4.078  1.00  0.00    -0.014 A 
BRANCH  34  35
ATOM     35  C   UNL     1      -1.762   8.735   3.508  1.00  0.00     0.031 A 
ATOM     36  C   UNL     1      -0.308   8.967   3.836  1.00  0.00     0.074 A 
ATOM     37  C   UNL     1      -2.401   9.594   2.688  1.00  0.00     0.049 A 
ATOM     38  N   UNL     1       0.430  10.024   3.609  1.00  0.00    -0.248 NA
ATOM     39  C   UNL     1       0.409   7.872   4.512  1.00  0.00     0.031 C 
ATOM     40  C   UNL     1      -3.782   9.458   2.221  1.00  0.00     0.029 A 
ATOM     41  N   UNL     1      -1.964  10.753   2.095  1.00  0.00    -0.354 N 
ATOM     42  C   UNL     1       1.674   9.743   4.159  1.00  0.00     0.074 A 
ATOM     43  C   UNL     1       1.597   8.419   4.734  1.00  0.00     0.031 C 
ATOM     44  C   UNL     1      -4.066  10.469   1.386  1.00  0.00     0.029 A 
ATOM     45  C   UNL     1      -2.924  11.374   1.333  1.00  0.00     0.049 A 
ATOM     46  H   UNL     1      -1.051  11.105   2.204  1.00  0.00     0.167 HD
ATOM     47  C   UNL     1       2.782  10.521   4.182  1.00  0.00     0.031 A 
ATOM     48  C   UNL     1      -2.914  12.563   0.700  1.00  0.00     0.031 A 
ATOM     49  C   UNL     1       2.874  11.816   3.566  1.00  0.00     0.049 A 
ATOM     50  C   UNL     1      -1.702  13.440   0.800  1.00  0.00     0.074 A 
ATOM     51  C   UNL     1       3.959  12.675   3.532  1.00  0.00     0.029 A 
ATOM     52  N   UNL     1       1.852  12.430   2.861  1.00  0.00    -0.354 N 
ATOM     53  N   UNL     1      -0.559  13.196   1.392  1.00  0.00    -0.248 NA
ATOM     54  C   UNL     1      -1.785  14.765   0.169  1.00  0.00     0.031 C 
ATOM     55  C   UNL     1       3.581  13.827   2.840  1.00  0.00     0.029 A 
ATOM     56  C   UNL     1       2.276  13.665   2.403  1.00  0.00     0.049 A 
ATOM     57  H   UNL     1       0.959  12.045   2.708  1.00  0.00     0.167 HD
ATOM     58  C   UNL     1       0.216  14.331   1.200  1.00  0.00     0.074 A 
ATOM     59  C   UNL     1      -0.580  15.259   0.425  1.00  0.00     0.031 C 
ATOM     60  C   UNL     1       1.474  14.578   1.635  1.00  0.00     0.031 A 
BRANCH  47  61
ATOM     61  C   UNL     1       3.992  10.013   4.911  1.00  0.00    -0.014 A 
ATOM     62  C   UNL     1       4.830   9.043   4.344  1.00  0.00     0.009 A 
ATOM     63  C   UNL     1       4.354  10.595   6.137  1.00  0.00     0.009 A 
ATOM     64  C   UNL     1       6.005   8.660   4.995  1.00  0.00     0.001 A 
ATOM     65  C   UNL     1       5.539  10.226   6.775  1.00  0.00     0.001 A 
ATOM     66  C   UNL     1       6.363   9.258   6.204  1.00  0.00     0.000 A 
ENDBRANCH  47  61
BRANCH  48  67
ATOM     67  C   UNL     1      -4.122  13.000  -0.044  1.00  0.00    -0.014 A 
ATOM     68  C   UNL     1      -4.130  13.000  -1.446  1.00  0.00     0.009 A 
ATOM     69  C   UNL     1      -5.293  13.361   0.643  1.00  0.00     0.009 A 
ATOM     70  C   UNL     1      -5.288  13.349  -2.145  1.00  0.00     0.001 A 
ATOM     71  C   UNL     1      -6.455  13.685  -0.058  1.00  0.00     0.001 A 
ATOM     72  C   UNL     1      -6.451  13.680  -1.451  1.00  0.00     0.000 A 
ENDBRANCH  48  67
BRANCH  60  73
ATOM     73  C   UNL     1       2.090  15.899   1.280  1.00  0.00    -0.014 A 
ATOM     74  C   UNL     1       1.750  17.061   1.988  1.00  0.00     0.009 A 
ATOM     75  C   UNL     1       3.104  15.956   0.311  1.00  0.00     0.009 A 
ATOM     76  C   UNL     1       2.414  18.260   1.726  1.00  0.00     0.001 A 
ATOM     77  C   UNL     1       3.779  17.152   0.068  1.00  0.00     0.001 A 
ATOM     78  C   UNL     1       3.433  18.303   0.775  1.00  0.00     0.000 A 
ENDBRANCH  60  73
ENDBRANCH  34  35
ENDBRANCH  27  29
ENDBRANCH  26  27
ENDBRANCH  25  26
ENDBRANCH   1  25
TORSDOF 14
