REMARK SMILES CC(=O)Nc1nc(C[N@@H+]2CCO[C@@H](CC(=O)OCCOC(=O)c3ccc(-c4c5nc(c(-c6ccccc6)c6ccc([nH]6)c(-c6ccccc6)c6nc(c(-c7ccccc7)c7ccc4[nH]7)C=C6)C=C5)cc3)C2)cs1
REMARK SMILES IDX 18 1 17 2 15 3 16 4 14 5 13 6 9 7 10 8 71 9 11 11 12 12 8 13
REMARK SMILES IDX 7 14 5 15 6 16 73 17 72 18 4 19 1 20 2 21 3 22 19 24 20 25
REMARK SMILES IDX 21 26 22 27 23 28 24 29 70 30 25 31 69 32 26 33 27 34 28 35
REMARK SMILES IDX 63 36 29 37 68 38 62 39 64 40 30 41 67 42 61 43 60 44 31 46
REMARK SMILES IDX 53 47 38 48 52 49 39 50 42 51 51 52 65 53 40 54 41 55 50 57
REMARK SMILES IDX 66 58 43 59 32 60 33 61 37 62 34 63 36 64 35 65 54 66 55 67
REMARK SMILES IDX 59 68 56 69 58 70 57 71 44 72 45 73 49 74 46 75 48 76 47 77
REMARK H PARENT 9 10 4 23 64 45 42 56
REMARK Flexibility Score: inf
ROOT
ATOM      1  C   UNL     1       6.373   3.274  -0.729  1.00  0.00     0.274 C 
ENDROOT
BRANCH   1   2
ATOM      2  O   UNL     1       6.322   3.276   0.712  1.00  0.00    -0.462 OA
BRANCH   2   3
ATOM      3  C   UNL     1       5.553   4.235   1.290  1.00  0.00     0.308 C 
ATOM      4  O   UNL     1       4.914   5.083   0.679  1.00  0.00    -0.252 OA
BRANCH   3   5
ATOM      5  C   UNL     1       5.648   4.202   2.788  1.00  0.00     0.160 C 
BRANCH   5   6
ATOM      6  C   UNL     1       5.051   2.993   3.510  1.00  0.00     0.184 C 
ATOM      7  N   UNL     1       5.458   0.546   4.116  1.00  0.00    -0.326 N 
ATOM      8  C   UNL     1       5.414   0.963   5.514  1.00  0.00     0.291 C 
ATOM      9  C   UNL     1       5.765   1.654   3.199  1.00  0.00     0.295 C 
ATOM     10  H   UNL     1       6.280  -0.055   4.067  1.00  0.00     0.348 HD
ATOM     11  C   UNL     1       4.702   2.298   5.762  1.00  0.00     0.222 C 
ATOM     12  O   UNL     1       5.204   3.327   4.913  1.00  0.00    -0.366 OA
BRANCH   7  13
ATOM     13  C   UNL     1       4.489  -0.456   3.670  1.00  0.00     0.320 C 
BRANCH  13  14
ATOM     14  C   UNL     1       3.057  -0.012   3.603  1.00  0.00     0.108 A 
ATOM     15  C   UNL     1       1.205   0.455   2.493  1.00  0.00     0.189 A 
ATOM     16  N   UNL     1       2.417  -0.015   2.367  1.00  0.00    -0.219 NA
ATOM     17  S   UNL     1       0.711   0.872   4.068  1.00  0.00    -0.105 S 
ATOM     18  C   UNL     1       2.212   0.290   4.658  1.00  0.00     0.098 A 
BRANCH  15  19
ATOM     19  N   UNL     1       0.253   0.651   1.541  1.00  0.00    -0.302 N 
ATOM     20  C   UNL     1       1.407  -0.705  -0.197  1.00  0.00     0.114 C 
ATOM     21  C   UNL     1       0.304   0.212   0.255  1.00  0.00     0.223 C 
ATOM     22  O   UNL     1      -0.592   0.543  -0.527  1.00  0.00    -0.275 OA
ATOM     23  H   UNL     1      -0.547   1.159   1.808  1.00  0.00     0.172 HD
ENDBRANCH  15  19
ENDBRANCH  13  14
ENDBRANCH   7  13
ENDBRANCH   5   6
ENDBRANCH   3   5
ENDBRANCH   2   3
ENDBRANCH   1   2
BRANCH   1  24
ATOM     24  C   UNL     1       5.326   2.348  -1.360  1.00  0.00     0.275 C 
BRANCH  24  25
ATOM     25  O   UNL     1       4.003   2.921  -1.360  1.00  0.00    -0.458 OA
BRANCH  25  26
ATOM     26  C   UNL     1       3.308   2.718  -0.220  1.00  0.00     0.338 C 
ATOM     27  O   UNL     1       3.699   2.097   0.761  1.00  0.00    -0.246 OA
BRANCH  26  28
ATOM     28  C   UNL     1       2.020   3.425  -0.216  1.00  0.00     0.060 A 
ATOM     29  C   UNL     1       1.635   4.064   0.970  1.00  0.00     0.016 A 
ATOM     30  C   UNL     1       1.152   3.378  -1.309  1.00  0.00     0.016 A 
ATOM     31  C   UNL     1       0.374   4.642   1.075  1.00  0.00     0.010 A 
ATOM     32  C   UNL     1      -0.116   3.958  -1.201  1.00  0.00     0.010 A 
ATOM     33  C   UNL     1      -0.514   4.580  -0.006  1.00  0.00    -0.014 A 
BRANCH  33  34
ATOM     34  C   UNL     1      -1.852   5.200   0.112  1.00  0.00     0.031 A 
ATOM     35  C   UNL     1      -3.060   4.372   0.432  1.00  0.00     0.074 A 
ATOM     36  C   UNL     1      -1.968   6.527  -0.062  1.00  0.00     0.049 A 
ATOM     37  N   UNL     1      -4.295   4.754   0.640  1.00  0.00    -0.248 NA
ATOM     38  C   UNL     1      -2.851   2.925   0.551  1.00  0.00     0.031 C 
ATOM     39  C   UNL     1      -0.862   7.438  -0.359  1.00  0.00     0.029 A 
ATOM     40  N   UNL     1      -3.074   7.335  -0.027  1.00  0.00    -0.354 N 
ATOM     41  C   UNL     1      -5.003   3.596   0.934  1.00  0.00     0.074 A 
ATOM     42  C   UNL     1      -4.066   2.495   0.862  1.00  0.00     0.031 C 
ATOM     43  C   UNL     1      -1.350   8.680  -0.502  1.00  0.00     0.029 A 
ATOM     44  C   UNL     1      -2.799   8.643  -0.332  1.00  0.00     0.049 A 
ATOM     45  H   UNL     1      -3.975   7.008   0.195  1.00  0.00     0.167 HD
ATOM     46  C   UNL     1      -6.319   3.462   1.222  1.00  0.00     0.031 A 
ATOM     47  C   UNL     1      -3.629   9.691  -0.483  1.00  0.00     0.031 A 
ATOM     48  C   UNL     1      -7.264   4.546   1.206  1.00  0.00     0.049 A 
ATOM     49  C   UNL     1      -5.101   9.500  -0.259  1.00  0.00     0.074 A 
ATOM     50  C   UNL     1      -8.619   4.517   1.489  1.00  0.00     0.029 A 
ATOM     51  N   UNL     1      -6.958   5.849   0.847  1.00  0.00    -0.354 N 
ATOM     52  N   UNL     1      -5.747   8.415   0.094  1.00  0.00    -0.248 NA
ATOM     53  C   UNL     1      -5.955  10.680  -0.444  1.00  0.00     0.031 C 
ATOM     54  C   UNL     1      -9.143   5.791   1.242  1.00  0.00     0.029 A 
ATOM     55  C   UNL     1      -8.104   6.625   0.859  1.00  0.00     0.049 A 
ATOM     56  H   UNL     1      -6.058   6.175   0.617  1.00  0.00     0.167 HD
ATOM     57  C   UNL     1      -7.082   8.784   0.191  1.00  0.00     0.074 A 
ATOM     58  C   UNL     1      -7.149  10.197  -0.129  1.00  0.00     0.031 C 
ATOM     59  C   UNL     1      -8.154   8.023   0.519  1.00  0.00     0.031 A 
BRANCH  46  60
ATOM     60  C   UNL     1      -6.822   2.080   1.530  1.00  0.00    -0.014 A 
ATOM     61  C   UNL     1      -6.545   1.466   2.762  1.00  0.00     0.009 A 
ATOM     62  C   UNL     1      -7.612   1.399   0.592  1.00  0.00     0.009 A 
ATOM     63  C   UNL     1      -7.034   0.186   3.038  1.00  0.00     0.001 A 
ATOM     64  C   UNL     1      -8.114   0.128   0.879  1.00  0.00     0.001 A 
ATOM     65  C   UNL     1      -7.820  -0.480   2.099  1.00  0.00     0.000 A 
ENDBRANCH  46  60
BRANCH  47  66
ATOM     66  C   UNL     1      -3.074  11.002  -0.897  1.00  0.00    -0.014 A 
ATOM     67  C   UNL     1      -2.984  12.064   0.013  1.00  0.00     0.009 A 
ATOM     68  C   UNL     1      -2.595  11.182  -2.206  1.00  0.00     0.009 A 
ATOM     69  C   UNL     1      -2.434  13.285  -0.383  1.00  0.00     0.001 A 
ATOM     70  C   UNL     1      -2.025  12.395  -2.591  1.00  0.00     0.001 A 
ATOM     71  C   UNL     1      -1.949  13.447  -1.681  1.00  0.00     0.000 A 
ENDBRANCH  47  66
BRANCH  59  72
ATOM     72  C   UNL     1      -9.488   8.710   0.562  1.00  0.00    -0.014 A 
ATOM     73  C   UNL     1     -10.157   9.069  -0.618  1.00  0.00     0.009 A 
ATOM     74  C   UNL     1     -10.096   8.973   1.799  1.00  0.00     0.009 A 
ATOM     75  C   UNL     1     -11.397   9.708  -0.558  1.00  0.00     0.001 A 
ATOM     76  C   UNL     1     -11.347   9.589   1.855  1.00  0.00     0.001 A 
ATOM     77  C   UNL     1     -11.992   9.964   0.678  1.00  0.00     0.000 A 
ENDBRANCH  59  72
ENDBRANCH  33  34
ENDBRANCH  26  28
ENDBRANCH  25  26
ENDBRANCH  24  25
ENDBRANCH   1  24
TORSDOF 15
