REMARK SMILES CCOc1ccc(NC(=O)[C@@H]2[C@@H](C(=O)OCCOC(=O)c3ccc(-c4c5nc(c(-c6ccccc6)c6ccc([nH]6)c(-c6ccccc6)c6nc(c(-c7ccccc7)c7ccc4[nH]7)C=C6)C=C5)cc3)[C@H]3C=C[C@@H]2C3)cc1
REMARK SMILES IDX 16 1 15 2 13 3 14 4 12 5 11 6 72 7 69 8 71 9 73 10 70 11
REMARK SMILES IDX 9 12 8 13 10 15 7 16 4 17 5 18 75 19 6 20 74 21 3 22 2 23
REMARK SMILES IDX 1 24 17 25 18 26 19 27 20 28 21 29 22 30 68 31 23 32 67 33
REMARK SMILES IDX 24 34 25 35 26 36 61 37 27 38 66 39 60 40 62 41 28 42 65 43
REMARK SMILES IDX 59 44 58 45 29 47 51 48 36 49 50 50 37 51 40 52 49 53 63 54
REMARK SMILES IDX 38 55 39 56 48 58 64 59 41 60 30 61 31 62 35 63 32 64 34 65
REMARK SMILES IDX 33 66 52 67 53 68 57 69 54 70 56 71 55 72 42 73 43 74 47 75
REMARK SMILES IDX 44 76 46 77 45 78
REMARK H PARENT 8 14 62 46 40 57
REMARK Flexibility Score: inf
ROOT
ATOM      1  C   UNL     1       1.258  -4.670   2.404  1.00  0.00     0.274 C 
ENDROOT
BRANCH   1   2
ATOM      2  O   UNL     1       2.645  -4.362   2.691  1.00  0.00    -0.462 OA
BRANCH   2   3
ATOM      3  C   UNL     1       3.359  -5.377   3.249  1.00  0.00     0.310 C 
ATOM      4  O   UNL     1       2.888  -6.500   3.383  1.00  0.00    -0.252 OA
BRANCH   3   5
ATOM      5  C   UNL     1       4.755  -4.941   3.738  1.00  0.00     0.119 C 
ATOM      6  C   UNL     1       5.980  -5.183   2.772  1.00  0.00     0.100 C 
ATOM      7  C   UNL     1       6.830  -6.222   3.595  1.00  0.00     0.025 C 
ATOM      8  C   UNL     1       5.142  -5.801   4.994  1.00  0.00     0.027 C 
ATOM      9  C   UNL     1       6.093  -7.518   3.793  1.00  0.00    -0.027 C 
ATOM     10  C   UNL     1       6.661  -5.657   5.018  1.00  0.00     0.017 C 
ATOM     11  C   UNL     1       5.109  -7.280   4.666  1.00  0.00    -0.027 C 
BRANCH   6  12
ATOM     12  C   UNL     1       6.938  -3.994   2.526  1.00  0.00     0.228 C 
ATOM     13  N   UNL     1       6.568  -2.763   2.105  1.00  0.00    -0.326 N 
ATOM     14  H   UNL     1       7.292  -2.099   2.168  1.00  0.00     0.169 HD
ATOM     15  O   UNL     1       8.153  -4.104   2.747  1.00  0.00    -0.274 OA
BRANCH  13  16
ATOM     16  C   UNL     1       5.387  -2.236   1.602  1.00  0.00     0.041 A 
ATOM     17  C   UNL     1       2.930  -1.107   0.962  1.00  0.00     0.119 A 
ATOM     18  C   UNL     1       3.249  -2.382   0.509  1.00  0.00     0.048 A 
ATOM     19  C   UNL     1       3.896  -0.338   1.597  1.00  0.00     0.048 A 
ATOM     20  C   UNL     1       4.474  -2.963   0.852  1.00  0.00     0.030 A 
ATOM     21  C   UNL     1       5.143  -0.887   1.875  1.00  0.00     0.030 A 
BRANCH  17  22
ATOM     22  O   UNL     1       1.670  -0.595   0.974  1.00  0.00    -0.494 OA
BRANCH  22  23
ATOM     23  C   UNL     1       0.924  -0.694  -0.234  1.00  0.00     0.226 C 
ATOM     24  C   UNL     1       0.612   0.730  -0.651  1.00  0.00     0.049 C 
ENDBRANCH  22  23
ENDBRANCH  17  22
ENDBRANCH  13  16
ENDBRANCH   6  12
ENDBRANCH   3   5
ENDBRANCH   2   3
ENDBRANCH   1   2
BRANCH   1  25
ATOM     25  C   UNL     1       1.007  -5.182   0.979  1.00  0.00     0.275 C 
BRANCH  25  26
ATOM     26  O   UNL     1       1.933  -6.220   0.640  1.00  0.00    -0.458 OA
BRANCH  26  27
ATOM     27  C   UNL     1       2.569  -6.130  -0.549  1.00  0.00     0.338 C 
ATOM     28  O   UNL     1       2.408  -5.289  -1.421  1.00  0.00    -0.246 OA
BRANCH  27  29
ATOM     29  C   UNL     1       3.519  -7.254  -0.647  1.00  0.00     0.060 A 
ATOM     30  C   UNL     1       4.311  -7.581   0.452  1.00  0.00     0.016 A 
ATOM     31  C   UNL     1       3.626  -7.993  -1.825  1.00  0.00     0.016 A 
ATOM     32  C   UNL     1       5.208  -8.635   0.389  1.00  0.00     0.010 A 
ATOM     33  C   UNL     1       4.464  -9.113  -1.857  1.00  0.00     0.010 A 
ATOM     34  C   UNL     1       5.246  -9.451  -0.739  1.00  0.00    -0.014 A 
BRANCH  34  35
ATOM     35  C   UNL     1       6.075 -10.677  -0.716  1.00  0.00     0.031 A 
ATOM     36  C   UNL     1       7.250 -10.797  -1.633  1.00  0.00     0.074 A 
ATOM     37  C   UNL     1       5.772 -11.671   0.143  1.00  0.00     0.049 A 
ATOM     38  N   UNL     1       7.971 -11.849  -1.916  1.00  0.00    -0.248 NA
ATOM     39  C   UNL     1       7.671  -9.566  -2.320  1.00  0.00     0.031 C 
ATOM     40  C   UNL     1       4.722 -11.625   1.165  1.00  0.00     0.029 A 
ATOM     41  N   UNL     1       6.321 -12.919   0.292  1.00  0.00    -0.354 N 
ATOM     42  C   UNL     1       8.906 -11.420  -2.848  1.00  0.00     0.074 A 
ATOM     43  C   UNL     1       8.663 -10.012  -3.079  1.00  0.00     0.031 C 
ATOM     44  C   UNL     1       4.706 -12.787   1.835  1.00  0.00     0.029 A 
ATOM     45  C   UNL     1       5.677 -13.690   1.231  1.00  0.00     0.049 A 
ATOM     46  H   UNL     1       7.099 -13.233  -0.222  1.00  0.00     0.167 HD
ATOM     47  C   UNL     1       9.867 -12.147  -3.464  1.00  0.00     0.031 A 
ATOM     48  C   UNL     1       5.811 -14.996   1.527  1.00  0.00     0.031 A 
ATOM     49  C   UNL     1      10.086 -13.549  -3.224  1.00  0.00     0.049 A 
ATOM     50  C   UNL     1       6.802 -15.809   0.743  1.00  0.00     0.074 A 
ATOM     51  C   UNL     1      11.004 -14.396  -3.819  1.00  0.00     0.029 A 
ATOM     52  N   UNL     1       9.373 -14.310  -2.308  1.00  0.00    -0.354 N 
ATOM     53  N   UNL     1       7.638 -15.419  -0.189  1.00  0.00    -0.248 NA
ATOM     54  C   UNL     1       6.857 -17.247   1.040  1.00  0.00     0.031 C 
ATOM     55  C   UNL     1      10.808 -15.681  -3.303  1.00  0.00     0.029 A 
ATOM     56  C   UNL     1       9.813 -15.622  -2.339  1.00  0.00     0.049 A 
ATOM     57  H   UNL     1       8.659 -13.968  -1.723  1.00  0.00     0.167 HD
ATOM     58  C   UNL     1       8.336 -16.555  -0.573  1.00  0.00     0.074 A 
ATOM     59  C   UNL     1       7.837 -17.646   0.241  1.00  0.00     0.031 C 
ATOM     60  C   UNL     1       9.303 -16.687  -1.514  1.00  0.00     0.031 A 
BRANCH  47  61
ATOM     61  C   UNL     1      10.691 -11.451  -4.509  1.00  0.00    -0.014 A 
ATOM     62  C   UNL     1      11.654 -10.488  -4.171  1.00  0.00     0.009 A 
ATOM     63  C   UNL     1      10.495 -11.769  -5.862  1.00  0.00     0.009 A 
ATOM     64  C   UNL     1      12.376  -9.830  -5.171  1.00  0.00     0.001 A 
ATOM     65  C   UNL     1      11.238 -11.132  -6.857  1.00  0.00     0.001 A 
ATOM     66  C   UNL     1      12.169 -10.155  -6.511  1.00  0.00     0.000 A 
ENDBRANCH  47  61
BRANCH  48  67
ATOM     67  C   UNL     1       4.937 -15.633   2.549  1.00  0.00    -0.014 A 
ATOM     68  C   UNL     1       5.477 -16.144   3.739  1.00  0.00     0.009 A 
ATOM     69  C   UNL     1       3.554 -15.755   2.329  1.00  0.00     0.009 A 
ATOM     70  C   UNL     1       4.657 -16.788   4.670  1.00  0.00     0.001 A 
ATOM     71  C   UNL     1       2.732 -16.369   3.276  1.00  0.00     0.001 A 
ATOM     72  C   UNL     1       3.286 -16.896   4.441  1.00  0.00     0.000 A 
ENDBRANCH  48  67
BRANCH  60  73
ATOM     73  C   UNL     1       9.916 -18.049  -1.674  1.00  0.00    -0.014 A 
ATOM     74  C   UNL     1       9.211 -19.104  -2.273  1.00  0.00     0.009 A 
ATOM     75  C   UNL     1      11.237 -18.263  -1.252  1.00  0.00     0.009 A 
ATOM     76  C   UNL     1       9.809 -20.357  -2.417  1.00  0.00     0.001 A 
ATOM     77  C   UNL     1      11.843 -19.508  -1.426  1.00  0.00     0.001 A 
ATOM     78  C   UNL     1      11.125 -20.556  -1.999  1.00  0.00     0.000 A 
ENDBRANCH  60  73
ENDBRANCH  34  35
ENDBRANCH  27  29
ENDBRANCH  26  27
ENDBRANCH  25  26
ENDBRANCH   1  25
TORSDOF 15
