REMARK SMILES O=C(CCC(=O)N1CCC[C@@]2(CCC(=O)N(Cc3ccncc3)C2)C1)OCCOC(=O)c1ccc(-c2c3nc(c(-c4ccccc4)c4ccc([nH]4)c(-c4ccccc4)c4nc(c(-c5ccccc5)c5ccc2[nH]5)C=C4)C=C3)cc1
REMARK SMILES IDX 26 1 2 2 1 3 3 4 4 5 5 6 6 7 7 8 8 9 25 10 9 11 11 12 10 13
REMARK SMILES IDX 12 14 24 15 13 16 16 17 14 18 15 19 17 20 18 21 19 22 23 23
REMARK SMILES IDX 20 24 22 25 21 26 27 27 28 28 29 29 30 30 31 31 32 32 33 33
REMARK SMILES IDX 79 34 34 35 78 36 35 37 36 38 37 39 72 40 38 41 77 42 71 43
REMARK SMILES IDX 73 44 39 45 76 46 70 47 69 48 40 50 62 51 47 52 61 53 48 54
REMARK SMILES IDX 51 55 60 56 74 57 49 58 50 59 59 61 75 62 52 63 41 64 42 65
REMARK SMILES IDX 46 66 43 67 45 68 44 69 63 70 64 71 68 72 65 73 67 74 66 75
REMARK SMILES IDX 53 76 54 77 58 78 55 79 57 80 56 81
REMARK H PARENT 73 49 51 60
REMARK Flexibility Score: inf
ROOT
ATOM      1  O   UNL     1       3.827   0.417   0.672  1.00  0.00    -0.462 OA
ENDROOT
BRANCH   1   2
ATOM      2  C   UNL     1       3.085  -0.667   0.363  1.00  0.00     0.306 C 
ATOM      3  O   UNL     1       1.875  -0.557   0.167  1.00  0.00    -0.252 OA
BRANCH   2   4
ATOM      4  C   UNL     1       3.773  -1.989   0.137  1.00  0.00     0.132 C 
BRANCH   4   5
ATOM      5  C   UNL     1       4.381  -2.137  -1.254  1.00  0.00     0.112 C 
BRANCH   5   6
ATOM      6  C   UNL     1       5.120  -0.885  -1.680  1.00  0.00     0.223 C 
ATOM      7  O   UNL     1       6.311  -0.766  -1.386  1.00  0.00    -0.275 OA
BRANCH   6   8
ATOM      8  N   UNL     1       4.380   0.142  -2.265  1.00  0.00    -0.342 N 
ATOM      9  C   UNL     1       5.045   1.442  -2.376  1.00  0.00     0.119 C 
ATOM     10  C   UNL     1       3.068  -0.088  -2.892  1.00  0.00     0.128 C 
ATOM     11  C   UNL     1       4.152   2.668  -2.523  1.00  0.00     0.022 C 
ATOM     12  C   UNL     1       2.358   1.154  -3.457  1.00  0.00     0.006 C 
ATOM     13  C   UNL     1       2.671   2.353  -2.543  1.00  0.00     0.012 C 
ATOM     14  C   UNL     1       2.796   1.324  -4.921  1.00  0.00     0.020 C 
ATOM     15  C   UNL     1       0.830   0.943  -3.481  1.00  0.00     0.128 C 
ATOM     16  C   UNL     1       2.097   2.476  -5.606  1.00  0.00     0.101 C 
ATOM     17  N   UNL     1       0.129   2.026  -4.177  1.00  0.00    -0.338 N 
ATOM     18  C   UNL     1       0.611   2.591  -5.350  1.00  0.00     0.222 C 
ATOM     19  O   UNL     1      -0.059   3.309  -6.091  1.00  0.00    -0.275 OA
BRANCH  17  20
ATOM     20  C   UNL     1      -1.072   2.594  -3.566  1.00  0.00     0.155 C 
BRANCH  20  21
ATOM     21  C   UNL     1      -2.327   2.478  -4.388  1.00  0.00    -0.026 A 
ATOM     22  C   UNL     1      -2.974   1.255  -4.566  1.00  0.00     0.025 A 
ATOM     23  C   UNL     1      -2.863   3.610  -5.014  1.00  0.00     0.025 A 
ATOM     24  C   UNL     1      -4.114   1.221  -5.356  1.00  0.00     0.111 A 
ATOM     25  C   UNL     1      -3.999   3.472  -5.791  1.00  0.00     0.111 A 
ATOM     26  N   UNL     1      -4.646   2.302  -5.968  1.00  0.00    -0.265 NA
ENDBRANCH  20  21
ENDBRANCH  17  20
ENDBRANCH   6   8
ENDBRANCH   5   6
ENDBRANCH   4   5
ENDBRANCH   2   4
ENDBRANCH   1   2
BRANCH   1  27
ATOM     27  C   UNL     1       5.135   0.416   1.296  1.00  0.00     0.274 C 
BRANCH  27  28
ATOM     28  C   UNL     1       5.096   1.391   2.474  1.00  0.00     0.275 C 
BRANCH  28  29
ATOM     29  O   UNL     1       4.404   0.739   3.546  1.00  0.00    -0.458 OA
BRANCH  29  30
ATOM     30  C   UNL     1       3.053   0.739   3.412  1.00  0.00     0.338 C 
ATOM     31  O   UNL     1       2.373   1.629   2.953  1.00  0.00    -0.246 OA
BRANCH  30  32
ATOM     32  C   UNL     1       2.563  -0.626   3.741  1.00  0.00     0.060 A 
ATOM     33  C   UNL     1       1.276  -0.986   3.323  1.00  0.00     0.016 A 
ATOM     34  C   UNL     1       3.365  -1.552   4.424  1.00  0.00     0.016 A 
ATOM     35  C   UNL     1       0.743  -2.217   3.697  1.00  0.00     0.010 A 
ATOM     36  C   UNL     1       2.840  -2.788   4.789  1.00  0.00     0.010 A 
ATOM     37  C   UNL     1       1.500  -3.080   4.499  1.00  0.00    -0.014 A 
BRANCH  37  38
ATOM     38  C   UNL     1       0.806  -4.087   5.327  1.00  0.00     0.031 A 
ATOM     39  C   UNL     1       0.397  -3.663   6.715  1.00  0.00     0.074 A 
ATOM     40  C   UNL     1       0.550  -5.323   4.876  1.00  0.00     0.049 A 
ATOM     41  N   UNL     1      -0.226  -4.339   7.643  1.00  0.00    -0.248 NA
ATOM     42  C   UNL     1       0.751  -2.286   7.111  1.00  0.00     0.031 C 
ATOM     43  C   UNL     1       0.888  -5.834   3.549  1.00  0.00     0.029 A 
ATOM     44  N   UNL     1      -0.060  -6.377   5.503  1.00  0.00    -0.354 N 
ATOM     45  C   UNL     1      -0.333  -3.473   8.725  1.00  0.00     0.074 A 
ATOM     46  C   UNL     1       0.327  -2.242   8.361  1.00  0.00     0.031 C 
ATOM     47  C   UNL     1       0.475  -7.111   3.460  1.00  0.00     0.029 A 
ATOM     48  C   UNL     1      -0.139  -7.506   4.727  1.00  0.00     0.049 A 
ATOM     49  H   UNL     1      -0.410  -6.329   6.422  1.00  0.00     0.167 HD
ATOM     50  C   UNL     1      -0.940  -3.676   9.915  1.00  0.00     0.031 A 
ATOM     51  C   UNL     1      -0.653  -8.715   5.018  1.00  0.00     0.031 A 
ATOM     52  C   UNL     1      -1.579  -4.908  10.281  1.00  0.00     0.049 A 
ATOM     53  C   UNL     1      -1.285  -8.935   6.369  1.00  0.00     0.074 A 
ATOM     54  C   UNL     1      -2.239  -5.226  11.453  1.00  0.00     0.029 A 
ATOM     55  N   UNL     1      -1.626  -6.032   9.470  1.00  0.00    -0.354 N 
ATOM     56  N   UNL     1      -1.428  -8.094   7.365  1.00  0.00    -0.248 NA
ATOM     57  C   UNL     1      -1.847 -10.269   6.622  1.00  0.00     0.031 C 
ATOM     58  C   UNL     1      -2.645  -6.562  11.370  1.00  0.00     0.029 A 
ATOM     59  C   UNL     1      -2.290  -7.053  10.123  1.00  0.00     0.049 A 
ATOM     60  H   UNL     1      -1.245  -6.092   8.564  1.00  0.00     0.167 HD
ATOM     61  C   UNL     1      -2.134  -8.782   8.345  1.00  0.00     0.074 A 
ATOM     62  C   UNL     1      -2.393 -10.106   7.819  1.00  0.00     0.031 C 
ATOM     63  C   UNL     1      -2.540  -8.358   9.568  1.00  0.00     0.031 A 
BRANCH  50  64
ATOM     64  C   UNL     1      -0.904  -2.547  10.905  1.00  0.00    -0.014 A 
ATOM     65  C   UNL     1      -1.643  -1.370  10.697  1.00  0.00     0.009 A 
ATOM     66  C   UNL     1      -0.110  -2.655  12.056  1.00  0.00     0.009 A 
ATOM     67  C   UNL     1      -1.556  -0.311  11.603  1.00  0.00     0.001 A 
ATOM     68  C   UNL     1      -0.047  -1.605  12.974  1.00  0.00     0.001 A 
ATOM     69  C   UNL     1      -0.761  -0.431  12.742  1.00  0.00     0.000 A 
ENDBRANCH  50  64
BRANCH  51  70
ATOM     70  C   UNL     1      -0.620  -9.805   4.009  1.00  0.00    -0.014 A 
ATOM     71  C   UNL     1      -1.804 -10.243   3.396  1.00  0.00     0.009 A 
ATOM     72  C   UNL     1       0.590 -10.429   3.671  1.00  0.00     0.009 A 
ATOM     73  C   UNL     1      -1.780 -11.303   2.487  1.00  0.00     0.001 A 
ATOM     74  C   UNL     1       0.614 -11.471   2.741  1.00  0.00     0.001 A 
ATOM     75  C   UNL     1      -0.572 -11.914   2.158  1.00  0.00     0.000 A 
ENDBRANCH  51  70
BRANCH  63  76
ATOM     76  C   UNL     1      -3.356  -9.315  10.390  1.00  0.00    -0.014 A 
ATOM     77  C   UNL     1      -2.781 -10.445  10.990  1.00  0.00     0.009 A 
ATOM     78  C   UNL     1      -4.720  -9.051  10.599  1.00  0.00     0.009 A 
ATOM     79  C   UNL     1      -3.566 -11.315  11.748  1.00  0.00     0.001 A 
ATOM     80  C   UNL     1      -5.494  -9.905  11.383  1.00  0.00     0.001 A 
ATOM     81  C   UNL     1      -4.919 -11.042  11.948  1.00  0.00     0.000 A 
ENDBRANCH  63  76
ENDBRANCH  37  38
ENDBRANCH  30  32
ENDBRANCH  29  30
ENDBRANCH  28  29
ENDBRANCH  27  28
ENDBRANCH   1  27
TORSDOF 16
