REMARK SMILES O=C(OCCOC(=O)[C@H](CO)NC(=O)[C@H]1CC(=O)N(CC(F)(F)F)C1)c1ccc(-c2c3nc(c(-c4ccccc4)c4ccc([nH]4)c(-c4ccccc4)c4nc(c(-c5ccccc5)c5ccc2[nH]5)C=C4)C=C3)cc1
REMARK SMILES IDX 5 1 4 2 3 3 2 4 1 5 26 6 27 7 73 8 28 9 72 10 29 11 30 12
REMARK SMILES IDX 31 13 66 14 32 15 71 16 65 17 67 18 33 19 70 20 64 21 63 22
REMARK SMILES IDX 34 24 56 25 41 26 55 27 42 28 45 29 54 30 68 31 43 32 44 33
REMARK SMILES IDX 53 35 69 36 46 37 35 38 36 39 40 40 37 41 39 42 38 43 57 44
REMARK SMILES IDX 58 45 62 46 59 47 61 48 60 49 47 50 48 51 52 52 49 53 51 54
REMARK SMILES IDX 50 55 6 56 7 57 8 58 9 59 12 60 13 61 14 63 15 64 16 65
REMARK SMILES IDX 25 66 17 67 19 68 18 69 20 70 21 71 22 72 23 73 24 74 10 75
REMARK SMILES IDX 11 76
REMARK H PARENT 67 23 45 34 12 62 11 77
REMARK Flexibility Score: inf
ROOT
ATOM      1  C   UNL     1      -0.445   5.394   3.654  1.00  0.00     0.274 C 
ENDROOT
BRANCH   1   2
ATOM      2  C   UNL     1      -1.399   5.973   2.606  1.00  0.00     0.275 C 
BRANCH   2   3
ATOM      3  O   UNL     1      -2.697   5.356   2.608  1.00  0.00    -0.458 OA
BRANCH   3   4
ATOM      4  C   UNL     1      -3.108   4.186   2.071  1.00  0.00     0.338 C 
ATOM      5  O   UNL     1      -4.286   3.864   2.230  1.00  0.00    -0.246 OA
BRANCH   4   6
ATOM      6  C   UNL     1      -2.209   3.183   1.403  1.00  0.00     0.060 A 
ATOM      7  C   UNL     1      -0.921   3.401   0.906  1.00  0.00     0.016 A 
ATOM      8  C   UNL     1      -2.721   1.879   1.301  1.00  0.00     0.016 A 
ATOM      9  C   UNL     1      -0.152   2.362   0.368  1.00  0.00     0.010 A 
ATOM     10  C   UNL     1      -1.950   0.838   0.781  1.00  0.00     0.010 A 
ATOM     11  C   UNL     1      -0.651   1.066   0.306  1.00  0.00    -0.014 A 
BRANCH  11  12
ATOM     12  C   UNL     1       0.146  -0.021  -0.321  1.00  0.00     0.031 A 
ATOM     13  C   UNL     1      -0.421  -0.734  -1.521  1.00  0.00     0.074 A 
ATOM     14  C   UNL     1       1.316  -0.420   0.224  1.00  0.00     0.049 A 
ATOM     15  N   UNL     1       0.006  -1.815  -2.120  1.00  0.00    -0.248 NA
ATOM     16  C   UNL     1      -1.649  -0.167  -2.105  1.00  0.00     0.031 C 
ATOM     17  C   UNL     1       1.935   0.140   1.432  1.00  0.00     0.029 A 
ATOM     18  N   UNL     1       2.134  -1.480  -0.097  1.00  0.00    -0.354 N 
ATOM     19  C   UNL     1      -0.897  -2.048  -3.154  1.00  0.00     0.074 A 
ATOM     20  C   UNL     1      -1.944  -1.059  -3.037  1.00  0.00     0.031 C 
ATOM     21  C   UNL     1       2.943  -0.658   1.825  1.00  0.00     0.029 A 
ATOM     22  C   UNL     1       3.051  -1.772   0.893  1.00  0.00     0.049 A 
ATOM     23  H   UNL     1       2.072  -1.978  -0.944  1.00  0.00     0.167 HD
ATOM     24  C   UNL     1      -0.834  -2.966  -4.148  1.00  0.00     0.031 A 
ATOM     25  C   UNL     1       3.833  -2.854   1.066  1.00  0.00     0.031 A 
ATOM     26  C   UNL     1       0.212  -3.944  -4.258  1.00  0.00     0.049 A 
ATOM     27  C   UNL     1       3.850  -3.914   0.003  1.00  0.00     0.074 A 
ATOM     28  C   UNL     1       0.457  -4.844  -5.279  1.00  0.00     0.029 A 
ATOM     29  N   UNL     1       1.182  -4.156  -3.292  1.00  0.00    -0.354 N 
ATOM     30  N   UNL     1       3.067  -4.047  -1.040  1.00  0.00    -0.248 NA
ATOM     31  C   UNL     1       4.901  -4.934   0.110  1.00  0.00     0.031 C 
ATOM     32  C   UNL     1       1.559  -5.625  -4.913  1.00  0.00     0.029 A 
ATOM     33  C   UNL     1       2.033  -5.169  -3.693  1.00  0.00     0.049 A 
ATOM     34  H   UNL     1       1.255  -3.659  -2.445  1.00  0.00     0.167 HD
ATOM     35  C   UNL     1       3.583  -5.119  -1.758  1.00  0.00     0.074 A 
ATOM     36  C   UNL     1       4.726  -5.610  -1.015  1.00  0.00     0.031 C 
ATOM     37  C   UNL     1       3.172  -5.629  -2.944  1.00  0.00     0.031 A 
BRANCH  24  38
ATOM     38  C   UNL     1      -1.900  -2.914  -5.212  1.00  0.00    -0.014 A 
ATOM     39  C   UNL     1      -2.007  -1.807  -6.074  1.00  0.00     0.009 A 
ATOM     40  C   UNL     1      -2.792  -3.983  -5.379  1.00  0.00     0.009 A 
ATOM     41  C   UNL     1      -3.012  -1.749  -7.040  1.00  0.00     0.001 A 
ATOM     42  C   UNL     1      -3.775  -3.939  -6.371  1.00  0.00     0.001 A 
ATOM     43  C   UNL     1      -3.893  -2.818  -7.191  1.00  0.00     0.000 A 
ENDBRANCH  24  38
BRANCH  25  44
ATOM     44  C   UNL     1       4.662  -3.016   2.289  1.00  0.00    -0.014 A 
ATOM     45  C   UNL     1       6.046  -2.788   2.251  1.00  0.00     0.009 A 
ATOM     46  C   UNL     1       4.082  -3.474   3.482  1.00  0.00     0.009 A 
ATOM     47  C   UNL     1       6.840  -3.060   3.369  1.00  0.00     0.001 A 
ATOM     48  C   UNL     1       4.875  -3.721   4.606  1.00  0.00     0.001 A 
ATOM     49  C   UNL     1       6.254  -3.527   4.544  1.00  0.00     0.000 A 
ENDBRANCH  25  44
BRANCH  37  50
ATOM     50  C   UNL     1       4.035  -6.692  -3.561  1.00  0.00    -0.014 A 
ATOM     51  C   UNL     1       4.102  -7.992  -3.041  1.00  0.00     0.009 A 
ATOM     52  C   UNL     1       4.795  -6.370  -4.698  1.00  0.00     0.009 A 
ATOM     53  C   UNL     1       4.950  -8.937  -3.622  1.00  0.00     0.001 A 
ATOM     54  C   UNL     1       5.613  -7.326  -5.297  1.00  0.00     0.001 A 
ATOM     55  C   UNL     1       5.700  -8.605  -4.750  1.00  0.00     0.000 A 
ENDBRANCH  37  50
ENDBRANCH  11  12
ENDBRANCH   4   6
ENDBRANCH   3   4
ENDBRANCH   2   3
ENDBRANCH   1   2
BRANCH   1  56
ATOM     56  O   UNL     1      -0.551   3.960   3.748  1.00  0.00    -0.460 OA
BRANCH  56  57
ATOM     57  C   UNL     1      -1.197   3.467   4.843  1.00  0.00     0.331 C 
ATOM     58  O   UNL     1      -1.570   4.140   5.797  1.00  0.00    -0.250 OA
BRANCH  57  59
ATOM     59  C   UNL     1      -1.374   1.946   4.752  1.00  0.00     0.218 C 
BRANCH  59  60
ATOM     60  N   UNL     1      -0.636   1.333   5.853  1.00  0.00    -0.341 N 
ATOM     61  C   UNL     1      -0.232   0.069   6.083  1.00  0.00     0.226 C 
ATOM     62  H   UNL     1      -0.386   1.966   6.564  1.00  0.00     0.164 HD
ATOM     63  O   UNL     1       0.049  -0.162   7.269  1.00  0.00    -0.275 OA
BRANCH  61  64
ATOM     64  C   UNL     1       0.101  -0.983   5.031  1.00  0.00     0.107 C 
ATOM     65  C   UNL     1      -0.063  -2.367   5.689  1.00  0.00     0.115 C 
ATOM     66  C   UNL     1      -0.593  -1.200   3.693  1.00  0.00     0.133 C 
ATOM     67  C   UNL     1       0.009  -3.315   4.529  1.00  0.00     0.223 C 
ATOM     68  N   UNL     1      -0.270  -2.588   3.386  1.00  0.00    -0.333 N 
ATOM     69  O   UNL     1       0.272  -4.498   4.590  1.00  0.00    -0.275 OA
BRANCH  68  70
ATOM     70  C   UNL     1      -0.181  -3.180   2.046  1.00  0.00     0.234 C 
BRANCH  70  71
ATOM     71  C   UNL     1      -1.461  -3.397   1.252  1.00  0.00     0.406 C 
ATOM     72  F   UNL     1      -2.115  -2.233   1.043  1.00  0.00    -0.169 F 
ATOM     73  F   UNL     1      -1.182  -3.919   0.035  1.00  0.00    -0.169 F 
ATOM     74  F   UNL     1      -2.315  -4.238   1.869  1.00  0.00    -0.169 F 
ENDBRANCH  70  71
ENDBRANCH  68  70
ENDBRANCH  61  64
ENDBRANCH  59  60
BRANCH  59  75
ATOM     75  C   UNL     1      -2.880   1.667   4.909  1.00  0.00     0.193 C 
BRANCH  75  76
ATOM     76  O   UNL     1      -3.168   0.304   4.615  1.00  0.00    -0.394 OA
ATOM     77  H   UNL     1      -2.911   0.109   3.700  1.00  0.00     0.210 HD
ENDBRANCH  75  76
ENDBRANCH  59  75
ENDBRANCH  57  59
ENDBRANCH  56  57
ENDBRANCH   1  56
TORSDOF 17
