REMARK SMILES COc1ccc(/C=C2/C(=O)N(c3ccccc3)C(=O)N=C2OCCOC(=O)c2ccc(-c3c4nc(c(-c5ccccc5)c5ccc([nH]5)c(-c5ccccc5)c5nc(c(-c6ccccc6)c6ccc3[nH]6)C=C5)C=C4)cc2)cc1C(=O)[O-]
REMARK SMILES IDX 24 1 23 2 22 3 21 4 7 5 8 6 9 7 10 8 11 9 20 10 18 11 19 12
REMARK SMILES IDX 6 13 3 14 4 15 77 16 5 17 76 18 2 19 1 20 78 21 79 22 80 23
REMARK SMILES IDX 12 24 13 25 17 26 14 27 16 28 15 29 25 30 26 31 27 32 28 33
REMARK SMILES IDX 29 34 75 35 30 36 74 37 31 38 32 39 33 40 68 41 34 42 73 43
REMARK SMILES IDX 67 44 69 45 35 46 72 47 66 48 65 49 36 51 58 52 43 53 57 54
REMARK SMILES IDX 44 55 47 56 56 57 70 58 45 59 46 60 55 62 71 63 48 64 37 65
REMARK SMILES IDX 38 66 42 67 39 68 41 69 40 70 59 71 60 72 64 73 61 74 63 75
REMARK SMILES IDX 62 76 49 77 50 78 54 79 51 80 53 81 52 82
REMARK H PARENT 69 50 47 61
REMARK Flexibility Score: inf
ROOT
ATOM      1  C   UNL     1      -3.050  -4.631   4.637  1.00  0.00     0.274 C 
ENDROOT
BRANCH   1   2
ATOM      2  C   UNL     1      -1.918  -3.865   5.325  1.00  0.00     0.273 C 
BRANCH   2   3
ATOM      3  O   UNL     1      -0.633  -4.279   4.799  1.00  0.00    -0.473 OA
BRANCH   3   4
ATOM      4  C   UNL     1       0.352  -4.690   5.626  1.00  0.00     0.231 C 
ATOM      5  C   UNL     1       2.232  -4.327   3.951  1.00  0.00     0.027 C 
ATOM      6  C   UNL     1       1.595  -5.006   4.927  1.00  0.00     0.103 C 
ATOM      7  C   UNL     1       2.282  -6.207   5.493  1.00  0.00     0.272 C 
ATOM      8  O   UNL     1       3.093  -6.837   4.816  1.00  0.00    -0.268 OA
ATOM      9  N   UNL     1       1.958  -6.465   6.824  1.00  0.00    -0.226 N 
ATOM     10  N   UNL     1       0.174  -4.909   6.878  1.00  0.00    -0.156 NA
ATOM     11  C   UNL     1       1.200  -5.536   7.558  1.00  0.00     0.358 C 
ATOM     12  O   UNL     1       1.345  -5.318   8.756  1.00  0.00    -0.245 OA
BRANCH   5  13
ATOM     13  C   UNL     1       1.955  -3.063   3.228  1.00  0.00    -0.024 A 
ATOM     14  C   UNL     1       1.592  -0.702   1.689  1.00  0.00     0.127 A 
ATOM     15  C   UNL     1       0.754  -0.992   2.766  1.00  0.00     0.048 A 
ATOM     16  C   UNL     1       2.677  -1.541   1.424  1.00  0.00     0.040 A 
ATOM     17  C   UNL     1       0.960  -2.138   3.546  1.00  0.00     0.012 A 
ATOM     18  C   UNL     1       2.822  -2.728   2.172  1.00  0.00     0.022 A 
BRANCH  14  19
ATOM     19  O   UNL     1       1.361   0.483   1.048  1.00  0.00    -0.496 OA
ATOM     20  C   UNL     1       0.718   0.287  -0.215  1.00  0.00     0.278 C 
ENDBRANCH  14  19
BRANCH  16  21
ATOM     21  C   UNL     1       3.775  -1.241   0.472  1.00  0.00     0.075 C 
ATOM     22  O   UNL     1       4.877  -1.761   0.505  1.00  0.00    -0.545 OA
ATOM     23  O   UNL     1       3.479  -0.350  -0.484  1.00  0.00    -0.545 OA
ENDBRANCH  16  21
ENDBRANCH   5  13
BRANCH   9  24
ATOM     24  C   UNL     1       2.430  -7.678   7.445  1.00  0.00     0.054 A 
ATOM     25  C   UNL     1       2.344  -8.892   6.732  1.00  0.00     0.027 A 
ATOM     26  C   UNL     1       2.835  -7.739   8.784  1.00  0.00     0.027 A 
ATOM     27  C   UNL     1       2.571 -10.121   7.362  1.00  0.00     0.002 A 
ATOM     28  C   UNL     1       3.105  -8.967   9.402  1.00  0.00     0.002 A 
ATOM     29  C   UNL     1       2.945 -10.158   8.700  1.00  0.00     0.000 A 
ENDBRANCH   9  24
ENDBRANCH   3   4
ENDBRANCH   2   3
ENDBRANCH   1   2
BRANCH   1  30
ATOM     30  O   UNL     1      -3.260  -5.885   5.314  1.00  0.00    -0.458 OA
BRANCH  30  31
ATOM     31  C   UNL     1      -2.654  -6.955   4.758  1.00  0.00     0.338 C 
ATOM     32  O   UNL     1      -2.084  -7.023   3.683  1.00  0.00    -0.246 OA
BRANCH  31  33
ATOM     33  C   UNL     1      -2.527  -7.983   5.798  1.00  0.00     0.060 A 
ATOM     34  C   UNL     1      -1.315  -7.999   6.475  1.00  0.00     0.016 A 
ATOM     35  C   UNL     1      -3.494  -8.949   6.063  1.00  0.00     0.016 A 
ATOM     36  C   UNL     1      -1.038  -8.995   7.395  1.00  0.00     0.010 A 
ATOM     37  C   UNL     1      -3.209  -9.963   6.996  1.00  0.00     0.010 A 
ATOM     38  C   UNL     1      -1.957 -10.016   7.640  1.00  0.00    -0.014 A 
BRANCH  38  39
ATOM     39  C   UNL     1      -1.482 -11.201   8.410  1.00  0.00     0.031 A 
ATOM     40  C   UNL     1      -1.319 -12.519   7.695  1.00  0.00     0.074 A 
ATOM     41  C   UNL     1      -1.009 -11.081   9.668  1.00  0.00     0.049 A 
ATOM     42  N   UNL     1      -0.998 -13.691   8.180  1.00  0.00    -0.248 NA
ATOM     43  C   UNL     1      -1.536 -12.514   6.238  1.00  0.00     0.031 C 
ATOM     44  C   UNL     1      -0.937  -9.835  10.435  1.00  0.00     0.029 A 
ATOM     45  N   UNL     1      -0.440 -12.013  10.502  1.00  0.00    -0.354 N 
ATOM     46  C   UNL     1      -1.054 -14.572   7.106  1.00  0.00     0.074 A 
ATOM     47  C   UNL     1      -1.408 -13.798   5.938  1.00  0.00     0.031 C 
ATOM     48  C   UNL     1      -0.291 -10.067  11.589  1.00  0.00     0.029 A 
ATOM     49  C   UNL     1       0.005 -11.492  11.695  1.00  0.00     0.049 A 
ATOM     50  H   UNL     1      -0.358 -12.966  10.268  1.00  0.00     0.167 HD
ATOM     51  C   UNL     1      -0.849 -15.910   7.100  1.00  0.00     0.031 A 
ATOM     52  C   UNL     1       0.557 -12.097  12.765  1.00  0.00     0.031 A 
ATOM     53  C   UNL     1      -0.435 -16.672   8.246  1.00  0.00     0.049 A 
ATOM     54  C   UNL     1       0.718 -13.595  12.753  1.00  0.00     0.074 A 
ATOM     55  C   UNL     1      -0.261 -18.041   8.355  1.00  0.00     0.029 A 
ATOM     56  N   UNL     1      -0.097 -16.125   9.472  1.00  0.00    -0.354 N 
ATOM     57  N   UNL     1       0.521 -14.442  11.772  1.00  0.00    -0.248 NA
ATOM     58  C   UNL     1       1.149 -14.222  14.011  1.00  0.00     0.031 C 
ATOM     59  C   UNL     1       0.146 -18.326   9.663  1.00  0.00     0.029 A 
ATOM     60  C   UNL     1       0.276 -17.130  10.348  1.00  0.00     0.049 A 
ATOM     61  H   UNL     1      -0.119 -15.165   9.688  1.00  0.00     0.167 HD
ATOM     62  C   UNL     1       0.808 -15.698  12.295  1.00  0.00     0.074 A 
ATOM     63  C   UNL     1       1.234 -15.497  13.663  1.00  0.00     0.031 C 
ATOM     64  C   UNL     1       0.706 -16.912  11.703  1.00  0.00     0.031 A 
BRANCH  51  65
ATOM     65  C   UNL     1      -1.156 -16.652   5.832  1.00  0.00    -0.014 A 
ATOM     66  C   UNL     1      -0.290 -16.639   4.730  1.00  0.00     0.009 A 
ATOM     67  C   UNL     1      -2.331 -17.421   5.768  1.00  0.00     0.009 A 
ATOM     68  C   UNL     1      -0.606 -17.369   3.580  1.00  0.00     0.001 A 
ATOM     69  C   UNL     1      -2.631 -18.168   4.630  1.00  0.00     0.001 A 
ATOM     70  C   UNL     1      -1.771 -18.137   3.534  1.00  0.00     0.000 A 
ENDBRANCH  51  65
BRANCH  52  71
ATOM     71  C   UNL     1       0.920 -11.319  13.983  1.00  0.00    -0.014 A 
ATOM     72  C   UNL     1       2.247 -11.277  14.443  1.00  0.00     0.009 A 
ATOM     73  C   UNL     1      -0.073 -10.671  14.736  1.00  0.00     0.009 A 
ATOM     74  C   UNL     1       2.562 -10.633  15.644  1.00  0.00     0.001 A 
ATOM     75  C   UNL     1       0.251  -9.994  15.913  1.00  0.00     0.001 A 
ATOM     76  C   UNL     1       1.565  -9.989  16.375  1.00  0.00     0.000 A 
ENDBRANCH  52  71
BRANCH  64  77
ATOM     77  C   UNL     1       1.093 -18.109  12.524  1.00  0.00    -0.014 A 
ATOM     78  C   UNL     1       0.286 -18.558  13.580  1.00  0.00     0.009 A 
ATOM     79  C   UNL     1       2.272 -18.809  12.222  1.00  0.00     0.009 A 
ATOM     80  C   UNL     1       0.674 -19.658  14.347  1.00  0.00     0.001 A 
ATOM     81  C   UNL     1       2.642 -19.926  12.971  1.00  0.00     0.001 A 
ATOM     82  C   UNL     1       1.850 -20.342  14.040  1.00  0.00     0.000 A 
ENDBRANCH  64  77
ENDBRANCH  38  39
ENDBRANCH  31  33
ENDBRANCH  30  31
ENDBRANCH   1  30
TORSDOF 14
