REMARK SMILES [NH3+][C@@H](CNc1ccc(C(=O)OCCOC(=O)c2ccc(-c3c4nc(c(-c5ccccc5)c5ccc([nH]5)c(-c5ccccc5)c5nc(c(-c6ccccc6)c6ccc3[nH]6)C=C5)C=C4)cc2)c(F)c1F)c1ccccc1
REMARK SMILES IDX 12 1 11 2 9 3 10 4 8 5 5 6 6 7 67 8 7 9 65 10 68 11 66 12
REMARK SMILES IDX 4 13 3 15 2 16 1 17 69 21 70 22 74 23 71 24 73 25 72 26
REMARK SMILES IDX 13 27 14 28 15 29 16 30 17 31 18 32 64 33 19 34 63 35 20 36
REMARK SMILES IDX 21 37 22 38 57 39 23 40 62 41 56 42 58 43 24 44 61 45 55 46
REMARK SMILES IDX 54 47 25 49 47 50 32 51 46 52 33 53 36 54 45 55 59 56 34 57
REMARK SMILES IDX 35 58 44 60 60 61 37 62 26 63 27 64 31 65 28 66 30 67 29 68
REMARK SMILES IDX 48 69 49 70 53 71 50 72 52 73 51 74 38 75 39 76 43 77 40 78
REMARK SMILES IDX 42 79 41 80
REMARK H PARENT 4 14 1 18 1 19 1 20 58 48 36 59
REMARK Flexibility Score: inf
ROOT
ATOM      1  C   UNL     1      -4.522  -3.734  -7.760  1.00  0.00     0.275 C 
ENDROOT
BRANCH   1   2
ATOM      2  O   UNL     1      -3.711  -3.301  -6.647  1.00  0.00    -0.458 OA
BRANCH   2   3
ATOM      3  C   UNL     1      -2.372  -3.383  -6.825  1.00  0.00     0.341 C 
ATOM      4  O   UNL     1      -1.788  -3.727  -7.842  1.00  0.00    -0.246 OA
BRANCH   3   5
ATOM      5  C   UNL     1      -1.647  -2.874  -5.650  1.00  0.00     0.099 A 
ATOM      6  C   UNL     1      -0.133  -1.920  -3.467  1.00  0.00     0.074 A 
ATOM      7  C   UNL     1       0.172  -1.523  -4.769  1.00  0.00     0.030 A 
ATOM      8  C   UNL     1      -1.199  -2.822  -3.290  1.00  0.00     0.182 A 
ATOM      9  C   UNL     1      -0.555  -2.020  -5.851  1.00  0.00     0.021 A 
ATOM     10  C   UNL     1      -1.962  -3.282  -4.362  1.00  0.00     0.175 A 
ATOM     11  F   UNL     1      -1.491  -3.251  -2.050  1.00  0.00    -0.201 F 
ATOM     12  F   UNL     1      -2.961  -4.149  -4.138  1.00  0.00    -0.203 F 
BRANCH   6  13
ATOM     13  N   UNL     1       0.567  -1.419  -2.375  1.00  0.00    -0.376 N 
ATOM     14  H   UNL     1       0.839  -2.026  -1.649  1.00  0.00     0.160 HD
BRANCH  13  15
ATOM     15  C   UNL     1       0.902   0.007  -2.296  1.00  0.00     0.183 C 
BRANCH  15  16
ATOM     16  C   UNL     1       0.460   0.655  -0.945  1.00  0.00     0.231 C 
BRANCH  16  17
ATOM     17  N   UNL     1       1.045  -0.004   0.235  1.00  0.00    -0.350 N 
ATOM     18  H   UNL     1       2.058  -0.062   0.125  1.00  0.00     0.345 HD
ATOM     19  H   UNL     1       0.658  -0.944   0.326  1.00  0.00     0.345 HD
ATOM     20  H   UNL     1       0.825   0.537   1.071  1.00  0.00     0.345 HD
ENDBRANCH  16  17
BRANCH  16  21
ATOM     21  C   UNL     1      -1.056   0.774  -0.842  1.00  0.00     0.011 A 
ATOM     22  C   UNL     1      -1.675   2.018  -1.051  1.00  0.00     0.010 A 
ATOM     23  C   UNL     1      -1.879  -0.339  -0.604  1.00  0.00     0.010 A 
ATOM     24  C   UNL     1      -3.067   2.136  -1.040  1.00  0.00     0.001 A 
ATOM     25  C   UNL     1      -3.270  -0.224  -0.608  1.00  0.00     0.001 A 
ATOM     26  C   UNL     1      -3.864   1.013  -0.829  1.00  0.00     0.000 A 
ENDBRANCH  16  21
ENDBRANCH  15  16
ENDBRANCH  13  15
ENDBRANCH   6  13
ENDBRANCH   3   5
ENDBRANCH   2   3
ENDBRANCH   1   2
BRANCH   1  27
ATOM     27  C   UNL     1      -5.094  -2.543  -8.527  1.00  0.00     0.275 C 
BRANCH  27  28
ATOM     28  O   UNL     1      -4.030  -1.798  -9.146  1.00  0.00    -0.458 OA
BRANCH  28  29
ATOM     29  C   UNL     1      -3.894  -0.520  -8.731  1.00  0.00     0.338 C 
ATOM     30  O   UNL     1      -4.592   0.088  -7.937  1.00  0.00    -0.246 OA
BRANCH  29  31
ATOM     31  C   UNL     1      -2.708   0.086  -9.357  1.00  0.00     0.060 A 
ATOM     32  C   UNL     1      -1.450  -0.426  -9.061  1.00  0.00     0.016 A 
ATOM     33  C   UNL     1      -2.827   1.264 -10.091  1.00  0.00     0.016 A 
ATOM     34  C   UNL     1      -0.305   0.303  -9.375  1.00  0.00     0.010 A 
ATOM     35  C   UNL     1      -1.672   1.929 -10.515  1.00  0.00     0.010 A 
ATOM     36  C   UNL     1      -0.395   1.490 -10.116  1.00  0.00    -0.014 A 
BRANCH  36  37
ATOM     37  C   UNL     1       0.821   2.300 -10.427  1.00  0.00     0.031 A 
ATOM     38  C   UNL     1       0.883   3.756 -10.031  1.00  0.00     0.074 A 
ATOM     39  C   UNL     1       1.885   1.752 -11.048  1.00  0.00     0.049 A 
ATOM     40  N   UNL     1       1.740   4.680 -10.392  1.00  0.00    -0.248 NA
ATOM     41  C   UNL     1      -0.168   4.241  -9.121  1.00  0.00     0.031 C 
ATOM     42  C   UNL     1       2.021   0.346 -11.434  1.00  0.00     0.029 A 
ATOM     43  N   UNL     1       3.070   2.318 -11.455  1.00  0.00    -0.354 N 
ATOM     44  C   UNL     1       1.290   5.863  -9.815  1.00  0.00     0.074 A 
ATOM     45  C   UNL     1       0.087   5.541  -9.079  1.00  0.00     0.031 C 
ATOM     46  C   UNL     1       3.237   0.149 -11.965  1.00  0.00     0.029 A 
ATOM     47  C   UNL     1       3.926   1.429 -12.059  1.00  0.00     0.049 A 
ATOM     48  H   UNL     1       3.284   3.271 -11.326  1.00  0.00     0.167 HD
ATOM     49  C   UNL     1       1.825   7.106  -9.896  1.00  0.00     0.031 A 
ATOM     50  C   UNL     1       5.113   1.621 -12.667  1.00  0.00     0.031 A 
ATOM     51  C   UNL     1       3.049   7.422 -10.583  1.00  0.00     0.049 A 
ATOM     52  C   UNL     1       5.661   3.012 -12.793  1.00  0.00     0.074 A 
ATOM     53  C   UNL     1       3.671   8.652 -10.721  1.00  0.00     0.029 A 
ATOM     54  N   UNL     1       3.851   6.495 -11.230  1.00  0.00    -0.354 N 
ATOM     55  N   UNL     1       5.177   4.136 -12.323  1.00  0.00    -0.248 NA
ATOM     56  C   UNL     1       6.906   3.163 -13.560  1.00  0.00     0.031 C 
ATOM     57  C   UNL     1       4.833   8.473 -11.480  1.00  0.00     0.029 A 
ATOM     58  C   UNL     1       4.957   7.126 -11.775  1.00  0.00     0.049 A 
ATOM     59  H   UNL     1       3.662   5.531 -11.293  1.00  0.00     0.167 HD
ATOM     60  C   UNL     1       6.065   5.125 -12.725  1.00  0.00     0.074 A 
ATOM     61  C   UNL     1       7.124   4.467 -13.462  1.00  0.00     0.031 C 
ATOM     62  C   UNL     1       6.004   6.460 -12.504  1.00  0.00     0.031 A 
BRANCH  49  63
ATOM     63  C   UNL     1       1.056   8.231  -9.260  1.00  0.00    -0.014 A 
ATOM     64  C   UNL     1       0.991   8.388  -7.867  1.00  0.00     0.009 A 
ATOM     65  C   UNL     1       0.399   9.164 -10.079  1.00  0.00     0.009 A 
ATOM     66  C   UNL     1       0.249   9.433  -7.308  1.00  0.00     0.001 A 
ATOM     67  C   UNL     1      -0.318  10.223  -9.519  1.00  0.00     0.001 A 
ATOM     68  C   UNL     1      -0.401  10.350  -8.134  1.00  0.00     0.000 A 
ENDBRANCH  49  63
BRANCH  50  69
ATOM     69  C   UNL     1       5.842   0.464 -13.249  1.00  0.00    -0.014 A 
ATOM     70  C   UNL     1       7.032   0.008 -12.662  1.00  0.00     0.009 A 
ATOM     71  C   UNL     1       5.347  -0.198 -14.384  1.00  0.00     0.009 A 
ATOM     72  C   UNL     1       7.715  -1.082 -13.206  1.00  0.00     0.001 A 
ATOM     73  C   UNL     1       6.016  -1.305 -14.907  1.00  0.00     0.001 A 
ATOM     74  C   UNL     1       7.202  -1.743 -14.322  1.00  0.00     0.000 A 
ENDBRANCH  50  69
BRANCH  62  75
ATOM     75  C   UNL     1       7.138   7.291 -13.030  1.00  0.00    -0.014 A 
ATOM     76  C   UNL     1       7.246   7.591 -14.397  1.00  0.00     0.009 A 
ATOM     77  C   UNL     1       8.094   7.802 -12.140  1.00  0.00     0.009 A 
ATOM     78  C   UNL     1       8.310   8.365 -14.864  1.00  0.00     0.001 A 
ATOM     79  C   UNL     1       9.143   8.594 -12.608  1.00  0.00     0.001 A 
ATOM     80  C   UNL     1       9.255   8.868 -13.970  1.00  0.00     0.000 A 
ENDBRANCH  62  75
ENDBRANCH  36  37
ENDBRANCH  29  31
ENDBRANCH  28  29
ENDBRANCH  27  28
ENDBRANCH   1  27
TORSDOF 16
