REMARK SMILES CCC[NH2+][C@@H]1COC[C@@H]1C(=O)N[C@@](C)(CC)C(=O)OCCOC(=O)c1ccc(-c2c3nc(c(-c4ccccc4)c4ccc([nH]4)c(-c4ccccc4)c4nc(c(-c5ccccc5)c5ccc2[nH]5)C=C4)C=C3)cc1
REMARK SMILES IDX 19 1 17 2 18 3 13 4 14 5 12 6 10 7 11 8 9 10 5 11 6 12 7 13
REMARK SMILES IDX 8 14 4 15 3 18 2 19 1 20 15 21 16 22 20 23 21 24 22 25 23 26
REMARK SMILES IDX 24 27 25 28 26 29 72 30 27 31 71 32 28 33 29 34 30 35 65 36
REMARK SMILES IDX 31 37 70 38 64 39 66 40 32 41 69 42 63 43 62 44 33 46 55 47
REMARK SMILES IDX 40 48 54 49 41 50 44 51 53 52 67 53 42 54 43 55 52 57 68 58
REMARK SMILES IDX 45 59 34 60 35 61 39 62 36 63 38 64 37 65 56 66 57 67 61 68
REMARK SMILES IDX 58 69 60 70 59 71 46 72 47 73 51 74 48 75 50 76 49 77
REMARK H PARENT 12 9 4 16 4 17 66 45 44 56
REMARK Flexibility Score: inf
ROOT
ATOM      1  O   UNL     1      -0.015  -2.795  -2.115  1.00  0.00    -0.460 OA
ENDROOT
BRANCH   1   2
ATOM      2  C   UNL     1      -1.234  -3.236  -1.632  1.00  0.00     0.331 C 
ATOM      3  O   UNL     1      -1.928  -3.967  -2.342  1.00  0.00    -0.249 OA
BRANCH   2   4
ATOM      4  C   UNL     1      -1.619  -2.969   0.071  1.00  0.00     0.135 C 
ATOM      5  C   UNL     1      -3.183  -3.183  -0.041  1.00  0.00     0.047 C 
BRANCH   4   6
ATOM      6  N   UNL     1      -1.317  -4.012   1.191  1.00  0.00    -0.340 N 
ATOM      7  C   UNL     1      -0.260  -4.606   1.806  1.00  0.00     0.232 C 
ATOM      8  O   UNL     1      -0.465  -5.069   2.935  1.00  0.00    -0.274 OA
ATOM      9  H   UNL     1      -2.160  -4.346   1.575  1.00  0.00     0.164 HD
BRANCH   7  10
ATOM     10  C   UNL     1       1.115  -4.787   1.211  1.00  0.00     0.164 C 
ATOM     11  C   UNL     1       1.281  -4.130  -0.134  1.00  0.00     0.223 C 
ATOM     12  C   UNL     1       0.520  -5.273  -0.927  1.00  0.00     0.225 C 
ATOM     13  O   UNL     1       0.981  -6.530  -0.403  1.00  0.00    -0.374 OA
ATOM     14  C   UNL     1       1.411  -6.262   0.928  1.00  0.00     0.180 C 
BRANCH  11  15
ATOM     15  N   UNL     1       1.048  -2.637   0.066  1.00  0.00    -0.341 N 
ATOM     16  H   UNL     1       0.033  -2.533   0.037  1.00  0.00     0.346 HD
ATOM     17  H   UNL     1       1.634  -2.509   0.891  1.00  0.00     0.346 HD
BRANCH  15  18
ATOM     18  C   UNL     1       1.565  -1.483  -0.743  1.00  0.00     0.260 C 
BRANCH  18  19
ATOM     19  C   UNL     1       0.704  -0.335  -1.365  1.00  0.00     0.058 C 
ATOM     20  C   UNL     1       0.853   1.022  -0.689  1.00  0.00     0.010 C 
ENDBRANCH  18  19
ENDBRANCH  15  18
ENDBRANCH  11  15
ENDBRANCH   7  10
ENDBRANCH   4   6
BRANCH   4  21
ATOM     21  C   UNL     1      -1.586  -1.508   0.722  1.00  0.00     0.037 C 
ATOM     22  C   UNL     1      -0.564  -1.106   1.804  1.00  0.00     0.007 C 
ENDBRANCH   4  21
ENDBRANCH   2   4
ENDBRANCH   1   2
BRANCH   1  23
ATOM     23  C   UNL     1       0.788  -3.289  -3.287  1.00  0.00     0.274 C 
BRANCH  23  24
ATOM     24  C   UNL     1       2.459  -3.211  -3.241  1.00  0.00     0.275 C 
BRANCH  24  25
ATOM     25  O   UNL     1       3.242  -3.687  -2.044  1.00  0.00    -0.458 OA
BRANCH  25  26
ATOM     26  C   UNL     1       4.169  -2.880  -1.367  1.00  0.00     0.338 C 
ATOM     27  O   UNL     1       4.568  -1.804  -1.781  1.00  0.00    -0.246 OA
BRANCH  26  28
ATOM     28  C   UNL     1       4.441  -3.296   0.102  1.00  0.00     0.060 A 
ATOM     29  C   UNL     1       3.956  -2.514   1.173  1.00  0.00     0.016 A 
ATOM     30  C   UNL     1       5.150  -4.437   0.475  1.00  0.00     0.016 A 
ATOM     31  C   UNL     1       3.961  -2.946   2.518  1.00  0.00     0.010 A 
ATOM     32  C   UNL     1       5.283  -4.809   1.853  1.00  0.00     0.010 A 
ATOM     33  C   UNL     1       4.653  -4.096   2.894  1.00  0.00    -0.014 A 
BRANCH  33  34
ATOM     34  C   UNL     1       4.850  -4.387   4.362  1.00  0.00     0.031 A 
ATOM     35  C   UNL     1       5.678  -3.423   5.192  1.00  0.00     0.074 A 
ATOM     36  C   UNL     1       4.270  -5.420   5.015  1.00  0.00     0.049 A 
ATOM     37  N   UNL     1       5.960  -3.443   6.474  1.00  0.00    -0.248 NA
ATOM     38  C   UNL     1       6.238  -2.265   4.479  1.00  0.00     0.031 C 
ATOM     39  C   UNL     1       3.321  -6.372   4.443  1.00  0.00     0.029 A 
ATOM     40  N   UNL     1       4.385  -5.830   6.331  1.00  0.00    -0.354 N 
ATOM     41  C   UNL     1       6.700  -2.291   6.720  1.00  0.00     0.074 A 
ATOM     42  C   UNL     1       6.826  -1.597   5.457  1.00  0.00     0.031 C 
ATOM     43  C   UNL     1       2.958  -7.261   5.388  1.00  0.00     0.029 A 
ATOM     44  C   UNL     1       3.666  -6.966   6.635  1.00  0.00     0.049 A 
ATOM     45  H   UNL     1       4.933  -5.351   6.994  1.00  0.00     0.167 HD
ATOM     46  C   UNL     1       7.256  -1.843   7.872  1.00  0.00     0.031 A 
ATOM     47  C   UNL     1       3.593  -7.696   7.771  1.00  0.00     0.031 A 
ATOM     48  C   UNL     1       7.259  -2.554   9.120  1.00  0.00     0.049 A 
ATOM     49  C   UNL     1       4.380  -7.281   8.995  1.00  0.00     0.074 A 
ATOM     50  C   UNL     1       7.895  -2.218  10.305  1.00  0.00     0.029 A 
ATOM     51  N   UNL     1       6.618  -3.760   9.339  1.00  0.00    -0.354 N 
ATOM     52  N   UNL     1       5.099  -6.203   9.195  1.00  0.00    -0.248 NA
ATOM     53  C   UNL     1       4.340  -8.190  10.156  1.00  0.00     0.031 C 
ATOM     54  C   UNL     1       7.681  -3.251  11.225  1.00  0.00     0.029 A 
ATOM     55  C   UNL     1       6.860  -4.195  10.632  1.00  0.00     0.049 A 
ATOM     56  H   UNL     1       6.071  -4.239   8.675  1.00  0.00     0.167 HD
ATOM     57  C   UNL     1       5.554  -6.285  10.509  1.00  0.00     0.074 A 
ATOM     58  C   UNL     1       5.030  -7.513  11.063  1.00  0.00     0.031 C 
ATOM     59  C   UNL     1       6.331  -5.410  11.194  1.00  0.00     0.031 A 
BRANCH  46  60
ATOM     60  C   UNL     1       7.995  -0.536   7.787  1.00  0.00    -0.014 A 
ATOM     61  C   UNL     1       7.303   0.680   7.670  1.00  0.00     0.009 A 
ATOM     62  C   UNL     1       9.398  -0.528   7.772  1.00  0.00     0.009 A 
ATOM     63  C   UNL     1       8.004   1.874   7.488  1.00  0.00     0.001 A 
ATOM     64  C   UNL     1      10.095   0.670   7.616  1.00  0.00     0.001 A 
ATOM     65  C   UNL     1       9.398   1.867   7.460  1.00  0.00     0.000 A 
ENDBRANCH  46  60
BRANCH  47  66
ATOM     66  C   UNL     1       2.772  -8.943   7.837  1.00  0.00    -0.014 A 
ATOM     67  C   UNL     1       1.652  -9.024   8.683  1.00  0.00     0.009 A 
ATOM     68  C   UNL     1       3.161 -10.092   7.130  1.00  0.00     0.009 A 
ATOM     69  C   UNL     1       0.963 -10.231   8.841  1.00  0.00     0.001 A 
ATOM     70  C   UNL     1       2.453 -11.290   7.268  1.00  0.00     0.001 A 
ATOM     71  C   UNL     1       1.361 -11.362   8.132  1.00  0.00     0.000 A 
ENDBRANCH  47  66
BRANCH  59  72
ATOM     72  C   UNL     1       6.619  -5.706  12.642  1.00  0.00    -0.014 A 
ATOM     73  C   UNL     1       7.485  -6.740  13.028  1.00  0.00     0.009 A 
ATOM     74  C   UNL     1       6.045  -4.898  13.637  1.00  0.00     0.009 A 
ATOM     75  C   UNL     1       7.742  -6.980  14.382  1.00  0.00     0.001 A 
ATOM     76  C   UNL     1       6.325  -5.122  14.987  1.00  0.00     0.001 A 
ATOM     77  C   UNL     1       7.165  -6.169  15.359  1.00  0.00     0.000 A 
ENDBRANCH  59  72
ENDBRANCH  33  34
ENDBRANCH  26  28
ENDBRANCH  25  26
ENDBRANCH  24  25
ENDBRANCH  23  24
ENDBRANCH   1  23
TORSDOF 17
