REMARK SMILES NC(=O)[C@@H]1CCC[N@@H+]1[C@@H](C(=O)OCCOC(=O)c1ccc(-c2c3nc(c(-c4ccccc4)c4ccc([nH]4)c(-c4ccccc4)c4nc(c(-c5ccccc5)c5ccc2[nH]5)C=C4)C=C3)cc1)c1c[nH]c2cc(OCc3ccccc3)ccc12
REMARK SMILES IDX 13 1 12 2 10 3 11 4 9 5 8 6 4 7 5 8 6 9 7 10 2 12 1 13 3 16
REMARK SMILES IDX 66 17 67 18 82 19 68 20 69 21 81 22 70 24 80 25 71 26 72 27
REMARK SMILES IDX 73 28 74 29 75 30 79 31 76 32 78 33 77 34 14 35 15 36 16 37
REMARK SMILES IDX 17 38 18 39 19 40 65 41 20 42 64 43 21 44 22 45 23 46 58 47
REMARK SMILES IDX 24 48 63 49 57 50 59 51 25 52 62 53 56 54 55 55 26 57 48 58
REMARK SMILES IDX 33 59 47 60 34 61 37 62 46 63 60 64 35 65 36 66 45 68 61 69
REMARK SMILES IDX 38 70 27 71 28 72 32 73 29 74 31 75 30 76 49 77 50 78 54 79
REMARK SMILES IDX 51 80 53 81 52 82 39 83 40 84 44 85 41 86 43 87 42 88
REMARK H PARENT 8 11 1 14 1 15 68 23 59 56 37 67
REMARK Flexibility Score: inf
ROOT
ATOM      1  C   UNL     1      -2.487  -3.523   1.653  1.00  0.00     0.274 C 
ENDROOT
BRANCH   1   2
ATOM      2  O   UNL     1      -1.382  -3.369   2.583  1.00  0.00    -0.457 OA
BRANCH   2   3
ATOM      3  C   UNL     1      -1.367  -2.194   3.267  1.00  0.00     0.370 C 
ATOM      4  O   UNL     1      -2.324  -1.417   3.290  1.00  0.00    -0.245 OA
BRANCH   3   5
ATOM      5  C   UNL     1      -0.050  -1.832   3.947  1.00  0.00     0.329 C 
BRANCH   5   6
ATOM      6  N   UNL     1       1.208  -1.661   3.093  1.00  0.00    -0.309 N 
ATOM      7  C   UNL     1       1.163  -1.710   1.604  1.00  0.00     0.275 C 
ATOM      8  C   UNL     1       1.279  -3.182   1.209  1.00  0.00     0.081 C 
ATOM      9  C   UNL     1       1.829  -3.855   2.462  1.00  0.00     0.068 C 
ATOM     10  C   UNL     1       2.251  -2.682   3.321  1.00  0.00     0.264 C 
ATOM     11  H   UNL     1       1.374  -0.708   3.418  1.00  0.00     0.349 HD
BRANCH   7  12
ATOM     12  C   UNL     1       0.167  -0.872   0.813  1.00  0.00     0.275 C 
ATOM     13  N   UNL     1       0.728   0.057  -0.024  1.00  0.00    -0.365 N 
ATOM     14  H   UNL     1       0.152   0.639  -0.570  1.00  0.00     0.159 HD
ATOM     15  H   UNL     1       1.707   0.142  -0.078  1.00  0.00     0.159 HD
ATOM     16  O   UNL     1      -1.051  -1.023   0.793  1.00  0.00    -0.268 OA
ENDBRANCH   7  12
ENDBRANCH   5   6
BRANCH   5  17
ATOM     17  C   UNL     1       0.307  -2.396   5.352  1.00  0.00     0.046 A 
ATOM     18  C   UNL     1       1.105  -1.663   6.232  1.00  0.00     0.094 A 
ATOM     19  C   UNL     1       0.277  -3.703   5.970  1.00  0.00     0.009 A 
ATOM     20  N   UNL     1       1.965  -2.560   6.815  1.00  0.00    -0.361 N 
ATOM     21  C   UNL     1       1.524  -3.836   6.581  1.00  0.00     0.050 A 
ATOM     22  C   UNL     1      -0.543  -4.838   6.064  1.00  0.00     0.015 A 
ATOM     23  H   UNL     1       2.774  -2.322   7.324  1.00  0.00     0.166 HD
ATOM     24  C   UNL     1       2.106  -5.081   6.855  1.00  0.00     0.073 A 
ATOM     25  C   UNL     1      -0.075  -6.053   6.602  1.00  0.00     0.047 A 
ATOM     26  C   UNL     1       1.273  -6.204   6.872  1.00  0.00     0.121 A 
BRANCH  26  27
ATOM     27  O   UNL     1       1.907  -7.379   7.173  1.00  0.00    -0.489 OA
BRANCH  27  28
ATOM     28  C   UNL     1       1.196  -8.375   7.915  1.00  0.00     0.265 C 
BRANCH  28  29
ATOM     29  C   UNL     1       1.254  -8.160   9.412  1.00  0.00    -0.011 A 
ATOM     30  C   UNL     1       0.683  -9.114  10.268  1.00  0.00     0.007 A 
ATOM     31  C   UNL     1       1.885  -7.045   9.982  1.00  0.00     0.007 A 
ATOM     32  C   UNL     1       0.733  -8.947  11.653  1.00  0.00     0.000 A 
ATOM     33  C   UNL     1       1.933  -6.878  11.361  1.00  0.00     0.000 A 
ATOM     34  C   UNL     1       1.356  -7.827  12.194  1.00  0.00     0.000 A 
ENDBRANCH  28  29
ENDBRANCH  27  28
ENDBRANCH  26  27
ENDBRANCH   5  17
ENDBRANCH   3   5
ENDBRANCH   2   3
ENDBRANCH   1   2
BRANCH   1  35
ATOM     35  C   UNL     1      -3.490  -4.546   2.163  1.00  0.00     0.275 C 
BRANCH  35  36
ATOM     36  O   UNL     1      -4.052  -4.050   3.393  1.00  0.00    -0.458 OA
BRANCH  36  37
ATOM     37  C   UNL     1      -3.738  -4.783   4.479  1.00  0.00     0.338 C 
ATOM     38  O   UNL     1      -3.232  -5.898   4.476  1.00  0.00    -0.246 OA
BRANCH  37  39
ATOM     39  C   UNL     1      -3.939  -4.047   5.752  1.00  0.00     0.060 A 
ATOM     40  C   UNL     1      -3.504  -2.729   5.903  1.00  0.00     0.016 A 
ATOM     41  C   UNL     1      -4.231  -4.804   6.888  1.00  0.00     0.016 A 
ATOM     42  C   UNL     1      -3.228  -2.218   7.172  1.00  0.00     0.010 A 
ATOM     43  C   UNL     1      -4.050  -4.259   8.163  1.00  0.00     0.010 A 
ATOM     44  C   UNL     1      -3.516  -2.972   8.317  1.00  0.00    -0.014 A 
BRANCH  44  45
ATOM     45  C   UNL     1      -3.410  -2.363   9.665  1.00  0.00     0.031 A 
ATOM     46  C   UNL     1      -2.428  -2.844  10.695  1.00  0.00     0.074 A 
ATOM     47  C   UNL     1      -4.262  -1.365   9.967  1.00  0.00     0.049 A 
ATOM     48  N   UNL     1      -2.402  -2.594  11.982  1.00  0.00    -0.248 NA
ATOM     49  C   UNL     1      -1.325  -3.694  10.226  1.00  0.00     0.031 C 
ATOM     50  C   UNL     1      -5.199  -0.743   9.029  1.00  0.00     0.029 A 
ATOM     51  N   UNL     1      -4.485  -0.709  11.150  1.00  0.00    -0.354 N 
ATOM     52  C   UNL     1      -1.302  -3.280  12.487  1.00  0.00     0.074 A 
ATOM     53  C   UNL     1      -0.679  -3.945  11.361  1.00  0.00     0.031 C 
ATOM     54  C   UNL     1      -5.893   0.206   9.669  1.00  0.00     0.029 A 
ATOM     55  C   UNL     1      -5.527   0.180  11.078  1.00  0.00     0.049 A 
ATOM     56  H   UNL     1      -3.954  -0.861  11.964  1.00  0.00     0.167 HD
ATOM     57  C   UNL     1      -0.872  -3.345  13.772  1.00  0.00     0.031 A 
ATOM     58  C   UNL     1      -6.179   0.850  12.043  1.00  0.00     0.031 A 
ATOM     59  C   UNL     1      -1.496  -2.648  14.875  1.00  0.00     0.049 A 
ATOM     60  C   UNL     1      -5.755   0.677  13.465  1.00  0.00     0.074 A 
ATOM     61  C   UNL     1      -1.132  -2.649  16.213  1.00  0.00     0.029 A 
ATOM     62  N   UNL     1      -2.600  -1.817  14.769  1.00  0.00    -0.354 N 
ATOM     63  N   UNL     1      -4.789  -0.062  13.951  1.00  0.00    -0.248 NA
ATOM     64  C   UNL     1      -6.515   1.426  14.472  1.00  0.00     0.031 C 
ATOM     65  C   UNL     1      -2.046  -1.865  16.922  1.00  0.00     0.029 A 
ATOM     66  C   UNL     1      -2.935  -1.313  16.017  1.00  0.00     0.049 A 
ATOM     67  H   UNL     1      -3.076  -1.614  13.931  1.00  0.00     0.167 HD
ATOM     68  C   UNL     1      -4.808   0.149  15.321  1.00  0.00     0.074 A 
ATOM     69  C   UNL     1      -5.873   1.097  15.584  1.00  0.00     0.031 C 
ATOM     70  C   UNL     1      -4.009  -0.390  16.273  1.00  0.00     0.031 A 
BRANCH  57  71
ATOM     71  C   UNL     1       0.314  -4.214  14.112  1.00  0.00    -0.014 A 
ATOM     72  C   UNL     1       1.625  -3.839  13.783  1.00  0.00     0.009 A 
ATOM     73  C   UNL     1       0.123  -5.343  14.930  1.00  0.00     0.009 A 
ATOM     74  C   UNL     1       2.715  -4.577  14.260  1.00  0.00     0.001 A 
ATOM     75  C   UNL     1       1.213  -6.056  15.436  1.00  0.00     0.001 A 
ATOM     76  C   UNL     1       2.509  -5.677  15.093  1.00  0.00     0.000 A 
ENDBRANCH  57  71
BRANCH  58  77
ATOM     77  C   UNL     1      -7.343   1.690  11.671  1.00  0.00    -0.014 A 
ATOM     78  C   UNL     1      -7.259   3.087  11.713  1.00  0.00     0.009 A 
ATOM     79  C   UNL     1      -8.521   1.088  11.193  1.00  0.00     0.009 A 
ATOM     80  C   UNL     1      -8.333   3.867  11.283  1.00  0.00     0.001 A 
ATOM     81  C   UNL     1      -9.578   1.871  10.731  1.00  0.00     0.001 A 
ATOM     82  C   UNL     1      -9.484   3.260  10.780  1.00  0.00     0.000 A 
ENDBRANCH  58  77
BRANCH  70  83
ATOM     83  C   UNL     1      -4.236   0.075  17.683  1.00  0.00    -0.014 A 
ATOM     84  C   UNL     1      -5.374  -0.312  18.406  1.00  0.00     0.009 A 
ATOM     85  C   UNL     1      -3.299   0.927  18.289  1.00  0.00     0.009 A 
ATOM     86  C   UNL     1      -5.596   0.188  19.691  1.00  0.00     0.001 A 
ATOM     87  C   UNL     1      -3.508   1.399  19.585  1.00  0.00     0.001 A 
ATOM     88  C   UNL     1      -4.663   1.042  20.279  1.00  0.00     0.000 A 
ENDBRANCH  70  83
ENDBRANCH  44  45
ENDBRANCH  37  39
ENDBRANCH  36  37
ENDBRANCH  35  36
ENDBRANCH   1  35
TORSDOF 17
