REMARK SMILES COc1ccc([C@H]2CC(c3ccccc3)=NN2C(=O)CCCC(=O)OCCOC(=O)c2ccc(-c3c4nc(c(-c5ccccc5)c5ccc([nH]5)c(-c5ccccc5)c5nc(c(-c6ccccc6)c6ccc3[nH]6)C=C5)C=C4)cc2)cc1
REMARK SMILES IDX 23 1 24 2 22 3 21 4 20 5 18 6 19 7 17 8 7 9 8 10 9 11 16 12
REMARK SMILES IDX 6 13 3 14 4 15 80 16 5 17 79 18 2 19 1 20 10 21 11 22 15 23
REMARK SMILES IDX 12 24 14 25 13 26 25 27 26 28 27 29 28 30 29 31 30 32 31 33
REMARK SMILES IDX 32 34 78 35 33 36 77 37 34 38 35 39 36 40 71 41 37 42 76 43
REMARK SMILES IDX 70 44 72 45 38 46 75 47 69 48 68 49 39 51 61 52 46 53 60 54
REMARK SMILES IDX 47 55 50 56 59 57 73 58 48 59 49 60 58 62 74 63 51 64 40 65
REMARK SMILES IDX 41 66 45 67 42 68 44 69 43 70 62 71 63 72 67 73 64 74 66 75
REMARK SMILES IDX 65 76 52 77 53 78 57 79 54 80 56 81 55 82
REMARK H PARENT 72 50 50 61
REMARK Flexibility Score: inf
ROOT
ATOM      1  C   UNL     1      -0.169  -3.808   4.864  1.00  0.00     0.305 C 
ATOM      2  O   UNL     1      -0.157  -4.552   3.891  1.00  0.00    -0.252 OA
ENDROOT
BRANCH   1   3
ATOM      3  C   UNL     1       0.734  -2.610   5.001  1.00  0.00     0.123 C 
BRANCH   3   4
ATOM      4  C   UNL     1       1.889  -2.772   5.983  1.00  0.00     0.022 C 
BRANCH   4   5
ATOM      5  C   UNL     1       2.552  -4.147   6.025  1.00  0.00     0.103 C 
BRANCH   5   6
ATOM      6  C   UNL     1       3.907  -4.264   5.343  1.00  0.00     0.243 C 
ATOM      7  O   UNL     1       4.908  -3.789   5.885  1.00  0.00    -0.273 OA
BRANCH   6   8
ATOM      8  N   UNL     1       3.953  -5.076   4.223  1.00  0.00    -0.225 N 
ATOM      9  C   UNL     1       3.014  -5.133   3.097  1.00  0.00     0.147 C 
ATOM     10  C   UNL     1       3.470  -6.340   2.287  1.00  0.00     0.091 C 
ATOM     11  C   UNL     1       4.615  -6.804   3.140  1.00  0.00     0.071 C 
ATOM     12  N   UNL     1       4.889  -6.078   4.179  1.00  0.00    -0.174 NA
BRANCH   9  13
ATOM     13  C   UNL     1       2.998  -3.855   2.276  1.00  0.00    -0.023 A 
ATOM     14  C   UNL     1       2.821  -1.337   1.009  1.00  0.00     0.118 A 
ATOM     15  C   UNL     1       1.700  -2.147   1.125  1.00  0.00     0.047 A 
ATOM     16  C   UNL     1       4.042  -1.802   1.490  1.00  0.00     0.047 A 
ATOM     17  C   UNL     1       1.799  -3.417   1.702  1.00  0.00     0.010 A 
ATOM     18  C   UNL     1       4.135  -3.051   2.114  1.00  0.00     0.010 A 
BRANCH  14  19
ATOM     19  O   UNL     1       2.800  -0.053   0.548  1.00  0.00    -0.497 OA
ATOM     20  C   UNL     1       1.957   0.219  -0.569  1.00  0.00     0.278 C 
ENDBRANCH  14  19
ENDBRANCH   9  13
BRANCH  11  21
ATOM     21  C   UNL     1       5.314  -8.060   2.843  1.00  0.00    -0.002 A 
ATOM     22  C   UNL     1       5.547  -8.955   3.892  1.00  0.00     0.010 A 
ATOM     23  C   UNL     1       5.728  -8.362   1.545  1.00  0.00     0.010 A 
ATOM     24  C   UNL     1       6.198 -10.161   3.641  1.00  0.00     0.001 A 
ATOM     25  C   UNL     1       6.398  -9.563   1.304  1.00  0.00     0.001 A 
ATOM     26  C   UNL     1       6.629 -10.461   2.349  1.00  0.00     0.000 A 
ENDBRANCH  11  21
ENDBRANCH   6   8
ENDBRANCH   5   6
ENDBRANCH   4   5
ENDBRANCH   3   4
ENDBRANCH   1   3
BRANCH   1  27
ATOM     27  O   UNL     1      -0.983  -3.963   5.938  1.00  0.00    -0.462 OA
BRANCH  27  28
ATOM     28  C   UNL     1      -1.926  -5.044   5.819  1.00  0.00     0.274 C 
BRANCH  28  29
ATOM     29  C   UNL     1      -3.230  -4.575   5.171  1.00  0.00     0.275 C 
BRANCH  29  30
ATOM     30  O   UNL     1      -3.037  -4.149   3.804  1.00  0.00    -0.458 OA
BRANCH  30  31
ATOM     31  C   UNL     1      -3.062  -2.808   3.600  1.00  0.00     0.338 C 
ATOM     32  O   UNL     1      -3.205  -1.948   4.453  1.00  0.00    -0.246 OA
BRANCH  31  33
ATOM     33  C   UNL     1      -2.912  -2.470   2.166  1.00  0.00     0.060 A 
ATOM     34  C   UNL     1      -1.955  -3.080   1.360  1.00  0.00     0.016 A 
ATOM     35  C   UNL     1      -3.671  -1.421   1.643  1.00  0.00     0.016 A 
ATOM     36  C   UNL     1      -1.700  -2.579   0.072  1.00  0.00     0.010 A 
ATOM     37  C   UNL     1      -3.474  -0.990   0.323  1.00  0.00     0.010 A 
ATOM     38  C   UNL     1      -2.452  -1.527  -0.480  1.00  0.00    -0.014 A 
BRANCH  38  39
ATOM     39  C   UNL     1      -2.189  -0.954  -1.849  1.00  0.00     0.031 A 
ATOM     40  C   UNL     1      -2.141   0.549  -2.062  1.00  0.00     0.074 A 
ATOM     41  C   UNL     1      -2.014  -1.731  -2.942  1.00  0.00     0.049 A 
ATOM     42  N   UNL     1      -2.280   1.237  -3.171  1.00  0.00    -0.248 NA
ATOM     43  C   UNL     1      -1.919   1.384  -0.871  1.00  0.00     0.031 C 
ATOM     44  C   UNL     1      -1.933  -3.190  -2.962  1.00  0.00     0.029 A 
ATOM     45  N   UNL     1      -1.879  -1.381  -4.270  1.00  0.00    -0.354 N 
ATOM     46  C   UNL     1      -2.263   2.578  -2.798  1.00  0.00     0.074 A 
ATOM     47  C   UNL     1      -2.068   2.608  -1.363  1.00  0.00     0.031 C 
ATOM     48  C   UNL     1      -1.713  -3.606  -4.217  1.00  0.00     0.029 A 
ATOM     49  C   UNL     1      -1.779  -2.461  -5.116  1.00  0.00     0.049 A 
ATOM     50  H   UNL     1      -1.856  -0.448  -4.582  1.00  0.00     0.167 HD
ATOM     51  C   UNL     1      -2.413   3.683  -3.571  1.00  0.00     0.031 A 
ATOM     52  C   UNL     1      -1.821  -2.556  -6.460  1.00  0.00     0.031 A 
ATOM     53  C   UNL     1      -2.519   3.678  -5.008  1.00  0.00     0.049 A 
ATOM     54  C   UNL     1      -2.070  -1.337  -7.298  1.00  0.00     0.074 A 
ATOM     55  C   UNL     1      -2.632   4.761  -5.868  1.00  0.00     0.029 A 
ATOM     56  N   UNL     1      -2.502   2.545  -5.801  1.00  0.00    -0.354 N 
ATOM     57  N   UNL     1      -2.180  -0.087  -6.924  1.00  0.00    -0.248 NA
ATOM     58  C   UNL     1      -2.248  -1.552  -8.743  1.00  0.00     0.031 C 
ATOM     59  C   UNL     1      -2.729   4.278  -7.177  1.00  0.00     0.029 A 
ATOM     60  C   UNL     1      -2.629   2.899  -7.135  1.00  0.00     0.049 A 
ATOM     61  H   UNL     1      -2.414   1.623  -5.466  1.00  0.00     0.167 HD
ATOM     62  C   UNL     1      -2.440   0.631  -8.084  1.00  0.00     0.074 A 
ATOM     63  C   UNL     1      -2.450  -0.316  -9.178  1.00  0.00     0.031 C 
ATOM     64  C   UNL     1      -2.657   1.960  -8.223  1.00  0.00     0.031 A 
BRANCH  51  65
ATOM     65  C   UNL     1      -2.531   5.016  -2.882  1.00  0.00    -0.014 A 
ATOM     66  C   UNL     1      -1.420   5.675  -2.338  1.00  0.00     0.009 A 
ATOM     67  C   UNL     1      -3.781   5.659  -2.860  1.00  0.00     0.009 A 
ATOM     68  C   UNL     1      -1.565   6.941  -1.763  1.00  0.00     0.001 A 
ATOM     69  C   UNL     1      -3.917   6.934  -2.309  1.00  0.00     0.001 A 
ATOM     70  C   UNL     1      -2.810   7.572  -1.755  1.00  0.00     0.000 A 
ENDBRANCH  51  65
BRANCH  52  71
ATOM     71  C   UNL     1      -1.730  -3.894  -7.102  1.00  0.00    -0.014 A 
ATOM     72  C   UNL     1      -0.591  -4.257  -7.835  1.00  0.00     0.009 A 
ATOM     73  C   UNL     1      -2.778  -4.820  -6.969  1.00  0.00     0.009 A 
ATOM     74  C   UNL     1      -0.504  -5.522  -8.420  1.00  0.00     0.001 A 
ATOM     75  C   UNL     1      -2.673  -6.094  -7.526  1.00  0.00     0.001 A 
ATOM     76  C   UNL     1      -1.538  -6.443  -8.254  1.00  0.00     0.000 A 
ENDBRANCH  52  71
BRANCH  64  77
ATOM     77  C   UNL     1      -2.908   2.476  -9.610  1.00  0.00    -0.014 A 
ATOM     78  C   UNL     1      -4.148   2.286 -10.239  1.00  0.00     0.009 A 
ATOM     79  C   UNL     1      -1.900   3.177 -10.290  1.00  0.00     0.009 A 
ATOM     80  C   UNL     1      -4.365   2.766 -11.533  1.00  0.00     0.001 A 
ATOM     81  C   UNL     1      -2.126   3.673 -11.575  1.00  0.00     0.001 A 
ATOM     82  C   UNL     1      -3.355   3.460 -12.198  1.00  0.00     0.000 A 
ENDBRANCH  64  77
ENDBRANCH  38  39
ENDBRANCH  31  33
ENDBRANCH  30  31
ENDBRANCH  29  30
ENDBRANCH  28  29
ENDBRANCH  27  28
ENDBRANCH   1  27
TORSDOF 18
