REMARK SMILES C[C@]([NH2+]CCCS(C)(=O)=O)(C(=O)OCCOC(=O)c1ccc(-c2c3nc(c(-c4ccccc4)c4ccc([nH]4)c(-c4ccccc4)c4nc(c(-c5ccccc5)c5ccc2[nH]5)C=C4)C=C3)cc1)C(F)(F)F
REMARK SMILES IDX 13 1 11 2 12 3 2 4 1 5 67 6 68 7 69 8 70 9 3 10 4 13 5 14
REMARK SMILES IDX 6 15 7 16 8 17 9 18 10 19 14 20 15 21 16 22 17 23 18 24
REMARK SMILES IDX 19 25 20 26 66 27 21 28 65 29 22 30 23 31 24 32 59 33 25 34
REMARK SMILES IDX 64 35 58 36 60 37 26 38 63 39 57 40 56 41 27 43 49 44 34 45
REMARK SMILES IDX 48 46 35 47 38 48 47 49 61 50 36 51 37 52 46 54 62 55 39 56
REMARK SMILES IDX 28 57 29 58 33 59 30 60 32 61 31 62 50 63 51 64 55 65 52 66
REMARK SMILES IDX 54 67 53 68 40 69 41 70 45 71 42 72 44 73 43 74
REMARK H PARENT 3 11 3 12 60 42 38 53
REMARK Flexibility Score: inf
ROOT
ATOM      1  O   UNL     1      -1.561   1.036  -0.747  1.00  0.00    -0.457 OA
ENDROOT
BRANCH   1   2
ATOM      2  C   UNL     1      -0.715   1.902  -0.113  1.00  0.00     0.377 C 
ATOM      3  O   UNL     1      -1.111   2.870   0.523  1.00  0.00    -0.244 OA
BRANCH   2   4
ATOM      4  C   UNL     1       0.766   1.563  -0.376  1.00  0.00     0.287 C 
ATOM      5  C   UNL     1       1.175   2.264  -1.680  1.00  0.00     0.103 C 
BRANCH   4   6
ATOM      6  C   UNL     1       1.603   2.207   0.764  1.00  0.00     0.455 C 
ATOM      7  F   UNL     1       1.445   1.563   1.943  1.00  0.00    -0.164 F 
ATOM      8  F   UNL     1       2.933   2.135   0.478  1.00  0.00    -0.164 F 
ATOM      9  F   UNL     1       1.338   3.515   0.968  1.00  0.00    -0.164 F 
ENDBRANCH   4   6
BRANCH   4  10
ATOM     10  N   UNL     1       1.017   0.073  -0.373  1.00  0.00    -0.325 N 
ATOM     11  H   UNL     1       0.491  -0.317   0.409  1.00  0.00     0.347 HD
ATOM     12  H   UNL     1       2.033  -0.004  -0.321  1.00  0.00     0.347 HD
BRANCH  10  13
ATOM     13  C   UNL     1       0.667  -0.701  -1.551  1.00  0.00     0.262 C 
BRANCH  13  14
ATOM     14  C   UNL     1       1.589  -1.926  -1.641  1.00  0.00     0.077 C 
BRANCH  14  15
ATOM     15  C   UNL     1       1.659  -2.812  -0.401  1.00  0.00     0.142 C 
BRANCH  15  16
ATOM     16  S   UNL     1       0.218  -3.820  -0.099  1.00  0.00     0.147 S 
ATOM     17  C   UNL     1       0.158  -4.916  -1.493  1.00  0.00     0.158 C 
ATOM     18  O   UNL     1       0.499  -4.637   1.066  1.00  0.00    -0.229 OA
ATOM     19  O   UNL     1      -0.978  -3.001  -0.155  1.00  0.00    -0.229 OA
ENDBRANCH  15  16
ENDBRANCH  14  15
ENDBRANCH  13  14
ENDBRANCH  10  13
ENDBRANCH   4  10
ENDBRANCH   2   4
ENDBRANCH   1   2
BRANCH   1  20
ATOM     20  C   UNL     1      -2.982   1.216  -0.560  1.00  0.00     0.274 C 
BRANCH  20  21
ATOM     21  C   UNL     1      -3.570   0.157   0.381  1.00  0.00     0.275 C 
BRANCH  21  22
ATOM     22  O   UNL     1      -3.332   0.469   1.768  1.00  0.00    -0.458 OA
BRANCH  22  23
ATOM     23  C   UNL     1      -2.124   0.083   2.227  1.00  0.00     0.338 C 
ATOM     24  O   UNL     1      -1.234  -0.482   1.606  1.00  0.00    -0.246 OA
BRANCH  23  25
ATOM     25  C   UNL     1      -1.878   0.623   3.567  1.00  0.00     0.060 A 
ATOM     26  C   UNL     1      -0.863   1.569   3.650  1.00  0.00     0.016 A 
ATOM     27  C   UNL     1      -2.443   0.088   4.722  1.00  0.00     0.016 A 
ATOM     28  C   UNL     1      -0.295   1.880   4.871  1.00  0.00     0.010 A 
ATOM     29  C   UNL     1      -1.933   0.481   5.969  1.00  0.00     0.010 A 
ATOM     30  C   UNL     1      -0.822   1.342   6.050  1.00  0.00    -0.014 A 
BRANCH  30  31
ATOM     31  C   UNL     1      -0.138   1.654   7.331  1.00  0.00     0.031 A 
ATOM     32  C   UNL     1       0.518   0.560   8.128  1.00  0.00     0.074 A 
ATOM     33  C   UNL     1      -0.004   2.937   7.721  1.00  0.00     0.049 A 
ATOM     34  N   UNL     1       1.105   0.631   9.297  1.00  0.00    -0.248 NA
ATOM     35  C   UNL     1       0.513  -0.790   7.542  1.00  0.00     0.031 C 
ATOM     36  C   UNL     1      -0.517   4.102   6.996  1.00  0.00     0.029 A 
ATOM     37  N   UNL     1       0.648   3.480   8.799  1.00  0.00    -0.354 N 
ATOM     38  C   UNL     1       1.482  -0.669   9.611  1.00  0.00     0.074 A 
ATOM     39  C   UNL     1       1.068  -1.508   8.508  1.00  0.00     0.031 C 
ATOM     40  C   UNL     1      -0.098   5.220   7.606  1.00  0.00     0.029 A 
ATOM     41  C   UNL     1       0.634   4.853   8.812  1.00  0.00     0.049 A 
ATOM     42  H   UNL     1       1.084   2.938   9.496  1.00  0.00     0.167 HD
ATOM     43  C   UNL     1       2.108  -1.121  10.724  1.00  0.00     0.031 A 
ATOM     44  C   UNL     1       1.133   5.725   9.708  1.00  0.00     0.031 A 
ATOM     45  C   UNL     1       2.566  -0.279  11.797  1.00  0.00     0.049 A 
ATOM     46  C   UNL     1       1.803   5.199  10.941  1.00  0.00     0.074 A 
ATOM     47  C   UNL     1       3.192  -0.644  12.976  1.00  0.00     0.029 A 
ATOM     48  N   UNL     1       2.469   1.104  11.806  1.00  0.00    -0.354 N 
ATOM     49  N   UNL     1       2.061   3.958  11.272  1.00  0.00    -0.248 NA
ATOM     50  C   UNL     1       2.225   6.193  11.936  1.00  0.00     0.031 C 
ATOM     51  C   UNL     1       3.450   0.519  13.712  1.00  0.00     0.029 A 
ATOM     52  C   UNL     1       3.018   1.607  12.973  1.00  0.00     0.049 A 
ATOM     53  H   UNL     1       2.069   1.647  11.089  1.00  0.00     0.167 HD
ATOM     54  C   UNL     1       2.671   4.020  12.516  1.00  0.00     0.074 A 
ATOM     55  C   UNL     1       2.772   5.423  12.866  1.00  0.00     0.031 C 
ATOM     56  C   UNL     1       3.099   3.005  13.304  1.00  0.00     0.031 A 
BRANCH  43  57
ATOM     57  C   UNL     1       2.284  -2.606  10.859  1.00  0.00    -0.014 A 
ATOM     58  C   UNL     1       3.266  -3.301  10.139  1.00  0.00     0.009 A 
ATOM     59  C   UNL     1       1.458  -3.316  11.745  1.00  0.00     0.009 A 
ATOM     60  C   UNL     1       3.398  -4.685  10.283  1.00  0.00     0.001 A 
ATOM     61  C   UNL     1       1.607  -4.695  11.903  1.00  0.00     0.001 A 
ATOM     62  C   UNL     1       2.571  -5.379  11.166  1.00  0.00     0.000 A 
ENDBRANCH  43  57
BRANCH  44  63
ATOM     63  C   UNL     1       0.966   7.184   9.491  1.00  0.00    -0.014 A 
ATOM     64  C   UNL     1       2.069   7.988   9.168  1.00  0.00     0.009 A 
ATOM     65  C   UNL     1      -0.303   7.776   9.590  1.00  0.00     0.009 A 
ATOM     66  C   UNL     1       1.903   9.360   8.959  1.00  0.00     0.001 A 
ATOM     67  C   UNL     1      -0.469   9.141   9.354  1.00  0.00     0.001 A 
ATOM     68  C   UNL     1       0.635   9.933   9.045  1.00  0.00     0.000 A 
ENDBRANCH  44  63
BRANCH  56  69
ATOM     69  C   UNL     1       3.722   3.386  14.613  1.00  0.00    -0.014 A 
ATOM     70  C   UNL     1       2.927   3.788  15.698  1.00  0.00     0.009 A 
ATOM     71  C   UNL     1       5.115   3.329  14.767  1.00  0.00     0.009 A 
ATOM     72  C   UNL     1       3.521   4.156  16.906  1.00  0.00     0.001 A 
ATOM     73  C   UNL     1       5.704   3.680  15.982  1.00  0.00     0.001 A 
ATOM     74  C   UNL     1       4.908   4.100  17.047  1.00  0.00     0.000 A 
ENDBRANCH  56  69
ENDBRANCH  30  31
ENDBRANCH  23  25
ENDBRANCH  22  23
ENDBRANCH  21  22
ENDBRANCH  20  21
ENDBRANCH   1  20
TORSDOF 17
