REMARK SMILES CC(C)(C)OC(=O)N1CC2(C[C@@H](C(=O)OCCOC(=O)c3ccc(-c4c5nc(c(-c6ccccc6)c6ccc([nH]6)c(-c6ccccc6)c6nc(c(-c7ccccc7)c7ccc4[nH]7)C=C6)C=C5)cc3)CO2)C1
REMARK SMILES IDX 16 1 15 2 13 3 14 4 12 5 6 6 7 7 8 8 9 9 71 10 10 11 11 12
REMARK SMILES IDX 70 13 69 14 5 15 2 16 1 17 3 18 4 19 17 20 18 21 19 22 20 23
REMARK SMILES IDX 21 24 22 25 68 26 23 27 67 28 24 29 25 30 26 31 61 32 27 33
REMARK SMILES IDX 66 34 60 35 62 36 28 37 65 38 59 39 58 40 29 42 51 43 36 44
REMARK SMILES IDX 50 45 37 46 40 47 49 48 63 49 38 50 39 51 48 53 64 54 41 55
REMARK SMILES IDX 30 56 31 57 35 58 32 59 34 60 33 61 52 62 53 63 57 64 54 65
REMARK SMILES IDX 56 66 55 67 42 68 43 69 47 70 44 71 46 72 45 73
REMARK H PARENT 62 41 40 52
REMARK Flexibility Score: inf
ROOT
ATOM      1  C   UNL     1      -1.276   3.718   5.792  1.00  0.00     0.274 C 
ENDROOT
BRANCH   1   2
ATOM      2  O   UNL     1      -0.706   2.466   6.221  1.00  0.00    -0.462 OA
BRANCH   2   3
ATOM      3  C   UNL     1       0.619   2.321   5.967  1.00  0.00     0.311 C 
ATOM      4  O   UNL     1       1.330   3.177   5.452  1.00  0.00    -0.252 OA
BRANCH   3   5
ATOM      5  C   UNL     1       1.126   0.935   6.232  1.00  0.00     0.128 C 
ATOM      6  C   UNL     1      -0.098  -2.063   2.839  1.00  0.00     0.410 C 
ATOM      7  O   UNL     1      -1.220  -2.319   2.421  1.00  0.00    -0.224 OA
ATOM      8  N   UNL     1       0.366  -2.555   4.045  1.00  0.00    -0.302 N 
ATOM      9  C   UNL     1      -0.407  -2.360   5.281  1.00  0.00     0.160 C 
ATOM     10  C   UNL     1       1.617  -2.279   4.778  1.00  0.00     0.160 C 
ATOM     11  C   UNL     1       0.732  -1.361   5.661  1.00  0.00     0.104 C 
ATOM     12  C   UNL     1       0.673   0.051   5.091  1.00  0.00     0.057 C 
ATOM     13  O   UNL     1       0.980  -1.198   7.082  1.00  0.00    -0.370 OA
ATOM     14  C   UNL     1       0.681   0.171   7.455  1.00  0.00     0.176 C 
BRANCH   6  15
ATOM     15  O   UNL     1       0.748  -1.144   2.310  1.00  0.00    -0.444 OA
BRANCH  15  16
ATOM     16  C   UNL     1       0.366  -0.160   1.300  1.00  0.00     0.106 C 
ATOM     17  C   UNL     1       1.063  -0.551  -0.001  1.00  0.00     0.056 C 
ATOM     18  C   UNL     1       0.935   1.187   1.785  1.00  0.00     0.056 C 
ATOM     19  C   UNL     1      -1.139   0.036   1.069  1.00  0.00     0.056 C 
ENDBRANCH  15  16
ENDBRANCH   6  15
ENDBRANCH   3   5
ENDBRANCH   2   3
ENDBRANCH   1   2
BRANCH   1  20
ATOM     20  C   UNL     1      -1.286   4.777   6.899  1.00  0.00     0.275 C 
BRANCH  20  21
ATOM     21  O   UNL     1       0.040   5.152   7.318  1.00  0.00    -0.458 OA
BRANCH  21  22
ATOM     22  C   UNL     1       0.573   4.361   8.279  1.00  0.00     0.338 C 
ATOM     23  O   UNL     1       0.028   3.431   8.852  1.00  0.00    -0.246 OA
BRANCH  22  24
ATOM     24  C   UNL     1       2.011   4.642   8.432  1.00  0.00     0.060 A 
ATOM     25  C   UNL     1       2.886   3.550   8.396  1.00  0.00     0.016 A 
ATOM     26  C   UNL     1       2.495   5.930   8.670  1.00  0.00     0.016 A 
ATOM     27  C   UNL     1       4.247   3.734   8.605  1.00  0.00     0.010 A 
ATOM     28  C   UNL     1       3.862   6.113   8.901  1.00  0.00     0.010 A 
ATOM     29  C   UNL     1       4.738   5.013   8.885  1.00  0.00    -0.014 A 
BRANCH  29  30
ATOM     30  C   UNL     1       6.159   5.163   9.262  1.00  0.00     0.031 A 
ATOM     31  C   UNL     1       6.528   5.232  10.715  1.00  0.00     0.074 A 
ATOM     32  C   UNL     1       7.113   5.168   8.315  1.00  0.00     0.049 A 
ATOM     33  N   UNL     1       7.707   5.377  11.262  1.00  0.00    -0.248 NA
ATOM     34  C   UNL     1       5.423   5.113  11.680  1.00  0.00     0.031 C 
ATOM     35  C   UNL     1       6.878   5.034   6.878  1.00  0.00     0.029 A 
ATOM     36  N   UNL     1       8.474   5.281   8.427  1.00  0.00    -0.354 N 
ATOM     37  C   UNL     1       7.486   5.381  12.633  1.00  0.00     0.074 A 
ATOM     38  C   UNL     1       6.060   5.235  12.835  1.00  0.00     0.031 C 
ATOM     39  C   UNL     1       8.060   5.070   6.240  1.00  0.00     0.029 A 
ATOM     40  C   UNL     1       9.126   5.266   7.220  1.00  0.00     0.049 A 
ATOM     41  H   UNL     1       8.940   5.365   9.291  1.00  0.00     0.167 HD
ATOM     42  C   UNL     1       8.390   5.497  13.633  1.00  0.00     0.031 A 
ATOM     43  C   UNL     1      10.433   5.415   6.938  1.00  0.00     0.031 A 
ATOM     44  C   UNL     1       9.805   5.651  13.431  1.00  0.00     0.049 A 
ATOM     45  C   UNL     1      11.408   5.621   8.063  1.00  0.00     0.074 A 
ATOM     46  C   UNL     1      10.804   5.788  14.379  1.00  0.00     0.029 A 
ATOM     47  N   UNL     1      10.421   5.689  12.190  1.00  0.00    -0.354 N 
ATOM     48  N   UNL     1      11.187   5.639   9.355  1.00  0.00    -0.248 NA
ATOM     49  C   UNL     1      12.814   5.831   7.689  1.00  0.00     0.031 C 
ATOM     50  C   UNL     1      12.021   5.951  13.709  1.00  0.00     0.029 A 
ATOM     51  C   UNL     1      11.785   5.870  12.345  1.00  0.00     0.049 A 
ATOM     52  H   UNL     1       9.958   5.601  11.325  1.00  0.00     0.167 HD
ATOM     53  C   UNL     1      12.424   5.846   9.949  1.00  0.00     0.074 A 
ATOM     54  C   UNL     1      13.395   5.931   8.877  1.00  0.00     0.031 C 
ATOM     55  C   UNL     1      12.731   5.957  11.265  1.00  0.00     0.031 A 
BRANCH  42  56
ATOM     56  C   UNL     1       7.861   5.507  15.037  1.00  0.00    -0.014 A 
ATOM     57  C   UNL     1       7.418   4.329  15.658  1.00  0.00     0.009 A 
ATOM     58  C   UNL     1       7.820   6.713  15.754  1.00  0.00     0.009 A 
ATOM     59  C   UNL     1       6.916   4.364  16.961  1.00  0.00     0.001 A 
ATOM     60  C   UNL     1       7.338   6.741  17.063  1.00  0.00     0.001 A 
ATOM     61  C   UNL     1       6.879   5.569  17.663  1.00  0.00     0.000 A 
ENDBRANCH  42  56
BRANCH  43  62
ATOM     62  C   UNL     1      10.893   5.407   5.526  1.00  0.00    -0.014 A 
ATOM     63  C   UNL     1      11.640   4.333   5.022  1.00  0.00     0.009 A 
ATOM     64  C   UNL     1      10.591   6.484   4.677  1.00  0.00     0.009 A 
ATOM     65  C   UNL     1      12.091   4.346   3.699  1.00  0.00     0.001 A 
ATOM     66  C   UNL     1      11.022   6.483   3.350  1.00  0.00     0.001 A 
ATOM     67  C   UNL     1      11.778   5.418   2.864  1.00  0.00     0.000 A 
ENDBRANCH  43  62
BRANCH  55  68
ATOM     68  C   UNL     1      14.177   6.158  11.614  1.00  0.00    -0.014 A 
ATOM     69  C   UNL     1      14.798   7.403  11.431  1.00  0.00     0.009 A 
ATOM     70  C   UNL     1      14.913   5.100  12.167  1.00  0.00     0.009 A 
ATOM     71  C   UNL     1      16.141   7.575  11.771  1.00  0.00     0.001 A 
ATOM     72  C   UNL     1      16.249   5.281  12.527  1.00  0.00     0.001 A 
ATOM     73  C   UNL     1      16.864   6.516  12.322  1.00  0.00     0.000 A 
ENDBRANCH  55  68
ENDBRANCH  29  30
ENDBRANCH  22  24
ENDBRANCH  21  22
ENDBRANCH  20  21
ENDBRANCH   1  20
TORSDOF 13
