REMARK SMILES O=C(CCCN1C(=O)/C(=C/c2ccccc2Cl)SC1=S)Nc1cccc(C(=O)OCCOC(=O)c2ccc(-c3c4nc(c(-c5ccccc5)c5ccc([nH]5)c(-c5ccccc5)c5nc(c(-c6ccccc6)c6ccc3[nH]6)C=C5)C=C4)cc2)c1
REMARK SMILES IDX 27 1 28 2 26 3 22 4 23 5 83 6 24 7 25 8 21 9 1 10 2 11 3 13
REMARK SMILES IDX 4 14 5 15 6 16 7 17 19 18 8 19 9 20 18 21 20 22 10 23 11 24
REMARK SMILES IDX 12 25 16 26 13 27 15 28 17 29 14 30 29 31 30 32 31 33 32 34
REMARK SMILES IDX 33 35 34 36 35 37 36 38 82 39 37 40 81 41 38 42 39 43 40 44
REMARK SMILES IDX 75 45 41 46 80 47 74 48 76 49 42 50 79 51 73 52 72 53 43 55
REMARK SMILES IDX 65 56 50 57 64 58 51 59 54 60 63 61 77 62 52 63 53 64 62 66
REMARK SMILES IDX 78 67 55 68 44 69 45 70 49 71 46 72 48 73 47 74 66 75 67 76
REMARK SMILES IDX 71 77 68 78 70 79 69 80 56 81 57 82 61 83 58 84 60 85 59 86
REMARK H PARENT 21 12 76 54 54 65
REMARK Flexibility Score: inf
ROOT
ATOM      1  C   UNL     1      -1.155   2.991  -2.581  1.00  0.00     0.338 C 
ATOM      2  O   UNL     1      -2.095   2.980  -3.358  1.00  0.00    -0.246 OA
ENDROOT
BRANCH   1   3
ATOM      3  C   UNL     1       0.087   2.212  -2.779  1.00  0.00     0.062 A 
ATOM      4  C   UNL     1       1.999   1.086  -1.870  1.00  0.00     0.042 A 
ATOM      5  C   UNL     1       2.613   1.100  -3.128  1.00  0.00     0.026 A 
ATOM      6  C   UNL     1       0.752   1.670  -1.684  1.00  0.00     0.041 A 
ATOM      7  C   UNL     1       1.908   1.549  -4.237  1.00  0.00     0.003 A 
ATOM      8  C   UNL     1       0.624   2.058  -4.065  1.00  0.00     0.016 A 
BRANCH   4   9
ATOM      9  N   UNL     1       2.701   0.476  -0.829  1.00  0.00    -0.326 N 
ATOM     10  O   UNL     1       0.948  -0.311   0.464  1.00  0.00    -0.275 OA
ATOM     11  C   UNL     1       2.149  -0.196   0.235  1.00  0.00     0.224 C 
ATOM     12  H   UNL     1       3.683   0.533  -0.860  1.00  0.00     0.169 HD
BRANCH  11  13
ATOM     13  C   UNL     1       3.174  -0.850   1.143  1.00  0.00     0.102 C 
BRANCH  13  14
ATOM     14  C   UNL     1       4.037  -1.926   0.470  1.00  0.00     0.032 C 
BRANCH  14  15
ATOM     15  C   UNL     1       5.285  -1.450  -0.298  1.00  0.00     0.128 C 
BRANCH  15  16
ATOM     16  N   UNL     1       6.084  -0.466   0.440  1.00  0.00    -0.293 N 
ATOM     17  C   UNL     1       5.927   0.876   0.151  1.00  0.00     0.266 C 
ATOM     18  C   UNL     1       7.009  -0.769   1.417  1.00  0.00     0.148 C 
ATOM     19  O   UNL     1       5.216   1.324  -0.738  1.00  0.00    -0.268 OA
ATOM     20  C   UNL     1       6.718   1.717   1.078  1.00  0.00     0.081 C 
ATOM     21  S   UNL     1       7.640   0.716   2.122  1.00  0.00    -0.054 SA
ATOM     22  S   UNL     1       7.506  -2.277   1.926  1.00  0.00    -0.052 S 
ATOM     23  C   UNL     1       6.655   3.055   1.040  1.00  0.00     0.031 C 
BRANCH  23  24
ATOM     24  C   UNL     1       7.467   3.956   1.871  1.00  0.00    -0.006 A 
ATOM     25  C   UNL     1       6.839   4.666   2.905  1.00  0.00     0.010 A 
ATOM     26  C   UNL     1       8.846   4.135   1.661  1.00  0.00     0.048 A 
ATOM     27  C   UNL     1       7.582   5.512   3.733  1.00  0.00     0.001 A 
ATOM     28  C   UNL     1       9.585   4.972   2.499  1.00  0.00     0.021 A 
ATOM     29  Cl  UNL     1       9.683   3.366   0.355  1.00  0.00    -0.084 Cl
ATOM     30  C   UNL     1       8.954   5.656   3.538  1.00  0.00     0.002 A 
ENDBRANCH  23  24
ENDBRANCH  15  16
ENDBRANCH  14  15
ENDBRANCH  13  14
ENDBRANCH  11  13
ENDBRANCH   4   9
ENDBRANCH   1   3
BRANCH   1  31
ATOM     31  O   UNL     1      -0.993   3.802  -1.503  1.00  0.00    -0.458 OA
BRANCH  31  32
ATOM     32  C   UNL     1      -2.058   4.725  -1.203  1.00  0.00     0.275 C 
BRANCH  32  33
ATOM     33  C   UNL     1      -1.667   6.158  -1.566  1.00  0.00     0.275 C 
BRANCH  33  34
ATOM     34  O   UNL     1      -1.559   6.294  -2.995  1.00  0.00    -0.458 OA
BRANCH  34  35
ATOM     35  C   UNL     1      -0.311   6.508  -3.469  1.00  0.00     0.338 C 
ATOM     36  O   UNL     1       0.716   6.676  -2.834  1.00  0.00    -0.246 OA
BRANCH  35  37
ATOM     37  C   UNL     1      -0.322   6.394  -4.934  1.00  0.00     0.060 A 
ATOM     38  C   UNL     1      -0.341   5.115  -5.470  1.00  0.00     0.016 A 
ATOM     39  C   UNL     1      -0.145   7.493  -5.765  1.00  0.00     0.016 A 
ATOM     40  C   UNL     1      -0.066   4.901  -6.815  1.00  0.00     0.010 A 
ATOM     41  C   UNL     1       0.010   7.287  -7.144  1.00  0.00     0.010 A 
ATOM     42  C   UNL     1       0.094   5.986  -7.682  1.00  0.00    -0.014 A 
BRANCH  42  43
ATOM     43  C   UNL     1       0.387   5.755  -9.127  1.00  0.00     0.031 A 
ATOM     44  C   UNL     1       1.617   6.358  -9.756  1.00  0.00     0.074 A 
ATOM     45  C   UNL     1      -0.427   4.986  -9.880  1.00  0.00     0.049 A 
ATOM     46  N   UNL     1       1.950   6.431 -11.021  1.00  0.00    -0.248 NA
ATOM     47  C   UNL     1       2.595   6.973  -8.844  1.00  0.00     0.031 C 
ATOM     48  C   UNL     1      -1.616   4.275  -9.402  1.00  0.00     0.029 A 
ATOM     49  N   UNL     1      -0.372   4.665 -11.216  1.00  0.00    -0.354 N 
ATOM     50  C   UNL     1       3.138   7.154 -11.060  1.00  0.00     0.074 A 
ATOM     51  C   UNL     1       3.464   7.502  -9.694  1.00  0.00     0.031 C 
ATOM     52  C   UNL     1      -2.150   3.573 -10.412  1.00  0.00     0.029 A 
ATOM     53  C   UNL     1      -1.411   3.866 -11.633  1.00  0.00     0.049 A 
ATOM     54  H   UNL     1       0.342   4.978 -11.817  1.00  0.00     0.167 HD
ATOM     55  C   UNL     1       3.885   7.500 -12.136  1.00  0.00     0.031 A 
ATOM     56  C   UNL     1      -1.769   3.456 -12.864  1.00  0.00     0.031 A 
ATOM     57  C   UNL     1       3.579   7.119 -13.491  1.00  0.00     0.049 A 
ATOM     58  C   UNL     1      -0.964   3.908 -14.048  1.00  0.00     0.074 A 
ATOM     59  C   UNL     1       4.280   7.412 -14.648  1.00  0.00     0.029 A 
ATOM     60  N   UNL     1       2.489   6.351 -13.868  1.00  0.00    -0.354 N 
ATOM     61  N   UNL     1       0.124   4.638 -14.077  1.00  0.00    -0.248 NA
ATOM     62  C   UNL     1      -1.448   3.492 -15.372  1.00  0.00     0.031 C 
ATOM     63  C   UNL     1       3.585   6.865 -15.731  1.00  0.00     0.029 A 
ATOM     64  C   UNL     1       2.486   6.178 -15.242  1.00  0.00     0.049 A 
ATOM     65  H   UNL     1       1.816   5.982 -13.251  1.00  0.00     0.167 HD
ATOM     66  C   UNL     1       0.467   4.752 -15.417  1.00  0.00     0.074 A 
ATOM     67  C   UNL     1      -0.516   3.998 -16.168  1.00  0.00     0.031 C 
ATOM     68  C   UNL     1       1.502   5.424 -15.976  1.00  0.00     0.031 A 
BRANCH  55  69
ATOM     69  C   UNL     1       5.082   8.381 -11.899  1.00  0.00    -0.014 A 
ATOM     70  C   UNL     1       6.237   7.906 -11.258  1.00  0.00     0.009 A 
ATOM     71  C   UNL     1       5.061   9.708 -12.358  1.00  0.00     0.009 A 
ATOM     72  C   UNL     1       7.329   8.753 -11.049  1.00  0.00     0.001 A 
ATOM     73  C   UNL     1       6.165  10.543 -12.176  1.00  0.00     0.001 A 
ATOM     74  C   UNL     1       7.294  10.069 -11.512  1.00  0.00     0.000 A 
ENDBRANCH  55  69
BRANCH  56  75
ATOM     75  C   UNL     1      -2.988   2.621 -13.047  1.00  0.00    -0.014 A 
ATOM     76  C   UNL     1      -2.888   1.293 -13.489  1.00  0.00     0.009 A 
ATOM     77  C   UNL     1      -4.262   3.152 -12.785  1.00  0.00     0.009 A 
ATOM     78  C   UNL     1      -4.038   0.522 -13.681  1.00  0.00     0.001 A 
ATOM     79  C   UNL     1      -5.406   2.369 -12.943  1.00  0.00     0.001 A 
ATOM     80  C   UNL     1      -5.294   1.058 -13.400  1.00  0.00     0.000 A 
ENDBRANCH  56  75
BRANCH  68  81
ATOM     81  C   UNL     1       1.649   5.335 -17.468  1.00  0.00    -0.014 A 
ATOM     82  C   UNL     1       0.764   5.998 -18.333  1.00  0.00     0.009 A 
ATOM     83  C   UNL     1       2.711   4.597 -18.015  1.00  0.00     0.009 A 
ATOM     84  C   UNL     1       0.920   5.893 -19.716  1.00  0.00     0.001 A 
ATOM     85  C   UNL     1       2.882   4.520 -19.398  1.00  0.00     0.001 A 
ATOM     86  C   UNL     1       1.980   5.159 -20.247  1.00  0.00     0.000 A 
ENDBRANCH  68  81
ENDBRANCH  42  43
ENDBRANCH  35  37
ENDBRANCH  34  35
ENDBRANCH  33  34
ENDBRANCH  32  33
ENDBRANCH  31  32
ENDBRANCH   1  31
TORSDOF 17
