REMARK SMILES CN1C(=O)C[C@H](C(=O)Nc2ccc(C(=O)OCCOC(=O)c3ccc(-c4c5nc(c(-c6ccccc6)c6ccc([nH]6)c(-c6ccccc6)c6nc(c(-c7ccccc7)c7ccc4[nH]7)C=C6)C=C5)cc3)cc2)S/C1=[NH+]\c1cccc(C(F)(F)F)c1
REMARK SMILES IDX 17 1 16 2 14 3 15 4 13 5 10 6 11 7 71 8 12 9 70 10 9 11 7 12
REMARK SMILES IDX 8 13 6 15 1 16 2 17 3 18 73 19 4 20 5 21 72 22 74 23 75 25
REMARK SMILES IDX 76 26 84 27 77 28 79 29 78 30 80 31 81 32 82 33 83 34 18 35
REMARK SMILES IDX 19 36 20 37 21 38 22 39 23 40 69 41 24 42 68 43 25 44 26 45
REMARK SMILES IDX 27 46 62 47 28 48 67 49 61 50 63 51 29 52 66 53 60 54 59 55
REMARK SMILES IDX 30 57 52 58 37 59 51 60 38 61 41 62 50 63 64 64 39 65 40 66
REMARK SMILES IDX 49 68 65 69 42 70 31 71 32 72 36 73 33 74 35 75 34 76 53 77
REMARK SMILES IDX 54 78 58 79 55 80 57 81 56 82 43 83 44 84 48 85 45 86 47 87
REMARK SMILES IDX 46 88
REMARK H PARENT 9 14 74 24 63 56 41 67
REMARK Flexibility Score: inf
ROOT
ATOM      1  C   UNL     1      -5.968  -5.907  -5.659  1.00  0.00     0.275 C 
ENDROOT
BRANCH   1   2
ATOM      2  O   UNL     1      -5.235  -5.963  -4.420  1.00  0.00    -0.458 OA
BRANCH   2   3
ATOM      3  C   UNL     1      -5.286  -4.843  -3.659  1.00  0.00     0.338 C 
ATOM      4  O   UNL     1      -5.821  -3.791  -3.949  1.00  0.00    -0.246 OA
BRANCH   3   5
ATOM      5  C   UNL     1      -4.655  -5.079  -2.336  1.00  0.00     0.060 A 
ATOM      6  C   UNL     1      -3.353  -5.218   0.119  1.00  0.00     0.041 A 
ATOM      7  C   UNL     1      -4.497  -4.439   0.006  1.00  0.00     0.027 A 
ATOM      8  C   UNL     1      -2.941  -6.035  -0.939  1.00  0.00     0.027 A 
ATOM      9  C   UNL     1      -5.101  -4.322  -1.240  1.00  0.00     0.018 A 
ATOM     10  C   UNL     1      -3.596  -5.972  -2.170  1.00  0.00     0.018 A 
BRANCH   6  11
ATOM     11  N   UNL     1      -2.554  -5.002   1.245  1.00  0.00    -0.325 N 
ATOM     12  C   UNL     1      -1.323  -4.378   1.233  1.00  0.00     0.238 C 
ATOM     13  O   UNL     1      -0.844  -4.038   2.316  1.00  0.00    -0.273 OA
ATOM     14  H   UNL     1      -2.894  -5.319   2.112  1.00  0.00     0.169 HD
BRANCH  12  15
ATOM     15  C   UNL     1      -0.669  -4.031  -0.110  1.00  0.00     0.160 C 
ATOM     16  C   UNL     1       1.137  -0.111   0.707  1.00  0.00     0.301 C 
ATOM     17  N   UNL     1       0.624  -1.435   0.397  1.00  0.00    -0.194 N 
ATOM     18  C   UNL     1      -0.651  -1.466  -0.156  1.00  0.00     0.311 C 
ATOM     19  C   UNL     1       1.346  -2.534   0.852  1.00  0.00     0.319 C 
ATOM     20  O   UNL     1      -1.362  -0.457  -0.228  1.00  0.00    -0.247 OA
ATOM     21  C   UNL     1      -1.189  -2.755  -0.724  1.00  0.00     0.153 C 
ATOM     22  S   UNL     1       1.109  -4.014  -0.043  1.00  0.00    -0.024 SA
ATOM     23  N   UNL     1       2.176  -2.399   1.841  1.00  0.00    -0.235 N 
ATOM     24  H   UNL     1       2.394  -1.502   2.181  1.00  0.00     0.313 HD
BRANCH  23  25
ATOM     25  C   UNL     1       2.765  -3.531   2.425  1.00  0.00     0.126 A 
ATOM     26  C   UNL     1       2.296  -3.963   3.670  1.00  0.00     0.052 A 
ATOM     27  C   UNL     1       3.765  -4.263   1.782  1.00  0.00     0.064 A 
ATOM     28  C   UNL     1       2.782  -5.136   4.245  1.00  0.00     0.005 A 
ATOM     29  C   UNL     1       4.215  -5.480   2.316  1.00  0.00     0.060 A 
ATOM     30  C   UNL     1       3.728  -5.900   3.564  1.00  0.00     0.013 A 
BRANCH  29  31
ATOM     31  C   UNL     1       5.179  -6.342   1.545  1.00  0.00     0.416 C 
ATOM     32  F   UNL     1       6.430  -6.338   2.080  1.00  0.00    -0.166 F 
ATOM     33  F   UNL     1       4.792  -7.649   1.505  1.00  0.00    -0.166 F 
ATOM     34  F   UNL     1       5.325  -5.965   0.243  1.00  0.00    -0.166 F 
ENDBRANCH  29  31
ENDBRANCH  23  25
ENDBRANCH  12  15
ENDBRANCH   6  11
ENDBRANCH   3   5
ENDBRANCH   2   3
ENDBRANCH   1   2
BRANCH   1  35
ATOM     35  C   UNL     1      -7.303  -6.642  -5.530  1.00  0.00     0.275 C 
BRANCH  35  36
ATOM     36  O   UNL     1      -8.204  -5.928  -4.661  1.00  0.00    -0.458 OA
BRANCH  36  37
ATOM     37  C   UNL     1      -8.306  -6.424  -3.408  1.00  0.00     0.338 C 
ATOM     38  O   UNL     1      -7.749  -7.406  -2.946  1.00  0.00    -0.246 OA
BRANCH  37  39
ATOM     39  C   UNL     1      -9.142  -5.544  -2.580  1.00  0.00     0.060 A 
ATOM     40  C   UNL     1      -8.541  -4.431  -2.005  1.00  0.00     0.016 A 
ATOM     41  C   UNL     1     -10.433  -5.904  -2.210  1.00  0.00     0.016 A 
ATOM     42  C   UNL     1      -9.160  -3.750  -0.965  1.00  0.00     0.010 A 
ATOM     43  C   UNL     1     -11.112  -5.133  -1.256  1.00  0.00     0.010 A 
ATOM     44  C   UNL     1     -10.469  -4.071  -0.589  1.00  0.00    -0.014 A 
BRANCH  44  45
ATOM     45  C   UNL     1     -11.148  -3.313   0.503  1.00  0.00     0.031 A 
ATOM     46  C   UNL     1     -11.723  -4.041   1.693  1.00  0.00     0.074 A 
ATOM     47  C   UNL     1     -11.244  -1.968   0.444  1.00  0.00     0.049 A 
ATOM     48  N   UNL     1     -12.512  -3.591   2.637  1.00  0.00    -0.248 NA
ATOM     49  C   UNL     1     -11.377  -5.465   1.832  1.00  0.00     0.031 C 
ATOM     50  C   UNL     1     -10.681  -1.115  -0.606  1.00  0.00     0.029 A 
ATOM     51  N   UNL     1     -11.851  -1.075   1.296  1.00  0.00    -0.354 N 
ATOM     52  C   UNL     1     -12.803  -4.686   3.444  1.00  0.00     0.074 A 
ATOM     53  C   UNL     1     -12.113  -5.824   2.874  1.00  0.00     0.031 C 
ATOM     54  C   UNL     1     -10.927   0.170  -0.315  1.00  0.00     0.029 A 
ATOM     55  C   UNL     1     -11.761   0.232   0.877  1.00  0.00     0.049 A 
ATOM     56  H   UNL     1     -12.306  -1.345   2.126  1.00  0.00     0.167 HD
ATOM     57  C   UNL     1     -13.575  -4.739   4.557  1.00  0.00     0.031 A 
ATOM     58  C   UNL     1     -12.329   1.354   1.357  1.00  0.00     0.031 A 
ATOM     59  C   UNL     1     -14.235  -3.599   5.139  1.00  0.00     0.049 A 
ATOM     60  C   UNL     1     -13.246   1.256   2.541  1.00  0.00     0.074 A 
ATOM     61  C   UNL     1     -15.038  -3.548   6.265  1.00  0.00     0.029 A 
ATOM     62  N   UNL     1     -14.156  -2.305   4.647  1.00  0.00    -0.354 N 
ATOM     63  N   UNL     1     -13.557   0.205   3.260  1.00  0.00    -0.248 NA
ATOM     64  C   UNL     1     -13.905   2.498   2.969  1.00  0.00     0.031 C 
ATOM     65  C   UNL     1     -15.487  -2.233   6.424  1.00  0.00     0.029 A 
ATOM     66  C   UNL     1     -14.912  -1.453   5.435  1.00  0.00     0.049 A 
ATOM     67  H   UNL     1     -13.639  -2.032   3.855  1.00  0.00     0.167 HD
ATOM     68  C   UNL     1     -14.428   0.663   4.240  1.00  0.00     0.074 A 
ATOM     69  C   UNL     1     -14.579   2.089   4.034  1.00  0.00     0.031 C 
ATOM     70  C   UNL     1     -15.047  -0.036   5.221  1.00  0.00     0.031 A 
BRANCH  57  71
ATOM     71  C   UNL     1     -13.787  -6.085   5.197  1.00  0.00    -0.014 A 
ATOM     72  C   UNL     1     -12.758  -6.747   5.885  1.00  0.00     0.009 A 
ATOM     73  C   UNL     1     -15.057  -6.684   5.142  1.00  0.00     0.009 A 
ATOM     74  C   UNL     1     -12.987  -7.995   6.471  1.00  0.00     0.001 A 
ATOM     75  C   UNL     1     -15.291  -7.916   5.755  1.00  0.00     0.001 A 
ATOM     76  C   UNL     1     -14.253  -8.576   6.410  1.00  0.00     0.000 A 
ENDBRANCH  57  71
BRANCH  58  77
ATOM     77  C   UNL     1     -12.100   2.659   0.679  1.00  0.00    -0.014 A 
ATOM     78  C   UNL     1     -11.396   3.686   1.325  1.00  0.00     0.009 A 
ATOM     79  C   UNL     1     -12.592   2.888  -0.617  1.00  0.00     0.009 A 
ATOM     80  C   UNL     1     -11.211   4.920   0.697  1.00  0.00     0.001 A 
ATOM     81  C   UNL     1     -12.373   4.109  -1.256  1.00  0.00     0.001 A 
ATOM     82  C   UNL     1     -11.693   5.128  -0.594  1.00  0.00     0.000 A 
ENDBRANCH  58  77
BRANCH  70  83
ATOM     83  C   UNL     1     -15.904   0.743   6.179  1.00  0.00    -0.014 A 
ATOM     84  C   UNL     1     -17.144   1.271   5.789  1.00  0.00     0.009 A 
ATOM     85  C   UNL     1     -15.471   0.924   7.502  1.00  0.00     0.009 A 
ATOM     86  C   UNL     1     -17.918   1.995   6.699  1.00  0.00     0.001 A 
ATOM     87  C   UNL     1     -16.261   1.621   8.416  1.00  0.00     0.001 A 
ATOM     88  C   UNL     1     -17.479   2.164   8.011  1.00  0.00     0.000 A 
ENDBRANCH  70  83
ENDBRANCH  44  45
ENDBRANCH  37  39
ENDBRANCH  36  37
ENDBRANCH  35  36
ENDBRANCH   1  35
TORSDOF 15
