REMARK SMILES O=C(Cc1ccc(S(=O)(=O)N[C@H]2CC[C@@H](O)CC2)cc1)OCCOC(=O)c1ccc(-c2c3nc(c(-c4ccccc4)c4ccc([nH]4)c(-c4ccccc4)c4nc(c(-c5ccccc5)c5ccc2[nH]5)C=C4)C=C3)cc1
REMARK SMILES IDX 21 1 2 2 1 3 3 4 4 5 5 6 20 7 6 8 19 9 7 10 8 11 9 12 10 13
REMARK SMILES IDX 11 14 12 16 13 17 18 18 14 19 17 20 15 21 16 22 22 24 23 25
REMARK SMILES IDX 24 26 25 27 26 28 27 29 28 30 74 31 29 32 73 33 30 34 31 35
REMARK SMILES IDX 32 36 67 37 33 38 72 39 66 40 68 41 34 42 71 43 65 44 64 45
REMARK SMILES IDX 35 47 57 48 42 49 56 50 43 51 46 52 55 53 69 54 44 55 45 56
REMARK SMILES IDX 54 58 70 59 47 60 36 61 37 62 41 63 38 64 40 65 39 66 58 67
REMARK SMILES IDX 59 68 63 69 60 70 62 71 61 72 48 73 49 74 53 75 50 76 52 77
REMARK SMILES IDX 51 78
REMARK H PARENT 11 15 16 23 68 46 46 57
REMARK Flexibility Score: inf
ROOT
ATOM      1  O   UNL     1       2.521   0.941  -0.386  1.00  0.00    -0.462 OA
ENDROOT
BRANCH   1   2
ATOM      2  C   UNL     1       1.877  -0.181  -0.792  1.00  0.00     0.310 C 
ATOM      3  O   UNL     1       0.791  -0.095  -1.360  1.00  0.00    -0.252 OA
BRANCH   2   4
ATOM      4  C   UNL     1       2.502  -1.525  -0.510  1.00  0.00     0.158 C 
BRANCH   4   5
ATOM      5  C   UNL     1       3.336  -2.153  -1.600  1.00  0.00    -0.037 A 
ATOM      6  C   UNL     1       3.905  -3.416  -1.342  1.00  0.00     0.006 A 
ATOM      7  C   UNL     1       3.626  -1.508  -2.808  1.00  0.00     0.006 A 
ATOM      8  C   UNL     1       4.817  -3.986  -2.228  1.00  0.00     0.022 A 
ATOM      9  C   UNL     1       4.530  -2.078  -3.704  1.00  0.00     0.022 A 
ATOM     10  C   UNL     1       5.153  -3.292  -3.387  1.00  0.00     0.082 A 
BRANCH  10  11
ATOM     11  S   UNL     1       6.488  -3.857  -4.404  1.00  0.00     0.240 S 
ATOM     12  O   UNL     1       7.300  -4.796  -3.668  1.00  0.00    -0.207 OA
ATOM     13  O   UNL     1       5.922  -4.175  -5.696  1.00  0.00    -0.207 OA
BRANCH  11  14
ATOM     14  N   UNL     1       7.366  -2.438  -4.625  1.00  0.00    -0.208 NA
ATOM     15  H   UNL     1       6.699  -1.677  -4.501  1.00  0.00     0.141 HD
BRANCH  14  16
ATOM     16  C   UNL     1       8.551  -2.067  -3.824  1.00  0.00     0.070 C 
ATOM     17  C   UNL     1       8.407  -2.190  -2.302  1.00  0.00     0.023 C 
ATOM     18  C   UNL     1       8.898  -0.612  -4.196  1.00  0.00     0.023 C 
ATOM     19  C   UNL     1       7.499  -1.150  -1.651  1.00  0.00     0.033 C 
ATOM     20  C   UNL     1       7.886   0.382  -3.628  1.00  0.00     0.033 C 
ATOM     21  C   UNL     1       7.793   0.273  -2.109  1.00  0.00     0.114 C 
BRANCH  21  22
ATOM     22  O   UNL     1       6.765   1.135  -1.627  1.00  0.00    -0.393 OA
ATOM     23  H   UNL     1       5.912   0.859  -1.998  1.00  0.00     0.210 HD
ENDBRANCH  21  22
ENDBRANCH  14  16
ENDBRANCH  11  14
ENDBRANCH  10  11
ENDBRANCH   4   5
ENDBRANCH   2   4
ENDBRANCH   1   2
BRANCH   1  24
ATOM     24  C   UNL     1       3.936   1.033  -0.098  1.00  0.00     0.274 C 
BRANCH  24  25
ATOM     25  C   UNL     1       4.199   1.304   1.383  1.00  0.00     0.275 C 
BRANCH  25  26
ATOM     26  O   UNL     1       3.865   0.134   2.147  1.00  0.00    -0.458 OA
BRANCH  26  27
ATOM     27  C   UNL     1       2.624   0.139   2.690  1.00  0.00     0.338 C 
ATOM     28  O   UNL     1       1.852   1.079   2.753  1.00  0.00    -0.246 OA
BRANCH  27  29
ATOM     29  C   UNL     1       2.245  -1.251   3.020  1.00  0.00     0.060 A 
ATOM     30  C   UNL     1       0.915  -1.625   2.795  1.00  0.00     0.016 A 
ATOM     31  C   UNL     1       3.168  -2.180   3.514  1.00  0.00     0.016 A 
ATOM     32  C   UNL     1       0.490  -2.910   3.119  1.00  0.00     0.010 A 
ATOM     33  C   UNL     1       2.741  -3.468   3.844  1.00  0.00     0.010 A 
ATOM     34  C   UNL     1       1.391  -3.821   3.688  1.00  0.00    -0.014 A 
BRANCH  34  35
ATOM     35  C   UNL     1       0.855  -5.043   4.326  1.00  0.00     0.031 A 
ATOM     36  C   UNL     1       0.460  -4.965   5.775  1.00  0.00     0.074 A 
ATOM     37  C   UNL     1       0.673  -6.178   3.632  1.00  0.00     0.049 A 
ATOM     38  N   UNL     1      -0.153  -5.852   6.516  1.00  0.00    -0.248 NA
ATOM     39  C   UNL     1       0.795  -3.716   6.479  1.00  0.00     0.031 C 
ATOM     40  C   UNL     1       1.001  -6.378   2.222  1.00  0.00     0.029 A 
ATOM     41  N   UNL     1       0.147  -7.381   4.032  1.00  0.00    -0.354 N 
ATOM     42  C   UNL     1      -0.296  -5.258   7.763  1.00  0.00     0.074 A 
ATOM     43  C   UNL     1       0.333  -3.958   7.694  1.00  0.00     0.031 C 
ATOM     44  C   UNL     1       0.661  -7.632   1.871  1.00  0.00     0.029 A 
ATOM     45  C   UNL     1       0.095  -8.318   3.031  1.00  0.00     0.049 A 
ATOM     46  H   UNL     1      -0.162  -7.555   4.950  1.00  0.00     0.167 HD
ATOM     47  C   UNL     1      -0.909  -5.743   8.867  1.00  0.00     0.031 A 
ATOM     48  C   UNL     1      -0.373  -9.580   3.051  1.00  0.00     0.031 A 
ATOM     49  C   UNL     1      -1.505  -7.046   8.955  1.00  0.00     0.049 A 
ATOM     50  C   UNL     1      -0.991 -10.124   4.312  1.00  0.00     0.074 A 
ATOM     51  C   UNL     1      -2.160  -7.627  10.025  1.00  0.00     0.029 A 
ATOM     52  N   UNL     1      -1.500  -7.978   7.929  1.00  0.00    -0.354 N 
ATOM     53  N   UNL     1      -1.187  -9.527   5.463  1.00  0.00    -0.248 NA
ATOM     54  C   UNL     1      -1.473 -11.512   4.265  1.00  0.00     0.031 C 
ATOM     55  C   UNL     1      -2.516  -8.931   9.660  1.00  0.00     0.029 A 
ATOM     56  C   UNL     1      -2.120  -9.141   8.349  1.00  0.00     0.049 A 
ATOM     57  H   UNL     1      -1.114  -7.833   7.036  1.00  0.00     0.167 HD
ATOM     58  C   UNL     1      -1.851 -10.451   6.261  1.00  0.00     0.074 A 
ATOM     59  C   UNL     1      -2.023 -11.648   5.464  1.00  0.00     0.031 C 
ATOM     60  C   UNL     1      -2.289 -10.317   7.537  1.00  0.00     0.031 A 
BRANCH  47  61
ATOM     61  C   UNL     1      -0.933  -4.852  10.073  1.00  0.00    -0.014 A 
ATOM     62  C   UNL     1      -1.778  -3.732  10.127  1.00  0.00     0.009 A 
ATOM     63  C   UNL     1      -0.092  -5.126  11.162  1.00  0.00     0.009 A 
ATOM     64  C   UNL     1      -1.754  -2.883  11.234  1.00  0.00     0.001 A 
ATOM     65  C   UNL     1      -0.086  -4.287  12.277  1.00  0.00     0.001 A 
ATOM     66  C   UNL     1      -0.909  -3.161  12.308  1.00  0.00     0.000 A 
ENDBRANCH  47  61
BRANCH  48  67
ATOM     67  C   UNL     1      -0.310 -10.419   1.828  1.00  0.00    -0.014 A 
ATOM     68  C   UNL     1      -1.476 -10.711   1.104  1.00  0.00     0.009 A 
ATOM     69  C   UNL     1       0.912 -10.956   1.396  1.00  0.00     0.009 A 
ATOM     70  C   UNL     1      -1.424 -11.547  -0.013  1.00  0.00     0.001 A 
ATOM     71  C   UNL     1       0.964 -11.774   0.266  1.00  0.00     0.001 A 
ATOM     72  C   UNL     1      -0.204 -12.076  -0.433  1.00  0.00     0.000 A 
ENDBRANCH  48  67
BRANCH  60  73
ATOM     73  C   UNL     1      -3.038 -11.474   8.133  1.00  0.00    -0.014 A 
ATOM     74  C   UNL     1      -2.374 -12.639   8.546  1.00  0.00     0.009 A 
ATOM     75  C   UNL     1      -4.425 -11.375   8.323  1.00  0.00     0.009 A 
ATOM     76  C   UNL     1      -3.091 -13.694   9.113  1.00  0.00     0.001 A 
ATOM     77  C   UNL     1      -5.135 -12.422   8.911  1.00  0.00     0.001 A 
ATOM     78  C   UNL     1      -4.469 -13.583   9.298  1.00  0.00     0.000 A 
ENDBRANCH  60  73
ENDBRANCH  34  35
ENDBRANCH  27  29
ENDBRANCH  26  27
ENDBRANCH  25  26
ENDBRANCH  24  25
ENDBRANCH   1  24
TORSDOF 16
