REMARK SMILES C[C@H](C(=O)OCCOC(=O)c1ccc(-c2c3nc(c(-c4ccccc4)c4ccc([nH]4)c(-c4ccccc4)c4nc(c(-c5ccccc5)c5ccc2[nH]5)C=C4)C=C3)cc1)N1C(=O)C[C@@H](N2C(=O)/C(=C/c3ccccc3)SC2=S)C1=O
REMARK SMILES IDX 6 1 5 2 3 3 4 4 2 5 1 6 59 7 60 8 78 9 61 10 62 11 63 12
REMARK SMILES IDX 79 13 64 14 65 15 76 16 66 17 67 18 75 19 77 20 68 21 69 22
REMARK SMILES IDX 70 23 74 24 71 25 73 26 72 27 7 28 8 29 9 30 10 31 11 32
REMARK SMILES IDX 12 33 58 34 13 35 57 36 14 37 15 38 16 39 51 40 17 41 56 42
REMARK SMILES IDX 50 43 52 44 18 45 55 46 49 47 48 48 19 50 41 51 26 52 40 53
REMARK SMILES IDX 27 54 30 55 39 56 53 57 28 58 29 59 38 61 54 62 31 63 20 64
REMARK SMILES IDX 21 65 25 66 22 67 24 68 23 69 42 70 43 71 47 72 44 73 46 74
REMARK SMILES IDX 45 75 32 76 33 77 37 78 34 79 36 80 35 81
REMARK H PARENT 52 49 30 60
REMARK Flexibility Score: inf
ROOT
ATOM      1  C   UNL     1       2.007   1.850   0.621  1.00  0.00     0.274 C 
ENDROOT
BRANCH   1   2
ATOM      2  O   UNL     1       1.193   0.717   0.973  1.00  0.00    -0.461 OA
BRANCH   2   3
ATOM      3  C   UNL     1       0.610   0.042  -0.055  1.00  0.00     0.329 C 
ATOM      4  O   UNL     1       0.619   0.398  -1.228  1.00  0.00    -0.250 OA
BRANCH   3   5
ATOM      5  C   UNL     1      -0.049  -1.257   0.420  1.00  0.00     0.200 C 
ATOM      6  C   UNL     1       0.270  -1.678   1.848  1.00  0.00     0.044 C 
BRANCH   5   7
ATOM      7  N   UNL     1      -1.470  -1.261   0.130  1.00  0.00    -0.267 N 
ATOM      8  C   UNL     1      -2.306  -0.204   0.335  1.00  0.00     0.232 C 
ATOM      9  C   UNL     1      -2.147  -2.406  -0.171  1.00  0.00     0.253 C 
ATOM     10  O   UNL     1      -2.009   0.870   0.835  1.00  0.00    -0.274 OA
ATOM     11  C   UNL     1      -3.681  -0.556  -0.151  1.00  0.00     0.136 C 
ATOM     12  C   UNL     1      -3.618  -2.069  -0.300  1.00  0.00     0.191 C 
ATOM     13  O   UNL     1      -1.673  -3.528  -0.285  1.00  0.00    -0.272 OA
BRANCH  12  14
ATOM     14  N   UNL     1      -4.123  -2.626  -1.555  1.00  0.00    -0.280 N 
ATOM     15  C   UNL     1      -3.548  -2.213  -2.746  1.00  0.00     0.266 C 
ATOM     16  C   UNL     1      -5.095  -3.600  -1.651  1.00  0.00     0.149 C 
ATOM     17  O   UNL     1      -2.651  -1.387  -2.848  1.00  0.00    -0.268 OA
ATOM     18  C   UNL     1      -4.171  -2.906  -3.896  1.00  0.00     0.081 C 
ATOM     19  S   UNL     1      -5.363  -4.009  -3.340  1.00  0.00    -0.054 SA
ATOM     20  S   UNL     1      -5.971  -4.305  -0.421  1.00  0.00    -0.052 S 
ATOM     21  C   UNL     1      -3.810  -2.632  -5.156  1.00  0.00     0.029 C 
BRANCH  21  22
ATOM     22  C   UNL     1      -4.451  -3.174  -6.356  1.00  0.00    -0.024 A 
ATOM     23  C   UNL     1      -3.725  -3.963  -7.252  1.00  0.00     0.008 A 
ATOM     24  C   UNL     1      -5.789  -2.867  -6.635  1.00  0.00     0.008 A 
ATOM     25  C   UNL     1      -4.340  -4.456  -8.405  1.00  0.00     0.001 A 
ATOM     26  C   UNL     1      -6.402  -3.363  -7.785  1.00  0.00     0.001 A 
ATOM     27  C   UNL     1      -5.677  -4.158  -8.669  1.00  0.00     0.000 A 
ENDBRANCH  21  22
ENDBRANCH  12  14
ENDBRANCH   5   7
ENDBRANCH   3   5
ENDBRANCH   2   3
ENDBRANCH   1   2
BRANCH   1  28
ATOM     28  C   UNL     1       3.467   1.498   0.889  1.00  0.00     0.275 C 
BRANCH  28  29
ATOM     29  O   UNL     1       3.785   0.281   0.184  1.00  0.00    -0.458 OA
BRANCH  29  30
ATOM     30  C   UNL     1       4.161  -0.766   0.955  1.00  0.00     0.338 C 
ATOM     31  O   UNL     1       4.406  -0.753   2.149  1.00  0.00    -0.246 OA
BRANCH  30  32
ATOM     32  C   UNL     1       4.195  -2.006   0.150  1.00  0.00     0.060 A 
ATOM     33  C   UNL     1       3.208  -2.279  -0.799  1.00  0.00     0.016 A 
ATOM     34  C   UNL     1       5.166  -2.966   0.432  1.00  0.00     0.016 A 
ATOM     35  C   UNL     1       3.137  -3.538  -1.397  1.00  0.00     0.010 A 
ATOM     36  C   UNL     1       5.164  -4.181  -0.260  1.00  0.00     0.010 A 
ATOM     37  C   UNL     1       4.135  -4.495  -1.167  1.00  0.00    -0.014 A 
BRANCH  37  38
ATOM     38  C   UNL     1       4.139  -5.809  -1.872  1.00  0.00     0.031 A 
ATOM     39  C   UNL     1       4.217  -7.095  -1.089  1.00  0.00     0.074 A 
ATOM     40  C   UNL     1       4.137  -5.861  -3.220  1.00  0.00     0.049 A 
ATOM     41  N   UNL     1       4.505  -8.303  -1.506  1.00  0.00    -0.248 NA
ATOM     42  C   UNL     1       3.958  -7.006   0.357  1.00  0.00     0.031 C 
ATOM     43  C   UNL     1       4.022  -4.713  -4.122  1.00  0.00     0.029 A 
ATOM     44  N   UNL     1       4.250  -6.935  -4.071  1.00  0.00    -0.354 N 
ATOM     45  C   UNL     1       4.530  -9.102  -0.368  1.00  0.00     0.074 A 
ATOM     46  C   UNL     1       4.224  -8.242   0.756  1.00  0.00     0.031 C 
ATOM     47  C   UNL     1       4.042  -5.143  -5.392  1.00  0.00     0.029 A 
ATOM     48  C   UNL     1       4.272  -6.582  -5.399  1.00  0.00     0.049 A 
ATOM     49  H   UNL     1       4.309  -7.867  -3.759  1.00  0.00     0.167 HD
ATOM     50  C   UNL     1       4.793 -10.428  -0.269  1.00  0.00     0.031 A 
ATOM     51  C   UNL     1       4.508  -7.313  -6.503  1.00  0.00     0.031 A 
ATOM     52  C   UNL     1       5.051 -11.292  -1.391  1.00  0.00     0.049 A 
ATOM     53  C   UNL     1       4.839  -8.770  -6.366  1.00  0.00     0.074 A 
ATOM     54  C   UNL     1       5.298 -12.655  -1.392  1.00  0.00     0.029 A 
ATOM     55  N   UNL     1       5.081 -10.881  -2.715  1.00  0.00    -0.354 N 
ATOM     56  N   UNL     1       4.910  -9.502  -5.282  1.00  0.00    -0.248 NA
ATOM     57  C   UNL     1       5.140  -9.497  -7.608  1.00  0.00     0.031 C 
ATOM     58  C   UNL     1       5.519 -13.061  -2.712  1.00  0.00     0.029 A 
ATOM     59  C   UNL     1       5.359 -11.960  -3.538  1.00  0.00     0.049 A 
ATOM     60  H   UNL     1       4.927  -9.959  -3.024  1.00  0.00     0.167 HD
ATOM     61  C   UNL     1       5.248 -10.778  -5.710  1.00  0.00     0.074 A 
ATOM     62  C   UNL     1       5.349 -10.725  -7.154  1.00  0.00     0.031 C 
ATOM     63  C   UNL     1       5.457 -11.894  -4.972  1.00  0.00     0.031 A 
BRANCH  50  64
ATOM     64  C   UNL     1       4.859 -11.025   1.110  1.00  0.00    -0.014 A 
ATOM     65  C   UNL     1       3.705 -11.237   1.879  1.00  0.00     0.009 A 
ATOM     66  C   UNL     1       6.102 -11.427   1.627  1.00  0.00     0.009 A 
ATOM     67  C   UNL     1       3.799 -11.809   3.151  1.00  0.00     0.001 A 
ATOM     68  C   UNL     1       6.190 -12.023   2.885  1.00  0.00     0.001 A 
ATOM     69  C   UNL     1       5.040 -12.206   3.650  1.00  0.00     0.000 A 
ENDBRANCH  50  64
BRANCH  51  70
ATOM     70  C   UNL     1       4.494  -6.661  -7.839  1.00  0.00    -0.014 A 
ATOM     71  C   UNL     1       3.465  -6.934  -8.751  1.00  0.00     0.009 A 
ATOM     72  C   UNL     1       5.504  -5.756  -8.203  1.00  0.00     0.009 A 
ATOM     73  C   UNL     1       3.455  -6.324 -10.008  1.00  0.00     0.001 A 
ATOM     74  C   UNL     1       5.475  -5.125  -9.447  1.00  0.00     0.001 A 
ATOM     75  C   UNL     1       4.455  -5.415 -10.351  1.00  0.00     0.000 A 
ENDBRANCH  51  70
BRANCH  63  76
ATOM     76  C   UNL     1       5.776 -13.156  -5.720  1.00  0.00    -0.014 A 
ATOM     77  C   UNL     1       7.036 -13.358  -6.303  1.00  0.00     0.009 A 
ATOM     78  C   UNL     1       4.806 -14.165  -5.823  1.00  0.00     0.009 A 
ATOM     79  C   UNL     1       7.307 -14.535  -7.004  1.00  0.00     0.001 A 
ATOM     80  C   UNL     1       5.088 -15.351  -6.502  1.00  0.00     0.001 A 
ATOM     81  C   UNL     1       6.335 -15.531  -7.100  1.00  0.00     0.000 A 
ENDBRANCH  63  76
ENDBRANCH  37  38
ENDBRANCH  30  32
ENDBRANCH  29  30
ENDBRANCH  28  29
ENDBRANCH   1  28
TORSDOF 14
