REMARK SMILES C/C(=C/C[N@H+]1C[C@H]2CCC[N@H+]2C[C@@H]1C)C(=O)OCCOC(=O)c1ccc(-c2c3nc(c(-c4ccccc4)c4ccc([nH]4)c(-c4ccccc4)c4nc(c(-c5ccccc5)c5ccc2[nH]5)C=C4)C=C3)cc1
REMARK SMILES IDX 18 1 17 2 15 3 16 4 2 5 1 6 3 7 4 8 5 9 6 10 13 11 7 13
REMARK SMILES IDX 12 14 14 15 8 16 11 17 9 18 10 19 19 21 20 22 21 23 22 24
REMARK SMILES IDX 23 25 24 26 70 27 25 28 69 29 26 30 27 31 28 32 63 33 29 34
REMARK SMILES IDX 68 35 62 36 64 37 30 38 67 39 61 40 60 41 31 43 53 44 38 45
REMARK SMILES IDX 52 46 39 47 42 48 51 49 65 50 40 51 41 52 50 54 66 55 43 56
REMARK SMILES IDX 32 57 33 58 37 59 34 60 36 61 35 62 54 63 55 64 59 65 56 66
REMARK SMILES IDX 58 67 57 68 44 69 45 70 49 71 46 72 48 73 47 74
REMARK H PARENT 5 12 11 20 64 42 42 53
REMARK Flexibility Score: inf
ROOT
ATOM      1  C   UNL     1       1.010  -1.462   4.474  1.00  0.00     0.275 C 
ENDROOT
BRANCH   1   2
ATOM      2  O   UNL     1       0.364  -0.607   3.512  1.00  0.00    -0.459 OA
BRANCH   2   3
ATOM      3  C   UNL     1       1.157   0.060   2.640  1.00  0.00     0.333 C 
ATOM      4  O   UNL     1       2.375  -0.018   2.578  1.00  0.00    -0.247 OA
BRANCH   3   5
ATOM      5  C   UNL     1       0.335   0.761   1.612  1.00  0.00     0.036 C 
ATOM      6  C   UNL     1       0.908   0.801   0.223  1.00  0.00     0.052 C 
ATOM      7  C   UNL     1      -0.791   1.449   1.880  1.00  0.00     0.044 C 
BRANCH   7   8
ATOM      8  C   UNL     1      -1.391   1.782   3.213  1.00  0.00     0.292 C 
BRANCH   8   9
ATOM      9  N   UNL     1      -0.723   2.956   3.781  1.00  0.00    -0.320 N 
ATOM     10  C   UNL     1      -0.861   4.160   2.947  1.00  0.00     0.328 C 
ATOM     11  C   UNL     1      -1.127   3.207   5.187  1.00  0.00     0.237 C 
ATOM     12  H   UNL     1       0.272   2.730   3.791  1.00  0.00     0.348 HD
ATOM     13  C   UNL     1      -0.114   5.354   3.570  1.00  0.00     0.240 C 
ATOM     14  C   UNL     1      -1.434   4.704   5.523  1.00  0.00     0.328 C 
ATOM     15  C   UNL     1      -0.017   2.663   6.090  1.00  0.00     0.081 C 
ATOM     16  C   UNL     1      -0.328   6.642   2.776  1.00  0.00     0.077 C 
ATOM     17  N   UNL     1      -0.474   5.666   4.969  1.00  0.00    -0.323 N 
ATOM     18  C   UNL     1      -0.276   7.720   3.839  1.00  0.00     0.068 C 
ATOM     19  C   UNL     1      -0.957   7.048   5.018  1.00  0.00     0.263 C 
ATOM     20  H   UNL     1       0.350   5.580   5.564  1.00  0.00     0.348 HD
ENDBRANCH   8   9
ENDBRANCH   7   8
ENDBRANCH   3   5
ENDBRANCH   2   3
ENDBRANCH   1   2
BRANCH   1  21
ATOM     21  C   UNL     1       0.571  -2.907   4.245  1.00  0.00     0.275 C 
BRANCH  21  22
ATOM     22  O   UNL     1       1.143  -3.384   3.015  1.00  0.00    -0.458 OA
BRANCH  22  23
ATOM     23  C   UNL     1       0.295  -3.488   1.970  1.00  0.00     0.338 C 
ATOM     24  O   UNL     1      -0.916  -3.339   1.958  1.00  0.00    -0.246 OA
BRANCH  23  25
ATOM     25  C   UNL     1       1.088  -3.749   0.764  1.00  0.00     0.060 A 
ATOM     26  C   UNL     1       1.729  -2.677   0.148  1.00  0.00     0.016 A 
ATOM     27  C   UNL     1       1.139  -5.023   0.203  1.00  0.00     0.016 A 
ATOM     28  C   UNL     1       2.375  -2.852  -1.070  1.00  0.00     0.010 A 
ATOM     29  C   UNL     1       1.856  -5.215  -0.982  1.00  0.00     0.010 A 
ATOM     30  C   UNL     1       2.462  -4.128  -1.641  1.00  0.00    -0.014 A 
BRANCH  30  31
ATOM     31  C   UNL     1       3.173  -4.324  -2.930  1.00  0.00     0.031 A 
ATOM     32  C   UNL     1       2.424  -4.810  -4.139  1.00  0.00     0.074 A 
ATOM     33  C   UNL     1       4.492  -4.063  -3.022  1.00  0.00     0.049 A 
ATOM     34  N   UNL     1       2.891  -5.202  -5.297  1.00  0.00    -0.248 NA
ATOM     35  C   UNL     1       0.958  -4.870  -4.029  1.00  0.00     0.031 C 
ATOM     36  C   UNL     1       5.332  -3.532  -1.946  1.00  0.00     0.029 A 
ATOM     37  N   UNL     1       5.358  -4.208  -4.077  1.00  0.00    -0.354 N 
ATOM     38  C   UNL     1       1.784  -5.603  -6.034  1.00  0.00     0.074 A 
ATOM     39  C   UNL     1       0.621  -5.403  -5.195  1.00  0.00     0.031 C 
ATOM     40  C   UNL     1       6.583  -3.373  -2.404  1.00  0.00     0.029 A 
ATOM     41  C   UNL     1       6.652  -3.862  -3.776  1.00  0.00     0.049 A 
ATOM     42  H   UNL     1       5.078  -4.530  -4.965  1.00  0.00     0.167 HD
ATOM     43  C   UNL     1       1.742  -6.099  -7.293  1.00  0.00     0.031 A 
ATOM     44  C   UNL     1       7.779  -3.965  -4.504  1.00  0.00     0.031 A 
ATOM     45  C   UNL     1       2.893  -6.269  -8.139  1.00  0.00     0.049 A 
ATOM     46  C   UNL     1       7.714  -4.565  -5.878  1.00  0.00     0.074 A 
ATOM     47  C   UNL     1       2.948  -6.756  -9.434  1.00  0.00     0.029 A 
ATOM     48  N   UNL     1       4.190  -5.943  -7.777  1.00  0.00    -0.354 N 
ATOM     49  N   UNL     1       6.668  -4.989  -6.544  1.00  0.00    -0.248 NA
ATOM     50  C   UNL     1       8.990  -4.721  -6.592  1.00  0.00     0.031 C 
ATOM     51  C   UNL     1       4.286  -6.758  -9.843  1.00  0.00     0.029 A 
ATOM     52  C   UNL     1       5.056  -6.235  -8.817  1.00  0.00     0.049 A 
ATOM     53  H   UNL     1       4.456  -5.560  -6.910  1.00  0.00     0.167 HD
ATOM     54  C   UNL     1       7.157  -5.460  -7.754  1.00  0.00     0.074 A 
ATOM     55  C   UNL     1       8.590  -5.249  -7.741  1.00  0.00     0.031 C 
ATOM     56  C   UNL     1       6.479  -6.025  -8.782  1.00  0.00     0.031 A 
BRANCH  43  57
ATOM     57  C   UNL     1       0.406  -6.540  -7.817  1.00  0.00    -0.014 A 
ATOM     58  C   UNL     1      -0.556  -5.612  -8.244  1.00  0.00     0.009 A 
ATOM     59  C   UNL     1       0.121  -7.911  -7.912  1.00  0.00     0.009 A 
ATOM     60  C   UNL     1      -1.789  -6.051  -8.732  1.00  0.00     0.001 A 
ATOM     61  C   UNL     1      -1.103  -8.347  -8.420  1.00  0.00     0.001 A 
ATOM     62  C   UNL     1      -2.060  -7.417  -8.823  1.00  0.00     0.000 A 
ENDBRANCH  43  57
BRANCH  44  63
ATOM     63  C   UNL     1       9.078  -3.543  -3.921  1.00  0.00    -0.014 A 
ATOM     64  C   UNL     1       9.724  -2.387  -4.380  1.00  0.00     0.009 A 
ATOM     65  C   UNL     1       9.673  -4.294  -2.894  1.00  0.00     0.009 A 
ATOM     66  C   UNL     1      10.948  -1.997  -3.830  1.00  0.00     0.001 A 
ATOM     67  C   UNL     1      10.882  -3.887  -2.328  1.00  0.00     0.001 A 
ATOM     68  C   UNL     1      11.522  -2.743  -2.801  1.00  0.00     0.000 A 
ENDBRANCH  44  63
BRANCH  56  69
ATOM     69  C   UNL     1       7.281  -6.440  -9.979  1.00  0.00    -0.014 A 
ATOM     70  C   UNL     1       8.048  -7.615  -9.959  1.00  0.00     0.009 A 
ATOM     71  C   UNL     1       7.242  -5.667 -11.149  1.00  0.00     0.009 A 
ATOM     72  C   UNL     1       8.781  -7.995 -11.084  1.00  0.00     0.001 A 
ATOM     73  C   UNL     1       7.960  -6.060 -12.278  1.00  0.00     0.001 A 
ATOM     74  C   UNL     1       8.734  -7.220 -12.243  1.00  0.00     0.000 A 
ENDBRANCH  56  69
ENDBRANCH  30  31
ENDBRANCH  23  25
ENDBRANCH  22  23
ENDBRANCH  21  22
ENDBRANCH   1  21
TORSDOF 13
