REMARK SMILES CCCN1C(=O)/C(=C\c2ccc(OC)c(OC)c2C(=O)OCCOC(=O)c2ccc(-c3c4nc(c(-c5ccccc5)c5ccc([nH]5)c(-c5ccccc5)c5nc(c(-c6ccccc6)c6ccc3[nH]6)C=C5)C=C4)cc2)S/C1=[NH+]\c1nccs1
REMARK SMILES IDX 22 1 21 2 19 3 20 4 18 5 9 6 10 7 11 8 15 9 12 10 8 11 4 12
REMARK SMILES IDX 5 13 76 14 6 15 7 16 75 17 77 18 3 20 2 21 1 22 78 23 79 24
REMARK SMILES IDX 82 25 80 26 81 27 16 28 17 29 13 30 14 31 23 32 24 33 25 34
REMARK SMILES IDX 26 35 27 36 28 37 74 38 29 39 73 40 30 41 31 42 32 43 67 44
REMARK SMILES IDX 33 45 72 46 66 47 68 48 34 49 71 50 65 51 64 52 35 54 57 55
REMARK SMILES IDX 42 56 56 57 43 58 46 59 55 60 69 61 44 62 45 63 54 65 70 66
REMARK SMILES IDX 47 67 36 68 37 69 41 70 38 71 40 72 39 73 58 74 59 75 63 76
REMARK SMILES IDX 60 77 62 78 61 79 48 80 49 81 53 82 50 83 52 84 51 85
REMARK H PARENT 77 19 68 53 46 64
REMARK Flexibility Score: inf
ROOT
ATOM      1  C   UNL     1       2.880   3.311  -4.091  1.00  0.00     0.275 C 
ENDROOT
BRANCH   1   2
ATOM      2  O   UNL     1       1.948   4.410  -4.026  1.00  0.00    -0.458 OA
BRANCH   2   3
ATOM      3  C   UNL     1       1.635   4.848  -2.783  1.00  0.00     0.342 C 
ATOM      4  O   UNL     1       2.039   4.363  -1.740  1.00  0.00    -0.246 OA
BRANCH   3   5
ATOM      5  C   UNL     1       0.658   5.959  -2.870  1.00  0.00     0.113 A 
ATOM      6  C   UNL     1      -0.613   5.655  -3.449  1.00  0.00    -0.006 A 
ATOM      7  C   UNL     1      -1.552   6.672  -3.635  1.00  0.00     0.013 A 
ATOM      8  C   UNL     1      -1.284   7.952  -3.168  1.00  0.00     0.051 A 
ATOM      9  C   UNL     1       0.928   7.252  -2.368  1.00  0.00     0.175 A 
ATOM     10  C   UNL     1      -0.075   8.239  -2.526  1.00  0.00     0.161 A 
BRANCH   6  11
ATOM     11  C   UNL     1      -1.039   4.291  -3.834  1.00  0.00     0.032 C 
ATOM     12  N   UNL     1      -0.072   2.177  -1.188  1.00  0.00    -0.219 N 
ATOM     13  C   UNL     1      -0.759   3.322  -1.528  1.00  0.00     0.321 C 
ATOM     14  C   UNL     1      -0.150   1.141  -2.086  1.00  0.00     0.271 C 
ATOM     15  O   UNL     1      -1.028   4.268  -0.803  1.00  0.00    -0.250 OA
ATOM     16  C   UNL     1      -1.093   3.259  -2.977  1.00  0.00     0.100 C 
ATOM     17  S   UNL     1      -1.165   1.606  -3.450  1.00  0.00    -0.012 SA
ATOM     18  N   UNL     1       0.460   0.025  -1.885  1.00  0.00    -0.228 N 
ATOM     19  H   UNL     1       1.067  -0.085  -1.118  1.00  0.00     0.268 HD
BRANCH  12  20
ATOM     20  C   UNL     1       0.795   2.186  -0.015  1.00  0.00     0.206 C 
BRANCH  20  21
ATOM     21  C   UNL     1       0.325   1.333   1.163  1.00  0.00     0.035 C 
ATOM     22  C   UNL     1       0.849  -0.096   1.135  1.00  0.00     0.007 C 
ENDBRANCH  20  21
ENDBRANCH  12  20
BRANCH  18  23
ATOM     23  C   UNL     1       0.250  -0.991  -2.749  1.00  0.00     0.319 A 
ATOM     24  N   UNL     1       0.824  -1.181  -3.918  1.00  0.00    -0.101 NA
ATOM     25  S   UNL     1      -0.819  -2.263  -2.255  1.00  0.00    -0.070 S 
ATOM     26  C   UNL     1       0.413  -2.385  -4.458  1.00  0.00     0.219 A 
ATOM     27  C   UNL     1      -0.480  -3.108  -3.700  1.00  0.00     0.110 A 
ENDBRANCH  18  23
ENDBRANCH   6  11
BRANCH   9  28
ATOM     28  O   UNL     1       2.059   7.716  -1.760  1.00  0.00    -0.492 OA
ATOM     29  C   UNL     1       3.062   6.869  -1.231  1.00  0.00     0.278 C 
ENDBRANCH   9  28
BRANCH  10  30
ATOM     30  O   UNL     1      -0.050   9.505  -1.986  1.00  0.00    -0.493 OA
ATOM     31  C   UNL     1       1.131  10.260  -2.217  1.00  0.00     0.278 C 
ENDBRANCH  10  30
ENDBRANCH   3   5
ENDBRANCH   2   3
ENDBRANCH   1   2
BRANCH   1  32
ATOM     32  C   UNL     1       3.945   3.591  -5.151  1.00  0.00     0.275 C 
BRANCH  32  33
ATOM     33  O   UNL     1       4.644   4.812  -4.848  1.00  0.00    -0.458 OA
BRANCH  33  34
ATOM     34  C   UNL     1       4.095   5.926  -5.398  1.00  0.00     0.338 C 
ATOM     35  O   UNL     1       3.161   5.985  -6.173  1.00  0.00    -0.246 OA
BRANCH  34  36
ATOM     36  C   UNL     1       4.715   7.120  -4.792  1.00  0.00     0.060 A 
ATOM     37  C   UNL     1       3.865   8.158  -4.403  1.00  0.00     0.016 A 
ATOM     38  C   UNL     1       6.098   7.236  -4.621  1.00  0.00     0.016 A 
ATOM     39  C   UNL     1       4.393   9.302  -3.814  1.00  0.00     0.010 A 
ATOM     40  C   UNL     1       6.629   8.401  -4.060  1.00  0.00     0.010 A 
ATOM     41  C   UNL     1       5.776   9.439  -3.655  1.00  0.00    -0.014 A 
BRANCH  41  42
ATOM     42  C   UNL     1       6.305  10.736  -3.186  1.00  0.00     0.031 A 
ATOM     43  C   UNL     1       6.554  11.817  -4.196  1.00  0.00     0.074 A 
ATOM     44  C   UNL     1       6.472  10.976  -1.874  1.00  0.00     0.049 A 
ATOM     45  N   UNL     1       7.005  13.030  -4.014  1.00  0.00    -0.248 NA
ATOM     46  C   UNL     1       6.228  11.493  -5.594  1.00  0.00     0.031 C 
ATOM     47  C   UNL     1       6.152  10.041  -0.797  1.00  0.00     0.029 A 
ATOM     48  N   UNL     1       6.938  12.091  -1.226  1.00  0.00    -0.354 N 
ATOM     49  C   UNL     1       7.014  13.616  -5.273  1.00  0.00     0.074 A 
ATOM     50  C   UNL     1       6.529  12.626  -6.210  1.00  0.00     0.031 C 
ATOM     51  C   UNL     1       6.433  10.623   0.382  1.00  0.00     0.029 A 
ATOM     52  C   UNL     1       6.993  11.950   0.140  1.00  0.00     0.049 A 
ATOM     53  H   UNL     1       7.208  12.914  -1.694  1.00  0.00     0.167 HD
ATOM     54  C   UNL     1       7.404  14.864  -5.619  1.00  0.00     0.031 A 
ATOM     55  C   UNL     1       7.470  12.790   1.079  1.00  0.00     0.031 A 
ATOM     56  C   UNL     1       7.939  15.825  -4.694  1.00  0.00     0.049 A 
ATOM     57  C   UNL     1       8.033  14.120   0.649  1.00  0.00     0.074 A 
ATOM     58  C   UNL     1       8.428  17.093  -4.952  1.00  0.00     0.029 A 
ATOM     59  N   UNL     1       8.070  15.612  -3.330  1.00  0.00    -0.354 N 
ATOM     60  N   UNL     1       8.066  14.656  -0.547  1.00  0.00    -0.248 NA
ATOM     61  C   UNL     1       8.633  14.956   1.699  1.00  0.00     0.031 C 
ATOM     62  C   UNL     1       8.907  17.625  -3.750  1.00  0.00     0.029 A 
ATOM     63  C   UNL     1       8.661  16.713  -2.736  1.00  0.00     0.049 A 
ATOM     64  H   UNL     1       7.784  14.798  -2.855  1.00  0.00     0.167 HD
ATOM     65  C   UNL     1       8.670  15.898  -0.392  1.00  0.00     0.074 A 
ATOM     66  C   UNL     1       8.971  16.043   1.018  1.00  0.00     0.031 C 
ATOM     67  C   UNL     1       8.951  16.834  -1.330  1.00  0.00     0.031 A 
BRANCH  54  68
ATOM     68  C   UNL     1       7.337  15.216  -7.076  1.00  0.00    -0.014 A 
ATOM     69  C   UNL     1       6.111  15.466  -7.713  1.00  0.00     0.009 A 
ATOM     70  C   UNL     1       8.521  15.283  -7.825  1.00  0.00     0.009 A 
ATOM     71  C   UNL     1       6.072  15.740  -9.082  1.00  0.00     0.001 A 
ATOM     72  C   UNL     1       8.481  15.581  -9.188  1.00  0.00     0.001 A 
ATOM     73  C   UNL     1       7.256  15.799  -9.817  1.00  0.00     0.000 A 
ENDBRANCH  54  68
BRANCH  55  74
ATOM     74  C   UNL     1       7.493  12.384   2.510  1.00  0.00    -0.014 A 
ATOM     75  C   UNL     1       6.711  13.054   3.464  1.00  0.00     0.009 A 
ATOM     76  C   UNL     1       8.332  11.341   2.937  1.00  0.00     0.009 A 
ATOM     77  C   UNL     1       6.788  12.704   4.815  1.00  0.00     0.001 A 
ATOM     78  C   UNL     1       8.384  10.974   4.284  1.00  0.00     0.001 A 
ATOM     79  C   UNL     1       7.620  11.662   5.223  1.00  0.00     0.000 A 
ENDBRANCH  55  74
BRANCH  67  80
ATOM     80  C   UNL     1       9.590  18.111  -0.862  1.00  0.00    -0.014 A 
ATOM     81  C   UNL     1      10.939  18.151  -0.479  1.00  0.00     0.009 A 
ATOM     82  C   UNL     1       8.846  19.301  -0.867  1.00  0.00     0.009 A 
ATOM     83  C   UNL     1      11.524  19.357  -0.086  1.00  0.00     0.001 A 
ATOM     84  C   UNL     1       9.440  20.509  -0.500  1.00  0.00     0.001 A 
ATOM     85  C   UNL     1      10.776  20.535  -0.104  1.00  0.00     0.000 A 
ENDBRANCH  67  80
ENDBRANCH  41  42
ENDBRANCH  34  36
ENDBRANCH  33  34
ENDBRANCH  32  33
ENDBRANCH   1  32
TORSDOF 17
