REMARK SMILES Cc1cccc(NC(=O)COc2ccc(N3C[C@@H](C(=O)OCCOC(=O)c4ccc(-c5c6nc(c(-c7ccccc7)c7ccc([nH]7)c(-c7ccccc7)c7nc(c(-c8ccccc8)c8ccc5[nH]8)C=C7)C=C6)cc4)CC3=O)cc2)c1
REMARK SMILES IDX 21 1 19 2 20 3 18 4 16 5 17 6 76 7 75 8 77 9 15 10 12 11
REMARK SMILES IDX 13 12 79 13 14 14 78 15 11 16 10 17 8 18 7 19 9 21 6 22 1 23
REMARK SMILES IDX 2 24 3 25 80 26 4 27 5 28 22 29 23 30 24 31 25 32 26 33
REMARK SMILES IDX 27 34 28 35 74 36 29 37 73 38 30 39 31 40 32 41 67 42 33 43
REMARK SMILES IDX 72 44 66 45 68 46 34 47 71 48 65 49 64 50 35 52 57 53 42 54
REMARK SMILES IDX 56 55 43 56 46 57 55 58 69 59 44 60 45 61 54 63 70 64 47 65
REMARK SMILES IDX 36 66 37 67 41 68 38 69 40 70 39 71 58 72 59 73 63 74 60 75
REMARK SMILES IDX 62 76 61 77 48 78 49 79 53 80 50 81 52 82 51 83
REMARK H PARENT 7 20 68 51 46 62
REMARK Flexibility Score: inf
ROOT
ATOM      1  O   UNL     1      -6.055   5.521  -9.479  1.00  0.00    -0.462 OA
ENDROOT
BRANCH   1   2
ATOM      2  C   UNL     1      -6.170   5.155  -8.177  1.00  0.00     0.311 C 
ATOM      3  O   UNL     1      -6.966   5.635  -7.381  1.00  0.00    -0.252 OA
BRANCH   2   4
ATOM      4  C   UNL     1      -5.213   4.035  -7.893  1.00  0.00     0.128 C 
ATOM      5  N   UNL     1      -4.202   2.939  -6.115  1.00  0.00    -0.312 N 
ATOM      6  C   UNL     1      -5.501   3.349  -6.576  1.00  0.00     0.141 C 
ATOM      7  C   UNL     1      -3.179   3.663  -6.728  1.00  0.00     0.227 C 
ATOM      8  C   UNL     1      -3.793   4.551  -7.773  1.00  0.00     0.117 C 
ATOM      9  O   UNL     1      -1.985   3.641  -6.476  1.00  0.00    -0.274 OA
BRANCH   5  10
ATOM     10  C   UNL     1      -4.083   2.299  -4.872  1.00  0.00     0.044 A 
ATOM     11  C   UNL     1      -4.051   1.214  -2.295  1.00  0.00     0.120 A 
ATOM     12  C   UNL     1      -4.707   0.545  -3.329  1.00  0.00     0.048 A 
ATOM     13  C   UNL     1      -3.372   2.399  -2.567  1.00  0.00     0.048 A 
ATOM     14  C   UNL     1      -4.755   1.102  -4.610  1.00  0.00     0.030 A 
ATOM     15  C   UNL     1      -3.370   2.927  -3.853  1.00  0.00     0.030 A 
BRANCH  11  16
ATOM     16  O   UNL     1      -4.060   0.596  -1.078  1.00  0.00    -0.484 OA
BRANCH  16  17
ATOM     17  C   UNL     1      -4.262   1.429   0.052  1.00  0.00     0.329 C 
BRANCH  17  18
ATOM     18  C   UNL     1      -3.178   2.396   0.538  1.00  0.00     0.262 C 
ATOM     19  N   UNL     1      -1.853   2.083   0.574  1.00  0.00    -0.323 N 
ATOM     20  H   UNL     1      -1.282   2.857   0.787  1.00  0.00     0.170 HD
ATOM     21  O   UNL     1      -3.492   3.544   0.880  1.00  0.00    -0.271 OA
BRANCH  19  22
ATOM     22  C   UNL     1      -1.120   0.902   0.375  1.00  0.00     0.041 A 
ATOM     23  C   UNL     1       2.593   0.113  -0.087  1.00  0.00     0.044 C 
ATOM     24  C   UNL     1       1.109  -0.056   0.049  1.00  0.00    -0.049 A 
ATOM     25  C   UNL     1       0.545  -1.333   0.014  1.00  0.00     0.003 A 
ATOM     26  C   UNL     1       0.269   1.052   0.231  1.00  0.00     0.029 A 
ATOM     27  C   UNL     1      -0.829  -1.493   0.169  1.00  0.00     0.002 A 
ATOM     28  C   UNL     1      -1.656  -0.382   0.360  1.00  0.00     0.026 A 
ENDBRANCH  19  22
ENDBRANCH  17  18
ENDBRANCH  16  17
ENDBRANCH  11  16
ENDBRANCH   5  10
ENDBRANCH   2   4
ENDBRANCH   1   2
BRANCH   1  29
ATOM     29  C   UNL     1      -7.131   6.321  -9.969  1.00  0.00     0.274 C 
BRANCH  29  30
ATOM     30  C   UNL     1      -7.205   6.226 -11.498  1.00  0.00     0.275 C 
BRANCH  30  31
ATOM     31  O   UNL     1      -6.609   5.057 -12.151  1.00  0.00    -0.458 OA
BRANCH  31  32
ATOM     32  C   UNL     1      -6.679   3.731 -11.869  1.00  0.00     0.338 C 
ATOM     33  O   UNL     1      -5.921   2.917 -12.381  1.00  0.00    -0.246 OA
BRANCH  32  34
ATOM     34  C   UNL     1      -7.656   3.276 -10.869  1.00  0.00     0.060 A 
ATOM     35  C   UNL     1      -7.310   2.273  -9.944  1.00  0.00     0.016 A 
ATOM     36  C   UNL     1      -8.890   3.898 -10.801  1.00  0.00     0.016 A 
ATOM     37  C   UNL     1      -8.136   2.018  -8.847  1.00  0.00     0.010 A 
ATOM     38  C   UNL     1      -9.638   3.745  -9.662  1.00  0.00     0.010 A 
ATOM     39  C   UNL     1      -9.278   2.799  -8.687  1.00  0.00    -0.014 A 
BRANCH  39  40
ATOM     40  C   UNL     1     -10.326   2.552  -7.704  1.00  0.00     0.031 A 
ATOM     41  C   UNL     1     -10.224   2.863  -6.269  1.00  0.00     0.074 A 
ATOM     42  C   UNL     1     -11.486   2.148  -8.265  1.00  0.00     0.049 A 
ATOM     43  N   UNL     1     -10.948   2.299  -5.361  1.00  0.00    -0.248 NA
ATOM     44  C   UNL     1      -9.284   3.831  -5.718  1.00  0.00     0.031 C 
ATOM     45  C   UNL     1     -12.826   2.106  -7.716  1.00  0.00     0.029 A 
ATOM     46  N   UNL     1     -11.612   1.524  -9.512  1.00  0.00    -0.354 N 
ATOM     47  C   UNL     1     -10.829   3.061  -4.215  1.00  0.00     0.074 A 
ATOM     48  C   UNL     1      -9.682   3.907  -4.441  1.00  0.00     0.031 C 
ATOM     49  C   UNL     1     -13.551   1.238  -8.449  1.00  0.00     0.029 A 
ATOM     50  C   UNL     1     -12.626   0.585  -9.371  1.00  0.00     0.049 A 
ATOM     51  H   UNL     1     -11.087   1.712 -10.324  1.00  0.00     0.167 HD
ATOM     52  C   UNL     1     -11.831   3.043  -3.289  1.00  0.00     0.031 A 
ATOM     53  C   UNL     1     -12.359  -0.753  -9.430  1.00  0.00     0.031 A 
ATOM     54  C   UNL     1     -12.901   2.141  -3.703  1.00  0.00     0.049 A 
ATOM     55  C   UNL     1     -12.780  -1.423  -8.147  1.00  0.00     0.074 A 
ATOM     56  C   UNL     1     -14.118   2.380  -4.319  1.00  0.00     0.029 A 
ATOM     57  N   UNL     1     -12.653   0.780  -3.815  1.00  0.00    -0.354 N 
ATOM     58  N   UNL     1     -12.742  -0.848  -6.976  1.00  0.00    -0.248 NA
ATOM     59  C   UNL     1     -13.318  -2.775  -8.102  1.00  0.00     0.031 C 
ATOM     60  C   UNL     1     -14.571   1.157  -4.871  1.00  0.00     0.029 A 
ATOM     61  C   UNL     1     -13.642   0.177  -4.564  1.00  0.00     0.049 A 
ATOM     62  H   UNL     1     -11.883   0.313  -3.418  1.00  0.00     0.167 HD
ATOM     63  C   UNL     1     -13.359  -1.663  -6.063  1.00  0.00     0.074 A 
ATOM     64  C   UNL     1     -13.655  -2.877  -6.805  1.00  0.00     0.031 C 
ATOM     65  C   UNL     1     -13.634  -1.261  -4.787  1.00  0.00     0.031 A 
BRANCH  52  66
ATOM     66  C   UNL     1     -12.017   4.071  -2.194  1.00  0.00    -0.014 A 
ATOM     67  C   UNL     1     -13.319   4.349  -1.723  1.00  0.00     0.009 A 
ATOM     68  C   UNL     1     -10.983   4.815  -1.603  1.00  0.00     0.009 A 
ATOM     69  C   UNL     1     -13.585   5.362  -0.794  1.00  0.00     0.001 A 
ATOM     70  C   UNL     1     -11.244   5.847  -0.684  1.00  0.00     0.001 A 
ATOM     71  C   UNL     1     -12.546   6.129  -0.289  1.00  0.00     0.000 A 
ENDBRANCH  52  66
BRANCH  53  72
ATOM     72  C   UNL     1     -11.136  -1.121 -10.214  1.00  0.00    -0.014 A 
ATOM     73  C   UNL     1     -11.098  -0.809 -11.592  1.00  0.00     0.009 A 
ATOM     74  C   UNL     1      -9.924  -1.425  -9.575  1.00  0.00     0.009 A 
ATOM     75  C   UNL     1      -9.882  -0.711 -12.280  1.00  0.00     0.001 A 
ATOM     76  C   UNL     1      -8.709  -1.345 -10.274  1.00  0.00     0.001 A 
ATOM     77  C   UNL     1      -8.686  -0.961 -11.615  1.00  0.00     0.000 A 
ENDBRANCH  53  72
BRANCH  65  78
ATOM     78  C   UNL     1     -14.046  -2.141  -3.632  1.00  0.00    -0.014 A 
ATOM     79  C   UNL     1     -13.941  -3.535  -3.621  1.00  0.00     0.009 A 
ATOM     80  C   UNL     1     -14.436  -1.531  -2.415  1.00  0.00     0.009 A 
ATOM     81  C   UNL     1     -14.250  -4.281  -2.475  1.00  0.00     0.001 A 
ATOM     82  C   UNL     1     -14.692  -2.264  -1.256  1.00  0.00     0.001 A 
ATOM     83  C   UNL     1     -14.611  -3.646  -1.291  1.00  0.00     0.000 A 
ENDBRANCH  65  78
ENDBRANCH  39  40
ENDBRANCH  32  34
ENDBRANCH  31  32
ENDBRANCH  30  31
ENDBRANCH  29  30
ENDBRANCH   1  29
TORSDOF 16
