REMARK SMILES O=C(OCCOC(=O)c1ccc(-n2cc(CSc3nc4ccccc4c(=O)n3-c3ccc(Cl)cc3)nn2)cc1)c1ccc(-c2c3nc(c(-c4ccccc4)c4ccc([nH]4)c(-c4ccccc4)c4nc(c(-c5ccccc5)c5ccc2[nH]5)C=C4)C=C3)cc1
REMARK SMILES IDX 6 1 5 2 4 3 3 4 2 5 1 6 40 7 41 8 87 9 42 10 86 11 43 12
REMARK SMILES IDX 44 13 45 14 80 15 46 16 85 17 79 18 81 19 47 20 84 21 78 22
REMARK SMILES IDX 77 23 48 25 70 26 55 27 69 28 56 29 59 30 68 31 82 32 57 33
REMARK SMILES IDX 58 34 67 36 83 37 60 38 49 39 50 40 54 41 51 42 53 43 52 44
REMARK SMILES IDX 71 45 72 46 76 47 73 48 75 49 74 50 61 51 62 52 66 53 63 54
REMARK SMILES IDX 65 55 64 56 7 57 8 58 9 59 10 60 39 61 11 62 38 63 12 64
REMARK SMILES IDX 13 65 14 66 37 67 15 68 36 69 16 70 17 71 18 72 19 73 28 74
REMARK SMILES IDX 20 75 26 76 21 77 25 78 27 79 22 80 24 81 23 82 29 83 30 84
REMARK SMILES IDX 35 85 31 86 34 87 32 88 33 89
REMARK H PARENT 81 24 59 35
REMARK Flexibility Score: inf
ROOT
ATOM      1  O   UNL     1       4.032  -1.603   0.228  1.00  0.00    -0.458 OA
ENDROOT
BRANCH   1   2
ATOM      2  C   UNL     1       4.486  -0.701   1.250  1.00  0.00     0.275 C 
BRANCH   2   3
ATOM      3  C   UNL     1       4.641   0.714   0.689  1.00  0.00     0.275 C 
BRANCH   3   4
ATOM      4  O   UNL     1       3.438   1.402   0.292  1.00  0.00    -0.458 OA
BRANCH   4   5
ATOM      5  C   UNL     1       2.413   0.724  -0.267  1.00  0.00     0.338 C 
ATOM      6  O   UNL     1       1.385   0.440   0.330  1.00  0.00    -0.246 OA
BRANCH   5   7
ATOM      7  C   UNL     1       2.492   0.641  -1.746  1.00  0.00     0.060 A 
ATOM      8  C   UNL     1       3.688   0.493  -2.455  1.00  0.00     0.016 A 
ATOM      9  C   UNL     1       1.275   0.687  -2.439  1.00  0.00     0.016 A 
ATOM     10  C   UNL     1       3.677   0.504  -3.844  1.00  0.00     0.010 A 
ATOM     11  C   UNL     1       1.259   0.653  -3.823  1.00  0.00     0.010 A 
ATOM     12  C   UNL     1       2.463   0.628  -4.525  1.00  0.00    -0.014 A 
BRANCH  12  13
ATOM     13  C   UNL     1       2.465   0.597  -5.987  1.00  0.00     0.031 A 
ATOM     14  C   UNL     1       3.046  -0.643  -6.589  1.00  0.00     0.074 A 
ATOM     15  C   UNL     1       1.817   1.519  -6.729  1.00  0.00     0.049 A 
ATOM     16  N   UNL     1       4.021  -0.761  -7.432  1.00  0.00    -0.248 NA
ATOM     17  C   UNL     1       2.525  -1.930  -6.105  1.00  0.00     0.031 C 
ATOM     18  C   UNL     1       0.964   2.624  -6.275  1.00  0.00     0.029 A 
ATOM     19  N   UNL     1       1.687   1.585  -8.082  1.00  0.00    -0.354 N 
ATOM     20  C   UNL     1       4.127  -2.126  -7.714  1.00  0.00     0.074 A 
ATOM     21  C   UNL     1       3.275  -2.804  -6.775  1.00  0.00     0.031 C 
ATOM     22  C   UNL     1       0.223   3.078  -7.313  1.00  0.00     0.029 A 
ATOM     23  C   UNL     1       0.659   2.410  -8.525  1.00  0.00     0.049 A 
ATOM     24  H   UNL     1       2.274   1.087  -8.697  1.00  0.00     0.167 HD
ATOM     25  C   UNL     1       4.747  -2.599  -8.831  1.00  0.00     0.031 A 
ATOM     26  C   UNL     1       0.178   2.501  -9.791  1.00  0.00     0.031 A 
ATOM     27  C   UNL     1       5.633  -1.626  -9.405  1.00  0.00     0.049 A 
ATOM     28  C   UNL     1       1.199   1.919 -10.693  1.00  0.00     0.074 A 
ATOM     29  C   UNL     1       6.759  -0.970  -8.950  1.00  0.00     0.029 A 
ATOM     30  N   UNL     1       5.165  -0.878 -10.459  1.00  0.00    -0.354 N 
ATOM     31  N   UNL     1       2.367   2.459 -10.886  1.00  0.00    -0.248 NA
ATOM     32  C   UNL     1       1.101   0.501 -11.000  1.00  0.00     0.031 C 
ATOM     33  C   UNL     1       6.577   0.379  -9.372  1.00  0.00     0.029 A 
ATOM     34  C   UNL     1       5.419   0.435 -10.151  1.00  0.00     0.049 A 
ATOM     35  H   UNL     1       4.733  -1.218 -11.275  1.00  0.00     0.167 HD
ATOM     36  C   UNL     1       3.248   1.388 -10.904  1.00  0.00     0.074 A 
ATOM     37  C   UNL     1       2.402   0.202 -11.053  1.00  0.00     0.031 C 
ATOM     38  C   UNL     1       4.547   1.531 -10.509  1.00  0.00     0.031 A 
BRANCH  25  39
ATOM     39  C   UNL     1       4.262  -3.804  -9.600  1.00  0.00    -0.014 A 
ATOM     40  C   UNL     1       4.994  -4.249 -10.715  1.00  0.00     0.009 A 
ATOM     41  C   UNL     1       2.968  -4.339  -9.440  1.00  0.00     0.009 A 
ATOM     42  C   UNL     1       4.433  -5.126 -11.654  1.00  0.00     0.001 A 
ATOM     43  C   UNL     1       2.418  -5.240 -10.355  1.00  0.00     0.001 A 
ATOM     44  C   UNL     1       3.141  -5.612 -11.479  1.00  0.00     0.000 A 
ENDBRANCH  25  39
BRANCH  26  45
ATOM     45  C   UNL     1      -1.197   2.787 -10.257  1.00  0.00    -0.014 A 
ATOM     46  C   UNL     1      -1.444   3.193 -11.580  1.00  0.00     0.009 A 
ATOM     47  C   UNL     1      -2.300   2.384  -9.482  1.00  0.00     0.009 A 
ATOM     48  C   UNL     1      -2.740   3.161 -12.116  1.00  0.00     0.001 A 
ATOM     49  C   UNL     1      -3.593   2.352 -10.017  1.00  0.00     0.001 A 
ATOM     50  C   UNL     1      -3.811   2.726 -11.339  1.00  0.00     0.000 A 
ENDBRANCH  26  45
BRANCH  38  51
ATOM     51  C   UNL     1       5.045   2.921 -10.180  1.00  0.00    -0.014 A 
ATOM     52  C   UNL     1       4.487   3.723  -9.166  1.00  0.00     0.009 A 
ATOM     53  C   UNL     1       6.226   3.363 -10.792  1.00  0.00     0.009 A 
ATOM     54  C   UNL     1       5.078   4.938  -8.800  1.00  0.00     0.001 A 
ATOM     55  C   UNL     1       6.829   4.564 -10.411  1.00  0.00     0.001 A 
ATOM     56  C   UNL     1       6.253   5.354  -9.420  1.00  0.00     0.000 A 
ENDBRANCH  38  51
ENDBRANCH  12  13
ENDBRANCH   5   7
ENDBRANCH   4   5
ENDBRANCH   3   4
ENDBRANCH   2   3
ENDBRANCH   1   2
BRANCH   1  57
ATOM     57  C   UNL     1       2.898  -2.301   0.515  1.00  0.00     0.338 C 
ATOM     58  O   UNL     1       2.255  -2.304   1.536  1.00  0.00    -0.246 OA
BRANCH  57  59
ATOM     59  C   UNL     1       2.543  -3.056  -0.699  1.00  0.00     0.060 A 
ATOM     60  C   UNL     1       1.443  -2.664  -1.467  1.00  0.00     0.018 A 
ATOM     61  C   UNL     1       3.316  -4.156  -1.065  1.00  0.00     0.018 A 
ATOM     62  C   UNL     1       1.143  -3.339  -2.652  1.00  0.00     0.029 A 
ATOM     63  C   UNL     1       2.975  -4.878  -2.208  1.00  0.00     0.029 A 
ATOM     64  C   UNL     1       1.892  -4.467  -3.005  1.00  0.00     0.066 A 
BRANCH  64  65
ATOM     65  N   UNL     1       1.505  -5.240  -4.122  1.00  0.00    -0.220 N 
ATOM     66  C   UNL     1       1.717  -6.581  -4.298  1.00  0.00     0.141 A 
ATOM     67  N   UNL     1       0.820  -4.752  -5.182  1.00  0.00    -0.062 NA
ATOM     68  C   UNL     1       1.065  -6.900  -5.469  1.00  0.00     0.093 A 
ATOM     69  N   UNL     1       0.592  -5.750  -6.032  1.00  0.00    -0.134 NA
BRANCH  68  70
ATOM     70  C   UNL     1       0.960  -8.230  -6.104  1.00  0.00     0.138 C 
BRANCH  70  71
ATOM     71  S   UNL     1      -0.618  -9.063  -6.299  1.00  0.00    -0.081 SA
BRANCH  71  72
ATOM     72  C   UNL     1      -1.901  -8.236  -5.450  1.00  0.00     0.176 A 
ATOM     73  N   UNL     1      -3.012  -8.246  -6.128  1.00  0.00    -0.223 NA
ATOM     74  N   UNL     1      -1.811  -7.640  -4.197  1.00  0.00    -0.255 N 
ATOM     75  C   UNL     1      -4.106  -7.534  -5.630  1.00  0.00     0.079 A 
ATOM     76  C   UNL     1      -2.593  -6.482  -4.054  1.00  0.00     0.266 A 
ATOM     77  C   UNL     1      -5.392  -7.758  -6.122  1.00  0.00     0.029 A 
ATOM     78  C   UNL     1      -3.909  -6.514  -4.712  1.00  0.00     0.066 A 
ATOM     79  O   UNL     1      -2.282  -5.463  -3.439  1.00  0.00    -0.268 OA
ATOM     80  C   UNL     1      -6.446  -6.918  -5.746  1.00  0.00     0.002 A 
ATOM     81  C   UNL     1      -4.937  -5.629  -4.371  1.00  0.00     0.016 A 
ATOM     82  C   UNL     1      -6.210  -5.830  -4.903  1.00  0.00     0.001 A 
BRANCH  74  83
ATOM     83  C   UNL     1      -0.987  -8.066  -3.079  1.00  0.00     0.051 A 
ATOM     84  C   UNL     1      -1.086  -7.417  -1.831  1.00  0.00     0.028 A 
ATOM     85  C   UNL     1      -0.090  -9.141  -3.124  1.00  0.00     0.028 A 
ATOM     86  C   UNL     1      -0.174  -7.645  -0.793  1.00  0.00     0.022 A 
ATOM     87  C   UNL     1       0.867  -9.342  -2.117  1.00  0.00     0.022 A 
ATOM     88  C   UNL     1       0.851  -8.555  -0.976  1.00  0.00     0.041 A 
ATOM     89  Cl  UNL     1       2.103  -8.693   0.189  1.00  0.00    -0.084 Cl
ENDBRANCH  74  83
ENDBRANCH  71  72
ENDBRANCH  70  71
ENDBRANCH  68  70
ENDBRANCH  64  65
ENDBRANCH  57  59
ENDBRANCH   1  57
TORSDOF 16
