REMARK SMILES CC(C)C[C@H](NC(=O)[C@H]1CCCCC[C@H]1[NH3+])C(=O)OCCOC(=O)c1ccc(-c2c3nc(c(-c4ccccc4)c4ccc([nH]4)c(-c4ccccc4)c4nc(c(-c5ccccc5)c5ccc2[nH]5)C=C4)C=C3)cc1
REMARK SMILES IDX 19 1 17 2 18 3 5 4 4 5 2 6 1 7 3 8 6 9 7 10 8 12 9 13 10 14
REMARK SMILES IDX 11 15 12 16 15 18 14 19 13 20 16 22 20 26 21 27 22 28 23 29
REMARK SMILES IDX 24 30 25 31 26 32 72 33 27 34 71 35 28 36 29 37 30 38 65 39
REMARK SMILES IDX 31 40 70 41 64 42 66 43 32 44 69 45 63 46 62 47 33 49 55 50
REMARK SMILES IDX 40 51 54 52 41 53 44 54 53 55 67 56 42 57 43 58 52 60 68 61
REMARK SMILES IDX 45 62 34 63 35 64 39 65 36 66 38 67 37 68 56 69 57 70 61 71
REMARK SMILES IDX 58 72 60 73 59 74 46 75 47 76 51 77 48 78 50 79 49 80
REMARK H PARENT 6 11 16 23 16 24 16 25 66 48 44 59
REMARK Flexibility Score: 90.00
ROOT
ATOM      1  O   UNL     1       2.261   4.952  -1.681  1.00  0.00    -0.461 OA
ENDROOT
BRANCH   1   2
ATOM      2  C   UNL     1       3.160   4.114  -1.095  1.00  0.00     0.328 C 
ATOM      3  O   UNL     1       4.117   4.483  -0.422  1.00  0.00    -0.250 OA
BRANCH   2   4
ATOM      4  C   UNL     1       2.909   2.630  -1.440  1.00  0.00     0.192 C 
BRANCH   4   5
ATOM      5  C   UNL     1       3.939   2.152  -2.490  1.00  0.00     0.040 C 
BRANCH   5   6
ATOM      6  C   UNL     1       5.436   2.144  -2.091  1.00  0.00    -0.015 C 
ATOM      7  C   UNL     1       5.774   1.131  -0.999  1.00  0.00     0.007 C 
ATOM      8  C   UNL     1       6.293   1.837  -3.326  1.00  0.00     0.007 C 
ENDBRANCH   5   6
ENDBRANCH   4   5
BRANCH   4   9
ATOM      9  N   UNL     1       1.555   2.375  -1.971  1.00  0.00    -0.342 N 
ATOM     10  C   UNL     1       0.534   1.519  -1.738  1.00  0.00     0.229 C 
ATOM     11  H   UNL     1       1.335   3.003  -2.696  1.00  0.00     0.164 HD
ATOM     12  O   UNL     1      -0.433   1.695  -2.498  1.00  0.00    -0.275 OA
BRANCH  10  13
ATOM     13  C   UNL     1       0.402   0.439  -0.639  1.00  0.00     0.136 C 
BRANCH  13  14
ATOM     14  C   UNL     1       1.458  -0.659  -0.536  1.00  0.00     0.020 C 
BRANCH  14  15
ATOM     15  C   UNL     1       2.787  -0.350   0.111  1.00  0.00     0.001 C 
BRANCH  15  16
ATOM     16  C   UNL     1       2.798   0.212   1.523  1.00  0.00     0.000 CG0
ATOM     17  G   UNL     1       2.148   1.546   1.881  1.00  0.00     0.000 G0
ENDBRANCH  15  16
ENDBRANCH  14  15
ENDBRANCH  13  14
BRANCH  13  18
ATOM     18  C   UNL     1      -0.076   0.927   0.741  1.00  0.00     0.193 C 
BRANCH  18  19
ATOM     19  C   UNL     1       0.803   2.012   1.328  1.00  0.00     0.066 C 
BRANCH  19  20
ATOM     20  C   UNL     1       2.148   1.546   1.881  1.00  0.00     0.006 CG0
ATOM     21  G   UNL     1       2.798   0.212   1.523  1.00  0.00     0.000 G0
ENDBRANCH  19  20
ENDBRANCH  18  19
BRANCH  18  22
ATOM     22  N   UNL     1      -1.470   1.386   0.678  1.00  0.00    -0.354 N 
ATOM     23  H   UNL     1      -1.535   2.191   0.055  1.00  0.00     0.344 HD
ATOM     24  H   UNL     1      -1.783   1.653   1.612  1.00  0.00     0.344 HD
ATOM     25  H   UNL     1      -2.061   0.634   0.324  1.00  0.00     0.344 HD
ENDBRANCH  18  22
ENDBRANCH  13  18
ENDBRANCH  10  13
ENDBRANCH   4   9
ENDBRANCH   2   4
ENDBRANCH   1   2
BRANCH   1  26
ATOM     26  C   UNL     1       2.517   6.362  -1.504  1.00  0.00     0.274 C 
BRANCH  26  27
ATOM     27  C   UNL     1       1.571   6.972  -0.472  1.00  0.00     0.275 C 
BRANCH  27  28
ATOM     28  O   UNL     1       1.761   6.363   0.818  1.00  0.00    -0.458 OA
BRANCH  28  29
ATOM     29  C   UNL     1       0.703   6.478   1.653  1.00  0.00     0.338 C 
ATOM     30  O   UNL     1      -0.355   7.057   1.393  1.00  0.00    -0.246 OA
BRANCH  29  31
ATOM     31  C   UNL     1       0.917   5.762   2.934  1.00  0.00     0.060 A 
ATOM     32  C   UNL     1       1.924   4.815   3.089  1.00  0.00     0.016 A 
ATOM     33  C   UNL     1       0.004   5.947   3.979  1.00  0.00     0.016 A 
ATOM     34  C   UNL     1       1.898   3.947   4.192  1.00  0.00     0.010 A 
ATOM     35  C   UNL     1       0.041   5.126   5.117  1.00  0.00     0.010 A 
ATOM     36  C   UNL     1       0.922   4.035   5.198  1.00  0.00    -0.014 A 
BRANCH  36  37
ATOM     37  C   UNL     1       0.710   2.945   6.223  1.00  0.00     0.031 A 
ATOM     38  C   UNL     1      -0.697   2.432   6.506  1.00  0.00     0.074 A 
ATOM     39  C   UNL     1       1.717   2.318   6.870  1.00  0.00     0.049 A 
ATOM     40  N   UNL     1      -1.144   1.746   7.532  1.00  0.00    -0.248 NA
ATOM     41  C   UNL     1      -1.738   2.749   5.515  1.00  0.00     0.031 C 
ATOM     42  C   UNL     1       3.147   2.557   6.683  1.00  0.00     0.029 A 
ATOM     43  N   UNL     1       1.680   1.306   7.806  1.00  0.00    -0.354 N 
ATOM     44  C   UNL     1      -2.526   1.673   7.374  1.00  0.00     0.074 A 
ATOM     45  C   UNL     1      -2.840   2.348   6.134  1.00  0.00     0.031 C 
ATOM     46  C   UNL     1       3.843   1.647   7.382  1.00  0.00     0.029 A 
ATOM     47  C   UNL     1       2.922   0.862   8.195  1.00  0.00     0.049 A 
ATOM     48  H   UNL     1       0.841   0.935   8.163  1.00  0.00     0.167 HD
ATOM     49  C   UNL     1      -3.453   1.114   8.192  1.00  0.00     0.031 A 
ATOM     50  C   UNL     1       3.299  -0.025   9.138  1.00  0.00     0.031 A 
ATOM     51  C   UNL     1      -3.148   0.327   9.358  1.00  0.00     0.049 A 
ATOM     52  C   UNL     1       2.268  -0.640  10.043  1.00  0.00     0.074 A 
ATOM     53  C   UNL     1      -4.020  -0.258  10.263  1.00  0.00     0.029 A 
ATOM     54  N   UNL     1      -1.871  -0.038   9.746  1.00  0.00    -0.354 N 
ATOM     55  N   UNL     1       0.965  -0.527  10.008  1.00  0.00    -0.248 NA
ATOM     56  C   UNL     1       2.773  -1.466  11.151  1.00  0.00     0.031 C 
ATOM     57  C   UNL     1      -3.266  -0.961  11.211  1.00  0.00     0.029 A 
ATOM     58  C   UNL     1      -1.930  -0.846  10.870  1.00  0.00     0.049 A 
ATOM     59  H   UNL     1      -1.042   0.236   9.291  1.00  0.00     0.167 HD
ATOM     60  C   UNL     1       0.494  -1.264  11.089  1.00  0.00     0.074 A 
ATOM     61  C   UNL     1       1.648  -1.845  11.740  1.00  0.00     0.031 C 
ATOM     62  C   UNL     1      -0.782  -1.428  11.512  1.00  0.00     0.031 A 
BRANCH  49  63
ATOM     63  C   UNL     1      -4.902   1.397   7.898  1.00  0.00    -0.014 A 
ATOM     64  C   UNL     1      -5.591   0.783   6.842  1.00  0.00     0.009 A 
ATOM     65  C   UNL     1      -5.599   2.285   8.736  1.00  0.00     0.009 A 
ATOM     66  C   UNL     1      -6.936   1.085   6.609  1.00  0.00     0.001 A 
ATOM     67  C   UNL     1      -6.949   2.561   8.520  1.00  0.00     0.001 A 
ATOM     68  C   UNL     1      -7.615   1.969   7.449  1.00  0.00     0.000 A 
ENDBRANCH  49  63
BRANCH  50  69
ATOM     69  C   UNL     1       4.743  -0.326   9.342  1.00  0.00    -0.014 A 
ATOM     70  C   UNL     1       5.252  -1.600   9.048  1.00  0.00     0.009 A 
ATOM     71  C   UNL     1       5.617   0.655   9.837  1.00  0.00     0.009 A 
ATOM     72  C   UNL     1       6.606  -1.884   9.248  1.00  0.00     0.001 A 
ATOM     73  C   UNL     1       6.975   0.381   9.999  1.00  0.00     0.001 A 
ATOM     74  C   UNL     1       7.468  -0.890   9.711  1.00  0.00     0.000 A 
ENDBRANCH  50  69
BRANCH  62  75
ATOM     75  C   UNL     1      -0.999  -2.303  12.712  1.00  0.00    -0.014 A 
ATOM     76  C   UNL     1      -0.691  -1.852  14.005  1.00  0.00     0.009 A 
ATOM     77  C   UNL     1      -1.528  -3.592  12.547  1.00  0.00     0.009 A 
ATOM     78  C   UNL     1      -0.874  -2.692  15.107  1.00  0.00     0.001 A 
ATOM     79  C   UNL     1      -1.729  -4.421  13.652  1.00  0.00     0.001 A 
ATOM     80  C   UNL     1      -1.393  -3.974  14.929  1.00  0.00     0.000 A 
ENDBRANCH  62  75
ENDBRANCH  36  37
ENDBRANCH  29  31
ENDBRANCH  28  29
ENDBRANCH  27  28
ENDBRANCH  26  27
ENDBRANCH   1  26
TORSDOF 16
