REMARK SMILES CC(C)N1C[C@@H](C(=O)N[C@@H](C)CC(=O)OCCOC(=O)c2ccc(-c3c4nc(c(-c5ccccc5)c5ccc([nH]5)c(-c5ccccc5)c5nc(c(-c6ccccc6)c6ccc3[nH]6)C=C5)C=C4)cc2)CC1=O
REMARK SMILES IDX 16 1 15 2 13 3 14 4 12 5 10 6 11 7 9 8 7 9 8 10 6 12 4 13
REMARK SMILES IDX 5 14 70 15 69 16 71 17 2 18 1 19 3 20 17 21 18 22 19 23
REMARK SMILES IDX 20 24 21 25 22 26 68 27 23 28 67 29 24 30 25 31 26 32 61 33
REMARK SMILES IDX 27 34 66 35 60 36 62 37 28 38 65 39 59 40 58 41 29 43 51 44
REMARK SMILES IDX 36 45 50 46 37 47 40 48 49 49 63 50 38 51 39 52 48 54 64 55
REMARK SMILES IDX 41 56 30 57 31 58 35 59 32 60 34 61 33 62 52 63 53 64 57 65
REMARK SMILES IDX 54 66 56 67 55 68 42 69 43 70 47 71 44 72 46 73 45 74
REMARK H PARENT 9 11 62 42 40 53
REMARK Flexibility Score: inf
ROOT
ATOM      1  C   UNL     1      -1.863  -5.282   2.362  1.00  0.00     0.274 C 
ENDROOT
BRANCH   1   2
ATOM      2  O   UNL     1      -2.774  -4.252   2.805  1.00  0.00    -0.462 OA
BRANCH   2   3
ATOM      3  C   UNL     1      -2.655  -3.876   4.103  1.00  0.00     0.307 C 
ATOM      4  O   UNL     1      -1.865  -4.373   4.900  1.00  0.00    -0.252 OA
BRANCH   3   5
ATOM      5  C   UNL     1      -3.662  -2.836   4.525  1.00  0.00     0.147 C 
BRANCH   5   6
ATOM      6  C   UNL     1      -3.841  -1.581   3.646  1.00  0.00     0.090 C 
ATOM      7  C   UNL     1      -4.504  -0.517   4.537  1.00  0.00     0.031 C 
BRANCH   6   8
ATOM      8  N   UNL     1      -4.704  -1.862   2.495  1.00  0.00    -0.353 N 
ATOM      9  C   UNL     1      -4.748  -1.425   1.214  1.00  0.00     0.225 C 
ATOM     10  O   UNL     1      -5.648  -1.913   0.518  1.00  0.00    -0.275 OA
ATOM     11  H   UNL     1      -5.410  -2.517   2.699  1.00  0.00     0.163 HD
BRANCH   9  12
ATOM     12  C   UNL     1      -3.796  -0.428   0.570  1.00  0.00     0.107 C 
ATOM     13  N   UNL     1      -1.515   0.129   0.856  1.00  0.00    -0.339 N 
ATOM     14  C   UNL     1      -2.381  -0.937   0.398  1.00  0.00     0.133 C 
ATOM     15  C   UNL     1      -2.219   1.244   1.268  1.00  0.00     0.223 C 
ATOM     16  C   UNL     1      -3.690   0.942   1.214  1.00  0.00     0.115 C 
ATOM     17  O   UNL     1      -1.760   2.316   1.631  1.00  0.00    -0.275 OA
BRANCH  13  18
ATOM     18  C   UNL     1      -0.056   0.031   0.738  1.00  0.00     0.078 C 
ATOM     19  C   UNL     1       0.434   0.535  -0.617  1.00  0.00     0.031 C 
ATOM     20  C   UNL     1       0.698   0.734   1.871  1.00  0.00     0.031 C 
ENDBRANCH  13  18
ENDBRANCH   9  12
ENDBRANCH   6   8
ENDBRANCH   5   6
ENDBRANCH   3   5
ENDBRANCH   2   3
ENDBRANCH   1   2
BRANCH   1  21
ATOM     21  C   UNL     1      -0.594  -4.724   1.698  1.00  0.00     0.275 C 
BRANCH  21  22
ATOM     22  O   UNL     1       0.366  -4.181   2.631  1.00  0.00    -0.458 OA
BRANCH  22  23
ATOM     23  C   UNL     1       0.078  -2.927   3.032  1.00  0.00     0.338 C 
ATOM     24  O   UNL     1      -0.895  -2.270   2.708  1.00  0.00    -0.246 OA
BRANCH  23  25
ATOM     25  C   UNL     1       1.033  -2.347   3.969  1.00  0.00     0.060 A 
ATOM     26  C   UNL     1       0.490  -1.719   5.097  1.00  0.00     0.016 A 
ATOM     27  C   UNL     1       2.376  -2.190   3.627  1.00  0.00     0.016 A 
ATOM     28  C   UNL     1       1.290  -0.904   5.882  1.00  0.00     0.010 A 
ATOM     29  C   UNL     1       3.182  -1.378   4.426  1.00  0.00     0.010 A 
ATOM     30  C   UNL     1       2.637  -0.725   5.545  1.00  0.00    -0.014 A 
BRANCH  30  31
ATOM     31  C   UNL     1       3.482   0.103   6.424  1.00  0.00     0.031 A 
ATOM     32  C   UNL     1       3.808   1.522   6.074  1.00  0.00     0.074 A 
ATOM     33  C   UNL     1       3.914  -0.446   7.571  1.00  0.00     0.049 A 
ATOM     34  N   UNL     1       4.549   2.377   6.730  1.00  0.00    -0.248 NA
ATOM     35  C   UNL     1       3.224   2.051   4.833  1.00  0.00     0.031 C 
ATOM     36  C   UNL     1       3.610  -1.809   8.015  1.00  0.00     0.029 A 
ATOM     37  N   UNL     1       4.688   0.072   8.572  1.00  0.00    -0.354 N 
ATOM     38  C   UNL     1       4.530   3.545   5.980  1.00  0.00     0.074 A 
ATOM     39  C   UNL     1       3.713   3.285   4.812  1.00  0.00     0.031 C 
ATOM     40  C   UNL     1       4.190  -2.017   9.206  1.00  0.00     0.029 A 
ATOM     41  C   UNL     1       4.930  -0.819   9.585  1.00  0.00     0.049 A 
ATOM     42  H   UNL     1       5.037   0.993   8.565  1.00  0.00     0.167 HD
ATOM     43  C   UNL     1       5.141   4.723   6.247  1.00  0.00     0.031 A 
ATOM     44  C   UNL     1       5.682  -0.690  10.691  1.00  0.00     0.031 A 
ATOM     45  C   UNL     1       5.963   4.962   7.405  1.00  0.00     0.049 A 
ATOM     46  C   UNL     1       6.373   0.614  10.946  1.00  0.00     0.074 A 
ATOM     47  C   UNL     1       6.653   6.109   7.757  1.00  0.00     0.029 A 
ATOM     48  N   UNL     1       6.201   4.030   8.406  1.00  0.00    -0.354 N 
ATOM     49  N   UNL     1       6.368   1.704  10.216  1.00  0.00    -0.248 NA
ATOM     50  C   UNL     1       7.166   0.710  12.177  1.00  0.00     0.031 C 
ATOM     51  C   UNL     1       7.332   5.861   8.957  1.00  0.00     0.029 A 
ATOM     52  C   UNL     1       7.032   4.573   9.371  1.00  0.00     0.049 A 
ATOM     53  H   UNL     1       5.833   3.117   8.426  1.00  0.00     0.167 HD
ATOM     54  C   UNL     1       7.146   2.621  10.905  1.00  0.00     0.074 A 
ATOM     55  C   UNL     1       7.592   1.964  12.118  1.00  0.00     0.031 C 
ATOM     56  C   UNL     1       7.466   3.893  10.563  1.00  0.00     0.031 A 
BRANCH  43  57
ATOM     57  C   UNL     1       4.969   5.833   5.251  1.00  0.00    -0.014 A 
ATOM     58  C   UNL     1       3.770   6.558   5.170  1.00  0.00     0.009 A 
ATOM     59  C   UNL     1       6.033   6.183   4.404  1.00  0.00     0.009 A 
ATOM     60  C   UNL     1       3.632   7.596   4.245  1.00  0.00     0.001 A 
ATOM     61  C   UNL     1       5.899   7.234   3.494  1.00  0.00     0.001 A 
ATOM     62  C   UNL     1       4.697   7.935   3.411  1.00  0.00     0.000 A 
ENDBRANCH  43  57
BRANCH  44  63
ATOM     63  C   UNL     1       5.816  -1.839  11.616  1.00  0.00    -0.014 A 
ATOM     64  C   UNL     1       5.146  -1.848  12.847  1.00  0.00     0.009 A 
ATOM     65  C   UNL     1       6.575  -2.959  11.242  1.00  0.00     0.009 A 
ATOM     66  C   UNL     1       5.244  -2.955  13.692  1.00  0.00     0.001 A 
ATOM     67  C   UNL     1       6.651  -4.074  12.078  1.00  0.00     0.001 A 
ATOM     68  C   UNL     1       5.989  -4.068  13.305  1.00  0.00     0.000 A 
ENDBRANCH  44  63
BRANCH  56  69
ATOM     69  C   UNL     1       8.324   4.649  11.533  1.00  0.00    -0.014 A 
ATOM     70  C   UNL     1       9.702   4.402  11.623  1.00  0.00     0.009 A 
ATOM     71  C   UNL     1       7.746   5.625  12.359  1.00  0.00     0.009 A 
ATOM     72  C   UNL     1      10.481   5.097  12.549  1.00  0.00     0.001 A 
ATOM     73  C   UNL     1       8.531   6.331  13.270  1.00  0.00     0.001 A 
ATOM     74  C   UNL     1       9.896   6.060  13.370  1.00  0.00     0.000 A 
ENDBRANCH  56  69
ENDBRANCH  30  31
ENDBRANCH  23  25
ENDBRANCH  22  23
ENDBRANCH  21  22
ENDBRANCH   1  21
TORSDOF 15
