REMARK SMILES [NH3+][C@H]1COC[C@H]1C(=O)N[C@@H]1C=C[C@@H](C(=O)OCCOC(=O)c2ccc(-c3c4nc(c(-c5ccccc5)c5ccc([nH]5)c(-c5ccccc5)c5nc(c(-c6ccccc6)c6ccc3[nH]6)C=C5)C=C4)cc2)C1
REMARK SMILES IDX 17 1 16 2 14 3 15 4 13 5 10 6 11 7 70 8 12 9 9 10 7 11 8 12
REMARK SMILES IDX 6 14 2 15 3 16 4 17 5 18 1 19 18 23 19 24 20 25 21 26 22 27
REMARK SMILES IDX 23 28 69 29 24 30 68 31 25 32 26 33 27 34 62 35 28 36 67 37
REMARK SMILES IDX 61 38 63 39 29 40 66 41 60 42 59 43 30 45 52 46 37 47 51 48
REMARK SMILES IDX 38 49 41 50 50 51 64 52 39 53 40 54 49 56 65 57 42 58 31 59
REMARK SMILES IDX 32 60 36 61 33 62 35 63 34 64 53 65 54 66 58 67 55 68 57 69
REMARK SMILES IDX 56 70 43 71 44 72 48 73 45 74 47 75 46 76
REMARK H PARENT 9 13 1 20 1 21 1 22 63 44 41 55
REMARK Flexibility Score: inf
ROOT
ATOM      1  C   UNL     1       2.812  -0.852   2.256  1.00  0.00     0.274 C 
ENDROOT
BRANCH   1   2
ATOM      2  O   UNL     1       1.597  -1.398   1.708  1.00  0.00    -0.462 OA
BRANCH   2   3
ATOM      3  C   UNL     1       0.885  -2.186   2.551  1.00  0.00     0.312 C 
ATOM      4  O   UNL     1       1.263  -2.527   3.668  1.00  0.00    -0.252 OA
BRANCH   3   5
ATOM      5  C   UNL     1      -0.439  -2.657   1.976  1.00  0.00     0.124 C 
ATOM      6  C   UNL     1      -1.919  -2.521   0.054  1.00  0.00     0.106 C 
ATOM      7  C   UNL     1      -1.165  -3.799   0.061  1.00  0.00    -0.006 C 
ATOM      8  C   UNL     1      -1.242  -1.671   1.124  1.00  0.00     0.048 C 
ATOM      9  C   UNL     1      -0.315  -3.862   1.093  1.00  0.00    -0.014 C 
BRANCH   6  10
ATOM     10  N   UNL     1      -3.358  -2.713   0.124  1.00  0.00    -0.349 N 
ATOM     11  C   UNL     1      -4.341  -3.196   0.901  1.00  0.00     0.232 C 
ATOM     12  O   UNL     1      -5.468  -3.053   0.394  1.00  0.00    -0.274 OA
ATOM     13  H   UNL     1      -3.761  -2.359  -0.702  1.00  0.00     0.164 HD
BRANCH  11  14
ATOM     14  C   UNL     1      -4.285  -3.865   2.265  1.00  0.00     0.164 C 
ATOM     15  C   UNL     1      -3.701  -5.250   2.476  1.00  0.00     0.221 C 
ATOM     16  C   UNL     1      -2.656  -5.067   3.575  1.00  0.00     0.225 C 
ATOM     17  O   UNL     1      -2.812  -3.764   4.148  1.00  0.00    -0.374 OA
ATOM     18  C   UNL     1      -3.767  -3.014   3.397  1.00  0.00     0.180 C 
BRANCH  15  19
ATOM     19  N   UNL     1      -3.253  -6.024   1.325  1.00  0.00    -0.352 N 
ATOM     20  H   UNL     1      -2.890  -6.924   1.640  1.00  0.00     0.344 HD
ATOM     21  H   UNL     1      -2.517  -5.513   0.837  1.00  0.00     0.344 HD
ATOM     22  H   UNL     1      -4.038  -6.177   0.692  1.00  0.00     0.344 HD
ENDBRANCH  15  19
ENDBRANCH  11  14
ENDBRANCH   6  10
ENDBRANCH   3   5
ENDBRANCH   2   3
ENDBRANCH   1   2
BRANCH   1  23
ATOM     23  C   UNL     1       2.624   0.604   2.694  1.00  0.00     0.275 C 
BRANCH  23  24
ATOM     24  O   UNL     1       1.693   0.738   3.787  1.00  0.00    -0.458 OA
BRANCH  24  25
ATOM     25  C   UNL     1       0.407   0.941   3.418  1.00  0.00     0.338 C 
ATOM     26  O   UNL     1      -0.034   1.004   2.283  1.00  0.00    -0.246 OA
BRANCH  25  27
ATOM     27  C   UNL     1      -0.470   1.004   4.598  1.00  0.00     0.060 A 
ATOM     28  C   UNL     1      -1.511   0.078   4.696  1.00  0.00     0.016 A 
ATOM     29  C   UNL     1      -0.357   2.043   5.523  1.00  0.00     0.016 A 
ATOM     30  C   UNL     1      -2.471   0.208   5.697  1.00  0.00     0.010 A 
ATOM     31  C   UNL     1      -1.314   2.163   6.538  1.00  0.00     0.010 A 
ATOM     32  C   UNL     1      -2.390   1.261   6.618  1.00  0.00    -0.014 A 
BRANCH  32  33
ATOM     33  C   UNL     1      -3.453   1.441   7.638  1.00  0.00     0.031 A 
ATOM     34  C   UNL     1      -4.447   2.562   7.505  1.00  0.00     0.074 A 
ATOM     35  C   UNL     1      -3.546   0.585   8.672  1.00  0.00     0.049 A 
ATOM     36  N   UNL     1      -5.396   2.927   8.331  1.00  0.00    -0.248 NA
ATOM     37  C   UNL     1      -4.366   3.377   6.282  1.00  0.00     0.031 C 
ATOM     38  C   UNL     1      -2.683  -0.576   8.892  1.00  0.00     0.029 A 
ATOM     39  N   UNL     1      -4.416   0.564   9.733  1.00  0.00    -0.354 N 
ATOM     40  C   UNL     1      -6.018   4.017   7.735  1.00  0.00     0.074 A 
ATOM     41  C   UNL     1      -5.327   4.268   6.487  1.00  0.00     0.031 C 
ATOM     42  C   UNL     1      -3.071  -1.201  10.016  1.00  0.00     0.029 A 
ATOM     43  C   UNL     1      -4.177  -0.461  10.616  1.00  0.00     0.049 A 
ATOM     44  H   UNL     1      -5.141   1.219   9.851  1.00  0.00     0.167 HD
ATOM     45  C   UNL     1      -7.072   4.741   8.182  1.00  0.00     0.031 A 
ATOM     46  C   UNL     1      -4.768  -0.757  11.789  1.00  0.00     0.031 A 
ATOM     47  C   UNL     1      -7.762   4.503   9.422  1.00  0.00     0.049 A 
ATOM     48  C   UNL     1      -5.883   0.110  12.299  1.00  0.00     0.074 A 
ATOM     49  C   UNL     1      -8.826   5.202   9.967  1.00  0.00     0.029 A 
ATOM     50  N   UNL     1      -7.462   3.480  10.306  1.00  0.00    -0.354 N 
ATOM     51  N   UNL     1      -6.440   1.156  11.739  1.00  0.00    -0.248 NA
ATOM     52  C   UNL     1      -6.451  -0.246  13.608  1.00  0.00     0.031 C 
ATOM     53  C   UNL     1      -9.150   4.620  11.197  1.00  0.00     0.029 A 
ATOM     54  C   UNL     1      -8.313   3.535  11.397  1.00  0.00     0.049 A 
ATOM     55  H   UNL     1      -6.749   2.813  10.178  1.00  0.00     0.167 HD
ATOM     56  C   UNL     1      -7.434   1.569  12.616  1.00  0.00     0.074 A 
ATOM     57  C   UNL     1      -7.416   0.653  13.737  1.00  0.00     0.031 C 
ATOM     58  C   UNL     1      -8.287   2.615  12.502  1.00  0.00     0.031 A 
BRANCH  45  59
ATOM     59  C   UNL     1      -7.536   5.885   7.327  1.00  0.00    -0.014 A 
ATOM     60  C   UNL     1      -8.290   5.658   6.165  1.00  0.00     0.009 A 
ATOM     61  C   UNL     1      -7.259   7.205   7.714  1.00  0.00     0.009 A 
ATOM     62  C   UNL     1      -8.739   6.733   5.396  1.00  0.00     0.001 A 
ATOM     63  C   UNL     1      -7.727   8.278   6.954  1.00  0.00     0.001 A 
ATOM     64  C   UNL     1      -8.462   8.041   5.793  1.00  0.00     0.000 A 
ENDBRANCH  45  59
BRANCH  46  65
ATOM     65  C   UNL     1      -4.296  -1.916  12.588  1.00  0.00    -0.014 A 
ATOM     66  C   UNL     1      -5.091  -3.064  12.716  1.00  0.00     0.009 A 
ATOM     67  C   UNL     1      -3.060  -1.865  13.251  1.00  0.00     0.009 A 
ATOM     68  C   UNL     1      -4.669  -4.129  13.516  1.00  0.00     0.001 A 
ATOM     69  C   UNL     1      -2.630  -2.941  14.028  1.00  0.00     0.001 A 
ATOM     70  C   UNL     1      -3.438  -4.067  14.168  1.00  0.00     0.000 A 
ENDBRANCH  46  65
BRANCH  58  71
ATOM     71  C   UNL     1      -9.291   2.800  13.602  1.00  0.00    -0.014 A 
ATOM     72  C   UNL     1      -8.916   3.329  14.846  1.00  0.00     0.009 A 
ATOM     73  C   UNL     1     -10.635   2.460  13.380  1.00  0.00     0.009 A 
ATOM     74  C   UNL     1      -9.864   3.486  15.859  1.00  0.00     0.001 A 
ATOM     75  C   UNL     1     -11.584   2.638  14.388  1.00  0.00     0.001 A 
ATOM     76  C   UNL     1     -11.196   3.142  15.629  1.00  0.00     0.000 A 
ENDBRANCH  58  71
ENDBRANCH  32  33
ENDBRANCH  25  27
ENDBRANCH  24  25
ENDBRANCH  23  24
ENDBRANCH   1  23
TORSDOF 14
