REMARK SMILES C[C@@H](C(=O)OCCOC(=O)c1ccc(-c2c3nc(c(-c4ccccc4)c4ccc([nH]4)c(-c4ccccc4)c4nc(c(-c5ccccc5)c5ccc2[nH]5)C=C4)C=C3)cc1)n1ccc(C(=O)NC2CCCCCCC2)n1
REMARK SMILES IDX 3 1 4 2 2 3 1 4 59 5 60 6 74 7 61 8 62 9 63 10 64 11 65 12
REMARK SMILES IDX 66 14 67 15 68 16 69 17 73 19 72 20 71 21 70 22 5 24 6 25
REMARK SMILES IDX 7 26 8 27 9 28 10 29 11 30 12 31 58 32 13 33 57 34 14 35
REMARK SMILES IDX 15 36 16 37 51 38 17 39 56 40 50 41 52 42 18 43 55 44 49 45
REMARK SMILES IDX 48 46 19 48 41 49 26 50 40 51 27 52 30 53 39 54 53 55 28 56
REMARK SMILES IDX 29 57 38 59 54 60 31 61 20 62 21 63 25 64 22 65 24 66 23 67
REMARK SMILES IDX 42 68 43 69 47 70 44 71 46 72 45 73 32 74 33 75 37 76 34 77
REMARK SMILES IDX 36 78 35 79
REMARK H PARENT 65 13 52 47 30 58
REMARK Flexibility Score: 80.00
ROOT
ATOM      1  C   UNL     1       1.229   2.021  -0.809  1.00  0.00     0.330 C 
ATOM      2  O   UNL     1       0.539   2.924  -1.264  1.00  0.00    -0.250 OA
ENDROOT
BRANCH   1   3
ATOM      3  C   UNL     1       0.953   1.268   0.496  1.00  0.00     0.213 C 
ATOM      4  C   UNL     1       1.563  -0.137   0.490  1.00  0.00     0.046 C 
BRANCH   3   5
ATOM      5  N   UNL     1      -0.484   1.272   0.808  1.00  0.00    -0.258 N 
ATOM      6  C   UNL     1      -1.333   0.204   0.901  1.00  0.00     0.110 A 
ATOM      7  N   UNL     1      -1.117   2.449   1.019  1.00  0.00    -0.167 NA
ATOM      8  C   UNL     1      -2.591   0.731   1.065  1.00  0.00     0.056 A 
ATOM      9  C   UNL     1      -2.428   2.146   1.050  1.00  0.00     0.150 A 
BRANCH   9  10
ATOM     10  C   UNL     1      -3.550   3.107   1.033  1.00  0.00     0.271 C 
ATOM     11  O   UNL     1      -4.705   2.723   1.240  1.00  0.00    -0.267 OA
ATOM     12  N   UNL     1      -3.392   4.437   0.722  1.00  0.00    -0.348 N 
ATOM     13  H   UNL     1      -4.233   4.950   0.713  1.00  0.00     0.164 HD
BRANCH  12  14
ATOM     14  C   UNL     1      -2.202   5.236   0.400  1.00  0.00     0.082 C 
BRANCH  14  15
ATOM     15  C   UNL     1      -1.964   5.224  -1.117  1.00  0.00     0.025 C 
BRANCH  15  16
ATOM     16  C   UNL     1      -0.651   5.845  -1.594  1.00  0.00     0.002 C 
BRANCH  16  17
ATOM     17  C   UNL     1      -0.417   7.335  -1.357  1.00  0.00     0.000 CG0
ATOM     18  G   UNL     1      -1.594   8.243  -1.699  1.00  0.00     0.000 G0
ENDBRANCH  16  17
ENDBRANCH  15  16
ENDBRANCH  14  15
BRANCH  14  19
ATOM     19  C   UNL     1      -2.375   6.631   1.032  1.00  0.00     0.025 C 
BRANCH  19  20
ATOM     20  C   UNL     1      -3.223   7.631   0.237  1.00  0.00     0.002 C 
BRANCH  20  21
ATOM     21  C   UNL     1      -2.410   8.704  -0.491  1.00  0.00     0.000 C 
BRANCH  21  22
ATOM     22  C   UNL     1      -1.594   8.243  -1.699  1.00  0.00     0.000 CG0
ATOM     23  G   UNL     1      -0.417   7.335  -1.357  1.00  0.00     0.000 G0
ENDBRANCH  21  22
ENDBRANCH  20  21
ENDBRANCH  19  20
ENDBRANCH  14  19
ENDBRANCH  12  14
ENDBRANCH   9  10
ENDBRANCH   3   5
ENDBRANCH   1   3
BRANCH   1  24
ATOM     24  O   UNL     1       2.393   1.632  -1.408  1.00  0.00    -0.460 OA
BRANCH  24  25
ATOM     25  C   UNL     1       2.765   2.382  -2.585  1.00  0.00     0.274 C 
BRANCH  25  26
ATOM     26  C   UNL     1       2.272   1.734  -3.884  1.00  0.00     0.275 C 
BRANCH  26  27
ATOM     27  O   UNL     1       0.845   1.845  -4.047  1.00  0.00    -0.458 OA
BRANCH  27  28
ATOM     28  C   UNL     1       0.136   0.737  -3.731  1.00  0.00     0.338 C 
ATOM     29  O   UNL     1       0.572  -0.330  -3.334  1.00  0.00    -0.246 OA
BRANCH  28  30
ATOM     30  C   UNL     1      -1.306   1.028  -3.785  1.00  0.00     0.060 A 
ATOM     31  C   UNL     1      -1.936   1.316  -2.580  1.00  0.00     0.016 A 
ATOM     32  C   UNL     1      -2.062   0.881  -4.949  1.00  0.00     0.016 A 
ATOM     33  C   UNL     1      -3.317   1.429  -2.510  1.00  0.00     0.010 A 
ATOM     34  C   UNL     1      -3.458   1.026  -4.886  1.00  0.00     0.010 A 
ATOM     35  C   UNL     1      -4.096   1.282  -3.659  1.00  0.00    -0.014 A 
BRANCH  35  36
ATOM     36  C   UNL     1      -5.572   1.317  -3.507  1.00  0.00     0.031 A 
ATOM     37  C   UNL     1      -6.364   0.044  -3.611  1.00  0.00     0.074 A 
ATOM     38  C   UNL     1      -6.189   2.455  -3.134  1.00  0.00     0.049 A 
ATOM     39  N   UNL     1      -7.659  -0.133  -3.546  1.00  0.00    -0.248 NA
ATOM     40  C   UNL     1      -5.595  -1.197  -3.801  1.00  0.00     0.031 C 
ATOM     41  C   UNL     1      -5.523   3.732  -2.868  1.00  0.00     0.029 A 
ATOM     42  N   UNL     1      -7.512   2.708  -2.870  1.00  0.00    -0.354 N 
ATOM     43  C   UNL     1      -7.863  -1.495  -3.725  1.00  0.00     0.074 A 
ATOM     44  C   UNL     1      -6.560  -2.101  -3.895  1.00  0.00     0.031 C 
ATOM     45  C   UNL     1      -6.433   4.617  -2.429  1.00  0.00     0.029 A 
ATOM     46  C   UNL     1      -7.753   3.993  -2.449  1.00  0.00     0.049 A 
ATOM     47  H   UNL     1      -8.221   2.033  -2.973  1.00  0.00     0.167 HD
ATOM     48  C   UNL     1      -9.032  -2.178  -3.757  1.00  0.00     0.031 A 
ATOM     49  C   UNL     1      -8.910   4.606  -2.135  1.00  0.00     0.031 A 
ATOM     50  C   UNL     1     -10.327  -1.583  -3.566  1.00  0.00     0.049 A 
ATOM     51  C   UNL     1     -10.201   3.845  -2.257  1.00  0.00     0.074 A 
ATOM     52  C   UNL     1     -11.573  -2.183  -3.639  1.00  0.00     0.029 A 
ATOM     53  N   UNL     1     -10.541  -0.253  -3.245  1.00  0.00    -0.354 N 
ATOM     54  N   UNL     1     -10.392   2.580  -2.540  1.00  0.00    -0.248 NA
ATOM     55  C   UNL     1     -11.440   4.608  -2.044  1.00  0.00     0.031 C 
ATOM     56  C   UNL     1     -12.544  -1.204  -3.398  1.00  0.00     0.029 A 
ATOM     57  C   UNL     1     -11.899  -0.006  -3.134  1.00  0.00     0.049 A 
ATOM     58  H   UNL     1      -9.832   0.418  -3.115  1.00  0.00     0.167 HD
ATOM     59  C   UNL     1     -11.768   2.395  -2.540  1.00  0.00     0.074 A 
ATOM     60  C   UNL     1     -12.365   3.671  -2.201  1.00  0.00     0.031 C 
ATOM     61  C   UNL     1     -12.475   1.271  -2.808  1.00  0.00     0.031 A 
BRANCH  48  62
ATOM     62  C   UNL     1      -8.960  -3.640  -4.082  1.00  0.00    -0.014 A 
ATOM     63  C   UNL     1      -8.566  -4.588  -3.126  1.00  0.00     0.009 A 
ATOM     64  C   UNL     1      -9.309  -4.074  -5.371  1.00  0.00     0.009 A 
ATOM     65  C   UNL     1      -8.496  -5.941  -3.466  1.00  0.00     0.001 A 
ATOM     66  C   UNL     1      -9.257  -5.428  -5.701  1.00  0.00     0.001 A 
ATOM     67  C   UNL     1      -8.844  -6.360  -4.750  1.00  0.00     0.000 A 
ENDBRANCH  48  62
BRANCH  49  68
ATOM     68  C   UNL     1      -8.914   6.035  -1.730  1.00  0.00    -0.014 A 
ATOM     69  C   UNL     1      -9.248   6.407  -0.419  1.00  0.00     0.009 A 
ATOM     70  C   UNL     1      -8.604   7.038  -2.662  1.00  0.00     0.009 A 
ATOM     71  C   UNL     1      -9.290   7.756  -0.056  1.00  0.00     0.001 A 
ATOM     72  C   UNL     1      -8.619   8.383  -2.289  1.00  0.00     0.001 A 
ATOM     73  C   UNL     1      -8.970   8.742  -0.989  1.00  0.00     0.000 A 
ENDBRANCH  49  68
BRANCH  61  74
ATOM     74  C   UNL     1     -13.970   1.373  -2.744  1.00  0.00    -0.014 A 
ATOM     75  C   UNL     1     -14.693   1.989  -3.777  1.00  0.00     0.009 A 
ATOM     76  C   UNL     1     -14.666   0.815  -1.661  1.00  0.00     0.009 A 
ATOM     77  C   UNL     1     -16.086   2.067  -3.713  1.00  0.00     0.001 A 
ATOM     78  C   UNL     1     -16.059   0.876  -1.611  1.00  0.00     0.001 A 
ATOM     79  C   UNL     1     -16.767   1.507  -2.633  1.00  0.00     0.000 A 
ENDBRANCH  61  74
ENDBRANCH  35  36
ENDBRANCH  28  30
ENDBRANCH  27  28
ENDBRANCH  26  27
ENDBRANCH  25  26
ENDBRANCH  24  25
ENDBRANCH   1  24
TORSDOF 14
