REMARK SMILES Cc1cccc(C(=O)Nc2cc(C(=O)OCCOC(=O)c3ccc(-c4c5nc(c(-c6ccccc6)c6ccc([nH]6)c(-c6ccccc6)c6nc(c(-c7ccccc7)c7ccc4[nH]7)C=C6)C=C5)cc3)ccc2N2CC[NH+](CC(=O)NC(C)(C)C)CC2)c1
REMARK SMILES IDX 16 1 15 2 13 3 14 4 12 5 10 6 11 7 71 8 70 9 69 10 9 11 7 12
REMARK SMILES IDX 8 13 6 15 1 16 2 17 3 18 86 19 4 20 5 21 72 22 73 23 85 24
REMARK SMILES IDX 74 25 84 26 75 27 76 29 77 30 78 31 79 32 80 34 81 35 82 36
REMARK SMILES IDX 83 37 17 38 18 39 19 40 20 41 21 42 22 43 68 44 23 45 67 46
REMARK SMILES IDX 24 47 25 48 26 49 61 50 27 51 66 52 60 53 62 54 28 55 65 56
REMARK SMILES IDX 59 57 58 58 29 60 51 61 36 62 50 63 37 64 40 65 49 66 63 67
REMARK SMILES IDX 38 68 39 69 48 71 64 72 41 73 30 74 31 75 35 76 32 77 34 78
REMARK SMILES IDX 33 79 52 80 53 81 57 82 54 83 56 84 55 85 42 86 43 87 47 88
REMARK SMILES IDX 44 89 46 90 45 91
REMARK H PARENT 9 14 75 28 79 33 62 59 40 70
REMARK Flexibility Score: inf
ROOT
ATOM      1  C   UNL     1       2.805   1.849  -5.159  1.00  0.00     0.275 C 
ENDROOT
BRANCH   1   2
ATOM      2  O   UNL     1       2.398   2.999  -4.409  1.00  0.00    -0.458 OA
BRANCH   2   3
ATOM      3  C   UNL     1       1.903   2.658  -3.208  1.00  0.00     0.338 C 
ATOM      4  O   UNL     1       1.815   1.530  -2.747  1.00  0.00    -0.246 OA
BRANCH   3   5
ATOM      5  C   UNL     1       1.337   3.766  -2.458  1.00  0.00     0.062 A 
ATOM      6  C   UNL     1      -0.493   4.231  -0.988  1.00  0.00     0.065 A 
ATOM      7  C   UNL     1       0.028   3.537  -2.057  1.00  0.00     0.044 A 
ATOM      8  C   UNL     1       0.232   5.325  -0.406  1.00  0.00     0.061 A 
ATOM      9  C   UNL     1       1.522   5.590  -0.915  1.00  0.00     0.029 A 
ATOM     10  C   UNL     1       2.099   4.791  -1.909  1.00  0.00     0.018 A 
BRANCH   6  11
ATOM     11  N   UNL     1      -1.754   3.868  -0.493  1.00  0.00    -0.320 N 
ATOM     12  C   UNL     1      -2.470   2.696  -0.349  1.00  0.00     0.255 C 
ATOM     13  O   UNL     1      -3.557   2.819   0.234  1.00  0.00    -0.269 OA
ATOM     14  H   UNL     1      -2.257   4.647  -0.165  1.00  0.00     0.170 HD
BRANCH  12  15
ATOM     15  C   UNL     1      -2.082   1.306  -0.764  1.00  0.00     0.040 A 
ATOM     16  C   UNL     1       0.769  -1.010  -1.845  1.00  0.00     0.044 C 
ATOM     17  C   UNL     1      -0.585  -0.515  -1.426  1.00  0.00    -0.050 A 
ATOM     18  C   UNL     1      -1.675  -1.360  -1.633  1.00  0.00     0.003 A 
ATOM     19  C   UNL     1      -0.788   0.793  -0.922  1.00  0.00     0.017 A 
ATOM     20  C   UNL     1      -2.958  -0.903  -1.385  1.00  0.00     0.001 A 
ATOM     21  C   UNL     1      -3.157   0.419  -0.978  1.00  0.00     0.014 A 
ENDBRANCH  12  15
ENDBRANCH   6  11
BRANCH   8  22
ATOM     22  N   UNL     1      -0.265   6.075   0.655  1.00  0.00    -0.359 N 
ATOM     23  C   UNL     1       0.220   7.418   1.049  1.00  0.00     0.178 C 
ATOM     24  C   UNL     1      -0.872   5.393   1.792  1.00  0.00     0.178 C 
ATOM     25  C   UNL     1      -0.892   8.228   1.811  1.00  0.00     0.284 C 
ATOM     26  C   UNL     1      -2.144   6.177   2.156  1.00  0.00     0.284 C 
ATOM     27  N   UNL     1      -1.860   7.513   2.678  1.00  0.00    -0.324 N 
ATOM     28  H   UNL     1      -2.714   8.069   2.618  1.00  0.00     0.348 HD
BRANCH  27  29
ATOM     29  C   UNL     1      -1.613   7.550   4.130  1.00  0.00     0.363 C 
BRANCH  29  30
ATOM     30  C   UNL     1      -0.426   6.733   4.622  1.00  0.00     0.275 C 
ATOM     31  O   UNL     1       0.721   7.186   4.503  1.00  0.00    -0.268 OA
ATOM     32  N   UNL     1      -0.525   5.507   5.206  1.00  0.00    -0.347 N 
ATOM     33  H   UNL     1       0.335   5.256   5.615  1.00  0.00     0.164 HD
BRANCH  32  34
ATOM     34  C   UNL     1      -1.529   4.425   5.419  1.00  0.00     0.032 C 
ATOM     35  C   UNL     1      -1.472   3.389   4.279  1.00  0.00     0.034 C 
ATOM     36  C   UNL     1      -1.098   3.679   6.701  1.00  0.00     0.034 C 
ATOM     37  C   UNL     1      -2.973   4.889   5.634  1.00  0.00     0.034 C 
ENDBRANCH  32  34
ENDBRANCH  29  30
ENDBRANCH  27  29
ENDBRANCH   8  22
ENDBRANCH   3   5
ENDBRANCH   2   3
ENDBRANCH   1   2
BRANCH   1  38
ATOM     38  C   UNL     1       4.192   2.031  -5.759  1.00  0.00     0.275 C 
BRANCH  38  39
ATOM     39  O   UNL     1       5.184   2.799  -5.018  1.00  0.00    -0.458 OA
BRANCH  39  40
ATOM     40  C   UNL     1       5.322   3.027  -3.690  1.00  0.00     0.338 C 
ATOM     41  O   UNL     1       5.755   4.087  -3.276  1.00  0.00    -0.246 OA
BRANCH  40  42
ATOM     42  C   UNL     1       4.986   1.953  -2.717  1.00  0.00     0.060 A 
ATOM     43  C   UNL     1       4.734   2.294  -1.370  1.00  0.00     0.016 A 
ATOM     44  C   UNL     1       4.917   0.628  -3.114  1.00  0.00     0.016 A 
ATOM     45  C   UNL     1       4.366   1.316  -0.436  1.00  0.00     0.010 A 
ATOM     46  C   UNL     1       4.447  -0.316  -2.224  1.00  0.00     0.010 A 
ATOM     47  C   UNL     1       4.221   0.002  -0.868  1.00  0.00    -0.014 A 
BRANCH  47  48
ATOM     48  C   UNL     1       4.133  -1.186  -0.012  1.00  0.00     0.031 A 
ATOM     49  C   UNL     1       2.899  -1.722   0.595  1.00  0.00     0.074 A 
ATOM     50  C   UNL     1       5.265  -1.925  -0.057  1.00  0.00     0.049 A 
ATOM     51  N   UNL     1       2.679  -2.992   0.678  1.00  0.00    -0.248 NA
ATOM     52  C   UNL     1       1.795  -0.916   1.141  1.00  0.00     0.031 C 
ATOM     53  C   UNL     1       5.519  -3.312   0.296  1.00  0.00     0.029 A 
ATOM     54  N   UNL     1       6.543  -1.397  -0.282  1.00  0.00    -0.354 N 
ATOM     55  C   UNL     1       1.459  -3.176   1.268  1.00  0.00     0.074 A 
ATOM     56  C   UNL     1       0.898  -1.861   1.481  1.00  0.00     0.031 C 
ATOM     57  C   UNL     1       6.827  -3.438   0.591  1.00  0.00     0.029 A 
ATOM     58  C   UNL     1       7.390  -2.093   0.588  1.00  0.00     0.049 A 
ATOM     59  H   UNL     1       6.792  -0.687  -0.917  1.00  0.00     0.167 HD
ATOM     60  C   UNL     1       1.168  -4.354   1.874  1.00  0.00     0.031 A 
ATOM     61  C   UNL     1       7.836  -1.431   1.698  1.00  0.00     0.031 A 
ATOM     62  C   UNL     1       2.376  -4.958   2.393  1.00  0.00     0.049 A 
ATOM     63  C   UNL     1       7.305  -2.047   2.973  1.00  0.00     0.074 A 
ATOM     64  C   UNL     1       3.297  -5.879   1.932  1.00  0.00     0.029 A 
ATOM     65  N   UNL     1       2.952  -4.319   3.479  1.00  0.00    -0.354 N 
ATOM     66  N   UNL     1       6.181  -2.708   3.063  1.00  0.00    -0.248 NA
ATOM     67  C   UNL     1       8.033  -2.005   4.235  1.00  0.00     0.031 C 
ATOM     68  C   UNL     1       4.497  -5.683   2.681  1.00  0.00     0.029 A 
ATOM     69  C   UNL     1       4.271  -4.682   3.613  1.00  0.00     0.049 A 
ATOM     70  H   UNL     1       2.481  -3.692   4.073  1.00  0.00     0.167 HD
ATOM     71  C   UNL     1       6.076  -3.252   4.314  1.00  0.00     0.074 A 
ATOM     72  C   UNL     1       7.243  -2.756   5.022  1.00  0.00     0.031 C 
ATOM     73  C   UNL     1       5.062  -4.087   4.680  1.00  0.00     0.031 A 
BRANCH  60  74
ATOM     74  C   UNL     1      -0.147  -5.047   1.678  1.00  0.00    -0.014 A 
ATOM     75  C   UNL     1      -0.215  -6.442   1.872  1.00  0.00     0.009 A 
ATOM     76  C   UNL     1      -1.297  -4.423   1.163  1.00  0.00     0.009 A 
ATOM     77  C   UNL     1      -1.356  -7.181   1.535  1.00  0.00     0.001 A 
ATOM     78  C   UNL     1      -2.447  -5.160   0.840  1.00  0.00     0.001 A 
ATOM     79  C   UNL     1      -2.473  -6.539   1.014  1.00  0.00     0.000 A 
ENDBRANCH  60  74
BRANCH  61  80
ATOM     80  C   UNL     1       8.085   0.033   1.466  1.00  0.00    -0.014 A 
ATOM     81  C   UNL     1       8.958   0.399   0.413  1.00  0.00     0.009 A 
ATOM     82  C   UNL     1       7.278   1.036   2.020  1.00  0.00     0.009 A 
ATOM     83  C   UNL     1       8.945   1.685  -0.137  1.00  0.00     0.001 A 
ATOM     84  C   UNL     1       7.290   2.337   1.485  1.00  0.00     0.001 A 
ATOM     85  C   UNL     1       8.097   2.652   0.390  1.00  0.00     0.000 A 
ENDBRANCH  61  80
BRANCH  73  86
ATOM     86  C   UNL     1       4.713  -4.447   6.101  1.00  0.00    -0.014 A 
ATOM     87  C   UNL     1       5.033  -3.641   7.200  1.00  0.00     0.009 A 
ATOM     88  C   UNL     1       3.861  -5.549   6.343  1.00  0.00     0.009 A 
ATOM     89  C   UNL     1       4.570  -3.947   8.485  1.00  0.00     0.001 A 
ATOM     90  C   UNL     1       3.354  -5.826   7.613  1.00  0.00     0.001 A 
ATOM     91  C   UNL     1       3.721  -5.030   8.689  1.00  0.00     0.000 A 
ENDBRANCH  73  86
ENDBRANCH  47  48
ENDBRANCH  40  42
ENDBRANCH  39  40
ENDBRANCH  38  39
ENDBRANCH   1  38
TORSDOF 17
