REMARK SMILES CCc1ccc(CNc2ccc(Cl)c(C(=O)OCCOC(=O)c3ccc(-c4c5nc(c(-c6ccccc6)c6ccc([nH]6)c(-c6ccccc6)c6nc(c(-c7ccccc7)c7ccc4[nH]7)C=C6)C=C5)cc3)c2)cc1
REMARK SMILES IDX 18 1 17 2 15 3 16 4 14 5 9 6 10 7 71 8 11 9 12 10 13 11 8 12
REMARK SMILES IDX 7 14 6 15 3 16 4 17 73 18 5 19 72 20 2 21 1 22 19 23 20 24
REMARK SMILES IDX 21 25 22 26 23 27 24 28 70 29 25 30 69 31 26 32 27 33 28 34
REMARK SMILES IDX 63 35 29 36 68 37 62 38 64 39 30 40 67 41 61 42 60 43 31 45
REMARK SMILES IDX 53 46 38 47 52 48 39 49 42 50 51 51 65 52 40 53 41 54 50 56
REMARK SMILES IDX 66 57 43 58 32 59 33 60 37 61 34 62 36 63 35 64 54 65 55 66
REMARK SMILES IDX 59 67 56 68 58 69 57 70 44 71 45 72 49 73 46 74 48 75 47 76
REMARK H PARENT 8 13 64 44 42 55
REMARK Flexibility Score: inf
ROOT
ATOM      1  C   UNL     1       5.790   8.012   8.204  1.00  0.00     0.275 C 
ENDROOT
BRANCH   1   2
ATOM      2  O   UNL     1       4.720   7.083   7.939  1.00  0.00    -0.458 OA
BRANCH   2   3
ATOM      3  C   UNL     1       4.791   5.870   8.556  1.00  0.00     0.339 C 
ATOM      4  O   UNL     1       5.703   5.503   9.268  1.00  0.00    -0.246 OA
BRANCH   3   5
ATOM      5  C   UNL     1       3.549   5.087   8.274  1.00  0.00     0.080 A 
ATOM      6  C   UNL     1       1.591   4.724   6.842  1.00  0.00     0.035 A 
ATOM      7  C   UNL     1       1.091   3.824   7.782  1.00  0.00     0.027 A 
ATOM      8  C   UNL     1       2.793   5.384   7.125  1.00  0.00     0.043 A 
ATOM      9  C   UNL     1       1.842   3.487   8.908  1.00  0.00     0.023 A 
ATOM     10  C   UNL     1       3.094   4.073   9.128  1.00  0.00     0.055 A 
ATOM     11  Cl  UNL     1       3.974   3.482  10.494  1.00  0.00    -0.083 Cl
BRANCH   6  12
ATOM     12  N   UNL     1       0.951   4.859   5.620  1.00  0.00    -0.381 N 
ATOM     13  H   UNL     1      -0.023   5.000   5.584  1.00  0.00     0.160 HD
BRANCH  12  14
ATOM     14  C   UNL     1       1.726   4.790   4.388  1.00  0.00     0.148 C 
BRANCH  14  15
ATOM     15  C   UNL     1       1.412   3.517   3.634  1.00  0.00    -0.029 A 
ATOM     16  C   UNL     1       0.900   1.145   2.177  1.00  0.00    -0.048 A 
ATOM     17  C   UNL     1       1.394   1.086   3.486  1.00  0.00     0.004 A 
ATOM     18  C   UNL     1       0.648   2.403   1.614  1.00  0.00     0.004 A 
ATOM     19  C   UNL     1       1.655   2.257   4.204  1.00  0.00     0.006 A 
ATOM     20  C   UNL     1       0.908   3.574   2.330  1.00  0.00     0.006 A 
BRANCH  16  21
ATOM     21  C   UNL     1       0.590  -0.129   1.426  1.00  0.00     0.032 C 
ATOM     22  C   UNL     1       1.154  -0.172   0.010  1.00  0.00     0.009 C 
ENDBRANCH  16  21
ENDBRANCH  14  15
ENDBRANCH  12  14
ENDBRANCH   6  12
ENDBRANCH   3   5
ENDBRANCH   2   3
ENDBRANCH   1   2
BRANCH   1  23
ATOM     23  C   UNL     1       5.303   9.183   9.063  1.00  0.00     0.275 C 
BRANCH  23  24
ATOM     24  O   UNL     1       4.894   8.739  10.372  1.00  0.00    -0.458 OA
BRANCH  24  25
ATOM     25  C   UNL     1       3.567   8.504  10.496  1.00  0.00     0.338 C 
ATOM     26  O   UNL     1       2.701   8.706   9.659  1.00  0.00    -0.246 OA
BRANCH  25  27
ATOM     27  C   UNL     1       3.290   7.780  11.749  1.00  0.00     0.060 A 
ATOM     28  C   UNL     1       2.628   6.559  11.623  1.00  0.00     0.016 A 
ATOM     29  C   UNL     1       3.574   8.297  13.013  1.00  0.00     0.016 A 
ATOM     30  C   UNL     1       2.266   5.829  12.748  1.00  0.00     0.010 A 
ATOM     31  C   UNL     1       3.181   7.576  14.152  1.00  0.00     0.010 A 
ATOM     32  C   UNL     1       2.515   6.341  14.024  1.00  0.00    -0.014 A 
BRANCH  32  33
ATOM     33  C   UNL     1       1.936   5.628  15.190  1.00  0.00     0.031 A 
ATOM     34  C   UNL     1       0.670   6.147  15.814  1.00  0.00     0.074 A 
ATOM     35  C   UNL     1       2.464   4.466  15.618  1.00  0.00     0.049 A 
ATOM     36  N   UNL     1      -0.024   5.662  16.813  1.00  0.00    -0.248 NA
ATOM     37  C   UNL     1       0.105   7.372  15.226  1.00  0.00     0.031 C 
ATOM     38  C   UNL     1       3.635   3.805  15.043  1.00  0.00     0.029 A 
ATOM     39  N   UNL     1       2.064   3.624  16.627  1.00  0.00    -0.354 N 
ATOM     40  C   UNL     1      -1.099   6.526  16.980  1.00  0.00     0.074 A 
ATOM     41  C   UNL     1      -0.951   7.580  15.999  1.00  0.00     0.031 C 
ATOM     42  C   UNL     1       3.856   2.657  15.705  1.00  0.00     0.029 A 
ATOM     43  C   UNL     1       2.869   2.521  16.773  1.00  0.00     0.049 A 
ATOM     44  H   UNL     1       1.276   3.796  17.192  1.00  0.00     0.167 HD
ATOM     45  C   UNL     1      -2.120   6.450  17.867  1.00  0.00     0.031 A 
ATOM     46  C   UNL     1       2.825   1.523  17.678  1.00  0.00     0.031 A 
ATOM     47  C   UNL     1      -2.265   5.409  18.851  1.00  0.00     0.049 A 
ATOM     48  C   UNL     1       1.734   1.514  18.716  1.00  0.00     0.074 A 
ATOM     49  C   UNL     1      -3.261   5.254  19.801  1.00  0.00     0.029 A 
ATOM     50  N   UNL     1      -1.388   4.348  19.015  1.00  0.00    -0.354 N 
ATOM     51  N   UNL     1       0.728   2.341  18.871  1.00  0.00    -0.248 NA
ATOM     52  C   UNL     1       1.768   0.421  19.700  1.00  0.00     0.031 C 
ATOM     53  C   UNL     1      -2.951   4.134  20.580  1.00  0.00     0.029 A 
ATOM     54  C   UNL     1      -1.805   3.548  20.067  1.00  0.00     0.049 A 
ATOM     55  H   UNL     1      -0.587   4.188  18.466  1.00  0.00     0.167 HD
ATOM     56  C   UNL     1      -0.009   1.848  19.942  1.00  0.00     0.074 A 
ATOM     57  C   UNL     1       0.657   0.642  20.387  1.00  0.00     0.031 C 
ATOM     58  C   UNL     1      -1.139   2.347  20.502  1.00  0.00     0.031 A 
BRANCH  45  59
ATOM     59  C   UNL     1      -3.134   7.560  17.846  1.00  0.00    -0.014 A 
ATOM     60  C   UNL     1      -4.047   7.705  16.789  1.00  0.00     0.009 A 
ATOM     61  C   UNL     1      -3.186   8.468  18.915  1.00  0.00     0.009 A 
ATOM     62  C   UNL     1      -4.963   8.759  16.785  1.00  0.00     0.001 A 
ATOM     63  C   UNL     1      -4.124   9.502  18.925  1.00  0.00     0.001 A 
ATOM     64  C   UNL     1      -5.004   9.653  17.855  1.00  0.00     0.000 A 
ENDBRANCH  45  59
BRANCH  46  65
ATOM     65  C   UNL     1       3.864   0.458  17.672  1.00  0.00    -0.014 A 
ATOM     66  C   UNL     1       3.533  -0.875  17.379  1.00  0.00     0.009 A 
ATOM     67  C   UNL     1       5.193   0.766  18.004  1.00  0.00     0.009 A 
ATOM     68  C   UNL     1       4.503  -1.879  17.454  1.00  0.00     0.001 A 
ATOM     69  C   UNL     1       6.167  -0.234  18.044  1.00  0.00     0.001 A 
ATOM     70  C   UNL     1       5.819  -1.557  17.782  1.00  0.00     0.000 A 
ENDBRANCH  46  65
BRANCH  58  71
ATOM     71  C   UNL     1      -1.763   1.556  21.621  1.00  0.00    -0.014 A 
ATOM     72  C   UNL     1      -1.151   1.443  22.880  1.00  0.00     0.009 A 
ATOM     73  C   UNL     1      -3.002   0.928  21.413  1.00  0.00     0.009 A 
ATOM     74  C   UNL     1      -1.743   0.678  23.888  1.00  0.00     0.001 A 
ATOM     75  C   UNL     1      -3.609   0.196  22.434  1.00  0.00     0.001 A 
ATOM     76  C   UNL     1      -2.972   0.059  23.666  1.00  0.00     0.000 A 
ENDBRANCH  58  71
ENDBRANCH  32  33
ENDBRANCH  25  27
ENDBRANCH  24  25
ENDBRANCH  23  24
ENDBRANCH   1  23
TORSDOF 15
