REMARK SMILES C=CC[NH2+][C@]1(C(=O)OCCOC(=O)c2ccc(-c3c4nc(c(-c5ccccc5)c5ccc([nH]5)c(-c5ccccc5)c5nc(c(-c6ccccc6)c6ccc3[nH]6)C=C5)C=C4)cc2)CCCCC1(C)C
REMARK SMILES IDX 9 1 8 2 6 3 7 4 5 5 62 6 66 7 63 8 65 9 67 10 68 11 64 12
REMARK SMILES IDX 4 13 3 16 2 17 1 18 10 19 11 20 12 21 13 22 14 23 15 24
REMARK SMILES IDX 61 25 16 26 60 27 17 28 18 29 19 30 54 31 20 32 59 33 53 34
REMARK SMILES IDX 55 35 21 36 58 37 52 38 51 39 22 41 44 42 29 43 43 44 30 45
REMARK SMILES IDX 33 46 42 47 56 48 31 49 32 50 41 52 57 53 34 54 23 55 24 56
REMARK SMILES IDX 28 57 25 58 27 59 26 60 45 61 46 62 50 63 47 64 49 65 48 66
REMARK SMILES IDX 35 67 36 68 40 69 37 70 39 71 38 72
REMARK H PARENT 4 14 4 15 55 40 33 51
REMARK Flexibility Score: inf
ROOT
ATOM      1  C   UNL     1       0.153   1.478   1.415  1.00  0.00     0.274 C 
ENDROOT
BRANCH   1   2
ATOM      2  O   UNL     1      -1.287   1.506   1.476  1.00  0.00    -0.457 OA
BRANCH   2   3
ATOM      3  C   UNL     1      -1.898   0.299   1.695  1.00  0.00     0.368 C 
ATOM      4  O   UNL     1      -1.270  -0.721   1.946  1.00  0.00    -0.245 OA
BRANCH   3   5
ATOM      5  C   UNL     1      -3.493   0.422   1.659  1.00  0.00     0.199 C 
ATOM      6  C   UNL     1      -3.861   1.400   0.504  1.00  0.00     0.082 C 
ATOM      7  C   UNL     1      -4.138  -1.018   1.356  1.00  0.00     0.031 C 
ATOM      8  C   UNL     1      -3.439   0.881  -0.874  1.00  0.00     0.007 C 
ATOM      9  C   UNL     1      -3.615  -1.508  -0.029  1.00  0.00     0.013 C 
ATOM     10  C   UNL     1      -3.795  -2.085   2.425  1.00  0.00     0.018 C 
ATOM     11  C   UNL     1      -5.693  -1.028   1.262  1.00  0.00     0.018 C 
ATOM     12  C   UNL     1      -3.936  -0.530  -1.160  1.00  0.00     0.001 C 
BRANCH   5  13
ATOM     13  N   UNL     1      -3.822   1.050   2.968  1.00  0.00    -0.328 N 
ATOM     14  H   UNL     1      -3.389   0.471   3.688  1.00  0.00     0.347 HD
ATOM     15  H   UNL     1      -3.479   2.004   2.859  1.00  0.00     0.347 HD
BRANCH  13  16
ATOM     16  C   UNL     1      -5.203   1.239   3.361  1.00  0.00     0.289 C 
BRANCH  16  17
ATOM     17  C   UNL     1      -5.243   1.933   4.691  1.00  0.00     0.025 C 
ATOM     18  C   UNL     1      -5.964   3.028   4.966  1.00  0.00     0.010 C 
ENDBRANCH  16  17
ENDBRANCH  13  16
ENDBRANCH   5  13
ENDBRANCH   3   5
ENDBRANCH   2   3
ENDBRANCH   1   2
BRANCH   1  19
ATOM     19  C   UNL     1       0.795   2.047   2.680  1.00  0.00     0.275 C 
BRANCH  19  20
ATOM     20  O   UNL     1       0.475   1.253   3.835  1.00  0.00    -0.458 OA
BRANCH  20  21
ATOM     21  C   UNL     1      -0.545   1.732   4.580  1.00  0.00     0.338 C 
ATOM     22  O   UNL     1      -1.173   2.764   4.408  1.00  0.00    -0.246 OA
BRANCH  21  23
ATOM     23  C   UNL     1      -0.882   0.770   5.637  1.00  0.00     0.060 A 
ATOM     24  C   UNL     1      -1.948  -0.095   5.409  1.00  0.00     0.016 A 
ATOM     25  C   UNL     1      -0.274   0.827   6.890  1.00  0.00     0.016 A 
ATOM     26  C   UNL     1      -2.482  -0.841   6.449  1.00  0.00     0.010 A 
ATOM     27  C   UNL     1      -0.771   0.026   7.926  1.00  0.00     0.010 A 
ATOM     28  C   UNL     1      -1.903  -0.783   7.720  1.00  0.00    -0.014 A 
BRANCH  28  29
ATOM     29  C   UNL     1      -2.541  -1.521   8.835  1.00  0.00     0.031 A 
ATOM     30  C   UNL     1      -3.216  -0.766   9.945  1.00  0.00     0.074 A 
ATOM     31  C   UNL     1      -2.584  -2.867   8.814  1.00  0.00     0.049 A 
ATOM     32  N   UNL     1      -3.745  -1.224  11.052  1.00  0.00    -0.248 NA
ATOM     33  C   UNL     1      -3.312   0.694   9.791  1.00  0.00     0.031 C 
ATOM     34  C   UNL     1      -2.045  -3.716   7.751  1.00  0.00     0.029 A 
ATOM     35  N   UNL     1      -3.130  -3.753   9.707  1.00  0.00    -0.354 N 
ATOM     36  C   UNL     1      -4.197  -0.108  11.743  1.00  0.00     0.074 A 
ATOM     37  C   UNL     1      -3.886   1.049  10.932  1.00  0.00     0.031 C 
ATOM     38  C   UNL     1      -2.318  -5.000   8.036  1.00  0.00     0.029 A 
ATOM     39  C   UNL     1      -2.989  -5.066   9.329  1.00  0.00     0.049 A 
ATOM     40  H   UNL     1      -3.579  -3.476  10.538  1.00  0.00     0.167 HD
ATOM     41  C   UNL     1      -4.811  -0.053  12.948  1.00  0.00     0.031 A 
ATOM     42  C   UNL     1      -3.334  -6.198   9.969  1.00  0.00     0.031 A 
ATOM     43  C   UNL     1      -5.146  -1.203  13.743  1.00  0.00     0.049 A 
ATOM     44  C   UNL     1      -3.964  -6.111  11.328  1.00  0.00     0.074 A 
ATOM     45  C   UNL     1      -5.741  -1.249  14.992  1.00  0.00     0.029 A 
ATOM     46  N   UNL     1      -4.928  -2.515  13.354  1.00  0.00    -0.354 N 
ATOM     47  N   UNL     1      -4.308  -5.046  12.009  1.00  0.00    -0.248 NA
ATOM     48  C   UNL     1      -4.229  -7.382  12.015  1.00  0.00     0.031 C 
ATOM     49  C   UNL     1      -5.861  -2.592  15.369  1.00  0.00     0.029 A 
ATOM     50  C   UNL     1      -5.368  -3.379  14.341  1.00  0.00     0.049 A 
ATOM     51  H   UNL     1      -4.520  -2.791  12.501  1.00  0.00     0.167 HD
ATOM     52  C   UNL     1      -4.829  -5.517  13.206  1.00  0.00     0.074 A 
ATOM     53  C   UNL     1      -4.776  -6.964  13.148  1.00  0.00     0.031 C 
ATOM     54  C   UNL     1      -5.299  -4.814  14.264  1.00  0.00     0.031 A 
BRANCH  41  55
ATOM     55  C   UNL     1      -5.114   1.308  13.499  1.00  0.00    -0.014 A 
ATOM     56  C   UNL     1      -6.216   2.049  13.048  1.00  0.00     0.009 A 
ATOM     57  C   UNL     1      -4.288   1.849  14.496  1.00  0.00     0.009 A 
ATOM     58  C   UNL     1      -6.470   3.320  13.570  1.00  0.00     0.001 A 
ATOM     59  C   UNL     1      -4.554   3.112  15.028  1.00  0.00     0.001 A 
ATOM     60  C   UNL     1      -5.641   3.849  14.559  1.00  0.00     0.000 A 
ENDBRANCH  41  55
BRANCH  42  61
ATOM     61  C   UNL     1      -3.041  -7.514   9.349  1.00  0.00    -0.014 A 
ATOM     62  C   UNL     1      -4.075  -8.302   8.825  1.00  0.00     0.009 A 
ATOM     63  C   UNL     1      -1.720  -7.982   9.273  1.00  0.00     0.009 A 
ATOM     64  C   UNL     1      -3.792  -9.541   8.246  1.00  0.00     0.001 A 
ATOM     65  C   UNL     1      -1.438  -9.210   8.673  1.00  0.00     0.001 A 
ATOM     66  C   UNL     1      -2.474  -9.991   8.165  1.00  0.00     0.000 A 
ENDBRANCH  42  61
BRANCH  54  67
ATOM     67  C   UNL     1      -5.798  -5.606  15.434  1.00  0.00    -0.014 A 
ATOM     68  C   UNL     1      -4.900  -6.163  16.356  1.00  0.00     0.009 A 
ATOM     69  C   UNL     1      -7.176  -5.771  15.630  1.00  0.00     0.009 A 
ATOM     70  C   UNL     1      -5.376  -6.896  17.445  1.00  0.00     0.001 A 
ATOM     71  C   UNL     1      -7.649  -6.491  16.728  1.00  0.00     0.001 A 
ATOM     72  C   UNL     1      -6.749  -7.057  17.631  1.00  0.00     0.000 A 
ENDBRANCH  54  67
ENDBRANCH  28  29
ENDBRANCH  21  23
ENDBRANCH  20  21
ENDBRANCH  19  20
ENDBRANCH   1  19
TORSDOF 14
