REMARK SMILES O=C(OCCOC(=O)[C@H]1CCC(=O)N1Cc1ccco1)c1ccc(-c2c3nc(c(-c4ccccc4)c4ccc([nH]4)c(-c4ccccc4)c4nc(c(-c5ccccc5)c5ccc2[nH]5)C=C4)C=C3)cc1
REMARK SMILES IDX 4 1 3 2 2 3 1 4 21 5 22 6 68 7 23 8 67 9 24 10 25 11 26 12
REMARK SMILES IDX 61 13 27 14 66 15 60 16 62 17 28 18 65 19 59 20 58 21 29 23
REMARK SMILES IDX 51 24 36 25 50 26 37 27 40 28 49 29 63 30 38 31 39 32 48 34
REMARK SMILES IDX 64 35 41 36 30 37 31 38 35 39 32 40 34 41 33 42 52 43 53 44
REMARK SMILES IDX 57 45 54 46 56 47 55 48 42 49 43 50 47 51 44 52 46 53 45 54
REMARK SMILES IDX 5 55 6 56 7 57 8 58 9 59 10 60 14 61 11 62 12 63 13 64 15 65
REMARK SMILES IDX 16 66 17 67 20 68 18 69 19 70
REMARK H PARENT 62 22 40 33
REMARK Flexibility Score: inf
ROOT
ATOM      1  C   UNL     1      -1.686  -2.688  -3.607  1.00  0.00     0.275 C 
ENDROOT
BRANCH   1   2
ATOM      2  O   UNL     1      -0.972  -3.086  -2.432  1.00  0.00    -0.458 OA
BRANCH   2   3
ATOM      3  C   UNL     1      -0.661  -2.063  -1.593  1.00  0.00     0.338 C 
ATOM      4  O   UNL     1      -1.303  -1.045  -1.424  1.00  0.00    -0.246 OA
BRANCH   3   5
ATOM      5  C   UNL     1       0.743  -2.252  -1.146  1.00  0.00     0.060 A 
ATOM      6  C   UNL     1       1.430  -3.428  -1.466  1.00  0.00     0.016 A 
ATOM      7  C   UNL     1       1.430  -1.169  -0.580  1.00  0.00     0.016 A 
ATOM      8  C   UNL     1       2.794  -3.514  -1.250  1.00  0.00     0.010 A 
ATOM      9  C   UNL     1       2.811  -1.236  -0.405  1.00  0.00     0.010 A 
ATOM     10  C   UNL     1       3.487  -2.420  -0.724  1.00  0.00    -0.014 A 
BRANCH  10  11
ATOM     11  C   UNL     1       4.891  -2.636  -0.344  1.00  0.00     0.031 A 
ATOM     12  C   UNL     1       5.170  -2.952   1.091  1.00  0.00     0.074 A 
ATOM     13  C   UNL     1       5.846  -2.686  -1.287  1.00  0.00     0.049 A 
ATOM     14  N   UNL     1       6.263  -3.411   1.635  1.00  0.00    -0.248 NA
ATOM     15  C   UNL     1       4.062  -2.738   2.038  1.00  0.00     0.031 C 
ATOM     16  C   UNL     1       5.649  -2.403  -2.711  1.00  0.00     0.029 A 
ATOM     17  N   UNL     1       7.168  -3.023  -1.191  1.00  0.00    -0.354 N 
ATOM     18  C   UNL     1       5.964  -3.560   2.982  1.00  0.00     0.074 A 
ATOM     19  C   UNL     1       4.617  -3.086   3.185  1.00  0.00     0.031 C 
ATOM     20  C   UNL     1       6.813  -2.586  -3.357  1.00  0.00     0.029 A 
ATOM     21  C   UNL     1       7.828  -3.004  -2.395  1.00  0.00     0.049 A 
ATOM     22  H   UNL     1       7.605  -3.257  -0.340  1.00  0.00     0.167 HD
ATOM     23  C   UNL     1       6.742  -4.074   3.960  1.00  0.00     0.031 A 
ATOM     24  C   UNL     1       9.108  -3.309  -2.678  1.00  0.00     0.031 A 
ATOM     25  C   UNL     1       8.089  -4.507   3.741  1.00  0.00     0.049 A 
ATOM     26  C   UNL     1       9.977  -3.831  -1.565  1.00  0.00     0.074 A 
ATOM     27  C   UNL     1       8.988  -5.039   4.645  1.00  0.00     0.029 A 
ATOM     28  N   UNL     1       8.736  -4.436   2.514  1.00  0.00    -0.354 N 
ATOM     29  N   UNL     1       9.663  -4.044  -0.308  1.00  0.00    -0.248 NA
ATOM     30  C   UNL     1      11.361  -4.178  -1.909  1.00  0.00     0.031 C 
ATOM     31  C   UNL     1      10.197  -5.245   3.972  1.00  0.00     0.029 A 
ATOM     32  C   UNL     1      10.035  -4.887   2.640  1.00  0.00     0.049 A 
ATOM     33  H   UNL     1       8.329  -4.112   1.678  1.00  0.00     0.167 HD
ATOM     34  C   UNL     1      10.801  -4.570   0.286  1.00  0.00     0.074 A 
ATOM     35  C   UNL     1      11.810  -4.654  -0.754  1.00  0.00     0.031 C 
ATOM     36  C   UNL     1      11.000  -4.953   1.572  1.00  0.00     0.031 A 
BRANCH  23  37
ATOM     37  C   UNL     1       6.136  -4.129   5.331  1.00  0.00    -0.014 A 
ATOM     38  C   UNL     1       5.095  -5.025   5.631  1.00  0.00     0.009 A 
ATOM     39  C   UNL     1       6.545  -3.211   6.309  1.00  0.00     0.009 A 
ATOM     40  C   UNL     1       4.439  -4.961   6.862  1.00  0.00     0.001 A 
ATOM     41  C   UNL     1       5.905  -3.168   7.548  1.00  0.00     0.001 A 
ATOM     42  C   UNL     1       4.843  -4.030   7.818  1.00  0.00     0.000 A 
ENDBRANCH  23  37
BRANCH  24  43
ATOM     43  C   UNL     1       9.620  -3.143  -4.064  1.00  0.00    -0.014 A 
ATOM     44  C   UNL     1       9.899  -4.252  -4.876  1.00  0.00     0.009 A 
ATOM     45  C   UNL     1       9.801  -1.855  -4.594  1.00  0.00     0.009 A 
ATOM     46  C   UNL     1      10.361  -4.074  -6.184  1.00  0.00     0.001 A 
ATOM     47  C   UNL     1      10.242  -1.680  -5.908  1.00  0.00     0.001 A 
ATOM     48  C   UNL     1      10.527  -2.789  -6.700  1.00  0.00     0.000 A 
ENDBRANCH  24  43
BRANCH  36  49
ATOM     49  C   UNL     1      12.348  -5.512   1.918  1.00  0.00    -0.014 A 
ATOM     50  C   UNL     1      13.453  -4.668   2.093  1.00  0.00     0.009 A 
ATOM     51  C   UNL     1      12.483  -6.886   2.169  1.00  0.00     0.009 A 
ATOM     52  C   UNL     1      14.678  -5.194   2.503  1.00  0.00     0.001 A 
ATOM     53  C   UNL     1      13.703  -7.405   2.601  1.00  0.00     0.001 A 
ATOM     54  C   UNL     1      14.799  -6.560   2.764  1.00  0.00     0.000 A 
ENDBRANCH  36  49
ENDBRANCH  10  11
ENDBRANCH   3   5
ENDBRANCH   2   3
ENDBRANCH   1   2
BRANCH   1  55
ATOM     55  C   UNL     1      -0.737  -2.074  -4.653  1.00  0.00     0.274 C 
BRANCH  55  56
ATOM     56  O   UNL     1       0.308  -1.294  -4.032  1.00  0.00    -0.461 OA
BRANCH  56  57
ATOM     57  C   UNL     1       0.559  -0.033  -4.485  1.00  0.00     0.329 C 
ATOM     58  O   UNL     1       0.007   0.485  -5.444  1.00  0.00    -0.250 OA
BRANCH  57  59
ATOM     59  C   UNL     1       1.753   0.555  -3.704  1.00  0.00     0.196 C 
ATOM     60  C   UNL     1       3.016   0.432  -4.554  1.00  0.00     0.047 C 
ATOM     61  N   UNL     1       1.718   1.975  -3.401  1.00  0.00    -0.321 N 
ATOM     62  C   UNL     1       3.058   1.756  -5.310  1.00  0.00     0.103 C 
ATOM     63  C   UNL     1       2.464   2.714  -4.309  1.00  0.00     0.223 C 
ATOM     64  O   UNL     1       2.673   3.915  -4.280  1.00  0.00    -0.275 OA
BRANCH  61  65
ATOM     65  C   UNL     1       1.339   2.530  -2.113  1.00  0.00     0.195 C 
BRANCH  65  66
ATOM     66  C   UNL     1      -0.070   2.303  -1.711  1.00  0.00     0.123 A 
ATOM     67  C   UNL     1      -0.650   2.056  -0.480  1.00  0.00     0.047 A 
ATOM     68  O   UNL     1      -1.043   2.463  -2.653  1.00  0.00    -0.467 OA
ATOM     69  C   UNL     1      -2.048   2.045  -0.686  1.00  0.00     0.042 A 
ATOM     70  C   UNL     1      -2.236   2.303  -2.023  1.00  0.00     0.195 A 
ENDBRANCH  65  66
ENDBRANCH  61  65
ENDBRANCH  57  59
ENDBRANCH  56  57
ENDBRANCH  55  56
ENDBRANCH   1  55
TORSDOF 13
