REMARK SMILES NC(=O)C[NH+]1CCC([NH2+]Cc2cc(C(=O)OCCOC(=O)c3ccc(-c4c5nc(c(-c6ccccc6)c6ccc([nH]6)c(-c6ccccc6)c6nc(c(-c7ccccc7)c7ccc4[nH]7)C=C6)C=C5)cc3)cs2)CC1
REMARK SMILES IDX 16 1 14 2 15 3 13 4 11 5 12 6 71 7 70 8 10 9 9 10 8 13 5 14
REMARK SMILES IDX 6 15 73 16 7 18 72 19 4 20 2 21 1 22 3 25 17 26 18 27 19 28
REMARK SMILES IDX 20 29 21 30 22 31 23 32 69 33 24 34 68 35 25 36 26 37 27 38
REMARK SMILES IDX 62 39 28 40 67 41 61 42 63 43 29 44 66 45 60 46 59 47 30 49
REMARK SMILES IDX 52 50 37 51 51 52 38 53 41 54 50 55 64 56 39 57 40 58 49 60
REMARK SMILES IDX 65 61 42 62 31 63 32 64 36 65 33 66 35 67 34 68 53 69 54 70
REMARK SMILES IDX 58 71 55 72 57 73 56 74 43 75 44 76 48 77 45 78 47 79 46 80
REMARK H PARENT 9 11 9 12 5 17 1 23 1 24 63 48 41 59
REMARK Flexibility Score: inf
ROOT
ATOM      1  O   UNL     1       0.163   5.597   2.402  1.00  0.00    -0.458 OA
ENDROOT
BRANCH   1   2
ATOM      2  C   UNL     1       0.745   6.630   1.733  1.00  0.00     0.339 C 
ATOM      3  O   UNL     1       0.270   7.163   0.732  1.00  0.00    -0.246 OA
BRANCH   2   4
ATOM      4  C   UNL     1       2.039   7.035   2.289  1.00  0.00     0.071 A 
ATOM      5  C   UNL     1       4.157   6.506   2.958  1.00  0.00     0.060 A 
ATOM      6  C   UNL     1       2.817   6.320   3.266  1.00  0.00     0.037 A 
ATOM      7  S   UNL     1       4.388   8.083   2.319  1.00  0.00    -0.142 S 
ATOM      8  C   UNL     1       2.751   8.130   1.825  1.00  0.00     0.081 A 
BRANCH   5   9
ATOM      9  C   UNL     1       5.298   5.532   3.002  1.00  0.00     0.308 C 
BRANCH   9  10
ATOM     10  N   UNL     1       4.894   4.134   2.775  1.00  0.00    -0.339 N 
ATOM     11  H   UNL     1       5.688   3.547   3.031  1.00  0.00     0.346 HD
ATOM     12  H   UNL     1       4.051   4.026   3.338  1.00  0.00     0.346 HD
BRANCH  10  13
ATOM     13  C   UNL     1       4.472   3.727   1.411  1.00  0.00     0.194 C 
ATOM     14  N   UNL     1       2.203   2.487  -0.019  1.00  0.00    -0.327 N 
ATOM     15  C   UNL     1       3.413   1.699   0.234  1.00  0.00     0.268 C 
ATOM     16  C   UNL     1       2.590   3.854  -0.361  1.00  0.00     0.268 C 
ATOM     17  H   UNL     1       1.653   2.472   0.840  1.00  0.00     0.348 HD
ATOM     18  C   UNL     1       4.146   2.223   1.476  1.00  0.00     0.126 C 
ATOM     19  C   UNL     1       3.257   4.472   0.855  1.00  0.00     0.126 C 
BRANCH  14  20
ATOM     20  C   UNL     1       1.312   1.922  -1.046  1.00  0.00     0.363 C 
BRANCH  20  21
ATOM     21  C   UNL     1       0.331   0.930  -0.411  1.00  0.00     0.272 C 
ATOM     22  N   UNL     1       0.781  -0.351  -0.271  1.00  0.00    -0.365 N 
ATOM     23  H   UNL     1       0.198  -1.036   0.130  1.00  0.00     0.159 HD
ATOM     24  H   UNL     1       1.688  -0.590  -0.571  1.00  0.00     0.159 HD
ATOM     25  O   UNL     1      -0.804   1.232  -0.052  1.00  0.00    -0.269 OA
ENDBRANCH  20  21
ENDBRANCH  14  20
ENDBRANCH  10  13
ENDBRANCH   9  10
ENDBRANCH   5   9
ENDBRANCH   2   4
ENDBRANCH   1   2
BRANCH   1  26
ATOM     26  C   UNL     1      -1.132   5.190   1.921  1.00  0.00     0.275 C 
BRANCH  26  27
ATOM     27  C   UNL     1      -2.233   5.782   2.802  1.00  0.00     0.275 C 
BRANCH  27  28
ATOM     28  O   UNL     1      -2.204   7.223   2.755  1.00  0.00    -0.458 OA
BRANCH  28  29
ATOM     29  C   UNL     1      -1.557   7.818   3.785  1.00  0.00     0.338 C 
ATOM     30  O   UNL     1      -1.062   7.286   4.761  1.00  0.00    -0.246 OA
BRANCH  29  31
ATOM     31  C   UNL     1      -1.414   9.257   3.518  1.00  0.00     0.060 A 
ATOM     32  C   UNL     1      -0.346   9.680   2.734  1.00  0.00     0.016 A 
ATOM     33  C   UNL     1      -2.213  10.194   4.162  1.00  0.00     0.016 A 
ATOM     34  C   UNL     1      -0.009  11.018   2.639  1.00  0.00     0.010 A 
ATOM     35  C   UNL     1      -1.934  11.556   3.993  1.00  0.00     0.010 A 
ATOM     36  C   UNL     1      -0.814  11.977   3.250  1.00  0.00    -0.014 A 
BRANCH  36  37
ATOM     37  C   UNL     1      -0.439  13.407   3.138  1.00  0.00     0.031 A 
ATOM     38  C   UNL     1      -0.105  14.188   4.375  1.00  0.00     0.074 A 
ATOM     39  C   UNL     1      -0.355  13.989   1.925  1.00  0.00     0.049 A 
ATOM     40  N   UNL     1       0.096  15.473   4.510  1.00  0.00    -0.248 NA
ATOM     41  C   UNL     1       0.005  13.425   5.629  1.00  0.00     0.031 C 
ATOM     42  C   UNL     1      -0.569  13.317   0.640  1.00  0.00     0.029 A 
ATOM     43  N   UNL     1      -0.058  15.282   1.575  1.00  0.00    -0.354 N 
ATOM     44  C   UNL     1       0.302  15.680   5.868  1.00  0.00     0.074 A 
ATOM     45  C   UNL     1       0.191  14.392   6.516  1.00  0.00     0.031 C 
ATOM     46  C   UNL     1      -0.370  14.195  -0.355  1.00  0.00     0.029 A 
ATOM     47  C   UNL     1      -0.110  15.507   0.221  1.00  0.00     0.049 A 
ATOM     48  H   UNL     1       0.171  15.980   2.230  1.00  0.00     0.167 HD
ATOM     49  C   UNL     1       0.556  16.844   6.513  1.00  0.00     0.031 A 
ATOM     50  C   UNL     1      -0.011  16.652  -0.479  1.00  0.00     0.031 A 
ATOM     51  C   UNL     1       0.686  18.116   5.853  1.00  0.00     0.049 A 
ATOM     52  C   UNL     1       0.185  17.940   0.267  1.00  0.00     0.074 A 
ATOM     53  C   UNL     1       0.949  19.354   6.411  1.00  0.00     0.029 A 
ATOM     54  N   UNL     1       0.568  18.310   4.484  1.00  0.00    -0.354 N 
ATOM     55  N   UNL     1       0.338  18.134   1.555  1.00  0.00    -0.248 NA
ATOM     56  C   UNL     1       0.209  19.169  -0.536  1.00  0.00     0.031 C 
ATOM     57  C   UNL     1       0.930  20.306   5.387  1.00  0.00     0.029 A 
ATOM     58  C   UNL     1       0.723  19.652   4.182  1.00  0.00     0.049 A 
ATOM     59  H   UNL     1       0.400  17.598   3.825  1.00  0.00     0.167 HD
ATOM     60  C   UNL     1       0.495  19.503   1.716  1.00  0.00     0.074 A 
ATOM     61  C   UNL     1       0.443  20.088   0.391  1.00  0.00     0.031 C 
ATOM     62  C   UNL     1       0.662  20.214   2.857  1.00  0.00     0.031 A 
BRANCH  49  63
ATOM     63  C   UNL     1       0.649  16.799   8.013  1.00  0.00    -0.014 A 
ATOM     64  C   UNL     1       1.729  16.190   8.671  1.00  0.00     0.009 A 
ATOM     65  C   UNL     1      -0.362  17.398   8.782  1.00  0.00     0.009 A 
ATOM     66  C   UNL     1       1.774  16.149  10.067  1.00  0.00     0.001 A 
ATOM     67  C   UNL     1      -0.298  17.384  10.177  1.00  0.00     0.001 A 
ATOM     68  C   UNL     1       0.764  16.750  10.818  1.00  0.00     0.000 A 
ENDBRANCH  49  63
BRANCH  50  69
ATOM     69  C   UNL     1      -0.163  16.638  -1.959  1.00  0.00    -0.014 A 
ATOM     70  C   UNL     1       0.918  16.961  -2.793  1.00  0.00     0.009 A 
ATOM     71  C   UNL     1      -1.395  16.305  -2.546  1.00  0.00     0.009 A 
ATOM     72  C   UNL     1       0.762  16.971  -4.181  1.00  0.00     0.001 A 
ATOM     73  C   UNL     1      -1.538  16.281  -3.934  1.00  0.00     0.001 A 
ATOM     74  C   UNL     1      -0.463  16.625  -4.751  1.00  0.00     0.000 A 
ENDBRANCH  50  69
BRANCH  62  75
ATOM     75  C   UNL     1       0.835  21.700   2.715  1.00  0.00    -0.014 A 
ATOM     76  C   UNL     1      -0.238  22.528   2.353  1.00  0.00     0.009 A 
ATOM     77  C   UNL     1       2.085  22.281   2.980  1.00  0.00     0.009 A 
ATOM     78  C   UNL     1      -0.054  23.906   2.226  1.00  0.00     0.001 A 
ATOM     79  C   UNL     1       2.258  23.662   2.885  1.00  0.00     0.001 A 
ATOM     80  C   UNL     1       1.192  24.472   2.498  1.00  0.00     0.000 A 
ENDBRANCH  62  75
ENDBRANCH  36  37
ENDBRANCH  29  31
ENDBRANCH  28  29
ENDBRANCH  27  28
ENDBRANCH  26  27
ENDBRANCH   1  26
TORSDOF 16
