REMARK SMILES CCCn1nc(C(=O)OCCOC(=O)c2ccc(-c3c4nc(c(-c5ccccc5)c5ccc([nH]5)c(-c5ccccc5)c5nc(c(-c6ccccc6)c6ccc3[nH]6)C=C5)C=C4)cc2)c2c1CC[C@@H]([NH+]1CC[NH+](Cc3ccccn3)CC1)C2
REMARK SMILES IDX 10 1 9 2 7 3 8 4 6 5 4 6 5 7 64 8 63 9 65 10 81 11 66 12
REMARK SMILES IDX 67 13 3 14 2 15 1 16 68 17 69 18 80 19 70 21 79 22 71 23
REMARK SMILES IDX 72 25 73 26 74 27 78 28 75 29 77 30 76 31 11 32 12 33 13 34
REMARK SMILES IDX 14 35 15 36 16 37 62 38 17 39 61 40 18 41 19 42 20 43 55 44
REMARK SMILES IDX 21 45 60 46 54 47 56 48 22 49 59 50 53 51 52 52 23 54 45 55
REMARK SMILES IDX 30 56 44 57 31 58 34 59 43 60 57 61 32 62 33 63 42 65 58 66
REMARK SMILES IDX 35 67 24 68 25 69 29 70 26 71 28 72 27 73 46 74 47 75 51 76
REMARK SMILES IDX 48 77 50 78 49 79 36 80 37 81 41 82 38 83 40 84 39 85
REMARK H PARENT 68 20 71 24 56 53 34 64
REMARK Flexibility Score: inf
ROOT
ATOM      1  C   UNL     1      -0.765  -5.131   6.973  1.00  0.00     0.275 C 
ENDROOT
BRANCH   1   2
ATOM      2  O   UNL     1      -0.201  -4.229   6.019  1.00  0.00    -0.457 OA
BRANCH   2   3
ATOM      3  C   UNL     1       0.358  -4.763   4.890  1.00  0.00     0.359 C 
ATOM      4  O   UNL     1       0.742  -5.928   4.805  1.00  0.00    -0.244 OA
BRANCH   3   5
ATOM      5  C   UNL     1       0.365  -3.781   3.796  1.00  0.00     0.174 A 
ATOM      6  N   UNL     1       0.712  -2.877   1.874  1.00  0.00    -0.268 N 
ATOM      7  N   UNL     1       0.938  -4.006   2.594  1.00  0.00    -0.165 NA
ATOM      8  C   UNL     1       0.161  -1.897   2.648  1.00  0.00     0.043 A 
ATOM      9  C   UNL     1      -0.241  -2.499   3.818  1.00  0.00     0.014 A 
ATOM     10  C   UNL     1      -0.054  -0.468   2.359  1.00  0.00     0.062 C 
ATOM     11  C   UNL     1      -1.077  -1.823   4.866  1.00  0.00     0.105 C 
ATOM     12  C   UNL     1      -0.376   0.275   3.662  1.00  0.00     0.072 C 
ATOM     13  C   UNL     1      -1.515  -0.383   4.469  1.00  0.00     0.189 C 
BRANCH   6  14
ATOM     14  C   UNL     1       1.013  -2.946   0.452  1.00  0.00     0.144 C 
BRANCH  14  15
ATOM     15  C   UNL     1       0.659  -1.780  -0.478  1.00  0.00     0.020 C 
ATOM     16  C   UNL     1       1.780  -0.758  -0.605  1.00  0.00     0.006 C 
ENDBRANCH  14  15
ENDBRANCH   6  14
BRANCH  13  17
ATOM     17  N   UNL     1      -2.860  -0.249   3.888  1.00  0.00    -0.323 N 
ATOM     18  C   UNL     1      -3.318  -1.139   2.829  1.00  0.00     0.324 C 
ATOM     19  C   UNL     1      -3.402   1.113   3.852  1.00  0.00     0.324 C 
ATOM     20  H   UNL     1      -3.348  -0.731   4.643  1.00  0.00     0.348 HD
ATOM     21  C   UNL     1      -3.641  -0.514   1.440  1.00  0.00     0.324 C 
ATOM     22  C   UNL     1      -4.395   1.423   2.711  1.00  0.00     0.324 C 
ATOM     23  N   UNL     1      -4.021   0.896   1.403  1.00  0.00    -0.321 N 
ATOM     24  H   UNL     1      -4.894   0.898   0.876  1.00  0.00     0.348 HD
BRANCH  23  25
ATOM     25  C   UNL     1      -3.256   1.782   0.514  1.00  0.00     0.319 C 
BRANCH  25  26
ATOM     26  C   UNL     1      -1.937   2.382   0.987  1.00  0.00     0.095 A 
ATOM     27  C   UNL     1      -0.730   1.985   0.410  1.00  0.00     0.030 A 
ATOM     28  N   UNL     1      -1.977   3.353   1.937  1.00  0.00    -0.255 NA
ATOM     29  C   UNL     1       0.468   2.525   0.882  1.00  0.00     0.004 A 
ATOM     30  C   UNL     1      -0.800   3.863   2.373  1.00  0.00     0.111 A 
ATOM     31  C   UNL     1       0.437   3.469   1.898  1.00  0.00     0.020 A 
ENDBRANCH  25  26
ENDBRANCH  23  25
ENDBRANCH  13  17
ENDBRANCH   3   5
ENDBRANCH   2   3
ENDBRANCH   1   2
BRANCH   1  32
ATOM     32  C   UNL     1      -2.170  -5.520   6.539  1.00  0.00     0.275 C 
BRANCH  32  33
ATOM     33  O   UNL     1      -2.106  -6.436   5.447  1.00  0.00    -0.458 OA
BRANCH  33  34
ATOM     34  C   UNL     1      -2.421  -5.955   4.223  1.00  0.00     0.338 C 
ATOM     35  O   UNL     1      -2.536  -4.792   3.885  1.00  0.00    -0.246 OA
BRANCH  34  36
ATOM     36  C   UNL     1      -2.809  -7.095   3.386  1.00  0.00     0.060 A 
ATOM     37  C   UNL     1      -2.884  -6.939   2.000  1.00  0.00     0.016 A 
ATOM     38  C   UNL     1      -3.293  -8.246   4.024  1.00  0.00     0.016 A 
ATOM     39  C   UNL     1      -3.548  -7.905   1.262  1.00  0.00     0.010 A 
ATOM     40  C   UNL     1      -3.966  -9.193   3.297  1.00  0.00     0.010 A 
ATOM     41  C   UNL     1      -4.135  -8.989   1.931  1.00  0.00    -0.014 A 
BRANCH  41  42
ATOM     42  C   UNL     1      -4.790 -10.038   1.173  1.00  0.00     0.031 A 
ATOM     43  C   UNL     1      -3.833 -10.850   0.388  1.00  0.00     0.074 A 
ATOM     44  C   UNL     1      -6.093 -10.351   1.329  1.00  0.00     0.049 A 
ATOM     45  N   UNL     1      -3.749 -10.921  -0.897  1.00  0.00    -0.248 NA
ATOM     46  C   UNL     1      -2.738 -11.534   1.100  1.00  0.00     0.031 C 
ATOM     47  C   UNL     1      -7.039  -9.775   2.293  1.00  0.00     0.029 A 
ATOM     48  N   UNL     1      -6.828 -11.332   0.732  1.00  0.00    -0.354 N 
ATOM     49  C   UNL     1      -2.735 -11.838  -1.155  1.00  0.00     0.074 A 
ATOM     50  C   UNL     1      -2.032 -12.033   0.085  1.00  0.00     0.031 C 
ATOM     51  C   UNL     1      -8.140 -10.559   2.368  1.00  0.00     0.029 A 
ATOM     52  C   UNL     1      -8.043 -11.598   1.357  1.00  0.00     0.049 A 
ATOM     53  H   UNL     1      -6.525 -11.812  -0.073  1.00  0.00     0.167 HD
ATOM     54  C   UNL     1      -2.769 -12.594  -2.285  1.00  0.00     0.031 A 
ATOM     55  C   UNL     1      -8.902 -12.606   1.068  1.00  0.00     0.031 A 
ATOM     56  C   UNL     1      -3.721 -12.070  -3.230  1.00  0.00     0.049 A 
ATOM     57  C   UNL     1      -8.614 -13.050  -0.309  1.00  0.00     0.074 A 
ATOM     58  C   UNL     1      -3.795 -11.001  -4.093  1.00  0.00     0.029 A 
ATOM     59  N   UNL     1      -4.999 -12.522  -3.021  1.00  0.00    -0.354 N 
ATOM     60  N   UNL     1      -8.855 -12.310  -1.351  1.00  0.00    -0.248 NA
ATOM     61  C   UNL     1      -7.733 -14.188  -0.537  1.00  0.00     0.031 C 
ATOM     62  C   UNL     1      -5.184 -10.702  -4.230  1.00  0.00     0.029 A 
ATOM     63  C   UNL     1      -5.920 -11.626  -3.490  1.00  0.00     0.049 A 
ATOM     64  H   UNL     1      -5.224 -13.379  -2.591  1.00  0.00     0.167 HD
ATOM     65  C   UNL     1      -7.818 -12.602  -2.214  1.00  0.00     0.074 A 
ATOM     66  C   UNL     1      -7.289 -13.882  -1.760  1.00  0.00     0.031 C 
ATOM     67  C   UNL     1      -7.282 -11.628  -3.004  1.00  0.00     0.031 A 
BRANCH  54  68
ATOM     68  C   UNL     1      -2.394 -14.060  -2.309  1.00  0.00    -0.014 A 
ATOM     69  C   UNL     1      -2.502 -14.754  -3.528  1.00  0.00     0.009 A 
ATOM     70  C   UNL     1      -2.252 -14.845  -1.148  1.00  0.00     0.009 A 
ATOM     71  C   UNL     1      -2.537 -16.154  -3.571  1.00  0.00     0.001 A 
ATOM     72  C   UNL     1      -2.253 -16.242  -1.191  1.00  0.00     0.001 A 
ATOM     73  C   UNL     1      -2.421 -16.896  -2.401  1.00  0.00     0.000 A 
ENDBRANCH  54  68
BRANCH  55  74
ATOM     74  C   UNL     1      -9.879 -13.329   1.907  1.00  0.00    -0.014 A 
ATOM     75  C   UNL     1     -10.983 -13.978   1.328  1.00  0.00     0.009 A 
ATOM     76  C   UNL     1      -9.554 -13.644   3.237  1.00  0.00     0.009 A 
ATOM     77  C   UNL     1     -11.704 -14.947   2.038  1.00  0.00     0.001 A 
ATOM     78  C   UNL     1     -10.272 -14.616   3.944  1.00  0.00     0.001 A 
ATOM     79  C   UNL     1     -11.336 -15.280   3.339  1.00  0.00     0.000 A 
ENDBRANCH  55  74
BRANCH  67  80
ATOM     80  C   UNL     1      -8.108 -10.393  -3.224  1.00  0.00    -0.014 A 
ATOM     81  C   UNL     1      -8.415  -9.471  -2.209  1.00  0.00     0.009 A 
ATOM     82  C   UNL     1      -8.534 -10.119  -4.531  1.00  0.00     0.009 A 
ATOM     83  C   UNL     1      -9.152  -8.317  -2.495  1.00  0.00     0.001 A 
ATOM     84  C   UNL     1      -9.251  -8.959  -4.819  1.00  0.00     0.001 A 
ATOM     85  C   UNL     1      -9.566  -8.061  -3.802  1.00  0.00     0.000 A 
ENDBRANCH  67  80
ENDBRANCH  41  42
ENDBRANCH  34  36
ENDBRANCH  33  34
ENDBRANCH  32  33
ENDBRANCH   1  32
TORSDOF 16
