REMARK SMILES Cc1nc(C(F)(F)F)c(C(=O)OCCOC(=O)c2ccc(-c3c4nc(c(-c5ccccc5)c5ccc([nH]5)c(-c5ccccc5)c5nc(c(-c6ccccc6)c6ccc3[nH]6)C=C5)C=C4)cc2)s1
REMARK SMILES IDX 14 1 13 2 12 3 10 4 11 5 9 6 1 7 2 8 3 9 66 10 4 11 5 12
REMARK SMILES IDX 6 13 7 14 8 15 15 16 16 17 17 18 18 19 19 20 65 21 20 22
REMARK SMILES IDX 64 23 21 24 22 25 23 26 58 27 24 28 63 29 57 30 59 31 25 32
REMARK SMILES IDX 62 33 56 34 55 35 26 37 48 38 33 39 47 40 34 41 37 42 46 43
REMARK SMILES IDX 60 44 35 45 36 46 45 48 61 49 38 50 27 51 28 52 32 53 29 54
REMARK SMILES IDX 31 55 30 56 49 57 50 58 54 59 51 60 53 61 52 62 39 63 40 64
REMARK SMILES IDX 44 65 41 66 43 67 42 68
REMARK H PARENT 59 36 37 47
REMARK Flexibility Score: inf
ROOT
ATOM      1  C   UNL     1       5.482   0.664  -1.114  1.00  0.00     0.275 C 
ENDROOT
BRANCH   1   2
ATOM      2  C   UNL     1       5.156  -0.100   0.175  1.00  0.00     0.275 C 
BRANCH   2   3
ATOM      3  O   UNL     1       3.813  -0.626   0.159  1.00  0.00    -0.458 OA
BRANCH   3   4
ATOM      4  C   UNL     1       2.889   0.016   0.930  1.00  0.00     0.350 C 
ATOM      5  O   UNL     1       3.139   0.974   1.643  1.00  0.00    -0.245 OA
BRANCH   4   6
ATOM      6  C   UNL     1       1.570  -0.538   0.695  1.00  0.00     0.145 A 
ATOM      7  C   UNL     1      -2.259  -0.397   0.091  1.00  0.00     0.079 C 
ATOM      8  C   UNL     1      -0.824  -0.722   0.317  1.00  0.00     0.091 A 
ATOM      9  N   UNL     1      -0.225  -1.813  -0.104  1.00  0.00    -0.236 NA
ATOM     10  S   UNL     1       0.182   0.369   1.165  1.00  0.00    -0.111 S 
ATOM     11  C   UNL     1       1.160  -1.741   0.135  1.00  0.00     0.170 A 
BRANCH  11  12
ATOM     12  C   UNL     1       2.046  -2.902  -0.212  1.00  0.00     0.435 C 
ATOM     13  F   UNL     1       2.738  -2.712  -1.364  1.00  0.00    -0.164 F 
ATOM     14  F   UNL     1       2.962  -3.139   0.768  1.00  0.00    -0.164 F 
ATOM     15  F   UNL     1       1.351  -4.062  -0.359  1.00  0.00    -0.164 F 
ENDBRANCH  11  12
ENDBRANCH   4   6
ENDBRANCH   3   4
ENDBRANCH   2   3
ENDBRANCH   1   2
BRANCH   1  16
ATOM     16  O   UNL     1       4.775   1.919  -1.187  1.00  0.00    -0.458 OA
BRANCH  16  17
ATOM     17  C   UNL     1       3.595   1.867  -1.845  1.00  0.00     0.338 C 
ATOM     18  O   UNL     1       3.085   0.892  -2.370  1.00  0.00    -0.246 OA
BRANCH  17  19
ATOM     19  C   UNL     1       2.876   3.141  -1.693  1.00  0.00     0.060 A 
ATOM     20  C   UNL     1       1.715   3.113  -0.924  1.00  0.00     0.016 A 
ATOM     21  C   UNL     1       3.245   4.304  -2.365  1.00  0.00     0.016 A 
ATOM     22  C   UNL     1       0.893   4.228  -0.836  1.00  0.00     0.010 A 
ATOM     23  C   UNL     1       2.430   5.442  -2.257  1.00  0.00     0.010 A 
ATOM     24  C   UNL     1       1.240   5.407  -1.504  1.00  0.00    -0.014 A 
BRANCH  24  25
ATOM     25  C   UNL     1       0.322   6.572  -1.437  1.00  0.00     0.031 A 
ATOM     26  C   UNL     1      -0.426   7.016  -2.664  1.00  0.00     0.074 A 
ATOM     27  C   UNL     1       0.115   7.198  -0.262  1.00  0.00     0.049 A 
ATOM     28  N   UNL     1      -1.216   8.048  -2.822  1.00  0.00    -0.248 NA
ATOM     29  C   UNL     1      -0.266   6.191  -3.872  1.00  0.00     0.031 C 
ATOM     30  C   UNL     1       0.725   6.825   1.015  1.00  0.00     0.029 A 
ATOM     31  N   UNL     1      -0.676   8.276   0.050  1.00  0.00    -0.354 N 
ATOM     32  C   UNL     1      -1.619   8.017  -4.151  1.00  0.00     0.074 A 
ATOM     33  C   UNL     1      -0.977   6.871  -4.760  1.00  0.00     0.031 C 
ATOM     34  C   UNL     1       0.271   7.646   1.975  1.00  0.00     0.029 A 
ATOM     35  C   UNL     1      -0.607   8.643   1.372  1.00  0.00     0.049 A 
ATOM     36  H   UNL     1      -1.239   8.741  -0.610  1.00  0.00     0.167 HD
ATOM     37  C   UNL     1      -2.447   8.867  -4.805  1.00  0.00     0.031 A 
ATOM     38  C   UNL     1      -1.160   9.685   2.021  1.00  0.00     0.031 A 
ATOM     39  C   UNL     1      -3.094   9.999  -4.194  1.00  0.00     0.049 A 
ATOM     40  C   UNL     1      -2.016  10.654   1.255  1.00  0.00     0.074 A 
ATOM     41  C   UNL     1      -3.954  10.917  -4.774  1.00  0.00     0.029 A 
ATOM     42  N   UNL     1      -2.955  10.366  -2.865  1.00  0.00    -0.354 N 
ATOM     43  N   UNL     1      -2.370  10.625  -0.006  1.00  0.00    -0.248 NA
ATOM     44  C   UNL     1      -2.543  11.804   2.003  1.00  0.00     0.031 C 
ATOM     45  C   UNL     1      -4.293  11.869  -3.808  1.00  0.00     0.029 A 
ATOM     46  C   UNL     1      -3.694  11.510  -2.611  1.00  0.00     0.049 A 
ATOM     47  H   UNL     1      -2.412   9.885  -2.200  1.00  0.00     0.167 HD
ATOM     48  C   UNL     1      -3.179  11.737  -0.198  1.00  0.00     0.074 A 
ATOM     49  C   UNL     1      -3.279  12.409   1.082  1.00  0.00     0.031 C 
ATOM     50  C   UNL     1      -3.785  12.165  -1.332  1.00  0.00     0.031 A 
BRANCH  37  51
ATOM     51  C   UNL     1      -2.664   8.633  -6.274  1.00  0.00    -0.014 A 
ATOM     52  C   UNL     1      -3.437   7.559  -6.742  1.00  0.00     0.009 A 
ATOM     53  C   UNL     1      -2.116   9.530  -7.205  1.00  0.00     0.009 A 
ATOM     54  C   UNL     1      -3.628   7.371  -8.114  1.00  0.00     0.001 A 
ATOM     55  C   UNL     1      -2.332   9.357  -8.573  1.00  0.00     0.001 A 
ATOM     56  C   UNL     1      -3.081   8.272  -9.027  1.00  0.00     0.000 A 
ENDBRANCH  37  51
BRANCH  38  57
ATOM     57  C   UNL     1      -0.884   9.894   3.468  1.00  0.00    -0.014 A 
ATOM     58  C   UNL     1      -1.904   9.760   4.421  1.00  0.00     0.009 A 
ATOM     59  C   UNL     1       0.404  10.248   3.900  1.00  0.00     0.009 A 
ATOM     60  C   UNL     1      -1.645   9.998   5.773  1.00  0.00     0.001 A 
ATOM     61  C   UNL     1       0.669  10.453   5.255  1.00  0.00     0.001 A 
ATOM     62  C   UNL     1      -0.358  10.338   6.190  1.00  0.00     0.000 A 
ENDBRANCH  38  57
BRANCH  50  63
ATOM     63  C   UNL     1      -4.644  13.394  -1.230  1.00  0.00    -0.014 A 
ATOM     64  C   UNL     1      -4.079  14.669  -1.071  1.00  0.00     0.009 A 
ATOM     65  C   UNL     1      -6.039  13.274  -1.329  1.00  0.00     0.009 A 
ATOM     66  C   UNL     1      -4.898  15.796  -0.980  1.00  0.00     0.001 A 
ATOM     67  C   UNL     1      -6.853  14.406  -1.267  1.00  0.00     0.001 A 
ATOM     68  C   UNL     1      -6.283  15.664  -1.083  1.00  0.00     0.000 A 
ENDBRANCH  50  63
ENDBRANCH  24  25
ENDBRANCH  17  19
ENDBRANCH  16  17
ENDBRANCH   1  16
TORSDOF 12
