REMARK SMILES CC(C)=CCC/C(C)=C/C[N@@H+]1CCc2nc[nH]c2[C@@H]1C(=O)OCCOC(=O)c1ccc(-c2c3nc(c(-c4ccccc4)c4ccc([nH]4)c(-c4ccccc4)c4nc(c(-c5ccccc5)c5ccc2[nH]5)C=C4)C=C3)cc1
REMARK SMILES IDX 22 1 20 2 21 3 19 4 11 5 12 6 13 8 18 9 14 10 17 11 15 12
REMARK SMILES IDX 16 13 10 15 9 16 7 17 8 18 6 19 5 20 4 21 1 22 2 23 3 24
REMARK SMILES IDX 23 25 24 26 25 27 26 28 27 29 28 30 29 31 75 32 30 33 74 34
REMARK SMILES IDX 31 35 32 36 33 37 68 38 34 39 73 40 67 41 69 42 35 43 72 44
REMARK SMILES IDX 66 45 65 46 36 48 58 49 43 50 57 51 44 52 47 53 56 54 70 55
REMARK SMILES IDX 45 56 46 57 55 59 71 60 48 61 37 62 38 63 42 64 39 65 41 66
REMARK SMILES IDX 40 67 59 68 60 69 64 70 61 71 63 72 62 73 49 74 50 75 54 76
REMARK SMILES IDX 51 77 53 78 52 79
REMARK H PARENT 11 7 17 14 69 47 47 58
REMARK Flexibility Score: inf
ROOT
ATOM      1  O   UNL     1      -1.174   6.357   3.440  1.00  0.00    -0.457 OA
ENDROOT
BRANCH   1   2
ATOM      2  C   UNL     1      -0.237   7.341   3.248  1.00  0.00     0.371 C 
ATOM      3  O   UNL     1      -0.336   8.461   3.742  1.00  0.00    -0.245 OA
BRANCH   2   4
ATOM      4  C   UNL     1       0.856   6.899   2.223  1.00  0.00     0.345 C 
ATOM      5  N   UNL     1       2.003   6.102   2.769  1.00  0.00    -0.315 N 
ATOM      6  C   UNL     1       2.985   6.923   3.510  1.00  0.00     0.270 C 
ATOM      7  H   UNL     1       2.461   5.755   1.926  1.00  0.00     0.349 HD
ATOM      8  C   UNL     1       3.692   7.989   2.646  1.00  0.00     0.120 C 
ATOM      9  C   UNL     1       1.424   8.142   1.593  1.00  0.00     0.108 A 
ATOM     10  C   UNL     1       2.683   8.658   1.799  1.00  0.00     0.074 A 
ATOM     11  N   UNL     1       0.788   9.065   0.813  1.00  0.00    -0.343 N 
ATOM     12  N   UNL     1       2.838   9.863   1.176  1.00  0.00    -0.241 NA
ATOM     13  C   UNL     1       1.676  10.089   0.603  1.00  0.00     0.197 A 
ATOM     14  H   UNL     1      -0.132   9.007   0.467  1.00  0.00     0.167 HD
BRANCH   5  15
ATOM     15  C   UNL     1       1.631   4.912   3.525  1.00  0.00     0.292 C 
BRANCH  15  16
ATOM     16  C   UNL     1       2.237   3.681   2.922  1.00  0.00     0.032 C 
ATOM     17  C   UNL     1       2.747   2.624   3.591  1.00  0.00    -0.071 C 
ATOM     18  C   UNL     1       3.008   2.623   5.072  1.00  0.00     0.039 C 
BRANCH  17  19
ATOM     19  C   UNL     1       3.005   1.324   2.851  1.00  0.00     0.035 C 
BRANCH  19  20
ATOM     20  C   UNL     1       1.731   0.470   2.662  1.00  0.00     0.032 C 
BRANCH  20  21
ATOM     21  C   UNL     1       0.706   1.141   1.780  1.00  0.00    -0.028 C 
ATOM     22  C   UNL     1       1.216  -0.133  -0.315  1.00  0.00     0.039 C 
ATOM     23  C   UNL     1       0.497   0.928   0.467  1.00  0.00    -0.080 C 
ATOM     24  C   UNL     1      -0.447   1.812  -0.302  1.00  0.00     0.039 C 
ENDBRANCH  20  21
ENDBRANCH  19  20
ENDBRANCH  17  19
ENDBRANCH  15  16
ENDBRANCH   5  15
ENDBRANCH   2   4
ENDBRANCH   1   2
BRANCH   1  25
ATOM     25  C   UNL     1      -2.360   6.727   4.176  1.00  0.00     0.274 C 
BRANCH  25  26
ATOM     26  C   UNL     1      -2.283   6.485   5.686  1.00  0.00     0.275 C 
BRANCH  26  27
ATOM     27  O   UNL     1      -1.446   7.417   6.380  1.00  0.00    -0.458 OA
BRANCH  27  28
ATOM     28  C   UNL     1      -0.157   7.018   6.418  1.00  0.00     0.338 C 
ATOM     29  O   UNL     1       0.331   6.089   5.803  1.00  0.00    -0.246 OA
BRANCH  28  30
ATOM     30  C   UNL     1       0.618   7.713   7.443  1.00  0.00     0.060 A 
ATOM     31  C   UNL     1       1.989   7.840   7.221  1.00  0.00     0.016 A 
ATOM     32  C   UNL     1       0.060   7.938   8.702  1.00  0.00     0.016 A 
ATOM     33  C   UNL     1       2.830   8.080   8.283  1.00  0.00     0.010 A 
ATOM     34  C   UNL     1       0.905   8.197   9.770  1.00  0.00     0.010 A 
ATOM     35  C   UNL     1       2.288   8.211   9.564  1.00  0.00    -0.014 A 
BRANCH  35  36
ATOM     36  C   UNL     1       3.236   8.487  10.636  1.00  0.00     0.031 A 
ATOM     37  C   UNL     1       4.021   9.731  10.445  1.00  0.00     0.074 A 
ATOM     38  C   UNL     1       3.342   7.752  11.758  1.00  0.00     0.049 A 
ATOM     39  N   UNL     1       5.306   9.871  10.447  1.00  0.00    -0.248 NA
ATOM     40  C   UNL     1       3.273  10.956  10.114  1.00  0.00     0.031 C 
ATOM     41  C   UNL     1       2.463   6.657  12.173  1.00  0.00     0.029 A 
ATOM     42  N   UNL     1       4.183   7.911  12.825  1.00  0.00    -0.354 N 
ATOM     43  C   UNL     1       5.527  11.236  10.301  1.00  0.00     0.074 A 
ATOM     44  C   UNL     1       4.261  11.834   9.960  1.00  0.00     0.031 C 
ATOM     45  C   UNL     1       2.654   6.418  13.487  1.00  0.00     0.029 A 
ATOM     46  C   UNL     1       3.752   7.246  13.962  1.00  0.00     0.049 A 
ATOM     47  H   UNL     1       5.010   8.445  12.790  1.00  0.00     0.167 HD
ATOM     48  C   UNL     1       6.662  11.819  10.766  1.00  0.00     0.031 A 
ATOM     49  C   UNL     1       4.212   7.384  15.225  1.00  0.00     0.031 A 
ATOM     50  C   UNL     1       7.730  10.879  10.966  1.00  0.00     0.049 A 
ATOM     51  C   UNL     1       5.565   7.974  15.198  1.00  0.00     0.074 A 
ATOM     52  C   UNL     1       8.675  10.234  10.201  1.00  0.00     0.029 A 
ATOM     53  N   UNL     1       7.721  10.279  12.193  1.00  0.00    -0.354 N 
ATOM     54  N   UNL     1       6.620   7.332  14.788  1.00  0.00    -0.248 NA
ATOM     55  C   UNL     1       5.750   9.405  15.415  1.00  0.00     0.031 C 
ATOM     56  C   UNL     1       9.136   9.128  10.977  1.00  0.00     0.029 A 
ATOM     57  C   UNL     1       8.456   9.124  12.192  1.00  0.00     0.049 A 
ATOM     58  H   UNL     1       7.246  10.633  12.979  1.00  0.00     0.167 HD
ATOM     59  C   UNL     1       7.447   8.320  14.295  1.00  0.00     0.074 A 
ATOM     60  C   UNL     1       6.966   9.559  14.885  1.00  0.00     0.031 C 
ATOM     61  C   UNL     1       8.210   8.102  13.186  1.00  0.00     0.031 A 
BRANCH  48  62
ATOM     62  C   UNL     1       6.622  13.110  11.557  1.00  0.00    -0.014 A 
ATOM     63  C   UNL     1       7.837  13.650  12.015  1.00  0.00     0.009 A 
ATOM     64  C   UNL     1       5.444  13.622  12.139  1.00  0.00     0.009 A 
ATOM     65  C   UNL     1       7.869  14.601  13.043  1.00  0.00     0.001 A 
ATOM     66  C   UNL     1       5.471  14.599  13.137  1.00  0.00     0.001 A 
ATOM     67  C   UNL     1       6.687  15.069  13.608  1.00  0.00     0.000 A 
ENDBRANCH  48  62
BRANCH  49  68
ATOM     68  C   UNL     1       3.507   7.123  16.493  1.00  0.00    -0.014 A 
ATOM     69  C   UNL     1       4.225   6.873  17.671  1.00  0.00     0.009 A 
ATOM     70  C   UNL     1       2.122   7.341  16.597  1.00  0.00     0.009 A 
ATOM     71  C   UNL     1       3.583   6.871  18.914  1.00  0.00     0.001 A 
ATOM     72  C   UNL     1       1.478   7.327  17.837  1.00  0.00     0.001 A 
ATOM     73  C   UNL     1       2.212   7.106  18.997  1.00  0.00     0.000 A 
ENDBRANCH  49  68
BRANCH  61  74
ATOM     74  C   UNL     1       8.583   6.684  12.874  1.00  0.00    -0.014 A 
ATOM     75  C   UNL     1       7.636   5.694  12.568  1.00  0.00     0.009 A 
ATOM     76  C   UNL     1       9.943   6.341  12.859  1.00  0.00     0.009 A 
ATOM     77  C   UNL     1       8.038   4.382  12.301  1.00  0.00     0.001 A 
ATOM     78  C   UNL     1      10.345   5.036  12.569  1.00  0.00     0.001 A 
ATOM     79  C   UNL     1       9.393   4.055  12.302  1.00  0.00     0.000 A 
ENDBRANCH  61  74
ENDBRANCH  35  36
ENDBRANCH  28  30
ENDBRANCH  27  28
ENDBRANCH  26  27
ENDBRANCH  25  26
ENDBRANCH   1  25
TORSDOF 16
