REMARK SMILES CC(C)Cc1cc2c(cc1Cl)C=C(C(=O)OCCOC(=O)c1ccc(-c3c4nc(c(-c5ccccc5)c5ccc([nH]5)c(-c5ccccc5)c5nc(c(-c6ccccc6)c6ccc3[nH]6)C=C5)C=C4)cc1)[C@H](C(F)(F)F)O2
REMARK SMILES IDX 17 1 16 2 14 3 15 4 13 5 5 6 6 7 10 8 7 9 9 10 11 11 8 12
REMARK SMILES IDX 75 13 12 14 70 15 4 16 2 17 1 18 3 19 71 20 72 21 73 22
REMARK SMILES IDX 74 23 18 24 19 25 20 26 21 27 22 28 23 29 69 30 24 31 68 32
REMARK SMILES IDX 25 33 26 34 27 35 62 36 28 37 67 38 61 39 63 40 29 41 66 42
REMARK SMILES IDX 60 43 59 44 30 46 52 47 37 48 51 49 38 50 41 51 50 52 64 53
REMARK SMILES IDX 39 54 40 55 49 57 65 58 42 59 31 60 32 61 36 62 33 63 35 64
REMARK SMILES IDX 34 65 53 66 54 67 58 68 55 69 57 70 56 71 43 72 44 73 48 74
REMARK SMILES IDX 45 75 47 76 46 77
REMARK H PARENT 63 45 41 56
REMARK Flexibility Score: inf
ROOT
ATOM      1  C   UNL     1      -4.254   2.658   8.189  1.00  0.00     0.275 C 
ENDROOT
BRANCH   1   2
ATOM      2  O   UNL     1      -3.829   2.043   6.954  1.00  0.00    -0.459 OA
BRANCH   2   3
ATOM      3  C   UNL     1      -4.251   2.622   5.812  1.00  0.00     0.338 C 
ATOM      4  O   UNL     1      -4.981   3.598   5.729  1.00  0.00    -0.246 OA
BRANCH   3   5
ATOM      5  C   UNL     1      -3.621   1.982   4.639  1.00  0.00     0.087 C 
ATOM      6  C   UNL     1      -1.547   1.199   0.114  1.00  0.00    -0.025 A 
ATOM      7  C   UNL     1      -2.068   0.358   1.119  1.00  0.00     0.052 A 
ATOM      8  C   UNL     1      -1.576   2.587   0.319  1.00  0.00     0.045 A 
ATOM      9  C   UNL     1      -2.610   0.887   2.290  1.00  0.00     0.128 A 
ATOM     10  C   UNL     1      -2.129   3.115   1.486  1.00  0.00     0.032 A 
ATOM     11  Cl  UNL     1      -0.976   3.708  -0.850  1.00  0.00    -0.084 Cl
ATOM     12  C   UNL     1      -2.660   2.265   2.460  1.00  0.00     0.019 A 
ATOM     13  O   UNL     1      -3.120   0.004   3.200  1.00  0.00    -0.475 OA
ATOM     14  C   UNL     1      -3.309   2.810   3.633  1.00  0.00     0.027 C 
ATOM     15  C   UNL     1      -3.435   0.487   4.546  1.00  0.00     0.316 C 
BRANCH   6  16
ATOM     16  C   UNL     1      -0.981   0.574  -1.142  1.00  0.00     0.040 C 
BRANCH  16  17
ATOM     17  C   UNL     1       0.559   0.542  -1.200  1.00  0.00    -0.013 C 
ATOM     18  C   UNL     1       1.163  -0.303  -0.076  1.00  0.00     0.008 C 
ATOM     19  C   UNL     1       1.009  -0.000  -2.559  1.00  0.00     0.008 C 
ENDBRANCH  16  17
ENDBRANCH   6  16
BRANCH  15  20
ATOM     20  C   UNL     1      -2.446  -0.135   5.549  1.00  0.00     0.430 C 
ATOM     21  F   UNL     1      -1.343   0.621   5.728  1.00  0.00    -0.167 F 
ATOM     22  F   UNL     1      -3.021  -0.334   6.760  1.00  0.00    -0.167 F 
ATOM     23  F   UNL     1      -2.031  -1.359   5.134  1.00  0.00    -0.167 F 
ENDBRANCH  15  20
ENDBRANCH   3   5
ENDBRANCH   2   3
ENDBRANCH   1   2
BRANCH   1  24
ATOM     24  C   UNL     1      -3.091   3.393   8.855  1.00  0.00     0.275 C 
BRANCH  24  25
ATOM     25  O   UNL     1      -2.731   4.551   8.080  1.00  0.00    -0.458 OA
BRANCH  25  26
ATOM     26  C   UNL     1      -1.534   4.497   7.456  1.00  0.00     0.338 C 
ATOM     27  O   UNL     1      -0.708   3.599   7.488  1.00  0.00    -0.246 OA
BRANCH  26  28
ATOM     28  C   UNL     1      -1.376   5.705   6.637  1.00  0.00     0.060 A 
ATOM     29  C   UNL     1      -0.522   6.734   7.022  1.00  0.00     0.016 A 
ATOM     30  C   UNL     1      -2.044   5.766   5.418  1.00  0.00     0.016 A 
ATOM     31  C   UNL     1      -0.378   7.848   6.187  1.00  0.00     0.010 A 
ATOM     32  C   UNL     1      -1.827   6.827   4.544  1.00  0.00     0.010 A 
ATOM     33  C   UNL     1      -1.019   7.903   4.933  1.00  0.00    -0.014 A 
BRANCH  33  34
ATOM     34  C   UNL     1      -0.875   9.084   4.036  1.00  0.00     0.031 A 
ATOM     35  C   UNL     1      -2.084   9.891   3.628  1.00  0.00     0.074 A 
ATOM     36  C   UNL     1       0.340   9.421   3.557  1.00  0.00     0.049 A 
ATOM     37  N   UNL     1      -2.149  10.944   2.851  1.00  0.00    -0.248 NA
ATOM     38  C   UNL     1      -3.394   9.442   4.130  1.00  0.00     0.031 C 
ATOM     39  C   UNL     1       1.583   8.693   3.817  1.00  0.00     0.029 A 
ATOM     40  N   UNL     1       0.731  10.471   2.762  1.00  0.00    -0.354 N 
ATOM     41  C   UNL     1      -3.499  11.260   2.752  1.00  0.00     0.074 A 
ATOM     42  C   UNL     1      -4.225  10.258   3.499  1.00  0.00     0.031 C 
ATOM     43  C   UNL     1       2.604   9.352   3.249  1.00  0.00     0.029 A 
ATOM     44  C   UNL     1       2.087  10.525   2.550  1.00  0.00     0.049 A 
ATOM     45  H   UNL     1       0.099  11.123   2.380  1.00  0.00     0.167 HD
ATOM     46  C   UNL     1      -4.085  12.308   2.124  1.00  0.00     0.031 A 
ATOM     47  C   UNL     1       2.838  11.423   1.882  1.00  0.00     0.031 A 
ATOM     48  C   UNL     1      -3.363  13.336   1.425  1.00  0.00     0.049 A 
ATOM     49  C   UNL     1       2.173  12.600   1.224  1.00  0.00     0.074 A 
ATOM     50  C   UNL     1      -3.863  14.481   0.830  1.00  0.00     0.029 A 
ATOM     51  N   UNL     1      -1.991  13.351   1.239  1.00  0.00    -0.354 N 
ATOM     52  N   UNL     1       0.901  12.917   1.197  1.00  0.00    -0.248 NA
ATOM     53  C   UNL     1       3.044  13.545   0.510  1.00  0.00     0.031 C 
ATOM     54  C   UNL     1      -2.797  15.168   0.245  1.00  0.00     0.029 A 
ATOM     55  C   UNL     1      -1.628  14.477   0.522  1.00  0.00     0.049 A 
ATOM     56  H   UNL     1      -1.367  12.663   1.567  1.00  0.00     0.167 HD
ATOM     57  C   UNL     1       0.820  14.101   0.476  1.00  0.00     0.074 A 
ATOM     58  C   UNL     1       2.172  14.458   0.100  1.00  0.00     0.031 C 
ATOM     59  C   UNL     1      -0.280  14.822   0.152  1.00  0.00     0.031 A 
BRANCH  46  60
ATOM     60  C   UNL     1      -5.584  12.419   2.185  1.00  0.00    -0.014 A 
ATOM     61  C   UNL     1      -6.347  12.273   1.015  1.00  0.00     0.009 A 
ATOM     62  C   UNL     1      -6.238  12.748   3.383  1.00  0.00     0.009 A 
ATOM     63  C   UNL     1      -7.731  12.456   1.043  1.00  0.00     0.001 A 
ATOM     64  C   UNL     1      -7.626  12.899   3.415  1.00  0.00     0.001 A 
ATOM     65  C   UNL     1      -8.370  12.761   2.244  1.00  0.00     0.000 A 
ENDBRANCH  46  60
BRANCH  47  66
ATOM     66  C   UNL     1       4.316  11.263   1.856  1.00  0.00    -0.014 A 
ATOM     67  C   UNL     1       4.915  10.232   1.115  1.00  0.00     0.009 A 
ATOM     68  C   UNL     1       5.131  12.111   2.621  1.00  0.00     0.009 A 
ATOM     69  C   UNL     1       6.298  10.039   1.161  1.00  0.00     0.001 A 
ATOM     70  C   UNL     1       6.516  11.931   2.644  1.00  0.00     0.001 A 
ATOM     71  C   UNL     1       7.097  10.890   1.922  1.00  0.00     0.000 A 
ENDBRANCH  47  66
BRANCH  59  72
ATOM     72  C   UNL     1      -0.090  16.077  -0.649  1.00  0.00    -0.014 A 
ATOM     73  C   UNL     1      -0.307  17.328  -0.049  1.00  0.00     0.009 A 
ATOM     74  C   UNL     1       0.182  16.017  -2.024  1.00  0.00     0.009 A 
ATOM     75  C   UNL     1      -0.276  18.494  -0.815  1.00  0.00     0.001 A 
ATOM     76  C   UNL     1       0.237  17.188  -2.782  1.00  0.00     0.001 A 
ATOM     77  C   UNL     1      -0.002  18.423  -2.180  1.00  0.00     0.000 A 
ENDBRANCH  59  72
ENDBRANCH  33  34
ENDBRANCH  26  28
ENDBRANCH  25  26
ENDBRANCH  24  25
ENDBRANCH   1  24
TORSDOF 14
