REMARK SMILES Cc1ccc2c(CC(=O)N3CCC(C(=O)OCCOC(=O)c4ccc(-c5c6nc(c(-c7ccccc7)c7ccc([nH]7)c(-c7ccccc7)c7nc(c(-c8ccccc8)c8ccc5[nH]8)C=C7)C=C6)cc4)CC3)coc2c1
REMARK SMILES IDX 17 1 16 2 14 3 15 4 13 5 8 6 9 7 10 8 11 9 71 10 12 11 70 12
REMARK SMILES IDX 7 13 6 14 1 15 2 16 3 17 75 18 4 19 74 20 5 21 73 22 72 23
REMARK SMILES IDX 18 24 19 25 20 26 21 27 22 28 23 29 69 30 24 31 68 32 25 33
REMARK SMILES IDX 26 34 27 35 62 36 28 37 67 38 61 39 63 40 29 41 66 42 60 43
REMARK SMILES IDX 59 44 30 46 52 47 37 48 51 49 38 50 41 51 50 52 64 53 39 54
REMARK SMILES IDX 40 55 49 57 65 58 42 59 31 60 32 61 36 62 33 63 35 64 34 65
REMARK SMILES IDX 53 66 54 67 58 68 55 69 57 70 56 71 43 72 44 73 48 74 45 75
REMARK SMILES IDX 47 76 46 77
REMARK H PARENT 63 45 41 56
REMARK Flexibility Score: inf
ROOT
ATOM      1  C   UNL     1      -8.758   2.014  -5.686  1.00  0.00     0.274 C 
ENDROOT
BRANCH   1   2
ATOM      2  O   UNL     1      -7.606   1.173  -5.894  1.00  0.00    -0.462 OA
BRANCH   2   3
ATOM      3  C   UNL     1      -6.697   1.115  -4.890  1.00  0.00     0.309 C 
ATOM      4  O   UNL     1      -6.694   1.829  -3.895  1.00  0.00    -0.252 OA
BRANCH   3   5
ATOM      5  C   UNL     1      -5.740  -0.042  -5.066  1.00  0.00     0.103 C 
ATOM      6  C   UNL     1      -2.823  -1.529  -7.160  1.00  0.00     0.227 C 
ATOM      7  O   UNL     1      -3.281  -1.650  -8.302  1.00  0.00    -0.275 OA
ATOM      8  N   UNL     1      -3.640  -1.683  -6.042  1.00  0.00    -0.342 N 
ATOM      9  C   UNL     1      -5.009  -2.133  -6.257  1.00  0.00     0.120 C 
ATOM     10  C   UNL     1      -3.467  -0.970  -4.779  1.00  0.00     0.120 C 
ATOM     11  C   UNL     1      -5.949  -0.928  -6.303  1.00  0.00     0.037 C 
ATOM     12  C   UNL     1      -4.275   0.330  -4.855  1.00  0.00     0.037 C 
BRANCH   6  13
ATOM     13  C   UNL     1      -1.321  -1.357  -6.986  1.00  0.00     0.139 C 
BRANCH  13  14
ATOM     14  C   UNL     1      -0.891  -0.102  -6.319  1.00  0.00     0.008 A 
ATOM     15  C   UNL     1       1.507   1.404  -1.399  1.00  0.00     0.044 C 
ATOM     16  C   UNL     1       0.920   0.912  -2.684  1.00  0.00    -0.047 A 
ATOM     17  C   UNL     1       0.838  -0.462  -2.951  1.00  0.00     0.004 A 
ATOM     18  C   UNL     1       0.405   1.843  -3.593  1.00  0.00     0.051 A 
ATOM     19  C   UNL     1       0.278  -0.946  -4.135  1.00  0.00     0.012 A 
ATOM     20  C   UNL     1      -0.125   1.337  -4.771  1.00  0.00     0.134 A 
ATOM     21  C   UNL     1      -0.200  -0.015  -5.072  1.00  0.00     0.024 A 
ATOM     22  O   UNL     1      -0.661   2.075  -5.779  1.00  0.00    -0.464 OA
ATOM     23  C   UNL     1      -1.103   1.201  -6.720  1.00  0.00     0.200 A 
ENDBRANCH  13  14
ENDBRANCH   6  13
ENDBRANCH   3   5
ENDBRANCH   2   3
ENDBRANCH   1   2
BRANCH   1  24
ATOM     24  C   UNL     1      -9.989   1.127  -5.469  1.00  0.00     0.275 C 
BRANCH  24  25
ATOM     25  O   UNL     1      -9.879   0.500  -4.178  1.00  0.00    -0.458 OA
BRANCH  25  26
ATOM     26  C   UNL     1      -9.657  -0.835  -4.165  1.00  0.00     0.338 C 
ATOM     27  O   UNL     1      -9.880  -1.629  -5.070  1.00  0.00    -0.246 OA
BRANCH  26  28
ATOM     28  C   UNL     1      -8.763  -1.120  -3.019  1.00  0.00     0.060 A 
ATOM     29  C   UNL     1      -8.777  -0.349  -1.852  1.00  0.00     0.016 A 
ATOM     30  C   UNL     1      -7.728  -2.030  -3.241  1.00  0.00     0.016 A 
ATOM     31  C   UNL     1      -7.670  -0.367  -0.998  1.00  0.00     0.010 A 
ATOM     32  C   UNL     1      -6.611  -2.013  -2.408  1.00  0.00     0.010 A 
ATOM     33  C   UNL     1      -6.540  -1.130  -1.323  1.00  0.00    -0.014 A 
BRANCH  33  34
ATOM     34  C   UNL     1      -5.439  -1.286  -0.362  1.00  0.00     0.031 A 
ATOM     35  C   UNL     1      -5.753  -2.346   0.619  1.00  0.00     0.074 A 
ATOM     36  C   UNL     1      -4.221  -0.706  -0.272  1.00  0.00     0.049 A 
ATOM     37  N   UNL     1      -6.157  -2.151   1.829  1.00  0.00    -0.248 NA
ATOM     38  C   UNL     1      -5.784  -3.742   0.171  1.00  0.00     0.031 C 
ATOM     39  C   UNL     1      -3.583   0.291  -1.123  1.00  0.00     0.029 A 
ATOM     40  N   UNL     1      -3.252  -0.948   0.676  1.00  0.00    -0.354 N 
ATOM     41  C   UNL     1      -6.335  -3.414   2.365  1.00  0.00     0.074 A 
ATOM     42  C   UNL     1      -6.280  -4.333   1.256  1.00  0.00     0.031 C 
ATOM     43  C   UNL     1      -2.281   0.446  -0.760  1.00  0.00     0.029 A 
ATOM     44  C   UNL     1      -2.018  -0.354   0.433  1.00  0.00     0.049 A 
ATOM     45  H   UNL     1      -3.421  -1.504   1.471  1.00  0.00     0.167 HD
ATOM     46  C   UNL     1      -6.259  -3.622   3.707  1.00  0.00     0.031 A 
ATOM     47  C   UNL     1      -0.934  -0.276   1.258  1.00  0.00     0.031 A 
ATOM     48  C   UNL     1      -6.447  -2.398   4.455  1.00  0.00     0.049 A 
ATOM     49  C   UNL     1      -1.421  -0.425   2.640  1.00  0.00     0.074 A 
ATOM     50  C   UNL     1      -7.444  -1.441   4.529  1.00  0.00     0.029 A 
ATOM     51  N   UNL     1      -5.346  -1.798   5.018  1.00  0.00    -0.354 N 
ATOM     52  N   UNL     1      -2.110   0.487   3.257  1.00  0.00    -0.248 NA
ATOM     53  C   UNL     1      -1.495  -1.768   3.185  1.00  0.00     0.031 C 
ATOM     54  C   UNL     1      -6.761  -0.191   4.650  1.00  0.00     0.029 A 
ATOM     55  C   UNL     1      -5.397  -0.467   4.688  1.00  0.00     0.049 A 
ATOM     56  H   UNL     1      -4.651  -2.240   5.557  1.00  0.00     0.167 HD
ATOM     57  C   UNL     1      -3.042  -0.229   3.986  1.00  0.00     0.074 A 
ATOM     58  C   UNL     1      -2.583  -1.616   3.938  1.00  0.00     0.031 C 
ATOM     59  C   UNL     1      -4.234   0.320   4.352  1.00  0.00     0.031 A 
BRANCH  46  60
ATOM     60  C   UNL     1      -5.609  -4.859   4.280  1.00  0.00    -0.014 A 
ATOM     61  C   UNL     1      -4.906  -5.812   3.514  1.00  0.00     0.009 A 
ATOM     62  C   UNL     1      -5.480  -4.967   5.674  1.00  0.00     0.009 A 
ATOM     63  C   UNL     1      -4.104  -6.798   4.092  1.00  0.00     0.001 A 
ATOM     64  C   UNL     1      -4.639  -5.923   6.257  1.00  0.00     0.001 A 
ATOM     65  C   UNL     1      -3.949  -6.836   5.466  1.00  0.00     0.000 A 
ENDBRANCH  46  60
BRANCH  47  66
ATOM     66  C   UNL     1       0.455  -0.718   0.967  1.00  0.00    -0.014 A 
ATOM     67  C   UNL     1       0.691  -1.907   0.256  1.00  0.00     0.009 A 
ATOM     68  C   UNL     1       1.562  -0.086   1.563  1.00  0.00     0.009 A 
ATOM     69  C   UNL     1       1.991  -2.398   0.070  1.00  0.00     0.001 A 
ATOM     70  C   UNL     1       2.866  -0.567   1.362  1.00  0.00     0.001 A 
ATOM     71  C   UNL     1       3.081  -1.714   0.601  1.00  0.00     0.000 A 
ENDBRANCH  47  66
BRANCH  59  72
ATOM     72  C   UNL     1      -4.430   1.805   4.162  1.00  0.00    -0.014 A 
ATOM     73  C   UNL     1      -4.824   2.563   5.275  1.00  0.00     0.009 A 
ATOM     74  C   UNL     1      -4.372   2.444   2.910  1.00  0.00     0.009 A 
ATOM     75  C   UNL     1      -5.163   3.912   5.146  1.00  0.00     0.001 A 
ATOM     76  C   UNL     1      -4.696   3.802   2.783  1.00  0.00     0.001 A 
ATOM     77  C   UNL     1      -5.101   4.531   3.900  1.00  0.00     0.000 A 
ENDBRANCH  59  72
ENDBRANCH  33  34
ENDBRANCH  26  28
ENDBRANCH  25  26
ENDBRANCH  24  25
ENDBRANCH   1  24
TORSDOF 13
