REMARK SMILES O=C(OCCOC(=O)c1cc(Cl)c2c(c1)[C@H]1C=CC[C@H]1[C@H](c1ccc(S(=O)(=O)N3CCOCC3)cc1)N2)c1ccc(-c2c3nc(c(-c4ccccc4)c4ccc([nH]4)c(-c4ccccc4)c4nc(c(-c5ccccc5)c5ccc2[nH]5)C=C4)C=C3)cc1
REMARK SMILES IDX 5 1 4 2 3 3 2 4 1 5 38 6 39 7 85 8 40 9 84 10 41 11 42 12
REMARK SMILES IDX 43 13 78 14 44 15 83 16 77 17 79 18 45 19 82 20 76 21 75 22
REMARK SMILES IDX 46 24 68 25 53 26 67 27 54 28 57 29 66 30 80 31 55 32 56 33
REMARK SMILES IDX 65 35 81 36 58 37 47 38 48 39 52 40 49 41 51 42 50 43 69 44
REMARK SMILES IDX 70 45 74 46 71 47 73 48 72 49 59 50 60 51 64 52 61 53 63 54
REMARK SMILES IDX 62 55 6 56 7 57 8 58 9 59 10 60 15 61 11 62 14 63 12 64
REMARK SMILES IDX 13 65 16 66 37 67 17 68 20 69 21 70 18 72 19 73 22 74 23 75
REMARK SMILES IDX 36 76 24 77 35 78 25 79 26 80 27 81 28 82 29 83 30 84 34 85
REMARK SMILES IDX 31 86 33 87 32 88
REMARK H PARENT 79 23 57 34 37 71
REMARK Flexibility Score: inf
ROOT
ATOM      1  C   UNL     1       3.898  -1.923  -1.353  1.00  0.00     0.275 C 
ENDROOT
BRANCH   1   2
ATOM      2  C   UNL     1       4.057  -1.634   0.147  1.00  0.00     0.275 C 
BRANCH   2   3
ATOM      3  O   UNL     1       3.002  -0.853   0.725  1.00  0.00    -0.458 OA
BRANCH   3   4
ATOM      4  C   UNL     1       2.957   0.488   0.895  1.00  0.00     0.338 C 
ATOM      5  O   UNL     1       2.179   0.960   1.724  1.00  0.00    -0.246 OA
BRANCH   4   6
ATOM      6  C   UNL     1       3.665   1.442  -0.019  1.00  0.00     0.060 A 
ATOM      7  C   UNL     1       4.855   1.213  -0.711  1.00  0.00     0.016 A 
ATOM      8  C   UNL     1       3.036   2.683  -0.204  1.00  0.00     0.016 A 
ATOM      9  C   UNL     1       5.343   2.136  -1.637  1.00  0.00     0.010 A 
ATOM     10  C   UNL     1       3.515   3.620  -1.122  1.00  0.00     0.010 A 
ATOM     11  C   UNL     1       4.682   3.346  -1.836  1.00  0.00    -0.014 A 
BRANCH  11  12
ATOM     12  C   UNL     1       5.398   4.432  -2.528  1.00  0.00     0.031 A 
ATOM     13  C   UNL     1       6.245   5.320  -1.675  1.00  0.00     0.074 A 
ATOM     14  C   UNL     1       5.395   4.559  -3.865  1.00  0.00     0.049 A 
ATOM     15  N   UNL     1       7.042   6.283  -2.041  1.00  0.00    -0.248 NA
ATOM     16  C   UNL     1       6.245   5.045  -0.225  1.00  0.00     0.031 C 
ATOM     17  C   UNL     1       4.751   3.641  -4.793  1.00  0.00     0.029 A 
ATOM     18  N   UNL     1       5.963   5.506  -4.677  1.00  0.00    -0.354 N 
ATOM     19  C   UNL     1       7.687   6.677  -0.881  1.00  0.00     0.074 A 
ATOM     20  C   UNL     1       7.149   5.906   0.212  1.00  0.00     0.031 C 
ATOM     21  C   UNL     1       4.895   4.103  -6.046  1.00  0.00     0.029 A 
ATOM     22  C   UNL     1       5.653   5.345  -6.005  1.00  0.00     0.049 A 
ATOM     23  H   UNL     1       6.538   6.231  -4.341  1.00  0.00     0.167 HD
ATOM     24  C   UNL     1       8.677   7.582  -0.752  1.00  0.00     0.031 A 
ATOM     25  C   UNL     1       5.949   6.115  -7.069  1.00  0.00     0.031 A 
ATOM     26  C   UNL     1       9.170   8.376  -1.836  1.00  0.00     0.049 A 
ATOM     27  C   UNL     1       6.868   7.282  -6.860  1.00  0.00     0.074 A 
ATOM     28  C   UNL     1      10.133   9.364  -1.803  1.00  0.00     0.029 A 
ATOM     29  N   UNL     1       8.718   8.283  -3.143  1.00  0.00    -0.354 N 
ATOM     30  N   UNL     1       7.475   7.651  -5.758  1.00  0.00    -0.248 NA
ATOM     31  C   UNL     1       7.179   8.112  -8.031  1.00  0.00     0.031 C 
ATOM     32  C   UNL     1      10.220   9.914  -3.083  1.00  0.00     0.029 A 
ATOM     33  C   UNL     1       9.352   9.230  -3.922  1.00  0.00     0.049 A 
ATOM     34  H   UNL     1       8.048   7.639  -3.467  1.00  0.00     0.167 HD
ATOM     35  C   UNL     1       8.273   8.728  -6.107  1.00  0.00     0.074 A 
ATOM     36  C   UNL     1       8.065   8.960  -7.523  1.00  0.00     0.031 C 
ATOM     37  C   UNL     1       9.116   9.445  -5.326  1.00  0.00     0.031 A 
BRANCH  24  38
ATOM     38  C   UNL     1       9.260   7.762   0.611  1.00  0.00    -0.014 A 
ATOM     39  C   UNL     1      10.169   6.826   1.130  1.00  0.00     0.009 A 
ATOM     40  C   UNL     1       8.914   8.884   1.375  1.00  0.00     0.009 A 
ATOM     41  C   UNL     1      10.723   7.015   2.396  1.00  0.00     0.001 A 
ATOM     42  C   UNL     1       9.483   9.078   2.632  1.00  0.00     0.001 A 
ATOM     43  C   UNL     1      10.386   8.145   3.141  1.00  0.00     0.000 A 
ENDBRANCH  24  38
BRANCH  25  44
ATOM     44  C   UNL     1       5.380   5.795  -8.404  1.00  0.00    -0.014 A 
ATOM     45  C   UNL     1       6.176   5.239  -9.415  1.00  0.00     0.009 A 
ATOM     46  C   UNL     1       4.018   6.025  -8.664  1.00  0.00     0.009 A 
ATOM     47  C   UNL     1       5.623   4.928 -10.661  1.00  0.00     0.001 A 
ATOM     48  C   UNL     1       3.465   5.700  -9.905  1.00  0.00     0.001 A 
ATOM     49  C   UNL     1       4.268   5.154 -10.903  1.00  0.00     0.000 A 
ENDBRANCH  25  44
BRANCH  37  50
ATOM     50  C   UNL     1       9.885  10.555  -5.972  1.00  0.00    -0.014 A 
ATOM     51  C   UNL     1       9.262  11.774  -6.271  1.00  0.00     0.009 A 
ATOM     52  C   UNL     1      11.271  10.425  -6.152  1.00  0.00     0.009 A 
ATOM     53  C   UNL     1      10.018  12.848  -6.742  1.00  0.00     0.001 A 
ATOM     54  C   UNL     1      12.026  11.508  -6.597  1.00  0.00     0.001 A 
ATOM     55  C   UNL     1      11.399  12.717  -6.893  1.00  0.00     0.000 A 
ENDBRANCH  37  50
ENDBRANCH  11  12
ENDBRANCH   4   6
ENDBRANCH   3   4
ENDBRANCH   2   3
ENDBRANCH   1   2
BRANCH   1  56
ATOM     56  O   UNL     1       3.402  -0.821  -2.132  1.00  0.00    -0.458 OA
BRANCH  56  57
ATOM     57  C   UNL     1       2.048  -0.728  -2.209  1.00  0.00     0.338 C 
ATOM     58  O   UNL     1       1.234  -1.480  -1.713  1.00  0.00    -0.246 OA
BRANCH  57  59
ATOM     59  C   UNL     1       1.683   0.520  -2.910  1.00  0.00     0.062 A 
ATOM     60  C   UNL     1       2.104   0.761  -4.212  1.00  0.00     0.038 A 
ATOM     61  C   UNL     1       0.825   1.423  -2.277  1.00  0.00     0.022 A 
ATOM     62  C   UNL     1       1.700   1.941  -4.845  1.00  0.00     0.065 A 
ATOM     63  C   UNL     1       0.465   2.633  -2.903  1.00  0.00    -0.015 A 
ATOM     64  Cl  UNL     1       2.070   2.119  -6.529  1.00  0.00    -0.082 Cl
ATOM     65  C   UNL     1       0.970   2.942  -4.167  1.00  0.00     0.057 A 
ATOM     66  C   UNL     1      -0.548   3.523  -2.256  1.00  0.00     0.049 C 
ATOM     67  N   UNL     1       0.664   4.146  -4.782  1.00  0.00    -0.376 N 
ATOM     68  C   UNL     1      -0.095   4.341  -1.078  1.00  0.00    -0.023 C 
ATOM     69  C   UNL     1      -1.171   4.602  -3.175  1.00  0.00     0.031 C 
ATOM     70  C   UNL     1      -0.083   5.223  -4.131  1.00  0.00     0.114 C 
ATOM     71  H   UNL     1       0.967   4.285  -5.708  1.00  0.00     0.161 HD
ATOM     72  C   UNL     1      -0.808   5.466  -0.983  1.00  0.00    -0.030 C 
ATOM     73  C   UNL     1      -1.801   5.514  -2.090  1.00  0.00     0.034 C 
BRANCH  70  74
ATOM     74  C   UNL     1      -0.664   6.145  -5.225  1.00  0.00    -0.025 A 
ATOM     75  C   UNL     1      -0.357   6.105  -6.606  1.00  0.00     0.007 A 
ATOM     76  C   UNL     1      -1.550   7.141  -4.841  1.00  0.00     0.007 A 
ATOM     77  C   UNL     1      -0.934   7.014  -7.527  1.00  0.00     0.022 A 
ATOM     78  C   UNL     1      -2.235   7.912  -5.755  1.00  0.00     0.022 A 
ATOM     79  C   UNL     1      -1.897   7.915  -7.085  1.00  0.00     0.082 A 
BRANCH  79  80
ATOM     80  S   UNL     1      -2.605   9.181  -8.116  1.00  0.00     0.243 S 
ATOM     81  O   UNL     1      -1.522   9.681  -8.941  1.00  0.00    -0.207 OA
ATOM     82  O   UNL     1      -3.807   8.623  -8.687  1.00  0.00    -0.207 OA
BRANCH  80  83
ATOM     83  N   UNL     1      -3.042  10.427  -7.055  1.00  0.00    -0.193 NA
ATOM     84  C   UNL     1      -2.037  11.316  -6.439  1.00  0.00     0.131 C 
ATOM     85  C   UNL     1      -4.396  10.546  -6.458  1.00  0.00     0.131 C 
ATOM     86  C   UNL     1      -2.046  11.164  -4.915  1.00  0.00     0.177 C 
ATOM     87  C   UNL     1      -4.373  10.588  -4.915  1.00  0.00     0.177 C 
ATOM     88  O   UNL     1      -3.346  11.422  -4.367  1.00  0.00    -0.379 OA
ENDBRANCH  80  83
ENDBRANCH  79  80
ENDBRANCH  70  74
ENDBRANCH  57  59
ENDBRANCH  56  57
ENDBRANCH   1  56
TORSDOF 14
