REMARK SMILES C[C@@H]1C[C@H]([NH3+])CN(S(=O)(=O)CCCC(=O)OCCOC(=O)c2ccc(-c3c4nc(c(-c5ccccc5)c5ccc([nH]5)c(-c5ccccc5)c5nc(c(-c6ccccc6)c6ccc3[nH]6)C=C5)C=C4)cc2)C1
REMARK SMILES IDX 16 1 14 2 15 3 13 4 12 5 11 6 8 7 9 8 10 9 7 10 1 11 2 12
REMARK SMILES IDX 3 13 70 14 4 15 6 16 5 17 17 21 18 22 19 23 20 24 21 25
REMARK SMILES IDX 22 26 23 27 69 28 24 29 68 30 25 31 26 32 27 33 62 34 28 35
REMARK SMILES IDX 67 36 61 37 63 38 29 39 66 40 60 41 59 42 30 44 52 45 37 46
REMARK SMILES IDX 51 47 38 48 41 49 50 50 64 51 39 52 40 53 49 55 65 56 42 57
REMARK SMILES IDX 31 58 32 59 36 60 33 61 35 62 34 63 53 64 54 65 58 66 55 67
REMARK SMILES IDX 57 68 56 69 43 70 44 71 48 72 45 73 47 74 46 75
REMARK H PARENT 5 18 5 19 5 20 63 43 41 54
REMARK Flexibility Score: inf
ROOT
ATOM      1  O   UNL     1      -0.974   0.142  -4.634  1.00  0.00    -0.462 OA
ENDROOT
BRANCH   1   2
ATOM      2  C   UNL     1       0.182   0.577  -4.080  1.00  0.00     0.305 C 
ATOM      3  O   UNL     1       1.281   0.096  -4.330  1.00  0.00    -0.252 OA
BRANCH   2   4
ATOM      4  C   UNL     1      -0.001   1.673  -3.049  1.00  0.00     0.124 C 
BRANCH   4   5
ATOM      5  C   UNL     1      -1.354   2.364  -3.000  1.00  0.00     0.029 C 
BRANCH   5   6
ATOM      6  C   UNL     1      -2.542   1.502  -2.595  1.00  0.00     0.155 C 
BRANCH   6   7
ATOM      7  S   UNL     1      -2.540   0.891  -0.917  1.00  0.00     0.214 S 
ATOM      8  O   UNL     1      -3.708   0.050  -0.751  1.00  0.00    -0.212 OA
ATOM      9  O   UNL     1      -2.323   2.028  -0.048  1.00  0.00    -0.212 OA
BRANCH   7  10
ATOM     10  N   UNL     1      -1.171  -0.136  -0.768  1.00  0.00    -0.196 NA
ATOM     11  C   UNL     1       1.577  -0.184   0.703  1.00  0.00     0.009 C 
ATOM     12  C   UNL     1       0.412  -1.162   0.881  1.00  0.00     0.007 C 
ATOM     13  C   UNL     1       0.492  -2.427   0.012  1.00  0.00     0.071 C 
ATOM     14  C   UNL     1      -0.931  -0.460   0.683  1.00  0.00     0.106 C 
ATOM     15  C   UNL     1       0.112  -2.212  -1.456  1.00  0.00     0.196 C 
ATOM     16  C   UNL     1      -1.216  -1.408  -1.566  1.00  0.00     0.167 C 
BRANCH  15  17
ATOM     17  N   UNL     1       1.279  -1.656  -2.139  1.00  0.00    -0.354 N 
ATOM     18  H   UNL     1       1.548  -0.779  -1.693  1.00  0.00     0.344 HD
ATOM     19  H   UNL     1       1.050  -1.484  -3.118  1.00  0.00     0.344 HD
ATOM     20  H   UNL     1       2.053  -2.318  -2.082  1.00  0.00     0.344 HD
ENDBRANCH  15  17
ENDBRANCH   7  10
ENDBRANCH   6   7
ENDBRANCH   5   6
ENDBRANCH   4   5
ENDBRANCH   2   4
ENDBRANCH   1   2
BRANCH   1  21
ATOM     21  C   UNL     1      -0.890  -0.976  -5.541  1.00  0.00     0.274 C 
BRANCH  21  22
ATOM     22  C   UNL     1      -0.900  -0.525  -7.002  1.00  0.00     0.275 C 
BRANCH  22  23
ATOM     23  O   UNL     1       0.296   0.196  -7.339  1.00  0.00    -0.458 OA
BRANCH  23  24
ATOM     24  C   UNL     1       0.252   1.522  -7.068  1.00  0.00     0.338 C 
ATOM     25  O   UNL     1      -0.696   2.166  -6.652  1.00  0.00    -0.246 OA
BRANCH  24  26
ATOM     26  C   UNL     1       1.607   2.076  -7.169  1.00  0.00     0.060 A 
ATOM     27  C   UNL     1       2.184   2.601  -6.010  1.00  0.00     0.016 A 
ATOM     28  C   UNL     1       2.273   2.147  -8.389  1.00  0.00     0.016 A 
ATOM     29  C   UNL     1       3.429   3.200  -6.048  1.00  0.00     0.010 A 
ATOM     30  C   UNL     1       3.523   2.765  -8.436  1.00  0.00     0.010 A 
ATOM     31  C   UNL     1       4.095   3.304  -7.268  1.00  0.00    -0.014 A 
BRANCH  31  32
ATOM     32  C   UNL     1       5.331   4.101  -7.337  1.00  0.00     0.031 A 
ATOM     33  C   UNL     1       5.266   5.469  -7.943  1.00  0.00     0.074 A 
ATOM     34  C   UNL     1       6.473   3.620  -6.816  1.00  0.00     0.049 A 
ATOM     35  N   UNL     1       6.238   6.285  -8.248  1.00  0.00    -0.248 NA
ATOM     36  C   UNL     1       3.920   5.986  -8.249  1.00  0.00     0.031 C 
ATOM     37  C   UNL     1       6.612   2.349  -6.101  1.00  0.00     0.029 A 
ATOM     38  N   UNL     1       7.735   4.149  -6.811  1.00  0.00    -0.354 N 
ATOM     39  C   UNL     1       5.627   7.398  -8.808  1.00  0.00     0.074 A 
ATOM     40  C   UNL     1       4.202   7.150  -8.816  1.00  0.00     0.031 C 
ATOM     41  C   UNL     1       7.895   2.195  -5.733  1.00  0.00     0.029 A 
ATOM     42  C   UNL     1       8.670   3.320  -6.243  1.00  0.00     0.049 A 
ATOM     43  H   UNL     1       7.951   5.036  -7.179  1.00  0.00     0.167 HD
ATOM     44  C   UNL     1       6.211   8.525  -9.275  1.00  0.00     0.031 A 
ATOM     45  C   UNL     1      10.008   3.444  -6.188  1.00  0.00     0.031 A 
ATOM     46  C   UNL     1       7.631   8.747  -9.261  1.00  0.00     0.049 A 
ATOM     47  C   UNL     1      10.642   4.653  -6.823  1.00  0.00     0.074 A 
ATOM     48  C   UNL     1       8.343   9.831  -9.740  1.00  0.00     0.029 A 
ATOM     49  N   UNL     1       8.556   7.859  -8.729  1.00  0.00    -0.354 N 
ATOM     50  N   UNL     1      10.068   5.680  -7.403  1.00  0.00    -0.248 NA
ATOM     51  C   UNL     1      12.109   4.715  -6.801  1.00  0.00     0.031 C 
ATOM     52  C   UNL     1       9.704   9.578  -9.538  1.00  0.00     0.029 A 
ATOM     53  C   UNL     1       9.834   8.365  -8.880  1.00  0.00     0.049 A 
ATOM     54  H   UNL     1       8.335   6.998  -8.307  1.00  0.00     0.167 HD
ATOM     55  C   UNL     1      11.100   6.526  -7.784  1.00  0.00     0.074 A 
ATOM     56  C   UNL     1      12.333   5.897  -7.356  1.00  0.00     0.031 C 
ATOM     57  C   UNL     1      11.039   7.717  -8.430  1.00  0.00     0.031 A 
BRANCH  44  58
ATOM     58  C   UNL     1       5.315   9.569  -9.877  1.00  0.00    -0.014 A 
ATOM     59  C   UNL     1       4.457  10.346  -9.083  1.00  0.00     0.009 A 
ATOM     60  C   UNL     1       5.340   9.789 -11.264  1.00  0.00     0.009 A 
ATOM     61  C   UNL     1       3.621  11.300  -9.668  1.00  0.00     0.001 A 
ATOM     62  C   UNL     1       4.524  10.762 -11.843  1.00  0.00     0.001 A 
ATOM     63  C   UNL     1       3.660  11.511 -11.046  1.00  0.00     0.000 A 
ENDBRANCH  44  58
BRANCH  45  64
ATOM     64  C   UNL     1      10.842   2.384  -5.563  1.00  0.00    -0.014 A 
ATOM     65  C   UNL     1      11.578   2.648  -4.398  1.00  0.00     0.009 A 
ATOM     66  C   UNL     1      10.933   1.110  -6.146  1.00  0.00     0.009 A 
ATOM     67  C   UNL     1      12.413   1.671  -3.851  1.00  0.00     0.001 A 
ATOM     68  C   UNL     1      11.743   0.124  -5.578  1.00  0.00     0.001 A 
ATOM     69  C   UNL     1      12.492   0.409  -4.439  1.00  0.00     0.000 A 
ENDBRANCH  45  64
BRANCH  57  70
ATOM     70  C   UNL     1      12.338   8.436  -8.652  1.00  0.00    -0.014 A 
ATOM     71  C   UNL     1      13.269   7.989  -9.602  1.00  0.00     0.009 A 
ATOM     72  C   UNL     1      12.612   9.604  -7.922  1.00  0.00     0.009 A 
ATOM     73  C   UNL     1      14.468   8.679  -9.789  1.00  0.00     0.001 A 
ATOM     74  C   UNL     1      13.796  10.309  -8.135  1.00  0.00     0.001 A 
ATOM     75  C   UNL     1      14.727   9.840  -9.060  1.00  0.00     0.000 A 
ENDBRANCH  57  70
ENDBRANCH  31  32
ENDBRANCH  24  26
ENDBRANCH  23  24
ENDBRANCH  22  23
ENDBRANCH  21  22
ENDBRANCH   1  21
TORSDOF 16
