REMARK SMILES Cc1cccc(-c2ncc([C@@H]3[NH2+][C@H](C(=O)OCCOC(=O)c4ccc(-c5c6nc(c(-c7ccccc7)c7ccc([nH]7)c(-c7ccccc7)c7nc(c(-c8ccccc8)c8ccc5[nH]8)C=C7)C=C6)cc4)C(C)(C)S3)s2)c1
REMARK SMILES IDX 17 1 16 2 14 3 15 4 13 5 11 6 12 7 73 8 70 11 71 12 72 13
REMARK SMILES IDX 10 14 7 15 8 16 74 17 9 18 6 19 1 20 2 21 3 22 75 23 4 24
REMARK SMILES IDX 5 25 18 26 19 27 20 28 21 29 22 30 23 31 69 32 24 33 68 34
REMARK SMILES IDX 25 35 26 36 27 37 62 38 28 39 67 40 61 41 63 42 29 43 66 44
REMARK SMILES IDX 60 45 59 46 30 48 52 49 37 50 51 51 38 52 41 53 50 54 64 55
REMARK SMILES IDX 39 56 40 57 49 59 65 60 42 61 31 62 32 63 36 64 33 65 35 66
REMARK SMILES IDX 34 67 53 68 54 69 58 70 55 71 57 72 56 73 43 74 44 75 48 76
REMARK SMILES IDX 45 77 47 78 46 79
REMARK H PARENT 12 9 12 10 63 47 41 58
REMARK Flexibility Score: inf
ROOT
ATOM      1  C   UNL     1      -8.618   6.936   2.981  1.00  0.00     0.274 C 
ENDROOT
BRANCH   1   2
ATOM      2  O   UNL     1      -7.660   7.484   2.080  1.00  0.00    -0.458 OA
BRANCH   2   3
ATOM      3  C   UNL     1      -7.354   6.705   1.028  1.00  0.00     0.366 C 
ATOM      4  O   UNL     1      -8.091   5.809   0.650  1.00  0.00    -0.245 OA
BRANCH   3   5
ATOM      5  C   UNL     1      -6.007   7.144   0.407  1.00  0.00     0.310 C 
ATOM      6  C   UNL     1      -5.017   5.002  -0.097  1.00  0.00     0.286 C 
ATOM      7  N   UNL     1      -4.901   6.207   0.741  1.00  0.00    -0.318 N 
ATOM      8  S   UNL     1      -5.973   5.478  -1.588  1.00  0.00    -0.080 SA
ATOM      9  H   UNL     1      -4.004   6.660   0.563  1.00  0.00     0.348 HD
ATOM     10  H   UNL     1      -4.958   5.947   1.725  1.00  0.00     0.348 HD
ATOM     11  C   UNL     1      -6.100   7.255  -1.114  1.00  0.00     0.079 C 
ATOM     12  C   UNL     1      -4.900   8.017  -1.709  1.00  0.00     0.030 C 
ATOM     13  C   UNL     1      -7.381   7.988  -1.537  1.00  0.00     0.030 C 
BRANCH   6  14
ATOM     14  C   UNL     1      -5.508   3.859   0.753  1.00  0.00     0.093 A 
ATOM     15  C   UNL     1      -5.752   2.302   2.651  1.00  0.00     0.123 A 
ATOM     16  N   UNL     1      -6.897   2.447   2.008  1.00  0.00    -0.244 NA
ATOM     17  S   UNL     1      -4.416   3.021   1.821  1.00  0.00    -0.112 S 
ATOM     18  C   UNL     1      -6.758   3.308   0.937  1.00  0.00     0.134 A 
BRANCH  15  19
ATOM     19  C   UNL     1      -5.643   1.558   3.934  1.00  0.00     0.011 A 
ATOM     20  C   UNL     1      -8.100  -0.461   6.070  1.00  0.00     0.044 C 
ATOM     21  C   UNL     1      -6.833   0.204   5.620  1.00  0.00    -0.050 A 
ATOM     22  C   UNL     1      -5.641   0.033   6.325  1.00  0.00     0.003 A 
ATOM     23  C   UNL     1      -6.817   0.964   4.441  1.00  0.00     0.014 A 
ATOM     24  C   UNL     1      -4.471   0.646   5.872  1.00  0.00     0.001 A 
ATOM     25  C   UNL     1      -4.472   1.408   4.691  1.00  0.00     0.011 A 
ENDBRANCH  15  19
ENDBRANCH   6  14
ENDBRANCH   3   5
ENDBRANCH   2   3
ENDBRANCH   1   2
BRANCH   1  26
ATOM     26  C   UNL     1      -8.197   5.623   3.700  1.00  0.00     0.275 C 
BRANCH  26  27
ATOM     27  O   UNL     1      -6.810   5.121   3.886  1.00  0.00    -0.458 OA
BRANCH  27  28
ATOM     28  C   UNL     1      -5.539   5.551   4.053  1.00  0.00     0.338 C 
ATOM     29  O   UNL     1      -4.603   4.803   4.335  1.00  0.00    -0.246 OA
BRANCH  28  30
ATOM     30  C   UNL     1      -5.263   6.964   3.894  1.00  0.00     0.060 A 
ATOM     31  C   UNL     1      -4.063   7.497   3.383  1.00  0.00     0.016 A 
ATOM     32  C   UNL     1      -6.276   7.785   4.308  1.00  0.00     0.016 A 
ATOM     33  C   UNL     1      -3.927   8.879   3.304  1.00  0.00     0.010 A 
ATOM     34  C   UNL     1      -6.309   9.055   3.836  1.00  0.00     0.010 A 
ATOM     35  C   UNL     1      -5.069   9.627   3.577  1.00  0.00    -0.014 A 
BRANCH  35  36
ATOM     36  C   UNL     1      -5.086  10.927   4.221  1.00  0.00     0.031 A 
ATOM     37  C   UNL     1      -5.374  12.090   3.388  1.00  0.00     0.074 A 
ATOM     38  C   UNL     1      -5.308  10.778   5.558  1.00  0.00     0.049 A 
ATOM     39  N   UNL     1      -4.848  13.252   3.543  1.00  0.00    -0.248 NA
ATOM     40  C   UNL     1      -6.265  12.010   2.222  1.00  0.00     0.031 C 
ATOM     41  C   UNL     1      -5.934  11.632   6.548  1.00  0.00     0.029 A 
ATOM     42  N   UNL     1      -5.061   9.618   6.311  1.00  0.00    -0.354 N 
ATOM     43  C   UNL     1      -5.702  14.102   2.873  1.00  0.00     0.074 A 
ATOM     44  C   UNL     1      -6.348  13.295   1.864  1.00  0.00     0.031 C 
ATOM     45  C   UNL     1      -5.675  11.121   7.776  1.00  0.00     0.029 A 
ATOM     46  C   UNL     1      -4.796   9.963   7.620  1.00  0.00     0.049 A 
ATOM     47  H   UNL     1      -5.075   8.699   5.958  1.00  0.00     0.167 HD
ATOM     48  C   UNL     1      -6.109  15.253   3.484  1.00  0.00     0.031 A 
ATOM     49  C   UNL     1      -3.504   9.818   8.044  1.00  0.00     0.031 A 
ATOM     50  C   UNL     1      -5.651  15.276   4.887  1.00  0.00     0.049 A 
ATOM     51  C   UNL     1      -2.811  11.170   8.015  1.00  0.00     0.074 A 
ATOM     52  C   UNL     1      -6.321  15.098   6.088  1.00  0.00     0.029 A 
ATOM     53  N   UNL     1      -4.301  15.104   5.182  1.00  0.00    -0.354 N 
ATOM     54  N   UNL     1      -3.332  12.245   7.491  1.00  0.00    -0.248 NA
ATOM     55  C   UNL     1      -1.476  11.410   8.543  1.00  0.00     0.031 C 
ATOM     56  C   UNL     1      -5.361  14.759   7.089  1.00  0.00     0.029 A 
ATOM     57  C   UNL     1      -4.106  14.734   6.504  1.00  0.00     0.049 A 
ATOM     58  H   UNL     1      -3.573  15.231   4.531  1.00  0.00     0.167 HD
ATOM     59  C   UNL     1      -2.459  13.287   7.559  1.00  0.00     0.074 A 
ATOM     60  C   UNL     1      -1.323  12.720   8.274  1.00  0.00     0.031 C 
ATOM     61  C   UNL     1      -2.740  14.502   6.995  1.00  0.00     0.031 A 
BRANCH  48  62
ATOM     62  C   UNL     1      -7.195  16.162   2.947  1.00  0.00    -0.014 A 
ATOM     63  C   UNL     1      -7.796  17.105   3.800  1.00  0.00     0.009 A 
ATOM     64  C   UNL     1      -7.633  16.186   1.608  1.00  0.00     0.009 A 
ATOM     65  C   UNL     1      -8.806  17.975   3.362  1.00  0.00     0.001 A 
ATOM     66  C   UNL     1      -8.667  17.028   1.169  1.00  0.00     0.001 A 
ATOM     67  C   UNL     1      -9.253  17.926   2.049  1.00  0.00     0.000 A 
ENDBRANCH  48  62
BRANCH  49  68
ATOM     68  C   UNL     1      -2.866   8.522   7.595  1.00  0.00    -0.014 A 
ATOM     69  C   UNL     1      -3.442   7.305   8.031  1.00  0.00     0.009 A 
ATOM     70  C   UNL     1      -1.968   8.461   6.516  1.00  0.00     0.009 A 
ATOM     71  C   UNL     1      -3.208   6.100   7.355  1.00  0.00     0.001 A 
ATOM     72  C   UNL     1      -1.716   7.246   5.856  1.00  0.00     0.001 A 
ATOM     73  C   UNL     1      -2.357   6.074   6.256  1.00  0.00     0.000 A 
ENDBRANCH  49  68
BRANCH  61  74
ATOM     74  C   UNL     1      -1.759  15.643   6.873  1.00  0.00    -0.014 A 
ATOM     75  C   UNL     1      -0.374  15.521   7.015  1.00  0.00     0.009 A 
ATOM     76  C   UNL     1      -2.241  16.921   6.506  1.00  0.00     0.009 A 
ATOM     77  C   UNL     1       0.472  16.629   6.894  1.00  0.00     0.001 A 
ATOM     78  C   UNL     1      -1.396  18.010   6.301  1.00  0.00     0.001 A 
ATOM     79  C   UNL     1      -0.037  17.869   6.528  1.00  0.00     0.000 A 
ENDBRANCH  61  74
ENDBRANCH  35  36
ENDBRANCH  28  30
ENDBRANCH  27  28
ENDBRANCH  26  27
ENDBRANCH   1  26
TORSDOF 13
