REMARK SMILES C[C@H](C(=O)OCCOC(=O)c1ccc(-c2c3nc(c(-c4ccccc4)c4ccc([nH]4)c(-c4ccccc4)c4nc(c(-c5ccccc5)c5ccc2[nH]5)C=C4)C=C3)cc1)[C@@H](C(=O)c1ccccc1)c1ccc(F)cc1
REMARK SMILES IDX 6 1 5 2 3 3 4 4 2 5 1 6 59 7 60 8 61 9 62 10 63 11 67 12
REMARK SMILES IDX 64 13 66 14 65 15 68 16 69 17 74 18 70 19 73 20 71 21 72 22
REMARK SMILES IDX 7 23 8 24 9 25 10 26 11 27 12 28 58 29 13 30 57 31 14 32
REMARK SMILES IDX 15 33 16 34 51 35 17 36 56 37 50 38 52 39 18 40 55 41 49 42
REMARK SMILES IDX 48 43 19 45 41 46 26 47 40 48 27 49 30 50 39 51 53 52 28 53
REMARK SMILES IDX 29 54 38 56 54 57 31 58 20 59 21 60 25 61 22 62 24 63 23 64
REMARK SMILES IDX 42 65 43 66 47 67 44 68 46 69 45 70 32 71 33 72 37 73 34 74
REMARK SMILES IDX 36 75 35 76
REMARK H PARENT 52 44 30 55
REMARK Flexibility Score: inf
ROOT
ATOM      1  C   UNL     1       2.289  -0.403  -1.957  1.00  0.00     0.274 C 
ENDROOT
BRANCH   1   2
ATOM      2  O   UNL     1       1.489  -0.851  -0.842  1.00  0.00    -0.462 OA
BRANCH   2   3
ATOM      3  C   UNL     1       1.649  -0.217   0.339  1.00  0.00     0.309 C 
ATOM      4  O   UNL     1       2.410   0.730   0.495  1.00  0.00    -0.252 OA
BRANCH   3   5
ATOM      5  C   UNL     1       0.846  -0.882   1.465  1.00  0.00     0.111 C 
ATOM      6  C   UNL     1       1.463  -0.299   2.767  1.00  0.00     0.021 C 
BRANCH   5   7
ATOM      7  C   UNL     1      -0.708  -0.687   1.349  1.00  0.00     0.105 C 
BRANCH   7   8
ATOM      8  C   UNL     1      -1.479  -1.819   0.587  1.00  0.00     0.171 C 
ATOM      9  O   UNL     1      -2.305  -2.571   1.109  1.00  0.00    -0.293 OA
BRANCH   8  10
ATOM     10  C   UNL     1      -1.339  -2.020  -0.867  1.00  0.00     0.018 A 
ATOM     11  C   UNL     1      -2.368  -1.597  -1.715  1.00  0.00     0.012 A 
ATOM     12  C   UNL     1      -0.322  -2.838  -1.361  1.00  0.00     0.012 A 
ATOM     13  C   UNL     1      -2.327  -1.924  -3.073  1.00  0.00     0.001 A 
ATOM     14  C   UNL     1      -0.261  -3.129  -2.725  1.00  0.00     0.001 A 
ATOM     15  C   UNL     1      -1.263  -2.671  -3.580  1.00  0.00     0.000 A 
ENDBRANCH   8  10
ENDBRANCH   7   8
BRANCH   7  16
ATOM     16  C   UNL     1      -1.332  -0.542   2.760  1.00  0.00    -0.036 A 
ATOM     17  C   UNL     1      -1.762   0.706   3.239  1.00  0.00     0.007 A 
ATOM     18  C   UNL     1      -1.401  -1.655   3.628  1.00  0.00     0.007 A 
ATOM     19  C   UNL     1      -2.230   0.834   4.552  1.00  0.00     0.039 A 
ATOM     20  C   UNL     1      -1.881  -1.526   4.930  1.00  0.00     0.039 A 
ATOM     21  C   UNL     1      -2.284  -0.281   5.383  1.00  0.00     0.123 A 
ATOM     22  F   UNL     1      -2.721  -0.149   6.642  1.00  0.00    -0.207 F 
ENDBRANCH   7  16
ENDBRANCH   5   7
ENDBRANCH   3   5
ENDBRANCH   2   3
ENDBRANCH   1   2
BRANCH   1  23
ATOM     23  C   UNL     1       1.491   0.498  -2.901  1.00  0.00     0.275 C 
BRANCH  23  24
ATOM     24  O   UNL     1       1.331   1.815  -2.345  1.00  0.00    -0.458 OA
BRANCH  24  25
ATOM     25  C   UNL     1       0.215   2.002  -1.604  1.00  0.00     0.338 C 
ATOM     26  O   UNL     1      -0.706   1.227  -1.429  1.00  0.00    -0.246 OA
BRANCH  25  27
ATOM     27  C   UNL     1       0.368   3.253  -0.852  1.00  0.00     0.060 A 
ATOM     28  C   UNL     1       0.517   3.166   0.534  1.00  0.00     0.016 A 
ATOM     29  C   UNL     1       0.368   4.489  -1.496  1.00  0.00     0.016 A 
ATOM     30  C   UNL     1       0.718   4.312   1.287  1.00  0.00     0.010 A 
ATOM     31  C   UNL     1       0.558   5.645  -0.738  1.00  0.00     0.010 A 
ATOM     32  C   UNL     1       0.747   5.557   0.653  1.00  0.00    -0.014 A 
BRANCH  32  33
ATOM     33  C   UNL     1       0.947   6.774   1.463  1.00  0.00     0.031 A 
ATOM     34  C   UNL     1      -0.220   7.663   1.755  1.00  0.00     0.074 A 
ATOM     35  C   UNL     1       2.170   7.053   1.948  1.00  0.00     0.049 A 
ATOM     36  N   UNL     1      -0.243   8.823   2.357  1.00  0.00    -0.248 NA
ATOM     37  C   UNL     1      -1.538   7.183   1.308  1.00  0.00     0.031 C 
ATOM     38  C   UNL     1       3.359   6.215   1.779  1.00  0.00     0.029 A 
ATOM     39  N   UNL     1       2.613   8.121   2.684  1.00  0.00    -0.354 N 
ATOM     40  C   UNL     1      -1.571   9.225   2.341  1.00  0.00     0.074 A 
ATOM     41  C   UNL     1      -2.322   8.191   1.660  1.00  0.00     0.031 C 
ATOM     42  C   UNL     1       4.398   6.802   2.397  1.00  0.00     0.029 A 
ATOM     43  C   UNL     1       3.959   8.077   2.955  1.00  0.00     0.049 A 
ATOM     44  H   UNL     1       2.025   8.849   2.988  1.00  0.00     0.167 HD
ATOM     45  C   UNL     1      -2.110  10.359   2.845  1.00  0.00     0.031 A 
ATOM     46  C   UNL     1       4.751   8.983   3.557  1.00  0.00     0.031 A 
ATOM     47  C   UNL     1      -1.347  11.382   3.509  1.00  0.00     0.049 A 
ATOM     48  C   UNL     1       4.139  10.267   4.044  1.00  0.00     0.074 A 
ATOM     49  C   UNL     1      -1.787  12.582   4.038  1.00  0.00     0.029 A 
ATOM     50  N   UNL     1       0.020  11.321   3.733  1.00  0.00    -0.354 N 
ATOM     51  N   UNL     1       2.887  10.654   3.998  1.00  0.00    -0.248 NA
ATOM     52  C   UNL     1       5.051  11.240   4.660  1.00  0.00     0.031 C 
ATOM     53  C   UNL     1      -0.677  13.267   4.545  1.00  0.00     0.029 A 
ATOM     54  C   UNL     1       0.445  12.469   4.379  1.00  0.00     0.049 A 
ATOM     55  H   UNL     1       0.603  10.572   3.472  1.00  0.00     0.167 HD
ATOM     56  C   UNL     1       2.855  11.907   4.594  1.00  0.00     0.074 A 
ATOM     57  C   UNL     1       4.212  12.205   5.011  1.00  0.00     0.031 C 
ATOM     58  C   UNL     1       1.802  12.739   4.779  1.00  0.00     0.031 A 
BRANCH  45  59
ATOM     59  C   UNL     1      -3.584  10.566   2.645  1.00  0.00    -0.014 A 
ATOM     60  C   UNL     1      -4.532   9.815   3.357  1.00  0.00     0.009 A 
ATOM     61  C   UNL     1      -4.030  11.531   1.729  1.00  0.00     0.009 A 
ATOM     62  C   UNL     1      -5.897  10.003   3.129  1.00  0.00     0.001 A 
ATOM     63  C   UNL     1      -5.395  11.736   1.523  1.00  0.00     0.001 A 
ATOM     64  C   UNL     1      -6.327  10.965   2.215  1.00  0.00     0.000 A 
ENDBRANCH  45  59
BRANCH  46  65
ATOM     65  C   UNL     1       6.209   8.726   3.692  1.00  0.00    -0.014 A 
ATOM     66  C   UNL     1       6.785   8.503   4.951  1.00  0.00     0.009 A 
ATOM     67  C   UNL     1       7.035   8.707   2.556  1.00  0.00     0.009 A 
ATOM     68  C   UNL     1       8.160   8.288   5.072  1.00  0.00     0.001 A 
ATOM     69  C   UNL     1       8.404   8.462   2.676  1.00  0.00     0.001 A 
ATOM     70  C   UNL     1       8.967   8.262   3.935  1.00  0.00     0.000 A 
ENDBRANCH  46  65
BRANCH  58  71
ATOM     71  C   UNL     1       2.075  14.034   5.489  1.00  0.00    -0.014 A 
ATOM     72  C   UNL     1       2.749  15.086   4.850  1.00  0.00     0.009 A 
ATOM     73  C   UNL     1       1.617  14.213   6.803  1.00  0.00     0.009 A 
ATOM     74  C   UNL     1       2.986  16.283   5.527  1.00  0.00     0.001 A 
ATOM     75  C   UNL     1       1.831  15.421   7.467  1.00  0.00     0.001 A 
ATOM     76  C   UNL     1       2.523  16.451   6.832  1.00  0.00     0.000 A 
ENDBRANCH  58  71
ENDBRANCH  32  33
ENDBRANCH  25  27
ENDBRANCH  24  25
ENDBRANCH  23  24
ENDBRANCH   1  23
TORSDOF 15
