REMARK SMILES O=C(OCCOC(=O)[C@@H]1c2ccccc2C(=O)N(C2CCCC2)C12CCCCC2)c1ccc(-c2c3nc(c(-c4ccccc4)c4ccc([nH]4)c(-c4ccccc4)c4nc(c(-c5ccccc5)c5ccc2[nH]5)C=C4)C=C3)cc1
REMARK SMILES IDX 4 1 3 2 2 3 1 4 30 5 31 6 77 7 32 8 76 9 33 10 34 11 35 12
REMARK SMILES IDX 70 13 36 14 75 15 69 16 71 17 37 18 74 19 68 20 67 21 38 23
REMARK SMILES IDX 60 24 45 25 59 26 46 27 49 28 58 29 72 30 47 31 48 32 57 34
REMARK SMILES IDX 73 35 50 36 39 37 40 38 44 39 41 40 43 41 42 42 61 43 62 44
REMARK SMILES IDX 66 45 63 46 65 47 64 48 51 49 52 50 56 51 53 52 55 53 54 54
REMARK SMILES IDX 5 55 6 56 7 57 8 58 9 59 10 60 24 61 11 62 15 63 18 64 25 65
REMARK SMILES IDX 29 66 12 67 14 68 16 69 26 70 28 71 13 72 17 73 27 74 19 75
REMARK SMILES IDX 20 76 23 77 21 78 22 79
REMARK H PARENT 71 22 49 33
REMARK Flexibility Score: inf
ROOT
ATOM      1  C   UNL     1       0.146  -5.783  -1.334  1.00  0.00     0.275 C 
ENDROOT
BRANCH   1   2
ATOM      2  O   UNL     1       0.751  -5.562  -0.044  1.00  0.00    -0.458 OA
BRANCH   2   3
ATOM      3  C   UNL     1       2.048  -5.323   0.269  1.00  0.00     0.338 C 
ATOM      4  O   UNL     1       2.446  -5.446   1.423  1.00  0.00    -0.246 OA
BRANCH   3   5
ATOM      5  C   UNL     1       3.045  -4.867  -0.729  1.00  0.00     0.060 A 
ATOM      6  C   UNL     1       4.758  -4.907  -0.310  1.00  0.00     0.016 A 
ATOM      7  C   UNL     1       2.677  -4.327  -2.359  1.00  0.00     0.016 A 
ATOM      8  C   UNL     1       6.044  -4.450  -1.429  1.00  0.00     0.010 A 
ATOM      9  C   UNL     1       4.099  -3.830  -3.555  1.00  0.00     0.010 A 
ATOM     10  C   UNL     1       5.751  -3.925  -3.081  1.00  0.00    -0.014 A 
BRANCH  10  11
ATOM     11  C   UNL     1       6.698  -3.779  -4.226  1.00  0.00     0.031 A 
ATOM     12  C   UNL     1       6.543  -2.694  -5.314  1.00  0.00     0.074 A 
ATOM     13  C   UNL     1       7.533  -4.802  -4.459  1.00  0.00     0.049 A 
ATOM     14  N   UNL     1       7.400  -2.273  -6.211  1.00  0.00    -0.248 NA
ATOM     15  C   UNL     1       5.300  -1.911  -5.380  1.00  0.00     0.031 C 
ATOM     16  C   UNL     1       7.649  -6.026  -3.668  1.00  0.00     0.029 A 
ATOM     17  N   UNL     1       8.387  -5.000  -5.503  1.00  0.00    -0.354 N 
ATOM     18  C   UNL     1       6.830  -1.119  -6.777  1.00  0.00     0.074 A 
ATOM     19  C   UNL     1       5.505  -0.977  -6.284  1.00  0.00     0.031 C 
ATOM     20  C   UNL     1       8.472  -6.877  -4.288  1.00  0.00     0.029 A 
ATOM     21  C   UNL     1       9.002  -6.222  -5.472  1.00  0.00     0.049 A 
ATOM     22  H   UNL     1       8.546  -4.332  -6.209  1.00  0.00     0.167 HD
ATOM     23  C   UNL     1       7.409  -0.188  -7.562  1.00  0.00     0.031 A 
ATOM     24  C   UNL     1       9.942  -6.735  -6.280  1.00  0.00     0.031 A 
ATOM     25  C   UNL     1       8.649  -0.471  -8.198  1.00  0.00     0.049 A 
ATOM     26  C   UNL     1      10.539  -5.800  -7.287  1.00  0.00     0.074 A 
ATOM     27  C   UNL     1       9.371   0.294  -9.084  1.00  0.00     0.029 A 
ATOM     28  N   UNL     1       9.287  -1.694  -8.069  1.00  0.00    -0.354 N 
ATOM     29  N   UNL     1      10.192  -4.561  -7.564  1.00  0.00    -0.248 NA
ATOM     30  C   UNL     1      11.692  -6.291  -8.039  1.00  0.00     0.031 C 
ATOM     31  C   UNL     1      10.363  -0.535  -9.608  1.00  0.00     0.029 A 
ATOM     32  C   UNL     1      10.328  -1.765  -8.955  1.00  0.00     0.049 A 
ATOM     33  H   UNL     1       9.030  -2.404  -7.437  1.00  0.00     0.167 HD
ATOM     34  C   UNL     1      11.097  -4.114  -8.513  1.00  0.00     0.074 A 
ATOM     35  C   UNL     1      12.017  -5.214  -8.744  1.00  0.00     0.031 C 
ATOM     36  C   UNL     1      11.175  -2.914  -9.143  1.00  0.00     0.031 A 
BRANCH  23  37
ATOM     37  C   UNL     1       6.723   1.137  -7.787  1.00  0.00    -0.014 A 
ATOM     38  C   UNL     1       6.255   1.500  -9.059  1.00  0.00     0.009 A 
ATOM     39  C   UNL     1       6.617   2.078  -6.745  1.00  0.00     0.009 A 
ATOM     40  C   UNL     1       5.732   2.778  -9.291  1.00  0.00     0.001 A 
ATOM     41  C   UNL     1       6.077   3.348  -6.975  1.00  0.00     0.001 A 
ATOM     42  C   UNL     1       5.649   3.703  -8.252  1.00  0.00     0.000 A 
ENDBRANCH  23  37
BRANCH  24  43
ATOM     43  C   UNL     1      10.443  -8.095  -5.953  1.00  0.00    -0.014 A 
ATOM     44  C   UNL     1       9.595  -9.212  -6.092  1.00  0.00     0.009 A 
ATOM     45  C   UNL     1      11.640  -8.243  -5.239  1.00  0.00     0.009 A 
ATOM     46  C   UNL     1       9.911 -10.426  -5.475  1.00  0.00     0.001 A 
ATOM     47  C   UNL     1      11.966  -9.467  -4.649  1.00  0.00     0.001 A 
ATOM     48  C   UNL     1      11.094 -10.551  -4.749  1.00  0.00     0.000 A 
ENDBRANCH  24  43
BRANCH  36  49
ATOM     49  C   UNL     1      12.220  -2.750 -10.198  1.00  0.00    -0.014 A 
ATOM     50  C   UNL     1      13.217  -1.776 -10.035  1.00  0.00     0.009 A 
ATOM     51  C   UNL     1      12.058  -3.385 -11.436  1.00  0.00     0.009 A 
ATOM     52  C   UNL     1      13.998  -1.394 -11.121  1.00  0.00     0.001 A 
ATOM     53  C   UNL     1      12.873  -3.033 -12.506  1.00  0.00     0.001 A 
ATOM     54  C   UNL     1      13.824  -2.023 -12.354  1.00  0.00     0.000 A 
ENDBRANCH  36  49
ENDBRANCH  10  11
ENDBRANCH   3   5
ENDBRANCH   2   3
ENDBRANCH   1   2
BRANCH   1  55
ATOM     55  C   UNL     1      -0.639  -4.563  -1.876  1.00  0.00     0.274 C 
BRANCH  55  56
ATOM     56  O   UNL     1       0.133  -3.361  -2.114  1.00  0.00    -0.462 OA
BRANCH  56  57
ATOM     57  C   UNL     1       0.735  -2.713  -1.078  1.00  0.00     0.315 C 
ATOM     58  O   UNL     1       0.440  -2.894   0.094  1.00  0.00    -0.251 OA
BRANCH  57  59
ATOM     59  C   UNL     1       1.741  -1.632  -1.541  1.00  0.00     0.156 C 
ATOM     60  C   UNL     1       0.940  -0.481  -2.153  1.00  0.00    -0.019 A 
ATOM     61  C   UNL     1       2.953  -2.068  -2.525  1.00  0.00     0.061 C 
ATOM     62  C   UNL     1      -0.397  -0.252  -1.765  1.00  0.00     0.005 A 
ATOM     63  C   UNL     1       1.497   0.340  -3.143  1.00  0.00     0.044 A 
ATOM     64  N   UNL     1       3.721  -0.669  -2.778  1.00  0.00    -0.329 N 
ATOM     65  C   UNL     1       2.128  -2.699  -4.097  1.00  0.00     0.030 C 
ATOM     66  C   UNL     1       4.159  -3.302  -1.696  1.00  0.00     0.030 C 
ATOM     67  C   UNL     1      -1.198   0.658  -2.446  1.00  0.00     0.000 A 
ATOM     68  C   UNL     1       0.689   1.269  -3.814  1.00  0.00     0.014 A 
ATOM     69  C   UNL     1       2.960   0.335  -3.410  1.00  0.00     0.254 C 
ATOM     70  C   UNL     1       2.130  -4.455  -4.709  1.00  0.00     0.002 C 
ATOM     71  C   UNL     1       4.265  -5.372  -2.423  1.00  0.00     0.002 C 
ATOM     72  C   UNL     1      -0.663   1.399  -3.491  1.00  0.00     0.001 A 
ATOM     73  O   UNL     1       3.458   1.254  -4.055  1.00  0.00    -0.269 OA
ATOM     74  C   UNL     1       3.186  -5.788  -3.976  1.00  0.00     0.000 C 
BRANCH  64  75
ATOM     75  C   UNL     1       5.078  -0.134  -2.259  1.00  0.00     0.086 C 
ATOM     76  C   UNL     1       5.515  -0.275  -0.794  1.00  0.00     0.025 C 
ATOM     77  C   UNL     1       6.338  -0.506  -3.030  1.00  0.00     0.025 C 
ATOM     78  C   UNL     1       7.030   0.033  -0.788  1.00  0.00     0.002 C 
ATOM     79  C   UNL     1       7.565  -0.311  -2.162  1.00  0.00     0.002 C 
ENDBRANCH  64  75
ENDBRANCH  57  59
ENDBRANCH  56  57
ENDBRANCH  55  56
ENDBRANCH   1  55
TORSDOF 12
