REMARK SMILES CC[C@@H](NS(=O)(=O)c1ccc(CC#N)cc1)C(=O)OCCOC(=O)c1ccc(-c2c3nc(c(-c4ccccc4)c4ccc([nH]4)c(-c4ccccc4)c4nc(c(-c5ccccc5)c5ccc2[nH]5)C=C4)C=C3)cc1
REMARK SMILES IDX 19 1 17 2 18 3 3 4 2 5 1 6 4 7 5 9 6 10 7 11 8 12 9 13 16 14
REMARK SMILES IDX 10 15 15 16 11 17 12 18 13 19 14 20 20 21 21 22 22 23 23 24
REMARK SMILES IDX 24 25 25 26 26 27 72 28 27 29 71 30 28 31 29 32 30 33 65 34
REMARK SMILES IDX 31 35 70 36 64 37 66 38 32 39 69 40 63 41 62 42 33 44 55 45
REMARK SMILES IDX 40 46 54 47 41 48 44 49 53 50 67 51 42 52 43 53 52 55 68 56
REMARK SMILES IDX 45 57 34 58 35 59 39 60 36 61 38 62 37 63 56 64 57 65 61 66
REMARK SMILES IDX 58 67 60 68 59 69 46 70 47 71 51 72 48 73 50 74 49 75
REMARK H PARENT 4 8 66 43 44 54
REMARK Flexibility Score: inf
ROOT
ATOM      1  O   UNL     1      -1.038  -2.697   2.658  1.00  0.00    -0.461 OA
ENDROOT
BRANCH   1   2
ATOM      2  C   UNL     1       0.210  -2.232   2.904  1.00  0.00     0.324 C 
ATOM      3  O   UNL     1       1.041  -2.860   3.544  1.00  0.00    -0.250 OA
BRANCH   2   4
ATOM      4  C   UNL     1       0.515  -0.841   2.398  1.00  0.00     0.179 C 
BRANCH   4   5
ATOM      5  C   UNL     1      -0.049  -0.636   0.988  1.00  0.00     0.028 C 
ATOM      6  C   UNL     1       0.768   0.356   0.168  1.00  0.00     0.006 C 
ENDBRANCH   4   5
BRANCH   4   7
ATOM      7  N   UNL     1       0.061   0.170   3.387  1.00  0.00    -0.197 NA
ATOM      8  H   UNL     1      -0.861  -0.118   3.713  1.00  0.00     0.142 HD
BRANCH   7   9
ATOM      9  S   UNL     1       1.031   0.431   4.769  1.00  0.00     0.241 S 
ATOM     10  O   UNL     1       2.408   0.413   4.335  1.00  0.00    -0.207 OA
ATOM     11  O   UNL     1       0.467   1.600   5.414  1.00  0.00    -0.207 OA
BRANCH   9  12
ATOM     12  C   UNL     1       0.740  -0.961   5.844  1.00  0.00     0.082 A 
ATOM     13  C   UNL     1      -0.408  -1.038   6.632  1.00  0.00     0.022 A 
ATOM     14  C   UNL     1       1.668  -2.003   5.877  1.00  0.00     0.022 A 
ATOM     15  C   UNL     1      -0.709  -2.233   7.308  1.00  0.00     0.006 A 
ATOM     16  C   UNL     1       1.329  -3.218   6.481  1.00  0.00     0.006 A 
ATOM     17  C   UNL     1       0.112  -3.366   7.166  1.00  0.00    -0.034 A 
BRANCH  17  18
ATOM     18  C   UNL     1      -0.204  -4.696   7.845  1.00  0.00     0.155 C 
BRANCH  18  19
ATOM     19  C   UNL     1       0.695  -4.745   9.070  1.00  0.00     0.067 C 
ATOM     20  N   UNL     1       1.440  -4.787  10.087  1.00  0.00    -0.198 NA
ENDBRANCH  18  19
ENDBRANCH  17  18
ENDBRANCH   9  12
ENDBRANCH   7   9
ENDBRANCH   4   7
ENDBRANCH   2   4
ENDBRANCH   1   2
BRANCH   1  21
ATOM     21  C   UNL     1      -1.335  -3.936   3.337  1.00  0.00     0.274 C 
BRANCH  21  22
ATOM     22  C   UNL     1      -0.758  -5.207   2.676  1.00  0.00     0.275 C 
BRANCH  22  23
ATOM     23  O   UNL     1       0.680  -5.349   2.775  1.00  0.00    -0.458 OA
BRANCH  23  24
ATOM     24  C   UNL     1       1.390  -4.827   1.739  1.00  0.00     0.338 C 
ATOM     25  O   UNL     1       0.922  -4.333   0.724  1.00  0.00    -0.246 OA
BRANCH  24  26
ATOM     26  C   UNL     1       2.834  -4.716   2.067  1.00  0.00     0.060 A 
ATOM     27  C   UNL     1       3.421  -3.443   2.000  1.00  0.00     0.016 A 
ATOM     28  C   UNL     1       3.627  -5.824   2.357  1.00  0.00     0.016 A 
ATOM     29  C   UNL     1       4.781  -3.260   2.235  1.00  0.00     0.010 A 
ATOM     30  C   UNL     1       5.007  -5.647   2.554  1.00  0.00     0.010 A 
ATOM     31  C   UNL     1       5.593  -4.367   2.480  1.00  0.00    -0.014 A 
BRANCH  31  32
ATOM     32  C   UNL     1       7.067  -4.191   2.512  1.00  0.00     0.031 A 
ATOM     33  C   UNL     1       7.873  -4.585   1.306  1.00  0.00     0.074 A 
ATOM     34  C   UNL     1       7.679  -3.640   3.576  1.00  0.00     0.049 A 
ATOM     35  N   UNL     1       9.172  -4.605   1.143  1.00  0.00    -0.248 NA
ATOM     36  C   UNL     1       7.110  -5.010   0.121  1.00  0.00     0.031 C 
ATOM     37  C   UNL     1       7.009  -3.127   4.769  1.00  0.00     0.029 A 
ATOM     38  N   UNL     1       9.014  -3.425   3.821  1.00  0.00    -0.354 N 
ATOM     39  C   UNL     1       9.382  -5.066  -0.150  1.00  0.00     0.074 A 
ATOM     40  C   UNL     1       8.080  -5.333  -0.722  1.00  0.00     0.031 C 
ATOM     41  C   UNL     1       7.937  -2.672   5.628  1.00  0.00     0.029 A 
ATOM     42  C   UNL     1       9.266  -2.906   5.068  1.00  0.00     0.049 A 
ATOM     43  H   UNL     1       9.722  -3.625   3.166  1.00  0.00     0.167 HD
ATOM     44  C   UNL     1      10.555  -5.251  -0.803  1.00  0.00     0.031 A 
ATOM     45  C   UNL     1      10.435  -2.681   5.699  1.00  0.00     0.031 A 
ATOM     46  C   UNL     1      11.849  -4.995  -0.229  1.00  0.00     0.049 A 
ATOM     47  C   UNL     1      11.728  -2.997   4.992  1.00  0.00     0.074 A 
ATOM     48  C   UNL     1      13.096  -5.160  -0.806  1.00  0.00     0.029 A 
ATOM     49  N   UNL     1      12.063  -4.521   1.056  1.00  0.00    -0.354 N 
ATOM     50  N   UNL     1      11.918  -3.450   3.776  1.00  0.00    -0.248 NA
ATOM     51  C   UNL     1      12.969  -2.768   5.748  1.00  0.00     0.031 C 
ATOM     52  C   UNL     1      14.066  -4.848   0.152  1.00  0.00     0.029 A 
ATOM     53  C   UNL     1      13.422  -4.416   1.301  1.00  0.00     0.049 A 
ATOM     54  H   UNL     1      11.354  -4.293   1.700  1.00  0.00     0.167 HD
ATOM     55  C   UNL     1      13.296  -3.529   3.611  1.00  0.00     0.074 A 
ATOM     56  C   UNL     1      13.893  -3.062   4.845  1.00  0.00     0.031 C 
ATOM     57  C   UNL     1      14.004  -3.948   2.533  1.00  0.00     0.031 A 
BRANCH  44  58
ATOM     58  C   UNL     1      10.489  -5.809  -2.198  1.00  0.00    -0.014 A 
ATOM     59  C   UNL     1       9.995  -5.051  -3.272  1.00  0.00     0.009 A 
ATOM     60  C   UNL     1      10.954  -7.111  -2.446  1.00  0.00     0.009 A 
ATOM     61  C   UNL     1       9.934  -5.599  -4.556  1.00  0.00     0.001 A 
ATOM     62  C   UNL     1      10.923  -7.644  -3.735  1.00  0.00     0.001 A 
ATOM     63  C   UNL     1      10.403  -6.892  -4.787  1.00  0.00     0.000 A 
ENDBRANCH  44  58
BRANCH  45  64
ATOM     64  C   UNL     1      10.445  -2.173   7.098  1.00  0.00    -0.014 A 
ATOM     65  C   UNL     1      10.955  -0.901   7.401  1.00  0.00     0.009 A 
ATOM     66  C   UNL     1       9.970  -2.977   8.148  1.00  0.00     0.009 A 
ATOM     67  C   UNL     1      11.016  -0.458   8.725  1.00  0.00     0.001 A 
ATOM     68  C   UNL     1       9.999  -2.518   9.466  1.00  0.00     0.001 A 
ATOM     69  C   UNL     1      10.533  -1.264   9.755  1.00  0.00     0.000 A 
ENDBRANCH  45  64
BRANCH  57  70
ATOM     70  C   UNL     1      15.505  -3.877   2.619  1.00  0.00    -0.014 A 
ATOM     71  C   UNL     1      16.237  -4.744   3.445  1.00  0.00     0.009 A 
ATOM     72  C   UNL     1      16.200  -2.951   1.822  1.00  0.00     0.009 A 
ATOM     73  C   UNL     1      17.630  -4.660   3.498  1.00  0.00     0.001 A 
ATOM     74  C   UNL     1      17.594  -2.893   1.852  1.00  0.00     0.001 A 
ATOM     75  C   UNL     1      18.307  -3.740   2.698  1.00  0.00     0.000 A 
ENDBRANCH  57  70
ENDBRANCH  31  32
ENDBRANCH  24  26
ENDBRANCH  23  24
ENDBRANCH  22  23
ENDBRANCH  21  22
ENDBRANCH   1  21
TORSDOF 17
