REMARK SMILES CC[C@H](Oc1c(C)cc(Br)cc1N)C(=O)OCCOC(=O)c1ccc(-c2c3nc(c(-c4ccccc4)c4ccc([nH]4)c(-c4ccccc4)c4nc(c(-c5ccccc5)c5ccc2[nH]5)C=C4)C=C3)cc1
REMARK SMILES IDX 17 1 16 2 14 3 15 4 3 5 2 6 1 7 4 8 5 9 6 10 12 11 7 12 8 13
REMARK SMILES IDX 11 14 9 15 10 16 13 17 18 20 19 21 20 22 21 23 22 24 23 25
REMARK SMILES IDX 69 26 24 27 68 28 25 29 26 30 27 31 62 32 28 33 67 34 61 35
REMARK SMILES IDX 63 36 29 37 66 38 60 39 59 40 30 42 52 43 37 44 51 45 38 46
REMARK SMILES IDX 41 47 50 48 64 49 39 50 40 51 49 53 65 54 42 55 31 56 32 57
REMARK SMILES IDX 36 58 33 59 35 60 34 61 53 62 54 63 58 64 55 65 57 66 56 67
REMARK SMILES IDX 43 68 44 69 48 70 45 71 47 72 46 73
REMARK H PARENT 13 18 13 19 63 41 41 52
REMARK Flexibility Score: inf
ROOT
ATOM      1  C   UNL     1      -1.291  -0.833  -5.037  1.00  0.00     0.274 C 
ENDROOT
BRANCH   1   2
ATOM      2  O   UNL     1      -0.916  -0.894  -3.647  1.00  0.00    -0.459 OA
BRANCH   2   3
ATOM      3  C   UNL     1       0.129  -1.713  -3.342  1.00  0.00     0.347 C 
ATOM      4  O   UNL     1       0.746  -2.389  -4.160  1.00  0.00    -0.248 OA
BRANCH   3   5
ATOM      5  C   UNL     1       0.434  -1.759  -1.837  1.00  0.00     0.282 C 
BRANCH   5   6
ATOM      6  C   UNL     1      -0.472  -2.843  -1.219  1.00  0.00     0.054 C 
ATOM      7  C   UNL     1      -1.196  -2.522   0.075  1.00  0.00     0.008 C 
ENDBRANCH   5   6
BRANCH   5   8
ATOM      8  O   UNL     1       0.341  -0.441  -1.317  1.00  0.00    -0.476 OA
BRANCH   8   9
ATOM      9  C   UNL     1       0.761  -0.102  -0.054  1.00  0.00     0.146 A 
ATOM     10  C   UNL     1       1.784  -0.691   0.710  1.00  0.00    -0.006 A 
ATOM     11  C   UNL     1       0.044   1.008   0.474  1.00  0.00     0.076 A 
ATOM     12  C   UNL     1       2.742  -1.736   0.219  1.00  0.00     0.048 C 
ATOM     13  C   UNL     1       1.954  -0.268   2.046  1.00  0.00     0.023 A 
ATOM     14  C   UNL     1       0.220   1.390   1.806  1.00  0.00     0.045 A 
ATOM     15  C   UNL     1       1.167   0.745   2.588  1.00  0.00     0.020 A 
ATOM     16  Br  UNL     1       1.402   1.251   4.395  1.00  0.00    -0.051 Br
BRANCH  11  17
ATOM     17  N   UNL     1      -0.961   1.623  -0.283  1.00  0.00    -0.396 N 
ATOM     18  H   UNL     1      -1.098   1.365  -1.223  1.00  0.00     0.156 HD
ATOM     19  H   UNL     1      -1.532   2.314   0.125  1.00  0.00     0.156 HD
ENDBRANCH  11  17
ENDBRANCH   8   9
ENDBRANCH   5   8
ENDBRANCH   3   5
ENDBRANCH   2   3
ENDBRANCH   1   2
BRANCH   1  20
ATOM     20  C   UNL     1      -0.719   0.405  -5.734  1.00  0.00     0.275 C 
BRANCH  20  21
ATOM     21  O   UNL     1       0.717   0.359  -5.810  1.00  0.00    -0.458 OA
BRANCH  21  22
ATOM     22  C   UNL     1       1.358   0.979  -4.792  1.00  0.00     0.338 C 
ATOM     23  O   UNL     1       0.859   1.600  -3.870  1.00  0.00    -0.246 OA
BRANCH  22  24
ATOM     24  C   UNL     1       2.800   0.694  -4.878  1.00  0.00     0.060 A 
ATOM     25  C   UNL     1       3.395   0.005  -3.818  1.00  0.00     0.016 A 
ATOM     26  C   UNL     1       3.570   1.167  -5.942  1.00  0.00     0.016 A 
ATOM     27  C   UNL     1       4.771  -0.211  -3.813  1.00  0.00     0.010 A 
ATOM     28  C   UNL     1       4.954   0.959  -5.931  1.00  0.00     0.010 A 
ATOM     29  C   UNL     1       5.562   0.283  -4.859  1.00  0.00    -0.014 A 
BRANCH  29  30
ATOM     30  C   UNL     1       7.036   0.152  -4.783  1.00  0.00     0.031 A 
ATOM     31  C   UNL     1       7.864   1.320  -4.327  1.00  0.00     0.074 A 
ATOM     32  C   UNL     1       7.626  -1.022  -5.067  1.00  0.00     0.049 A 
ATOM     33  N   UNL     1       9.164   1.412  -4.203  1.00  0.00    -0.248 NA
ATOM     34  C   UNL     1       7.133   2.542  -3.953  1.00  0.00     0.031 C 
ATOM     35  C   UNL     1       6.928  -2.247  -5.458  1.00  0.00     0.029 A 
ATOM     36  N   UNL     1       8.951  -1.379  -5.056  1.00  0.00    -0.354 N 
ATOM     37  C   UNL     1       9.407   2.697  -3.738  1.00  0.00     0.074 A 
ATOM     38  C   UNL     1       8.124   3.358  -3.622  1.00  0.00     0.031 C 
ATOM     39  C   UNL     1       7.831  -3.226  -5.633  1.00  0.00     0.029 A 
ATOM     40  C   UNL     1       9.171  -2.688  -5.405  1.00  0.00     0.049 A 
ATOM     41  H   UNL     1       9.675  -0.755  -4.819  1.00  0.00     0.167 HD
ATOM     42  C   UNL     1      10.592   3.274  -3.428  1.00  0.00     0.031 A 
ATOM     43  C   UNL     1      10.322  -3.373  -5.539  1.00  0.00     0.031 A 
ATOM     44  C   UNL     1      11.870   2.626  -3.552  1.00  0.00     0.049 A 
ATOM     45  C   UNL     1      11.631  -2.679  -5.284  1.00  0.00     0.074 A 
ATOM     46  C   UNL     1      13.126   3.139  -3.276  1.00  0.00     0.029 A 
ATOM     47  N   UNL     1      12.054   1.324  -3.987  1.00  0.00    -0.354 N 
ATOM     48  N   UNL     1      11.848  -1.456  -4.865  1.00  0.00    -0.248 NA
ATOM     49  C   UNL     1      12.854  -3.458  -5.529  1.00  0.00     0.031 C 
ATOM     50  C   UNL     1      14.075   2.158  -3.583  1.00  0.00     0.029 A 
ATOM     51  C   UNL     1      13.405   1.022  -4.008  1.00  0.00     0.049 A 
ATOM     52  H   UNL     1      11.332   0.706  -4.244  1.00  0.00     0.167 HD
ATOM     53  C   UNL     1      13.228  -1.324  -4.783  1.00  0.00     0.074 A 
ATOM     54  C   UNL     1      13.798  -2.594  -5.180  1.00  0.00     0.031 C 
ATOM     55  C   UNL     1      13.957  -0.244  -4.412  1.00  0.00     0.031 A 
BRANCH  42  56
ATOM     56  C   UNL     1      10.565   4.694  -2.943  1.00  0.00    -0.014 A 
ATOM     57  C   UNL     1      10.170   5.001  -1.632  1.00  0.00     0.009 A 
ATOM     58  C   UNL     1      10.992   5.729  -3.789  1.00  0.00     0.009 A 
ATOM     59  C   UNL     1      10.185   6.323  -1.184  1.00  0.00     0.001 A 
ATOM     60  C   UNL     1      11.025   7.047  -3.331  1.00  0.00     0.001 A 
ATOM     61  C   UNL     1      10.617   7.343  -2.031  1.00  0.00     0.000 A 
ENDBRANCH  42  56
BRANCH  43  62
ATOM     62  C   UNL     1      10.293  -4.799  -5.952  1.00  0.00    -0.014 A 
ATOM     63  C   UNL     1      10.610  -5.812  -5.036  1.00  0.00     0.009 A 
ATOM     64  C   UNL     1       9.951  -5.152  -7.267  1.00  0.00     0.009 A 
ATOM     65  C   UNL     1      10.598  -7.152  -5.432  1.00  0.00     0.001 A 
ATOM     66  C   UNL     1       9.918  -6.493  -7.654  1.00  0.00     0.001 A 
ATOM     67  C   UNL     1      10.248  -7.491  -6.738  1.00  0.00     0.000 A 
ENDBRANCH  43  62
BRANCH  55  68
ATOM     68  C   UNL     1      15.450  -0.388  -4.402  1.00  0.00    -0.014 A 
ATOM     69  C   UNL     1      16.184  -0.364  -5.598  1.00  0.00     0.009 A 
ATOM     70  C   UNL     1      16.135  -0.485  -3.181  1.00  0.00     0.009 A 
ATOM     71  C   UNL     1      17.578  -0.453  -5.570  1.00  0.00     0.001 A 
ATOM     72  C   UNL     1      17.529  -0.552  -3.156  1.00  0.00     0.001 A 
ATOM     73  C   UNL     1      18.248  -0.541  -4.350  1.00  0.00     0.000 A 
ENDBRANCH  55  68
ENDBRANCH  29  30
ENDBRANCH  22  24
ENDBRANCH  21  22
ENDBRANCH  20  21
ENDBRANCH   1  20
TORSDOF 15
