REMARK SMILES Cc1cc(Br)cc2c1O[C@H](C(F)(F)F)C(C(=O)OCCOC(=O)c1ccc(-c3c4nc(c(-c5ccccc5)c5ccc([nH]5)c(-c5ccccc5)c5nc(c(-c6ccccc6)c6ccc3[nH]6)C=C5)C=C4)cc1)=C2
REMARK SMILES IDX 20 1 19 2 18 3 16 4 17 5 15 6 1 7 2 8 3 9 8 10 4 11 7 12
REMARK SMILES IDX 9 13 5 14 6 15 72 16 10 17 11 18 12 19 13 20 14 21 21 22
REMARK SMILES IDX 22 23 23 24 24 25 25 26 71 27 26 28 70 29 27 30 28 31 29 32
REMARK SMILES IDX 64 33 30 34 69 35 63 36 65 37 31 38 68 39 62 40 61 41 32 43
REMARK SMILES IDX 54 44 39 45 53 46 40 47 43 48 52 49 66 50 41 51 42 52 51 54
REMARK SMILES IDX 67 55 44 56 33 57 34 58 38 59 35 60 37 61 36 62 55 63 56 64
REMARK SMILES IDX 60 65 57 66 59 67 58 68 45 69 46 70 50 71 47 72 49 73 48 74
REMARK H PARENT 65 42 43 53
REMARK Flexibility Score: inf
ROOT
ATOM      1  C   UNL     1      -6.609   2.161  -4.728  1.00  0.00     0.275 C 
ENDROOT
BRANCH   1   2
ATOM      2  C   UNL     1      -5.504   1.188  -5.137  1.00  0.00     0.275 C 
BRANCH   2   3
ATOM      3  O   UNL     1      -4.520   1.041  -4.089  1.00  0.00    -0.459 OA
BRANCH   3   4
ATOM      4  C   UNL     1      -3.363   1.714  -4.281  1.00  0.00     0.338 C 
ATOM      5  O   UNL     1      -3.071   2.406  -5.245  1.00  0.00    -0.246 OA
BRANCH   4   6
ATOM      6  C   UNL     1      -2.457   1.529  -3.134  1.00  0.00     0.087 C 
ATOM      7  C   UNL     1       1.012  -0.319   0.195  1.00  0.00     0.048 C 
ATOM      8  C   UNL     1       0.548   1.033  -0.264  1.00  0.00    -0.007 A 
ATOM      9  C   UNL     1       1.172   2.178   0.264  1.00  0.00     0.023 A 
ATOM     10  C   UNL     1      -0.509   1.186  -1.175  1.00  0.00     0.130 A 
ATOM     11  C   UNL     1       0.757   3.450  -0.123  1.00  0.00     0.019 A 
ATOM     12  C   UNL     1      -0.903   2.467  -1.570  1.00  0.00     0.019 A 
ATOM     13  O   UNL     1      -1.128   0.052  -1.628  1.00  0.00    -0.475 OA
ATOM     14  Br  UNL     1       1.611   4.980   0.586  1.00  0.00    -0.051 Br
ATOM     15  C   UNL     1      -0.277   3.602  -1.038  1.00  0.00     0.027 A 
ATOM     16  C   UNL     1      -1.937   2.624  -2.572  1.00  0.00     0.027 C 
ATOM     17  C   UNL     1      -2.039   0.138  -2.760  1.00  0.00     0.316 C 
BRANCH  17  18
ATOM     18  C   UNL     1      -1.420  -0.604  -3.954  1.00  0.00     0.430 C 
ATOM     19  F   UNL     1      -1.021  -1.851  -3.608  1.00  0.00    -0.167 F 
ATOM     20  F   UNL     1      -2.314  -0.752  -4.963  1.00  0.00    -0.167 F 
ATOM     21  F   UNL     1      -0.345   0.044  -4.458  1.00  0.00    -0.167 F 
ENDBRANCH  17  18
ENDBRANCH   4   6
ENDBRANCH   3   4
ENDBRANCH   2   3
ENDBRANCH   1   2
BRANCH   1  22
ATOM     22  O   UNL     1      -6.077   3.492  -4.597  1.00  0.00    -0.458 OA
BRANCH  22  23
ATOM     23  C   UNL     1      -5.986   3.957  -3.331  1.00  0.00     0.338 C 
ATOM     24  O   UNL     1      -6.344   3.402  -2.307  1.00  0.00    -0.246 OA
BRANCH  23  25
ATOM     25  C   UNL     1      -5.293   5.255  -3.315  1.00  0.00     0.060 A 
ATOM     26  C   UNL     1      -3.967   5.311  -3.725  1.00  0.00     0.016 A 
ATOM     27  C   UNL     1      -5.877   6.360  -2.700  1.00  0.00     0.016 A 
ATOM     28  C   UNL     1      -3.171   6.391  -3.360  1.00  0.00     0.010 A 
ATOM     29  C   UNL     1      -5.112   7.513  -2.481  1.00  0.00     0.010 A 
ATOM     30  C   UNL     1      -3.731   7.522  -2.751  1.00  0.00    -0.014 A 
BRANCH  30  31
ATOM     31  C   UNL     1      -2.867   8.680  -2.368  1.00  0.00     0.031 A 
ATOM     32  C   UNL     1      -2.876   9.210  -0.953  1.00  0.00     0.074 A 
ATOM     33  C   UNL     1      -2.039   9.245  -3.272  1.00  0.00     0.049 A 
ATOM     34  N   UNL     1      -2.332  10.302  -0.476  1.00  0.00    -0.248 NA
ATOM     35  C   UNL     1      -3.599   8.418   0.056  1.00  0.00     0.031 C 
ATOM     36  C   UNL     1      -1.866   8.809  -4.660  1.00  0.00     0.029 A 
ATOM     37  N   UNL     1      -1.163  10.297  -3.153  1.00  0.00    -0.354 N 
ATOM     38  C   UNL     1      -2.698  10.358   0.865  1.00  0.00     0.074 A 
ATOM     39  C   UNL     1      -3.519   9.197   1.126  1.00  0.00     0.031 C 
ATOM     40  C   UNL     1      -0.892   9.528  -5.234  1.00  0.00     0.029 A 
ATOM     41  C   UNL     1      -0.457  10.561  -4.303  1.00  0.00     0.049 A 
ATOM     42  H   UNL     1      -1.051  10.814  -2.322  1.00  0.00     0.167 HD
ATOM     43  C   UNL     1      -2.378  11.290   1.795  1.00  0.00     0.031 A 
ATOM     44  C   UNL     1       0.407  11.547  -4.606  1.00  0.00     0.031 A 
ATOM     45  C   UNL     1      -1.518  12.418   1.549  1.00  0.00     0.049 A 
ATOM     46  C   UNL     1       0.689  12.609  -3.584  1.00  0.00     0.074 A 
ATOM     47  C   UNL     1      -1.132  13.415   2.429  1.00  0.00     0.029 A 
ATOM     48  N   UNL     1      -0.892  12.685   0.342  1.00  0.00    -0.354 N 
ATOM     49  N   UNL     1       0.270  12.690  -2.345  1.00  0.00    -0.248 NA
ATOM     50  C   UNL     1       1.536  13.731  -4.011  1.00  0.00     0.031 C 
ATOM     51  C   UNL     1      -0.312  14.313   1.739  1.00  0.00     0.029 A 
ATOM     52  C   UNL     1      -0.143  13.845   0.447  1.00  0.00     0.049 A 
ATOM     53  H   UNL     1      -0.970  12.133  -0.470  1.00  0.00     0.167 HD
ATOM     54  C   UNL     1       0.803  13.868  -1.843  1.00  0.00     0.074 A 
ATOM     55  C   UNL     1       1.599  14.455  -2.902  1.00  0.00     0.031 C 
ATOM     56  C   UNL     1       0.637  14.420  -0.617  1.00  0.00     0.031 A 
BRANCH  43  57
ATOM     57  C   UNL     1      -2.985  11.155   3.165  1.00  0.00    -0.014 A 
ATOM     58  C   UNL     1      -2.558  10.166   4.065  1.00  0.00     0.009 A 
ATOM     59  C   UNL     1      -3.959  12.077   3.584  1.00  0.00     0.009 A 
ATOM     60  C   UNL     1      -3.115  10.088   5.345  1.00  0.00     0.001 A 
ATOM     61  C   UNL     1      -4.492  12.014   4.872  1.00  0.00     0.001 A 
ATOM     62  C   UNL     1      -4.075  11.014   5.749  1.00  0.00     0.000 A 
ENDBRANCH  43  57
BRANCH  44  63
ATOM     63  C   UNL     1       1.021  11.605  -5.960  1.00  0.00    -0.014 A 
ATOM     64  C   UNL     1       2.395  11.378  -6.129  1.00  0.00     0.009 A 
ATOM     65  C   UNL     1       0.232  11.860  -7.094  1.00  0.00     0.009 A 
ATOM     66  C   UNL     1       2.965  11.407  -7.404  1.00  0.00     0.001 A 
ATOM     67  C   UNL     1       0.798  11.854  -8.370  1.00  0.00     0.001 A 
ATOM     68  C   UNL     1       2.165  11.634  -8.524  1.00  0.00     0.000 A 
ENDBRANCH  44  63
BRANCH  56  69
ATOM     69  C   UNL     1       1.335  15.722  -0.347  1.00  0.00    -0.014 A 
ATOM     70  C   UNL     1       0.864  16.921  -0.903  1.00  0.00     0.009 A 
ATOM     71  C   UNL     1       2.435  15.758   0.524  1.00  0.00     0.009 A 
ATOM     72  C   UNL     1       1.494  18.130  -0.606  1.00  0.00     0.001 A 
ATOM     73  C   UNL     1       3.045  16.972   0.841  1.00  0.00     0.001 A 
ATOM     74  C   UNL     1       2.578  18.155   0.271  1.00  0.00     0.000 A 
ENDBRANCH  56  69
ENDBRANCH  30  31
ENDBRANCH  23  25
ENDBRANCH  22  23
ENDBRANCH   1  22
TORSDOF 12
