REMARK SMILES O=C(OCCOC(=O)c1ccc(S(=O)(=O)Nc2ccccc2I)cc1)c1ccc(-c2c3nc(c(-c4ccccc4)c4ccc([nH]4)c(-c4ccccc4)c4nc(c(-c5ccccc5)c5ccc2[nH]5)C=C4)C=C3)cc1
REMARK SMILES IDX 5 1 4 2 3 3 2 4 1 5 26 6 27 7 73 8 28 9 72 10 29 11 30 12
REMARK SMILES IDX 31 13 66 14 32 15 71 16 65 17 67 18 33 19 70 20 64 21 63 22
REMARK SMILES IDX 34 24 56 25 41 26 55 27 42 28 45 29 54 30 68 31 43 32 44 33
REMARK SMILES IDX 53 35 69 36 46 37 35 38 36 39 40 40 37 41 39 42 38 43 57 44
REMARK SMILES IDX 58 45 62 46 59 47 61 48 60 49 47 50 48 51 52 52 49 53 51 54
REMARK SMILES IDX 50 55 6 56 7 57 8 58 9 59 10 60 25 61 11 62 24 63 12 64
REMARK SMILES IDX 13 65 14 66 15 67 16 68 17 70 18 71 22 72 19 73 21 74 23 75
REMARK SMILES IDX 20 76
REMARK H PARENT 67 23 45 34 16 69
REMARK Flexibility Score: inf
ROOT
ATOM      1  C   UNL     1       3.941   0.795   2.041  1.00  0.00     0.275 C 
ENDROOT
BRANCH   1   2
ATOM      2  C   UNL     1       4.155   1.471   0.687  1.00  0.00     0.275 C 
BRANCH   2   3
ATOM      3  O   UNL     1       3.120   1.213  -0.281  1.00  0.00    -0.458 OA
BRANCH   3   4
ATOM      4  C   UNL     1       2.964   0.208  -1.175  1.00  0.00     0.338 C 
ATOM      5  O   UNL     1       2.062   0.303  -2.007  1.00  0.00    -0.246 OA
BRANCH   4   6
ATOM      6  C   UNL     1       3.746  -1.072  -1.162  1.00  0.00     0.060 A 
ATOM      7  C   UNL     1       5.056  -1.237  -0.707  1.00  0.00     0.016 A 
ATOM      8  C   UNL     1       3.096  -2.204  -1.694  1.00  0.00     0.016 A 
ATOM      9  C   UNL     1       5.683  -2.492  -0.728  1.00  0.00     0.010 A 
ATOM     10  C   UNL     1       3.717  -3.460  -1.717  1.00  0.00     0.010 A 
ATOM     11  C   UNL     1       5.022  -3.614  -1.230  1.00  0.00    -0.014 A 
BRANCH  11  12
ATOM     12  C   UNL     1       5.734  -4.907  -1.388  1.00  0.00     0.031 A 
ATOM     13  C   UNL     1       6.169  -5.318  -2.765  1.00  0.00     0.074 A 
ATOM     14  C   UNL     1       6.057  -5.686  -0.336  1.00  0.00     0.049 A 
ATOM     15  N   UNL     1       6.826  -6.388  -3.130  1.00  0.00    -0.248 NA
ATOM     16  C   UNL     1       5.899  -4.370  -3.859  1.00  0.00     0.031 C 
ATOM     17  C   UNL     1       5.885  -5.342   1.072  1.00  0.00     0.029 A 
ATOM     18  N   UNL     1       6.587  -6.956  -0.294  1.00  0.00    -0.354 N 
ATOM     19  C   UNL     1       7.121  -6.200  -4.472  1.00  0.00     0.074 A 
ATOM     20  C   UNL     1       6.490  -4.966  -4.883  1.00  0.00     0.031 C 
ATOM     21  C   UNL     1       6.194  -6.409   1.828  1.00  0.00     0.029 A 
ATOM     22  C   UNL     1       6.565  -7.517   0.963  1.00  0.00     0.049 A 
ATOM     23  H   UNL     1       6.947  -7.418  -1.086  1.00  0.00     0.167 HD
ATOM     24  C   UNL     1       7.904  -6.958  -5.272  1.00  0.00     0.031 A 
ATOM     25  C   UNL     1       6.778  -8.790   1.349  1.00  0.00     0.031 A 
ATOM     26  C   UNL     1       8.485  -8.211  -4.878  1.00  0.00     0.049 A 
ATOM     27  C   UNL     1       7.336  -9.757   0.351  1.00  0.00     0.074 A 
ATOM     28  C   UNL     1       9.322  -9.042  -5.599  1.00  0.00     0.029 A 
ATOM     29  N   UNL     1       8.254  -8.830  -3.661  1.00  0.00    -0.354 N 
ATOM     30  N   UNL     1       7.614  -9.565  -0.912  1.00  0.00    -0.248 NA
ATOM     31  C   UNL     1       7.689 -11.089   0.862  1.00  0.00     0.031 C 
ATOM     32  C   UNL     1       9.546 -10.197  -4.840  1.00  0.00     0.029 A 
ATOM     33  C   UNL     1       8.893 -10.057  -3.627  1.00  0.00     0.049 A 
ATOM     34  H   UNL     1       7.715  -8.453  -2.928  1.00  0.00     0.167 HD
ATOM     35  C   UNL     1       8.255 -10.720  -1.329  1.00  0.00     0.074 A 
ATOM     36  C   UNL     1       8.265 -11.630  -0.201  1.00  0.00     0.031 C 
ATOM     37  C   UNL     1       8.848 -10.972  -2.519  1.00  0.00     0.031 A 
BRANCH  24  38
ATOM     38  C   UNL     1       8.172  -6.432  -6.649  1.00  0.00    -0.014 A 
ATOM     39  C   UNL     1       9.036  -5.340  -6.843  1.00  0.00     0.009 A 
ATOM     40  C   UNL     1       7.568  -7.032  -7.761  1.00  0.00     0.009 A 
ATOM     41  C   UNL     1       9.265  -4.841  -8.126  1.00  0.00     0.001 A 
ATOM     42  C   UNL     1       7.815  -6.543  -9.045  1.00  0.00     0.001 A 
ATOM     43  C   UNL     1       8.657  -5.445  -9.226  1.00  0.00     0.000 A 
ENDBRANCH  24  38
BRANCH  25  44
ATOM     44  C   UNL     1       6.453  -9.279   2.714  1.00  0.00    -0.014 A 
ATOM     45  C   UNL     1       7.334  -9.120   3.790  1.00  0.00     0.009 A 
ATOM     46  C   UNL     1       5.268 -10.012   2.910  1.00  0.00     0.009 A 
ATOM     47  C   UNL     1       7.022  -9.669   5.039  1.00  0.00     0.001 A 
ATOM     48  C   UNL     1       4.951 -10.543   4.162  1.00  0.00     0.001 A 
ATOM     49  C   UNL     1       5.830 -10.370   5.227  1.00  0.00     0.000 A 
ENDBRANCH  25  44
BRANCH  37  50
ATOM     50  C   UNL     1       9.601 -12.262  -2.621  1.00  0.00    -0.014 A 
ATOM     51  C   UNL     1       8.938 -13.494  -2.718  1.00  0.00     0.009 A 
ATOM     52  C   UNL     1      11.004 -12.237  -2.579  1.00  0.00     0.009 A 
ATOM     53  C   UNL     1       9.670 -14.682  -2.729  1.00  0.00     0.001 A 
ATOM     54  C   UNL     1      11.732 -13.424  -2.620  1.00  0.00     0.001 A 
ATOM     55  C   UNL     1      11.064 -14.646  -2.682  1.00  0.00     0.000 A 
ENDBRANCH  37  50
ENDBRANCH  11  12
ENDBRANCH   4   6
ENDBRANCH   3   4
ENDBRANCH   2   3
ENDBRANCH   1   2
BRANCH   1  56
ATOM     56  O   UNL     1       3.519  -0.566   1.908  1.00  0.00    -0.458 OA
BRANCH  56  57
ATOM     57  C   UNL     1       2.176  -0.766   1.991  1.00  0.00     0.338 C 
ATOM     58  O   UNL     1       1.331   0.071   2.260  1.00  0.00    -0.246 OA
BRANCH  57  59
ATOM     59  C   UNL     1       1.858  -2.153   1.585  1.00  0.00     0.060 A 
ATOM     60  C   UNL     1       0.626  -2.411   0.966  1.00  0.00     0.017 A 
ATOM     61  C   UNL     1       2.787  -3.184   1.746  1.00  0.00     0.017 A 
ATOM     62  C   UNL     1       0.315  -3.701   0.525  1.00  0.00     0.023 A 
ATOM     63  C   UNL     1       2.490  -4.457   1.269  1.00  0.00     0.023 A 
ATOM     64  C   UNL     1       1.243  -4.730   0.706  1.00  0.00     0.087 A 
BRANCH  64  65
ATOM     65  S   UNL     1       0.889  -6.376   0.147  1.00  0.00     0.261 S 
ATOM     66  O   UNL     1      -0.439  -6.386  -0.429  1.00  0.00    -0.201 OA
ATOM     67  O   UNL     1       2.028  -6.802  -0.641  1.00  0.00    -0.201 OA
BRANCH  65  68
ATOM     68  N   UNL     1       0.836  -7.416   1.504  1.00  0.00    -0.279 N 
ATOM     69  H   UNL     1       0.318  -8.253   1.472  1.00  0.00     0.180 HD
BRANCH  68  70
ATOM     70  C   UNL     1       1.558  -7.049   2.696  1.00  0.00     0.062 A 
ATOM     71  C   UNL     1       2.886  -7.463   2.831  1.00  0.00     0.028 A 
ATOM     72  C   UNL     1       0.999  -6.228   3.689  1.00  0.00     0.037 A 
ATOM     73  C   UNL     1       3.637  -7.070   3.943  1.00  0.00     0.002 A 
ATOM     74  C   UNL     1       1.778  -5.794   4.770  1.00  0.00     0.017 A 
ATOM     75  I   UNL     1      -1.015  -5.653   3.671  1.00  0.00    -0.042 I 
ATOM     76  C   UNL     1       3.099  -6.214   4.895  1.00  0.00     0.001 A 
ENDBRANCH  68  70
ENDBRANCH  65  68
ENDBRANCH  64  65
ENDBRANCH  57  59
ENDBRANCH  56  57
ENDBRANCH   1  56
TORSDOF 14
