REMARK SMILES O=C(OCCOC(=O)[C@@H]1CC2(CC[NH2+]CC2)C[N@@H+]1Cc1cccc2nonc12)c1ccc(-c2c3nc(c(-c4ccccc4)c4ccc([nH]4)c(-c4ccccc4)c4nc(c(-c5ccccc5)c5ccc2[nH]5)C=C4)C=C3)cc1
REMARK SMILES IDX 4 1 3 2 2 3 1 4 29 5 30 6 76 7 31 8 75 9 32 10 33 11 34 12
REMARK SMILES IDX 69 13 35 14 74 15 68 16 70 17 36 18 73 19 67 20 66 21 37 23
REMARK SMILES IDX 59 24 44 25 58 26 45 27 48 28 57 29 71 30 46 31 47 32 56 34
REMARK SMILES IDX 72 35 49 36 38 37 39 38 43 39 40 40 42 41 41 42 60 43 61 44
REMARK SMILES IDX 65 45 62 46 64 47 63 48 50 49 51 50 55 51 52 52 54 53 53 54
REMARK SMILES IDX 5 55 6 56 7 57 8 58 9 59 10 60 18 61 11 62 17 63 12 65 16 66
REMARK SMILES IDX 13 67 15 68 14 69 19 72 20 73 21 74 28 75 22 76 24 77 27 78
REMARK SMILES IDX 23 79 25 80 26 81
REMARK H PARENT 70 22 48 33 18 64 14 70 14 71
REMARK Flexibility Score: inf
ROOT
ATOM      1  C   UNL     1       5.323  -1.783  -1.111  1.00  0.00     0.275 C 
ENDROOT
BRANCH   1   2
ATOM      2  O   UNL     1       5.662  -0.546  -0.494  1.00  0.00    -0.458 OA
BRANCH   2   3
ATOM      3  C   UNL     1       4.531   0.049  -0.163  1.00  0.00     0.338 C 
ATOM      4  O   UNL     1       3.612  -0.479   0.431  1.00  0.00    -0.246 OA
BRANCH   3   5
ATOM      5  C   UNL     1       4.359   1.196  -1.055  1.00  0.00     0.060 A 
ATOM      6  C   UNL     1       2.870   1.822  -0.891  1.00  0.00     0.016 A 
ATOM      7  C   UNL     1       5.252   1.744  -2.283  1.00  0.00     0.016 A 
ATOM      8  C   UNL     1       2.062   3.156  -2.167  1.00  0.00     0.010 A 
ATOM      9  C   UNL     1       4.695   2.927  -3.400  1.00  0.00     0.010 A 
ATOM     10  C   UNL     1       3.118   3.671  -3.468  1.00  0.00    -0.014 A 
BRANCH  10  11
ATOM     11  C   UNL     1       2.681   4.475  -4.678  1.00  0.00     0.031 A 
ATOM     12  C   UNL     1       3.940   4.822  -5.463  1.00  0.00     0.074 A 
ATOM     13  C   UNL     1       1.585   4.220  -5.456  1.00  0.00     0.049 A 
ATOM     14  N   UNL     1       4.603   3.946  -6.168  1.00  0.00    -0.248 NA
ATOM     15  C   UNL     1       4.757   5.978  -5.084  1.00  0.00     0.031 C 
ATOM     16  C   UNL     1       1.160   2.911  -5.981  1.00  0.00     0.029 A 
ATOM     17  N   UNL     1       0.841   5.137  -6.223  1.00  0.00    -0.354 N 
ATOM     18  C   UNL     1       5.949   4.320  -6.148  1.00  0.00     0.074 A 
ATOM     19  C   UNL     1       5.987   5.593  -5.469  1.00  0.00     0.031 C 
ATOM     20  C   UNL     1       0.364   3.091  -7.058  1.00  0.00     0.029 A 
ATOM     21  C   UNL     1       0.167   4.518  -7.301  1.00  0.00     0.049 A 
ATOM     22  H   UNL     1       0.794   6.101  -6.030  1.00  0.00     0.167 HD
ATOM     23  C   UNL     1       6.948   3.513  -6.621  1.00  0.00     0.031 A 
ATOM     24  C   UNL     1       0.039   5.098  -8.538  1.00  0.00     0.031 A 
ATOM     25  C   UNL     1       6.488   2.367  -7.356  1.00  0.00     0.049 A 
ATOM     26  C   UNL     1       1.309   4.637  -9.208  1.00  0.00     0.074 A 
ATOM     27  C   UNL     1       6.631   1.004  -7.476  1.00  0.00     0.029 A 
ATOM     28  N   UNL     1       5.666   2.704  -8.397  1.00  0.00    -0.354 N 
ATOM     29  N   UNL     1       1.573   3.438  -9.664  1.00  0.00    -0.248 NA
ATOM     30  C   UNL     1       2.485   5.458  -8.947  1.00  0.00     0.031 C 
ATOM     31  C   UNL     1       5.538   0.576  -8.312  1.00  0.00     0.029 A 
ATOM     32  C   UNL     1       4.801   1.704  -8.682  1.00  0.00     0.049 A 
ATOM     33  H   UNL     1       5.701   3.563  -8.876  1.00  0.00     0.167 HD
ATOM     34  C   UNL     1       2.930   3.228  -9.380  1.00  0.00     0.074 A 
ATOM     35  C   UNL     1       3.436   4.539  -9.011  1.00  0.00     0.031 C 
ATOM     36  C   UNL     1       3.497   1.983  -9.265  1.00  0.00     0.031 A 
BRANCH  23  37
ATOM     37  C   UNL     1       8.351   3.968  -6.760  1.00  0.00    -0.014 A 
ATOM     38  C   UNL     1       9.372   3.736  -5.832  1.00  0.00     0.009 A 
ATOM     39  C   UNL     1       8.674   4.577  -7.984  1.00  0.00     0.009 A 
ATOM     40  C   UNL     1      10.688   4.127  -6.131  1.00  0.00     0.001 A 
ATOM     41  C   UNL     1       9.977   4.960  -8.281  1.00  0.00     0.001 A 
ATOM     42  C   UNL     1      10.987   4.739  -7.352  1.00  0.00     0.000 A 
ENDBRANCH  23  37
BRANCH  24  43
ATOM     43  C   UNL     1      -0.459   6.519  -8.533  1.00  0.00    -0.014 A 
ATOM     44  C   UNL     1       0.246   7.661  -8.943  1.00  0.00     0.009 A 
ATOM     45  C   UNL     1      -1.724   6.731  -7.951  1.00  0.00     0.009 A 
ATOM     46  C   UNL     1      -0.172   8.944  -8.560  1.00  0.00     0.001 A 
ATOM     47  C   UNL     1      -2.159   8.011  -7.592  1.00  0.00     0.001 A 
ATOM     48  C   UNL     1      -1.352   9.113  -7.844  1.00  0.00     0.000 A 
ENDBRANCH  24  43
BRANCH  36  49
ATOM     49  C   UNL     1       2.695   0.799  -9.712  1.00  0.00    -0.014 A 
ATOM     50  C   UNL     1       2.504  -0.309  -8.868  1.00  0.00     0.009 A 
ATOM     51  C   UNL     1       2.349   0.689 -11.062  1.00  0.00     0.009 A 
ATOM     52  C   UNL     1       2.096  -1.536  -9.394  1.00  0.00     0.001 A 
ATOM     53  C   UNL     1       1.920  -0.530 -11.582  1.00  0.00     0.001 A 
ATOM     54  C   UNL     1       1.829  -1.650 -10.756  1.00  0.00     0.000 A 
ENDBRANCH  36  49
ENDBRANCH  10  11
ENDBRANCH   3   5
ENDBRANCH   2   3
ENDBRANCH   1   2
BRANCH   1  55
ATOM     55  C   UNL     1       4.122  -1.804  -2.167  1.00  0.00     0.274 C 
BRANCH  55  56
ATOM     56  O   UNL     1       3.069  -0.752  -2.059  1.00  0.00    -0.458 OA
BRANCH  56  57
ATOM     57  C   UNL     1       1.715  -0.559  -1.885  1.00  0.00     0.365 C 
ATOM     58  O   UNL     1       0.916  -1.481  -1.862  1.00  0.00    -0.245 OA
BRANCH  57  59
ATOM     59  C   UNL     1       1.341   1.040  -1.980  1.00  0.00     0.296 C 
ATOM     60  C   UNL     1       3.050   1.729  -2.712  1.00  0.00     0.091 C 
ATOM     61  N   UNL     1       0.782   2.166  -0.571  1.00  0.00    -0.319 N 
ATOM     62  C   UNL     1       3.717   3.383  -1.333  1.00  0.00     0.036 C 
ATOM     63  C   UNL     1       2.067   3.493  -0.120  1.00  0.00     0.270 C 
ATOM     64  H   UNL     1      -0.013   2.648  -0.990  1.00  0.00     0.349 HD
ATOM     65  C   UNL     1       3.963   5.061  -1.531  1.00  0.00     0.074 C 
ATOM     66  C   UNL     1       5.009   3.344  -0.120  1.00  0.00     0.074 C 
ATOM     67  C   UNL     1       5.406   5.539  -1.843  1.00  0.00     0.261 C 
ATOM     68  C   UNL     1       6.412   3.737  -0.637  1.00  0.00     0.261 C 
ATOM     69  N   UNL     1       6.459   5.159  -0.906  1.00  0.00    -0.346 N 
ATOM     70  H   UNL     1       6.331   5.669  -0.032  1.00  0.00     0.346 HD
ATOM     71  H   UNL     1       7.364   5.386  -1.318  1.00  0.00     0.346 HD
BRANCH  61  72
ATOM     72  C   UNL     1       0.135   1.524   0.618  1.00  0.00     0.302 C 
BRANCH  72  73
ATOM     73  C   UNL     1       0.900   0.534   1.482  1.00  0.00     0.038 A 
ATOM     74  C   UNL     1       1.929   0.901   2.407  1.00  0.00     0.012 A 
ATOM     75  C   UNL     1       0.747  -0.875   1.400  1.00  0.00     0.144 A 
ATOM     76  C   UNL     1       2.808  -0.026   3.054  1.00  0.00     0.003 A 
ATOM     77  C   UNL     1       1.649  -1.824   2.057  1.00  0.00     0.135 A 
ATOM     78  N   UNL     1      -0.172  -1.585   0.735  1.00  0.00    -0.049 NA
ATOM     79  C   UNL     1       2.713  -1.420   2.884  1.00  0.00     0.034 A 
ATOM     80  N   UNL     1       1.308  -3.063   1.680  1.00  0.00    -0.050 NA
ATOM     81  O   UNL     1       0.217  -2.908   0.840  1.00  0.00    -0.243 OA
ENDBRANCH  72  73
ENDBRANCH  61  72
ENDBRANCH  57  59
ENDBRANCH  56  57
ENDBRANCH  55  56
ENDBRANCH   1  55
TORSDOF 13
