REMARK SMILES O=C(OCCOC(=O)[C@H]1[C@H]2CC[C@H](C2)[C@@H]1C(=O)Nc1sc2c(c1C(=O)NC1CCCCC1)CCCC2)c1ccc(-c2c3nc(c(-c4ccccc4)c4ccc([nH]4)c(-c4ccccc4)c4nc(c(-c5ccccc5)c5ccc2[nH]5)C=C4)C=C3)cc1
REMARK SMILES IDX 5 1 4 2 3 3 2 4 1 5 37 6 38 7 84 8 39 9 83 10 40 11 41 12
REMARK SMILES IDX 42 13 77 14 43 15 82 16 76 17 78 18 44 19 81 20 75 21 74 22
REMARK SMILES IDX 45 24 67 25 52 26 66 27 53 28 56 29 65 30 79 31 54 32 55 33
REMARK SMILES IDX 64 35 80 36 57 37 46 38 47 39 51 40 48 41 50 42 49 43 68 44
REMARK SMILES IDX 69 45 73 46 70 47 72 48 71 49 58 50 59 51 63 52 60 53 62 54
REMARK SMILES IDX 61 55 6 56 7 57 8 58 9 59 10 60 15 61 11 62 14 63 13 64
REMARK SMILES IDX 12 65 16 66 17 67 18 68 19 70 20 71 23 72 21 73 22 74 36 75
REMARK SMILES IDX 33 76 35 77 34 78 24 79 25 80 26 81 27 83 28 84 32 85 29 86
REMARK SMILES IDX 31 87 30 88
REMARK H PARENT 78 23 56 34 18 69 26 82
REMARK Flexibility Score: inf
ROOT
ATOM      1  C   UNL     1      -1.101   1.096  -2.320  1.00  0.00     0.274 C 
ENDROOT
BRANCH   1   2
ATOM      2  C   UNL     1      -1.907   0.681  -1.081  1.00  0.00     0.275 C 
BRANCH   2   3
ATOM      3  O   UNL     1      -1.717   1.456   0.111  1.00  0.00    -0.458 OA
BRANCH   3   4
ATOM      4  C   UNL     1      -0.691   1.458   0.992  1.00  0.00     0.338 C 
ATOM      5  O   UNL     1      -0.753   2.190   1.978  1.00  0.00    -0.246 OA
BRANCH   4   6
ATOM      6  C   UNL     1       0.569   0.680   0.771  1.00  0.00     0.060 A 
ATOM      7  C   UNL     1       0.693  -0.507   0.046  1.00  0.00     0.016 A 
ATOM      8  C   UNL     1       1.728   1.205   1.352  1.00  0.00     0.016 A 
ATOM      9  C   UNL     1       1.939  -1.103  -0.173  1.00  0.00     0.010 A 
ATOM     10  C   UNL     1       2.978   0.616   1.133  1.00  0.00     0.010 A 
ATOM     11  C   UNL     1       3.099  -0.546   0.363  1.00  0.00    -0.014 A 
BRANCH  11  12
ATOM     12  C   UNL     1       4.375  -1.310   0.328  1.00  0.00     0.031 A 
ATOM     13  C   UNL     1       4.911  -1.791   1.651  1.00  0.00     0.074 A 
ATOM     14  C   UNL     1       4.986  -1.616  -0.837  1.00  0.00     0.049 A 
ATOM     15  N   UNL     1       6.059  -2.341   1.940  1.00  0.00    -0.248 NA
ATOM     16  C   UNL     1       4.025  -1.612   2.821  1.00  0.00     0.031 C 
ATOM     17  C   UNL     1       4.510  -1.219  -2.164  1.00  0.00     0.029 A 
ATOM     18  N   UNL     1       6.132  -2.332  -1.109  1.00  0.00    -0.354 N 
ATOM     19  C   UNL     1       6.027  -2.557   3.314  1.00  0.00     0.074 A 
ATOM     20  C   UNL     1       4.803  -1.990   3.818  1.00  0.00     0.031 C 
ATOM     21  C   UNL     1       5.326  -1.733  -3.101  1.00  0.00     0.029 A 
ATOM     22  C   UNL     1       6.449  -2.409  -2.453  1.00  0.00     0.049 A 
ATOM     23  H   UNL     1       6.678  -2.753  -0.406  1.00  0.00     0.167 HD
ATOM     24  C   UNL     1       6.910  -3.235   4.080  1.00  0.00     0.031 A 
ATOM     25  C   UNL     1       7.550  -2.913  -3.064  1.00  0.00     0.031 A 
ATOM     26  C   UNL     1       8.118  -3.790   3.549  1.00  0.00     0.049 A 
ATOM     27  C   UNL     1       8.635  -3.463  -2.139  1.00  0.00     0.074 A 
ATOM     28  C   UNL     1       9.099  -4.521   4.188  1.00  0.00     0.029 A 
ATOM     29  N   UNL     1       8.492  -3.671   2.218  1.00  0.00    -0.354 N 
ATOM     30  N   UNL     1       8.630  -3.565  -0.825  1.00  0.00    -0.248 NA
ATOM     31  C   UNL     1       9.907  -3.884  -2.749  1.00  0.00     0.031 C 
ATOM     32  C   UNL     1      10.087  -4.818   3.244  1.00  0.00     0.029 A 
ATOM     33  C   UNL     1       9.686  -4.323   2.010  1.00  0.00     0.049 A 
ATOM     34  H   UNL     1       7.980  -3.191   1.527  1.00  0.00     0.167 HD
ATOM     35  C   UNL     1       9.866  -4.096  -0.470  1.00  0.00     0.074 A 
ATOM     36  C   UNL     1      10.613  -4.265  -1.696  1.00  0.00     0.031 C 
ATOM     37  C   UNL     1      10.360  -4.436   0.746  1.00  0.00     0.031 A 
BRANCH  24  38
ATOM     38  C   UNL     1       6.556  -3.430   5.528  1.00  0.00    -0.014 A 
ATOM     39  C   UNL     1       5.440  -4.207   5.891  1.00  0.00     0.009 A 
ATOM     40  C   UNL     1       7.306  -2.815   6.540  1.00  0.00     0.009 A 
ATOM     41  C   UNL     1       5.045  -4.309   7.226  1.00  0.00     0.001 A 
ATOM     42  C   UNL     1       6.930  -2.950   7.880  1.00  0.00     0.001 A 
ATOM     43  C   UNL     1       5.792  -3.681   8.219  1.00  0.00     0.000 A 
ENDBRANCH  24  38
BRANCH  25  44
ATOM     44  C   UNL     1       7.814  -2.763  -4.551  1.00  0.00    -0.014 A 
ATOM     45  C   UNL     1       8.358  -3.777  -5.351  1.00  0.00     0.009 A 
ATOM     46  C   UNL     1       7.668  -1.512  -5.169  1.00  0.00     0.009 A 
ATOM     47  C   UNL     1       8.859  -3.504  -6.638  1.00  0.00     0.001 A 
ATOM     48  C   UNL     1       8.114  -1.236  -6.466  1.00  0.00     0.001 A 
ATOM     49  C   UNL     1       8.751  -2.229  -7.189  1.00  0.00     0.000 A 
ENDBRANCH  25  44
BRANCH  37  50
ATOM     50  C   UNL     1      11.699  -5.112   0.761  1.00  0.00    -0.014 A 
ATOM     51  C   UNL     1      12.896  -4.387   0.707  1.00  0.00     0.009 A 
ATOM     52  C   UNL     1      11.739  -6.509   0.895  1.00  0.00     0.009 A 
ATOM     53  C   UNL     1      14.118  -5.059   0.774  1.00  0.00     0.001 A 
ATOM     54  C   UNL     1      12.959  -7.173   0.987  1.00  0.00     0.001 A 
ATOM     55  C   UNL     1      14.148  -6.448   0.921  1.00  0.00     0.000 A 
ENDBRANCH  37  50
ENDBRANCH  11  12
ENDBRANCH   4   6
ENDBRANCH   3   4
ENDBRANCH   2   3
ENDBRANCH   1   2
BRANCH   1  56
ATOM     56  O   UNL     1       0.283   1.445  -2.125  1.00  0.00    -0.462 OA
BRANCH  56  57
ATOM     57  C   UNL     1       0.514   2.720  -1.691  1.00  0.00     0.310 C 
ATOM     58  O   UNL     1      -0.373   3.486  -1.332  1.00  0.00    -0.252 OA
BRANCH  57  59
ATOM     59  C   UNL     1       1.976   3.109  -1.857  1.00  0.00     0.115 C 
ATOM     60  C   UNL     1       2.037   3.955  -3.175  1.00  0.00     0.004 C 
ATOM     61  C   UNL     1       2.568   4.083  -0.784  1.00  0.00     0.096 C 
ATOM     62  C   UNL     1       1.144   5.211  -3.187  1.00  0.00     0.005 C 
ATOM     63  C   UNL     1       3.365   4.636  -2.979  1.00  0.00     0.009 C 
ATOM     64  C   UNL     1       2.980   5.284  -1.645  1.00  0.00     0.003 C 
ATOM     65  C   UNL     1       1.711   6.058  -2.041  1.00  0.00     0.005 C 
BRANCH  61  66
ATOM     66  C   UNL     1       3.657   3.659   0.258  1.00  0.00     0.229 C 
ATOM     67  O   UNL     1       3.347   3.746   1.460  1.00  0.00    -0.274 OA
ATOM     68  N   UNL     1       4.903   3.152   0.031  1.00  0.00    -0.317 N 
ATOM     69  H   UNL     1       5.281   2.632   0.777  1.00  0.00     0.170 HD
BRANCH  68  70
ATOM     70  C   UNL     1       5.707   3.251  -1.067  1.00  0.00     0.108 A 
ATOM     71  S   UNL     1       6.258   4.825  -1.526  1.00  0.00    -0.122 S 
ATOM     72  C   UNL     1       6.617   2.369  -1.650  1.00  0.00     0.078 A 
ATOM     73  C   UNL     1       6.575   4.184  -3.074  1.00  0.00     0.011 A 
ATOM     74  C   UNL     1       6.581   2.797  -3.026  1.00  0.00    -0.019 A 
ATOM     75  C   UNL     1       6.642   5.022  -4.304  1.00  0.00     0.047 C 
ATOM     76  C   UNL     1       6.432   2.008  -4.281  1.00  0.00     0.037 C 
ATOM     77  C   UNL     1       6.135   4.213  -5.508  1.00  0.00     0.006 C 
ATOM     78  C   UNL     1       6.755   2.814  -5.544  1.00  0.00     0.005 C 
BRANCH  72  79
ATOM     79  C   UNL     1       7.144   1.200  -0.941  1.00  0.00     0.254 C 
ATOM     80  O   UNL     1       6.640   0.846   0.126  1.00  0.00    -0.269 OA
ATOM     81  N   UNL     1       8.312   0.570  -1.328  1.00  0.00    -0.349 N 
ATOM     82  H   UNL     1       8.618  -0.124  -0.700  1.00  0.00     0.164 HD
BRANCH  81  83
ATOM     83  C   UNL     1       9.175   0.738  -2.488  1.00  0.00     0.082 C 
ATOM     84  C   UNL     1       9.795   2.124  -2.652  1.00  0.00     0.025 C 
ATOM     85  C   UNL     1      10.329  -0.275  -2.549  1.00  0.00     0.025 C 
ATOM     86  C   UNL     1      10.369   2.228  -4.064  1.00  0.00     0.002 C 
ATOM     87  C   UNL     1      11.056  -0.209  -3.900  1.00  0.00     0.002 C 
ATOM     88  C   UNL     1      11.481   1.209  -4.282  1.00  0.00     0.000 C 
ENDBRANCH  81  83
ENDBRANCH  72  79
ENDBRANCH  68  70
ENDBRANCH  61  66
ENDBRANCH  57  59
ENDBRANCH  56  57
ENDBRANCH   1  56
TORSDOF 15
