REMARK SMILES Cc1ccc(OCC(=O)NC(=S)Nc2ccc(C(=O)OCCOC(=O)c3ccc(-c4c5nc(c(-c6ccccc6)c6ccc([nH]6)c(-c6ccccc6)c6nc(c(-c7ccccc7)c7ccc4[nH]7)C=C6)C=C5)cc3)cc2)cc1
REMARK SMILES IDX 18 1 19 2 17 3 14 4 15 5 75 6 16 7 74 8 13 9 11 11 12 12
REMARK SMILES IDX 10 13 8 14 9 15 7 17 6 18 5 19 1 20 2 21 3 22 77 23 4 24
REMARK SMILES IDX 76 25 20 26 21 27 22 28 23 29 24 30 25 31 26 32 27 33 73 34
REMARK SMILES IDX 28 35 72 36 29 37 30 38 31 39 66 40 32 41 71 42 65 43 67 44
REMARK SMILES IDX 33 45 70 46 64 47 63 48 34 50 56 51 41 52 55 53 42 54 45 55
REMARK SMILES IDX 54 56 68 57 43 58 44 59 53 61 69 62 46 63 35 64 36 65 40 66
REMARK SMILES IDX 37 67 39 68 38 69 57 70 58 71 62 72 59 73 61 74 60 75 47 76
REMARK SMILES IDX 48 77 52 78 49 79 51 80 50 81
REMARK H PARENT 13 10 10 16 67 49 45 60
REMARK Flexibility Score: inf
ROOT
ATOM      1  C   UNL     1      -2.693  -0.153  -3.980  1.00  0.00     0.338 C 
ATOM      2  O   UNL     1      -2.564  -0.995  -4.863  1.00  0.00    -0.246 OA
ENDROOT
BRANCH   1   3
ATOM      3  C   UNL     1      -3.360  -0.371  -2.686  1.00  0.00     0.060 A 
ATOM      4  C   UNL     1      -4.636  -0.569  -0.191  1.00  0.00     0.040 A 
ATOM      5  C   UNL     1      -3.265  -0.420  -0.278  1.00  0.00     0.027 A 
ATOM      6  C   UNL     1      -5.355  -0.768  -1.375  1.00  0.00     0.027 A 
ATOM      7  C   UNL     1      -2.623  -0.258  -1.509  1.00  0.00     0.018 A 
ATOM      8  C   UNL     1      -4.717  -0.692  -2.622  1.00  0.00     0.018 A 
BRANCH   4   9
ATOM      9  N   UNL     1      -5.305  -0.698   1.030  1.00  0.00    -0.332 N 
ATOM     10  H   UNL     1      -6.186  -1.125   0.922  1.00  0.00     0.169 HD
BRANCH   9  11
ATOM     11  C   UNL     1      -5.053  -0.388   2.314  1.00  0.00     0.177 C 
ATOM     12  S   UNL     1      -5.757  -1.385   3.473  1.00  0.00    -0.040 S 
BRANCH  11  13
ATOM     13  N   UNL     1      -4.513   0.781   2.794  1.00  0.00    -0.300 N 
ATOM     14  C   UNL     1      -3.919   2.005   2.477  1.00  0.00     0.264 C 
ATOM     15  O   UNL     1      -4.335   3.019   3.047  1.00  0.00    -0.271 OA
ATOM     16  H   UNL     1      -4.569   0.737   3.776  1.00  0.00     0.172 HD
BRANCH  14  17
ATOM     17  C   UNL     1      -2.709   2.068   1.577  1.00  0.00     0.329 C 
BRANCH  17  18
ATOM     18  O   UNL     1      -1.794   1.127   2.140  1.00  0.00    -0.484 OA
BRANCH  18  19
ATOM     19  C   UNL     1      -0.631   0.908   1.464  1.00  0.00     0.120 A 
ATOM     20  C   UNL     1       3.080  -0.176  -0.420  1.00  0.00     0.044 C 
ATOM     21  C   UNL     1       1.777   0.210   0.215  1.00  0.00    -0.051 A 
ATOM     22  C   UNL     1       0.984  -0.776   0.805  1.00  0.00     0.007 A 
ATOM     23  C   UNL     1       1.342   1.543   0.237  1.00  0.00     0.007 A 
ATOM     24  C   UNL     1      -0.195  -0.421   1.455  1.00  0.00     0.047 A 
ATOM     25  C   UNL     1       0.136   1.893   0.855  1.00  0.00     0.047 A 
ENDBRANCH  18  19
ENDBRANCH  17  18
ENDBRANCH  14  17
ENDBRANCH  11  13
ENDBRANCH   9  11
ENDBRANCH   4   9
ENDBRANCH   1   3
BRANCH   1  26
ATOM     26  O   UNL     1      -2.300   1.131  -4.013  1.00  0.00    -0.458 OA
BRANCH  26  27
ATOM     27  C   UNL     1      -1.557   1.626  -5.134  1.00  0.00     0.275 C 
BRANCH  27  28
ATOM     28  C   UNL     1      -1.994   1.293  -6.577  1.00  0.00     0.275 C 
BRANCH  28  29
ATOM     29  O   UNL     1      -3.359   0.955  -6.965  1.00  0.00    -0.458 OA
BRANCH  29  30
ATOM     30  C   UNL     1      -4.553   1.204  -6.392  1.00  0.00     0.338 C 
ATOM     31  O   UNL     1      -5.560   0.550  -6.627  1.00  0.00    -0.246 OA
BRANCH  30  32
ATOM     32  C   UNL     1      -4.608   2.310  -5.443  1.00  0.00     0.060 A 
ATOM     33  C   UNL     1      -5.350   2.163  -4.260  1.00  0.00     0.016 A 
ATOM     34  C   UNL     1      -3.880   3.461  -5.715  1.00  0.00     0.016 A 
ATOM     35  C   UNL     1      -5.298   3.148  -3.289  1.00  0.00     0.010 A 
ATOM     36  C   UNL     1      -3.733   4.387  -4.718  1.00  0.00     0.010 A 
ATOM     37  C   UNL     1      -4.495   4.257  -3.547  1.00  0.00    -0.014 A 
BRANCH  37  38
ATOM     38  C   UNL     1      -4.723   5.535  -2.909  1.00  0.00     0.031 A 
ATOM     39  C   UNL     1      -4.043   5.921  -1.672  1.00  0.00     0.074 A 
ATOM     40  C   UNL     1      -5.460   6.354  -3.693  1.00  0.00     0.049 A 
ATOM     41  N   UNL     1      -4.519   6.778  -0.840  1.00  0.00    -0.248 NA
ATOM     42  C   UNL     1      -2.768   5.345  -1.244  1.00  0.00     0.031 C 
ATOM     43  C   UNL     1      -5.640   7.790  -3.643  1.00  0.00     0.029 A 
ATOM     44  N   UNL     1      -6.334   5.947  -4.715  1.00  0.00    -0.354 N 
ATOM     45  C   UNL     1      -3.476   7.140  -0.016  1.00  0.00     0.074 A 
ATOM     46  C   UNL     1      -2.468   6.120  -0.192  1.00  0.00     0.031 C 
ATOM     47  C   UNL     1      -6.758   8.096  -4.334  1.00  0.00     0.029 A 
ATOM     48  C   UNL     1      -7.401   6.836  -4.698  1.00  0.00     0.049 A 
ATOM     49  H   UNL     1      -6.213   5.183  -5.324  1.00  0.00     0.167 HD
ATOM     50  C   UNL     1      -3.470   8.387   0.533  1.00  0.00     0.031 A 
ATOM     51  C   UNL     1      -8.644   6.423  -4.308  1.00  0.00     0.031 A 
ATOM     52  C   UNL     1      -4.630   9.149   0.080  1.00  0.00     0.049 A 
ATOM     53  C   UNL     1      -9.056   7.163  -3.058  1.00  0.00     0.074 A 
ATOM     54  C   UNL     1      -4.771  10.055  -0.959  1.00  0.00     0.029 A 
ATOM     55  N   UNL     1      -5.910   8.742   0.432  1.00  0.00    -0.354 N 
ATOM     56  N   UNL     1      -8.216   7.573  -2.146  1.00  0.00    -0.248 NA
ATOM     57  C   UNL     1     -10.437   7.525  -2.765  1.00  0.00     0.031 C 
ATOM     58  C   UNL     1      -6.148  10.134  -1.283  1.00  0.00     0.029 A 
ATOM     59  C   UNL     1      -6.839   9.291  -0.430  1.00  0.00     0.049 A 
ATOM     60  H   UNL     1      -6.124   8.148   1.188  1.00  0.00     0.167 HD
ATOM     61  C   UNL     1      -8.891   8.341  -1.234  1.00  0.00     0.074 A 
ATOM     62  C   UNL     1     -10.283   8.243  -1.639  1.00  0.00     0.031 C 
ATOM     63  C   UNL     1      -8.260   9.040  -0.246  1.00  0.00     0.031 A 
BRANCH  50  64
ATOM     64  C   UNL     1      -2.253   9.035   1.147  1.00  0.00    -0.014 A 
ATOM     65  C   UNL     1      -2.082  10.429   1.029  1.00  0.00     0.009 A 
ATOM     66  C   UNL     1      -1.245   8.343   1.837  1.00  0.00     0.009 A 
ATOM     67  C   UNL     1      -0.940  11.087   1.498  1.00  0.00     0.001 A 
ATOM     68  C   UNL     1      -0.085   8.994   2.292  1.00  0.00     0.001 A 
ATOM     69  C   UNL     1       0.071  10.365   2.115  1.00  0.00     0.000 A 
ENDBRANCH  50  64
BRANCH  51  70
ATOM     70  C   UNL     1      -8.967   4.983  -4.576  1.00  0.00    -0.014 A 
ATOM     71  C   UNL     1      -8.951   4.521  -5.911  1.00  0.00     0.009 A 
ATOM     72  C   UNL     1      -8.992   4.023  -3.553  1.00  0.00     0.009 A 
ATOM     73  C   UNL     1      -8.866   3.155  -6.209  1.00  0.00     0.001 A 
ATOM     74  C   UNL     1      -8.929   2.652  -3.856  1.00  0.00     0.001 A 
ATOM     75  C   UNL     1      -8.836   2.221  -5.179  1.00  0.00     0.000 A 
ENDBRANCH  51  70
BRANCH  63  76
ATOM     76  C   UNL     1      -8.922   9.666   0.952  1.00  0.00    -0.014 A 
ATOM     77  C   UNL     1     -10.181   9.294   1.432  1.00  0.00     0.009 A 
ATOM     78  C   UNL     1      -8.180  10.572   1.747  1.00  0.00     0.009 A 
ATOM     79  C   UNL     1     -10.693   9.833   2.618  1.00  0.00     0.001 A 
ATOM     80  C   UNL     1      -8.660  11.065   2.959  1.00  0.00     0.001 A 
ATOM     81  C   UNL     1      -9.928  10.705   3.388  1.00  0.00     0.000 A 
ENDBRANCH  63  76
ENDBRANCH  37  38
ENDBRANCH  30  32
ENDBRANCH  29  30
ENDBRANCH  28  29
ENDBRANCH  27  28
ENDBRANCH  26  27
ENDBRANCH   1  26
TORSDOF 17
