REMARK SMILES CC(=O)Nc1ccc(/N=C2\C(=O)N(c3ccc(NC(C)=O)cc3)[C@H](c3ccccc3)[C@H]2CC(=O)OCCOC(=O)c2ccc(-c3c4nc(c(-c5ccccc5)c5ccc([nH]5)c(-c5ccccc5)c5nc(c(-c6ccccc6)c6ccc3[nH]6)C=C5)C=C4)cc2)cc1
REMARK SMILES IDX 36 1 35 2 33 3 34 4 32 5 31 6 9 7 10 8 11 9 12 10 13 11
REMARK SMILES IDX 24 12 8 13 5 14 6 15 90 16 7 17 89 18 4 19 1 20 2 21 3 22
REMARK SMILES IDX 14 24 15 25 23 26 16 27 22 28 17 29 18 30 19 31 20 33 21 34
REMARK SMILES IDX 25 35 26 36 30 37 27 38 29 39 28 40 37 41 38 42 39 43 40 44
REMARK SMILES IDX 41 45 42 46 88 47 43 48 87 49 44 50 45 51 46 52 81 53 47 54
REMARK SMILES IDX 86 55 80 56 82 57 48 58 85 59 79 60 78 61 49 63 71 64 56 65
REMARK SMILES IDX 70 66 57 67 60 68 69 69 83 70 58 71 59 72 68 74 84 75 61 76
REMARK SMILES IDX 50 77 51 78 55 79 52 80 54 81 53 82 72 83 73 84 77 85 74 86
REMARK SMILES IDX 76 87 75 88 62 89 63 90 67 91 64 92 66 93 65 94
REMARK H PARENT 4 23 18 32 82 62 60 73
REMARK Flexibility Score: inf
ROOT
ATOM      1  C   UNL     1       5.893   0.012  -7.796  1.00  0.00     0.274 C 
ENDROOT
BRANCH   1   2
ATOM      2  O   UNL     1       6.208   0.589  -6.515  1.00  0.00    -0.462 OA
BRANCH   2   3
ATOM      3  C   UNL     1       7.330   1.341  -6.425  1.00  0.00     0.306 C 
ATOM      4  O   UNL     1       8.114   1.559  -7.339  1.00  0.00    -0.252 OA
BRANCH   3   5
ATOM      5  C   UNL     1       7.545   1.847  -5.015  1.00  0.00     0.135 C 
BRANCH   5   6
ATOM      6  C   UNL     1       6.335   2.616  -4.484  1.00  0.00     0.083 C 
ATOM      7  N   UNL     1       4.450   1.115  -4.133  1.00  0.00    -0.247 NA
ATOM      8  C   UNL     1       5.475   1.727  -3.633  1.00  0.00     0.112 C 
ATOM      9  C   UNL     1       5.892   1.906  -2.206  1.00  0.00     0.273 C 
ATOM     10  O   UNL     1       5.900   1.015  -1.385  1.00  0.00    -0.267 OA
ATOM     11  N   UNL     1       6.216   3.248  -2.127  1.00  0.00    -0.299 N 
ATOM     12  C   UNL     1       6.700   3.716  -3.431  1.00  0.00     0.131 C 
BRANCH   7  13
ATOM     13  C   UNL     1       3.433   0.431  -3.451  1.00  0.00     0.064 A 
ATOM     14  C   UNL     1       1.177  -0.934  -2.353  1.00  0.00     0.041 A 
ATOM     15  C   UNL     1       1.490  -1.033  -3.714  1.00  0.00     0.028 A 
ATOM     16  C   UNL     1       2.006  -0.158  -1.551  1.00  0.00     0.028 A 
ATOM     17  C   UNL     1       2.601  -0.365  -4.247  1.00  0.00     0.030 A 
ATOM     18  C   UNL     1       3.091   0.546  -2.103  1.00  0.00     0.030 A 
BRANCH  14  19
ATOM     19  N   UNL     1       0.035  -1.632  -1.921  1.00  0.00    -0.326 N 
ATOM     20  C   UNL     1      -0.277  -0.876   0.449  1.00  0.00     0.114 C 
ATOM     21  C   UNL     1      -0.652  -1.701  -0.747  1.00  0.00     0.221 C 
ATOM     22  O   UNL     1      -1.621  -2.465  -0.690  1.00  0.00    -0.275 OA
ATOM     23  H   UNL     1      -0.356  -2.198  -2.626  1.00  0.00     0.169 HD
ENDBRANCH  14  19
ENDBRANCH   7  13
BRANCH  11  24
ATOM     24  C   UNL     1       6.208   3.965  -0.904  1.00  0.00     0.045 A 
ATOM     25  C   UNL     1       6.550   3.337   0.298  1.00  0.00     0.028 A 
ATOM     26  C   UNL     1       5.674   5.255  -0.826  1.00  0.00     0.028 A 
ATOM     27  C   UNL     1       6.348   3.964   1.538  1.00  0.00     0.028 A 
ATOM     28  C   UNL     1       5.456   5.879   0.411  1.00  0.00     0.028 A 
ATOM     29  C   UNL     1       5.772   5.229   1.605  1.00  0.00     0.041 A 
BRANCH  29  30
ATOM     30  N   UNL     1       5.428   5.884   2.806  1.00  0.00    -0.326 N 
ATOM     31  C   UNL     1       5.607   5.421   4.096  1.00  0.00     0.221 C 
ATOM     32  H   UNL     1       5.013   6.772   2.714  1.00  0.00     0.169 HD
ATOM     33  C   UNL     1       4.997   6.328   5.138  1.00  0.00     0.114 C 
ATOM     34  O   UNL     1       6.181   4.392   4.433  1.00  0.00    -0.275 OA
ENDBRANCH  29  30
ENDBRANCH  11  24
BRANCH  12  35
ATOM     35  C   UNL     1       6.361   5.125  -3.879  1.00  0.00    -0.024 A 
ATOM     36  C   UNL     1       7.296   6.158  -3.664  1.00  0.00     0.006 A 
ATOM     37  C   UNL     1       5.144   5.450  -4.500  1.00  0.00     0.006 A 
ATOM     38  C   UNL     1       7.023   7.470  -4.056  1.00  0.00     0.000 A 
ATOM     39  C   UNL     1       4.881   6.762  -4.906  1.00  0.00     0.000 A 
ATOM     40  C   UNL     1       5.817   7.769  -4.683  1.00  0.00     0.000 A 
ENDBRANCH  12  35
ENDBRANCH   5   6
ENDBRANCH   3   5
ENDBRANCH   2   3
ENDBRANCH   1   2
BRANCH   1  41
ATOM     41  C   UNL     1       4.913   0.887  -8.581  1.00  0.00     0.275 C 
BRANCH  41  42
ATOM     42  O   UNL     1       5.610   1.973  -9.217  1.00  0.00    -0.458 OA
BRANCH  42  43
ATOM     43  C   UNL     1       5.608   3.149  -8.547  1.00  0.00     0.338 C 
ATOM     44  O   UNL     1       4.986   3.417  -7.533  1.00  0.00    -0.246 OA
BRANCH  43  45
ATOM     45  C   UNL     1       6.601   4.059  -9.149  1.00  0.00     0.060 A 
ATOM     46  C   UNL     1       7.399   4.823  -8.288  1.00  0.00     0.016 A 
ATOM     47  C   UNL     1       6.745   4.170 -10.536  1.00  0.00     0.016 A 
ATOM     48  C   UNL     1       8.355   5.690  -8.813  1.00  0.00     0.010 A 
ATOM     49  C   UNL     1       7.684   5.059 -11.061  1.00  0.00     0.010 A 
ATOM     50  C   UNL     1       8.490   5.824 -10.202  1.00  0.00    -0.014 A 
BRANCH  50  51
ATOM     51  C   UNL     1       9.440   6.812 -10.758  1.00  0.00     0.031 A 
ATOM     52  C   UNL     1       9.048   8.257 -10.834  1.00  0.00     0.074 A 
ATOM     53  C   UNL     1      10.653   6.416 -11.181  1.00  0.00     0.049 A 
ATOM     54  N   UNL     1       9.737   9.275 -11.284  1.00  0.00    -0.248 NA
ATOM     55  C   UNL     1       7.710   8.605 -10.330  1.00  0.00     0.031 C 
ATOM     56  C   UNL     1      11.167   5.048 -11.125  1.00  0.00     0.029 A 
ATOM     57  N   UNL     1      11.673   7.139 -11.742  1.00  0.00    -0.354 N 
ATOM     58  C   UNL     1       8.927  10.385 -11.100  1.00  0.00     0.074 A 
ATOM     59  C   UNL     1       7.691   9.919 -10.506  1.00  0.00     0.031 C 
ATOM     60  C   UNL     1      12.408   5.029 -11.643  1.00  0.00     0.029 A 
ATOM     61  C   UNL     1      12.766   6.378 -12.071  1.00  0.00     0.049 A 
ATOM     62  H   UNL     1      11.626   8.111 -11.895  1.00  0.00     0.167 HD
ATOM     63  C   UNL     1       9.185  11.680 -11.398  1.00  0.00     0.031 A 
ATOM     64  C   UNL     1      13.922   6.731 -12.661  1.00  0.00     0.031 A 
ATOM     65  C   UNL     1      10.389  12.152 -12.022  1.00  0.00     0.049 A 
ATOM     66  C   UNL     1      14.151   8.159 -13.059  1.00  0.00     0.074 A 
ATOM     67  C   UNL     1      10.727  13.445 -12.383  1.00  0.00     0.029 A 
ATOM     68  N   UNL     1      11.449  11.341 -12.390  1.00  0.00    -0.354 N 
ATOM     69  N   UNL     1      13.374   9.199 -12.880  1.00  0.00    -0.248 NA
ATOM     70  C   UNL     1      15.415   8.458 -13.749  1.00  0.00     0.031 C 
ATOM     71  C   UNL     1      11.991  13.412 -12.987  1.00  0.00     0.029 A 
ATOM     72  C   UNL     1      12.438  12.101 -12.988  1.00  0.00     0.049 A 
ATOM     73  H   UNL     1      11.493  10.368 -12.246  1.00  0.00     0.167 HD
ATOM     74  C   UNL     1      14.053  10.275 -13.432  1.00  0.00     0.074 A 
ATOM     75  C   UNL     1      15.307   9.765 -13.949  1.00  0.00     0.031 C 
ATOM     76  C   UNL     1      13.671  11.573 -13.504  1.00  0.00     0.031 A 
BRANCH  63  77
ATOM     77  C   UNL     1       8.119  12.671 -11.054  1.00  0.00    -0.014 A 
ATOM     78  C   UNL     1       8.073  13.244  -9.775  1.00  0.00     0.009 A 
ATOM     79  C   UNL     1       7.154  13.030 -12.006  1.00  0.00     0.009 A 
ATOM     80  C   UNL     1       7.063  14.150  -9.447  1.00  0.00     0.001 A 
ATOM     81  C   UNL     1       6.147  13.938 -11.675  1.00  0.00     0.001 A 
ATOM     82  C   UNL     1       6.100  14.493 -10.397  1.00  0.00     0.000 A 
ENDBRANCH  63  77
BRANCH  64  83
ATOM     83  C   UNL     1      14.953   5.704 -12.932  1.00  0.00    -0.014 A 
ATOM     84  C   UNL     1      16.026   5.526 -12.048  1.00  0.00     0.009 A 
ATOM     85  C   UNL     1      14.864   4.900 -14.078  1.00  0.00     0.009 A 
ATOM     86  C   UNL     1      17.003   4.564 -12.315  1.00  0.00     0.001 A 
ATOM     87  C   UNL     1      15.839   3.936 -14.338  1.00  0.00     0.001 A 
ATOM     88  C   UNL     1      16.908   3.770 -13.458  1.00  0.00     0.000 A 
ENDBRANCH  64  83
BRANCH  76  89
ATOM     89  C   UNL     1      14.620  12.521 -14.167  1.00  0.00    -0.014 A 
ATOM     90  C   UNL     1      14.589  12.698 -15.558  1.00  0.00     0.009 A 
ATOM     91  C   UNL     1      15.531  13.260 -13.398  1.00  0.00     0.009 A 
ATOM     92  C   UNL     1      15.468  13.592 -16.171  1.00  0.00     0.001 A 
ATOM     93  C   UNL     1      16.404  14.158 -14.014  1.00  0.00     0.001 A 
ATOM     94  C   UNL     1      16.373  14.320 -15.399  1.00  0.00     0.000 A 
ENDBRANCH  76  89
ENDBRANCH  50  51
ENDBRANCH  43  45
ENDBRANCH  42  43
ENDBRANCH  41  42
ENDBRANCH   1  41
TORSDOF 17
