REMARK SMILES O=C(CCCCCn1cc(Cl)c(I)n1)OCCOC(=O)c1ccc(-c2c3nc(c(-c4ccccc4)c4ccc([nH]4)c(-c4ccccc4)c4nc(c(-c5ccccc5)c5ccc2[nH]5)C=C4)C=C3)cc1
REMARK SMILES IDX 15 1 2 2 1 3 3 4 4 5 5 6 6 7 7 8 8 9 9 10 14 11 10 12 12 13
REMARK SMILES IDX 11 14 13 15 16 16 17 17 18 18 19 19 20 20 21 21 22 22 68 23
REMARK SMILES IDX 23 24 67 25 24 26 25 27 26 28 61 29 27 30 66 31 60 32 62 33
REMARK SMILES IDX 28 34 65 35 59 36 58 37 29 39 51 40 36 41 50 42 37 43 40 44
REMARK SMILES IDX 49 45 63 46 38 47 39 48 48 50 64 51 41 52 30 53 31 54 35 55
REMARK SMILES IDX 32 56 34 57 33 58 52 59 53 60 57 61 54 62 56 63 55 64 42 65
REMARK SMILES IDX 43 66 47 67 44 68 46 69 45 70
REMARK H PARENT 62 38 40 49
REMARK Flexibility Score: inf
ROOT
ATOM      1  O   UNL     1       2.336   1.248  -0.165  1.00  0.00    -0.462 OA
ENDROOT
BRANCH   1   2
ATOM      2  C   UNL     1       2.059   0.086  -0.800  1.00  0.00     0.305 C 
ATOM      3  O   UNL     1       1.072   0.016  -1.531  1.00  0.00    -0.252 OA
BRANCH   2   4
ATOM      4  C   UNL     1       2.889  -1.156  -0.547  1.00  0.00     0.123 C 
BRANCH   4   5
ATOM      5  C   UNL     1       3.833  -1.579  -1.666  1.00  0.00     0.012 C 
BRANCH   5   6
ATOM      6  C   UNL     1       5.124  -0.767  -1.764  1.00  0.00     0.002 C 
BRANCH   6   7
ATOM      7  C   UNL     1       5.983  -0.724  -0.484  1.00  0.00     0.024 C 
BRANCH   7   8
ATOM      8  C   UNL     1       6.868  -1.943  -0.245  1.00  0.00     0.144 C 
BRANCH   8   9
ATOM      9  N   UNL     1       7.835  -2.155  -1.302  1.00  0.00    -0.270 N 
ATOM     10  C   UNL     1       8.588  -1.202  -1.926  1.00  0.00     0.130 A 
ATOM     11  N   UNL     1       7.965  -3.380  -1.838  1.00  0.00    -0.165 NA
ATOM     12  C   UNL     1       9.151  -1.823  -3.015  1.00  0.00     0.092 A 
ATOM     13  C   UNL     1       8.752  -3.170  -2.898  1.00  0.00     0.141 A 
ATOM     14  Cl  UNL     1      10.085  -1.081  -4.217  1.00  0.00    -0.080 Cl
ATOM     15  I   UNL     1       9.246  -4.683  -4.173  1.00  0.00    -0.018 I 
ENDBRANCH   8   9
ENDBRANCH   7   8
ENDBRANCH   6   7
ENDBRANCH   5   6
ENDBRANCH   4   5
ENDBRANCH   2   4
ENDBRANCH   1   2
BRANCH   1  16
ATOM     16  C   UNL     1       3.622   1.742   0.257  1.00  0.00     0.274 C 
BRANCH  16  17
ATOM     17  C   UNL     1       3.863   1.660   1.755  1.00  0.00     0.275 C 
BRANCH  17  18
ATOM     18  O   UNL     1       3.846   0.314   2.204  1.00  0.00    -0.458 OA
BRANCH  18  19
ATOM     19  C   UNL     1       2.628  -0.182   2.542  1.00  0.00     0.338 C 
ATOM     20  O   UNL     1       1.553   0.349   2.421  1.00  0.00    -0.246 OA
BRANCH  19  21
ATOM     21  C   UNL     1       2.877  -1.458   3.234  1.00  0.00     0.060 A 
ATOM     22  C   UNL     1       1.827  -1.972   3.992  1.00  0.00     0.016 A 
ATOM     23  C   UNL     1       4.187  -1.952   3.341  1.00  0.00     0.016 A 
ATOM     24  C   UNL     1       2.142  -2.800   5.045  1.00  0.00     0.010 A 
ATOM     25  C   UNL     1       4.505  -2.748   4.408  1.00  0.00     0.010 A 
ATOM     26  C   UNL     1       3.490  -3.082   5.297  1.00  0.00    -0.014 A 
BRANCH  26  27
ATOM     27  C   UNL     1       3.825  -3.865   6.462  1.00  0.00     0.031 A 
ATOM     28  C   UNL     1       3.547  -5.296   6.241  1.00  0.00     0.074 A 
ATOM     29  C   UNL     1       4.412  -3.335   7.551  1.00  0.00     0.049 A 
ATOM     30  N   UNL     1       2.543  -5.964   6.700  1.00  0.00    -0.248 NA
ATOM     31  C   UNL     1       4.323  -6.003   5.207  1.00  0.00     0.031 C 
ATOM     32  C   UNL     1       4.954  -1.984   7.722  1.00  0.00     0.029 A 
ATOM     33  N   UNL     1       4.744  -3.941   8.721  1.00  0.00    -0.354 N 
ATOM     34  C   UNL     1       2.728  -7.255   6.227  1.00  0.00     0.074 A 
ATOM     35  C   UNL     1       3.648  -7.150   5.124  1.00  0.00     0.031 C 
ATOM     36  C   UNL     1       5.752  -1.959   8.816  1.00  0.00     0.029 A 
ATOM     37  C   UNL     1       5.674  -3.246   9.487  1.00  0.00     0.049 A 
ATOM     38  H   UNL     1       4.358  -4.801   9.004  1.00  0.00     0.167 HD
ATOM     39  C   UNL     1       2.445  -8.315   7.032  1.00  0.00     0.031 A 
ATOM     40  C   UNL     1       6.370  -3.731  10.549  1.00  0.00     0.031 A 
ATOM     41  C   UNL     1       1.573  -7.925   8.119  1.00  0.00     0.049 A 
ATOM     42  C   UNL     1       5.660  -4.939  11.032  1.00  0.00     0.074 A 
ATOM     43  C   UNL     1       0.338  -7.312   8.216  1.00  0.00     0.029 A 
ATOM     44  N   UNL     1       2.155  -7.797   9.357  1.00  0.00    -0.354 N 
ATOM     45  N   UNL     1       4.498  -4.898  11.615  1.00  0.00    -0.248 NA
ATOM     46  C   UNL     1       6.020  -6.220  10.444  1.00  0.00     0.031 C 
ATOM     47  C   UNL     1       0.430  -6.466   9.363  1.00  0.00     0.029 A 
ATOM     48  C   UNL     1       1.678  -6.664   9.953  1.00  0.00     0.049 A 
ATOM     49  H   UNL     1       2.809  -8.419   9.750  1.00  0.00     0.167 HD
ATOM     50  C   UNL     1       3.795  -5.958  11.060  1.00  0.00     0.074 A 
ATOM     51  C   UNL     1       4.815  -6.797  10.428  1.00  0.00     0.031 C 
ATOM     52  C   UNL     1       2.439  -5.889  10.907  1.00  0.00     0.031 A 
BRANCH  39  53
ATOM     53  C   UNL     1       3.393  -9.493   7.161  1.00  0.00    -0.014 A 
ATOM     54  C   UNL     1       3.073 -10.492   8.097  1.00  0.00     0.009 A 
ATOM     55  C   UNL     1       4.714  -9.498   6.668  1.00  0.00     0.009 A 
ATOM     56  C   UNL     1       4.053 -11.350   8.608  1.00  0.00     0.001 A 
ATOM     57  C   UNL     1       5.684 -10.382   7.143  1.00  0.00     0.001 A 
ATOM     58  C   UNL     1       5.362 -11.283   8.143  1.00  0.00     0.000 A 
ENDBRANCH  39  53
BRANCH  40  59
ATOM     59  C   UNL     1       7.749  -3.417  10.994  1.00  0.00    -0.014 A 
ATOM     60  C   UNL     1       8.215  -3.853  12.248  1.00  0.00     0.009 A 
ATOM     61  C   UNL     1       8.704  -2.945  10.077  1.00  0.00     0.009 A 
ATOM     62  C   UNL     1       9.585  -3.858  12.551  1.00  0.00     0.001 A 
ATOM     63  C   UNL     1      10.070  -2.945  10.380  1.00  0.00     0.001 A 
ATOM     64  C   UNL     1      10.513  -3.418  11.611  1.00  0.00     0.000 A 
ENDBRANCH  40  59
BRANCH  52  65
ATOM     65  C   UNL     1       1.702  -4.786  11.623  1.00  0.00    -0.014 A 
ATOM     66  C   UNL     1       1.935  -3.416  11.404  1.00  0.00     0.009 A 
ATOM     67  C   UNL     1       0.644  -5.154  12.467  1.00  0.00     0.009 A 
ATOM     68  C   UNL     1       1.154  -2.448  12.045  1.00  0.00     0.001 A 
ATOM     69  C   UNL     1      -0.148  -4.189  13.088  1.00  0.00     0.001 A 
ATOM     70  C   UNL     1       0.112  -2.836  12.885  1.00  0.00     0.000 A 
ENDBRANCH  52  65
ENDBRANCH  26  27
ENDBRANCH  19  21
ENDBRANCH  18  19
ENDBRANCH  17  18
ENDBRANCH  16  17
ENDBRANCH   1  16
TORSDOF 16
