REMARK SMILES C[C@@H]1[NH2+]CC[C@@H]1C(=O)N1CCC[N@H+](CC(=O)OCCOC(=O)c2ccc(-c3c4nc(c(-c5ccccc5)c5ccc([nH]5)c(-c5ccccc5)c5nc(c(-c6ccccc6)c6ccc3[nH]6)C=C5)C=C4)cc2)CC1
REMARK SMILES IDX 15 1 16 2 14 3 13 4 12 6 11 7 10 8 9 9 7 10 8 11 6 12 1 13
REMARK SMILES IDX 2 14 3 15 4 16 5 19 72 20 71 22 17 24 18 25 19 26 20 27
REMARK SMILES IDX 21 28 22 29 23 30 24 31 70 32 25 33 69 34 26 35 27 36 28 37
REMARK SMILES IDX 63 38 29 39 68 40 62 41 64 42 30 43 67 44 61 45 60 46 31 48
REMARK SMILES IDX 53 49 38 50 52 51 39 52 42 53 51 54 65 55 40 56 41 57 50 59
REMARK SMILES IDX 66 60 43 61 32 62 33 63 37 64 34 65 36 66 35 67 54 68 55 69
REMARK SMILES IDX 59 70 56 71 58 72 57 73 44 74 45 75 49 76 46 77 48 78 47 79
REMARK H PARENT 13 5 3 17 3 18 64 47 42 58
REMARK Flexibility Score: 80.00
ROOT
ATOM      1  C   UNL     1       4.848   1.831  -1.859  1.00  0.00     0.361 C 
ATOM      2  O   UNL     1       5.866   1.193  -1.609  1.00  0.00    -0.245 OA
ENDROOT
BRANCH   1   3
ATOM      3  C   UNL     1       4.716   2.714  -3.092  1.00  0.00     0.386 C 
BRANCH   3   4
ATOM      4  N   UNL     1       3.364   2.900  -3.609  1.00  0.00    -0.324 N 
ATOM      5  H   UNL     1       3.813   3.438  -4.351  1.00  0.00     0.348 HD
BRANCH   4   6
ATOM      6  C   UNL     1       2.736   1.846  -4.365  1.00  0.00     0.264 C 
BRANCH   6   7
ATOM      7  C   UNL     1       1.241   1.681  -4.062  1.00  0.00     0.083 C 
BRANCH   7   8
ATOM      8  C   UNL     1       0.946   1.457  -2.577  1.00  0.00     0.125 C 
BRANCH   8   9
ATOM      9  N   UNL     1       0.841   2.588  -1.658  1.00  0.00    -0.336 N 
BRANCH   9  10
ATOM     10  C   UNL     1       0.470   2.405  -0.302  1.00  0.00     0.232 C 
ATOM     11  O   UNL     1       0.989   3.119   0.573  1.00  0.00    -0.274 OA
BRANCH  10  12
ATOM     12  C   UNL     1      -0.686   1.493   0.194  1.00  0.00     0.142 C 
ATOM     13  C   UNL     1       0.780  -0.041   1.900  1.00  0.00     0.076 C 
ATOM     14  C   UNL     1      -0.534   0.578   1.451  1.00  0.00     0.192 C 
ATOM     15  N   UNL     1      -1.497  -0.526   1.233  1.00  0.00    -0.343 N 
ATOM     16  C   UNL     1      -1.666  -0.654  -0.212  1.00  0.00     0.261 C 
ATOM     17  H   UNL     1      -2.390  -0.307   1.674  1.00  0.00     0.346 HD
ATOM     18  H   UNL     1      -1.156  -1.397   1.642  1.00  0.00     0.346 HD
ATOM     19  C   UNL     1      -1.711   0.785  -0.678  1.00  0.00     0.081 C 
ENDBRANCH  10  12
ENDBRANCH   9  10
BRANCH   9  20
ATOM     20  C   UNL     1       1.645   3.813  -1.915  1.00  0.00     0.180 CG0
ATOM     21  G   UNL     1       2.536   4.001  -3.168  1.00  0.00     0.000 G0
ENDBRANCH   9  20
ENDBRANCH   8   9
ENDBRANCH   7   8
ENDBRANCH   6   7
ENDBRANCH   4   6
BRANCH   4  22
ATOM     22  C   UNL     1       2.536   4.001  -3.168  1.00  0.00     0.284 CG0
ATOM     23  G   UNL     1       1.645   3.813  -1.915  1.00  0.00     0.000 G0
ENDBRANCH   4  22
ENDBRANCH   3   4
ENDBRANCH   1   3
BRANCH   1  24
ATOM     24  O   UNL     1       3.762   1.886  -1.054  1.00  0.00    -0.458 OA
BRANCH  24  25
ATOM     25  C   UNL     1       3.812   1.136   0.167  1.00  0.00     0.274 C 
BRANCH  25  26
ATOM     26  C   UNL     1       3.272  -0.273  -0.026  1.00  0.00     0.275 C 
BRANCH  26  27
ATOM     27  O   UNL     1       4.098  -1.028  -0.907  1.00  0.00    -0.458 OA
BRANCH  27  28
ATOM     28  C   UNL     1       3.541  -1.325  -2.084  1.00  0.00     0.338 C 
ATOM     29  O   UNL     1       2.422  -1.076  -2.528  1.00  0.00    -0.246 OA
BRANCH  28  30
ATOM     30  C   UNL     1       4.408  -2.205  -2.807  1.00  0.00     0.060 A 
ATOM     31  C   UNL     1       5.411  -1.684  -3.620  1.00  0.00     0.016 A 
ATOM     32  C   UNL     1       4.049  -3.554  -2.774  1.00  0.00     0.016 A 
ATOM     33  C   UNL     1       6.055  -2.557  -4.467  1.00  0.00     0.010 A 
ATOM     34  C   UNL     1       4.722  -4.429  -3.587  1.00  0.00     0.010 A 
ATOM     35  C   UNL     1       5.711  -3.921  -4.434  1.00  0.00    -0.014 A 
BRANCH  35  36
ATOM     36  C   UNL     1       6.504  -4.855  -5.223  1.00  0.00     0.031 A 
ATOM     37  C   UNL     1       5.948  -5.416  -6.481  1.00  0.00     0.074 A 
ATOM     38  C   UNL     1       7.727  -5.114  -4.739  1.00  0.00     0.049 A 
ATOM     39  N   UNL     1       6.532  -6.192  -7.347  1.00  0.00    -0.248 NA
ATOM     40  C   UNL     1       4.552  -5.075  -6.809  1.00  0.00     0.031 C 
ATOM     41  C   UNL     1       8.263  -4.566  -3.483  1.00  0.00     0.029 A 
ATOM     42  N   UNL     1       8.751  -5.847  -5.249  1.00  0.00    -0.354 N 
ATOM     43  C   UNL     1       5.576  -6.449  -8.318  1.00  0.00     0.074 A 
ATOM     44  C   UNL     1       4.366  -5.759  -7.929  1.00  0.00     0.031 C 
ATOM     45  C   UNL     1       9.550  -4.915  -3.369  1.00  0.00     0.029 A 
ATOM     46  C   UNL     1       9.899  -5.755  -4.503  1.00  0.00     0.049 A 
ATOM     47  H   UNL     1       8.678  -6.387  -6.069  1.00  0.00     0.167 HD
ATOM     48  C   UNL     1       5.724  -7.209  -9.425  1.00  0.00     0.031 A 
ATOM     49  C   UNL     1      11.103  -6.296  -4.735  1.00  0.00     0.031 A 
ATOM     50  C   UNL     1       6.955  -7.891  -9.730  1.00  0.00     0.049 A 
ATOM     51  C   UNL     1      11.238  -7.109  -5.984  1.00  0.00     0.074 A 
ATOM     52  C   UNL     1       7.254  -8.717 -10.794  1.00  0.00     0.029 A 
ATOM     53  N   UNL     1       8.101  -7.815  -8.942  1.00  0.00    -0.354 N 
ATOM     54  N   UNL     1      10.334  -7.350  -6.907  1.00  0.00    -0.248 NA
ATOM     55  C   UNL     1      12.542  -7.723  -6.227  1.00  0.00     0.031 C 
ATOM     56  C   UNL     1       8.569  -9.173 -10.627  1.00  0.00     0.029 A 
ATOM     57  C   UNL     1       9.108  -8.589  -9.488  1.00  0.00     0.049 A 
ATOM     58  H   UNL     1       8.183  -7.286  -8.116  1.00  0.00     0.167 HD
ATOM     59  C   UNL     1      10.954  -8.156  -7.843  1.00  0.00     0.074 A 
ATOM     60  C   UNL     1      12.327  -8.321  -7.391  1.00  0.00     0.031 C 
ATOM     61  C   UNL     1      10.445  -8.728  -8.964  1.00  0.00     0.031 A 
BRANCH  48  62
ATOM     62  C   UNL     1       4.524  -7.374 -10.315  1.00  0.00    -0.014 A 
ATOM     63  C   UNL     1       4.029  -6.311 -11.088  1.00  0.00     0.009 A 
ATOM     64  C   UNL     1       3.859  -8.609 -10.364  1.00  0.00     0.009 A 
ATOM     65  C   UNL     1       2.877  -6.472 -11.865  1.00  0.00     0.001 A 
ATOM     66  C   UNL     1       2.722  -8.775 -11.159  1.00  0.00     0.001 A 
ATOM     67  C   UNL     1       2.227  -7.705 -11.902  1.00  0.00     0.000 A 
ENDBRANCH  48  62
BRANCH  49  68
ATOM     68  C   UNL     1      12.212  -6.064  -3.778  1.00  0.00    -0.014 A 
ATOM     69  C   UNL     1      13.316  -5.276  -4.133  1.00  0.00     0.009 A 
ATOM     70  C   UNL     1      12.132  -6.565  -2.467  1.00  0.00     0.009 A 
ATOM     71  C   UNL     1      14.321  -5.007  -3.200  1.00  0.00     0.001 A 
ATOM     72  C   UNL     1      13.121  -6.268  -1.528  1.00  0.00     0.001 A 
ATOM     73  C   UNL     1      14.219  -5.496  -1.897  1.00  0.00     0.000 A 
ENDBRANCH  49  68
BRANCH  61  74
ATOM     74  C   UNL     1      11.405  -9.574  -9.741  1.00  0.00    -0.014 A 
ATOM     75  C   UNL     1      11.802 -10.833  -9.264  1.00  0.00     0.009 A 
ATOM     76  C   UNL     1      11.920  -9.099 -10.955  1.00  0.00     0.009 A 
ATOM     77  C   UNL     1      12.742 -11.582  -9.969  1.00  0.00     0.001 A 
ATOM     78  C   UNL     1      12.836  -9.865 -11.672  1.00  0.00     0.001 A 
ATOM     79  C   UNL     1      13.256 -11.098 -11.172  1.00  0.00     0.000 A 
ENDBRANCH  61  74
ENDBRANCH  35  36
ENDBRANCH  28  30
ENDBRANCH  27  28
ENDBRANCH  26  27
ENDBRANCH  25  26
ENDBRANCH  24  25
ENDBRANCH   1  24
TORSDOF 14
