REMARK SMILES Cn1cc([C@@H]2CC(OCCOC(=O)c3ccc(-c4c5nc(c(-c6ccccc6)c6ccc([nH]6)c(-c6ccccc6)c6nc(c(-c7ccccc7)c7ccc4[nH]7)C=C6)C=C5)cc3)=Nc3c2sc(C(=O)[O-])c3-c2ccc(Cl)cc2)cn1
REMARK SMILES IDX 10 1 9 2 8 3 7 4 5 5 6 6 64 7 63 8 65 9 62 10 70 11 66 12
REMARK SMILES IDX 4 13 1 14 2 15 3 16 79 17 78 18 71 19 72 20 77 21 73 22
REMARK SMILES IDX 76 23 74 24 75 25 67 26 68 27 69 28 11 29 12 30 13 31 14 32
REMARK SMILES IDX 15 33 61 34 16 35 60 36 17 37 18 38 19 39 54 40 20 41 59 42
REMARK SMILES IDX 53 43 55 44 21 45 58 46 52 47 51 48 22 50 44 51 29 52 43 53
REMARK SMILES IDX 30 54 33 55 42 56 56 57 31 58 32 59 41 61 57 62 34 63 23 64
REMARK SMILES IDX 24 65 28 66 25 67 27 68 26 69 45 70 46 71 50 72 47 73 49 74
REMARK SMILES IDX 48 75 35 76 36 77 40 78 37 79 39 80 38 81
REMARK H PARENT 55 49 33 60
REMARK Flexibility Score: inf
ROOT
ATOM      1  C   UNL     1       2.201  -4.362  -3.418  1.00  0.00     0.274 C 
ENDROOT
BRANCH   1   2
ATOM      2  C   UNL     1       3.607  -3.888  -3.013  1.00  0.00     0.272 C 
BRANCH   2   3
ATOM      3  O   UNL     1       3.920  -4.025  -1.604  1.00  0.00    -0.477 OA
BRANCH   3   4
ATOM      4  C   UNL     1       3.603  -3.226  -0.561  1.00  0.00     0.189 C 
ATOM      5  C   UNL     1       2.370  -1.046   0.339  1.00  0.00     0.074 C 
ATOM      6  C   UNL     1       3.435  -1.707  -0.714  1.00  0.00     0.111 C 
ATOM      7  C   UNL     1       2.544  -1.849   1.602  1.00  0.00     0.040 A 
ATOM      8  C   UNL     1       3.055  -3.130   1.665  1.00  0.00     0.090 A 
ATOM      9  S   UNL     1       2.359  -1.222   3.164  1.00  0.00    -0.135 S 
ATOM     10  N   UNL     1       3.486  -3.863   0.558  1.00  0.00    -0.216 NA
ATOM     11  C   UNL     1       2.949  -3.740   2.956  1.00  0.00     0.028 A 
ATOM     12  C   UNL     1       2.636  -2.769   3.909  1.00  0.00     0.060 A 
BRANCH   5  13
ATOM     13  C   UNL     1       0.710  -0.637  -0.336  1.00  0.00    -0.001 A 
ATOM     14  C   UNL     1      -1.607  -2.047  -3.748  1.00  0.00     0.173 C 
ATOM     15  N   UNL     1      -0.845  -1.161  -2.929  1.00  0.00    -0.276 N 
ATOM     16  C   UNL     1      -0.794  -1.656  -1.143  1.00  0.00     0.112 A 
ATOM     17  N   UNL     1       0.467   0.060  -3.304  1.00  0.00    -0.182 NA
ATOM     18  C   UNL     1       1.319   0.451  -1.880  1.00  0.00     0.139 A 
ENDBRANCH   5  13
BRANCH  11  19
ATOM     19  C   UNL     1       3.110  -5.171   3.270  1.00  0.00    -0.015 A 
ATOM     20  C   UNL     1       2.058  -5.878   3.880  1.00  0.00     0.010 A 
ATOM     21  C   UNL     1       4.299  -5.858   2.990  1.00  0.00     0.010 A 
ATOM     22  C   UNL     1       2.239  -7.192   4.328  1.00  0.00     0.021 A 
ATOM     23  C   UNL     1       4.473  -7.184   3.416  1.00  0.00     0.021 A 
ATOM     24  C   UNL     1       3.455  -7.831   4.114  1.00  0.00     0.041 A 
ATOM     25  Cl  UNL     1       3.709  -9.415   4.738  1.00  0.00    -0.084 Cl
ENDBRANCH  11  19
BRANCH  12  26
ATOM     26  C   UNL     1       2.490  -2.815   5.351  1.00  0.00     0.082 C 
ATOM     27  O   UNL     1       2.131  -1.917   6.102  1.00  0.00    -0.544 OA
ATOM     28  O   UNL     1       2.784  -4.018   5.885  1.00  0.00    -0.544 OA
ENDBRANCH  12  26
ENDBRANCH   3   4
ENDBRANCH   2   3
ENDBRANCH   1   2
BRANCH   1  29
ATOM     29  O   UNL     1       1.181  -3.776  -2.634  1.00  0.00    -0.458 OA
BRANCH  29  30
ATOM     30  C   UNL     1       1.010  -4.133  -1.345  1.00  0.00     0.338 C 
ATOM     31  O   UNL     1       0.920  -5.242  -0.876  1.00  0.00    -0.246 OA
BRANCH  30  32
ATOM     32  C   UNL     1       0.809  -2.811  -0.725  1.00  0.00     0.060 A 
ATOM     33  C   UNL     1      -0.174  -2.578   0.731  1.00  0.00     0.016 A 
ATOM     34  C   UNL     1       0.783  -1.455  -1.933  1.00  0.00     0.016 A 
ATOM     35  C   UNL     1      -1.343  -1.256   0.938  1.00  0.00     0.010 A 
ATOM     36  C   UNL     1      -0.541   0.082  -1.511  1.00  0.00     0.010 A 
ATOM     37  C   UNL     1      -1.668  -0.021  -0.233  1.00  0.00    -0.014 A 
BRANCH  37  38
ATOM     38  C   UNL     1      -3.068   0.456  -0.959  1.00  0.00     0.031 A 
ATOM     39  C   UNL     1      -3.208   1.745  -0.299  1.00  0.00     0.074 A 
ATOM     40  C   UNL     1      -3.976   0.157  -2.009  1.00  0.00     0.049 A 
ATOM     41  N   UNL     1      -3.736   1.786   0.878  1.00  0.00    -0.248 NA
ATOM     42  C   UNL     1      -2.366   2.904  -0.633  1.00  0.00     0.031 C 
ATOM     43  C   UNL     1      -4.219  -1.033  -2.856  1.00  0.00     0.029 A 
ATOM     44  N   UNL     1      -4.962   0.993  -2.634  1.00  0.00    -0.354 N 
ATOM     45  C   UNL     1      -3.657   3.108   1.214  1.00  0.00     0.074 A 
ATOM     46  C   UNL     1      -2.515   3.612   0.494  1.00  0.00     0.031 C 
ATOM     47  C   UNL     1      -4.907  -0.772  -4.008  1.00  0.00     0.029 A 
ATOM     48  C   UNL     1      -5.440   0.581  -3.951  1.00  0.00     0.049 A 
ATOM     49  H   UNL     1      -5.301   1.806  -2.195  1.00  0.00     0.167 HD
ATOM     50  C   UNL     1      -4.816   3.722   1.564  1.00  0.00     0.031 A 
ATOM     51  C   UNL     1      -6.555   0.933  -4.714  1.00  0.00     0.031 A 
ATOM     52  C   UNL     1      -5.876   2.741   1.777  1.00  0.00     0.049 A 
ATOM     53  C   UNL     1      -7.551   1.529  -3.810  1.00  0.00     0.074 A 
ATOM     54  C   UNL     1      -6.016   1.598   2.544  1.00  0.00     0.029 A 
ATOM     55  N   UNL     1      -6.760   2.612   0.733  1.00  0.00    -0.354 N 
ATOM     56  N   UNL     1      -8.214   0.827  -2.944  1.00  0.00    -0.248 NA
ATOM     57  C   UNL     1      -7.351   2.929  -3.507  1.00  0.00     0.031 C 
ATOM     58  C   UNL     1      -6.754   0.674   1.746  1.00  0.00     0.029 A 
ATOM     59  C   UNL     1      -7.185   1.319   0.589  1.00  0.00     0.049 A 
ATOM     60  H   UNL     1      -7.051   3.357   0.159  1.00  0.00     0.167 HD
ATOM     61  C   UNL     1      -7.978   1.509  -1.765  1.00  0.00     0.074 A 
ATOM     62  C   UNL     1      -7.492   2.832  -2.185  1.00  0.00     0.031 C 
ATOM     63  C   UNL     1      -7.854   0.819  -0.595  1.00  0.00     0.031 A 
BRANCH  50  64
ATOM     64  C   UNL     1      -5.109   5.140   1.165  1.00  0.00    -0.014 A 
ATOM     65  C   UNL     1      -6.230   5.756   1.730  1.00  0.00     0.009 A 
ATOM     66  C   UNL     1      -4.480   5.812   0.095  1.00  0.00     0.009 A 
ATOM     67  C   UNL     1      -6.702   6.978   1.241  1.00  0.00     0.001 A 
ATOM     68  C   UNL     1      -4.924   7.046  -0.372  1.00  0.00     0.001 A 
ATOM     69  C   UNL     1      -6.047   7.624   0.196  1.00  0.00     0.000 A 
ENDBRANCH  50  64
BRANCH  51  70
ATOM     70  C   UNL     1      -6.739   1.211  -6.204  1.00  0.00    -0.014 A 
ATOM     71  C   UNL     1      -7.967   1.685  -6.760  1.00  0.00     0.009 A 
ATOM     72  C   UNL     1      -5.628   1.278  -7.050  1.00  0.00     0.009 A 
ATOM     73  C   UNL     1      -8.038   2.283  -8.041  1.00  0.00     0.001 A 
ATOM     74  C   UNL     1      -5.697   1.880  -8.324  1.00  0.00     0.001 A 
ATOM     75  C   UNL     1      -6.890   2.409  -8.810  1.00  0.00     0.000 A 
ENDBRANCH  51  70
BRANCH  63  76
ATOM     76  C   UNL     1      -8.349  -0.615  -0.554  1.00  0.00    -0.014 A 
ATOM     77  C   UNL     1      -7.815  -1.686  -1.297  1.00  0.00     0.009 A 
ATOM     78  C   UNL     1      -9.347  -0.905   0.387  1.00  0.00     0.009 A 
ATOM     79  C   UNL     1      -8.283  -2.997  -1.107  1.00  0.00     0.001 A 
ATOM     80  C   UNL     1      -9.801  -2.209   0.588  1.00  0.00     0.001 A 
ATOM     81  C   UNL     1      -9.274  -3.256  -0.163  1.00  0.00     0.000 A 
ENDBRANCH  63  76
ENDBRANCH  37  38
ENDBRANCH  30  32
ENDBRANCH  29  30
ENDBRANCH   1  29
TORSDOF 13
