REMARK SMILES CC[C@H]1CCC[C@H](O[C@@H]2CC[C@]([NH2+]C(C)C)(C(=O)OCCOC(=O)c3ccc(-c4c5nc(c(-c6ccccc6)c6ccc([nH]6)c(-c6ccccc6)c6nc(c(-c7ccccc7)c7ccc4[nH]7)C=C6)C=C5)cc3)C2)C1
REMARK SMILES IDX 20 1 19 2 17 3 18 4 12 5 9 6 10 7 73 8 11 9 8 10 7 11 3 12
REMARK SMILES IDX 4 13 74 14 5 15 6 16 2 17 1 18 13 19 14 22 15 23 16 24 21 25
REMARK SMILES IDX 22 26 23 27 24 28 25 29 26 30 72 31 27 32 71 33 28 34 29 35
REMARK SMILES IDX 30 36 65 37 31 38 70 39 64 40 66 41 32 42 69 43 63 44 62 45
REMARK SMILES IDX 33 47 55 48 40 49 54 50 41 51 44 52 53 53 67 54 42 55 43 56
REMARK SMILES IDX 52 58 68 59 45 60 34 61 35 62 39 63 36 64 38 65 37 66 56 67
REMARK SMILES IDX 57 68 61 69 58 70 60 71 59 72 46 73 47 74 51 75 48 76 50 77
REMARK SMILES IDX 49 78
REMARK H PARENT 13 20 13 21 66 46 44 57
REMARK Flexibility Score: inf
ROOT
ATOM      1  C   UNL     1      -3.607   0.367   0.393  1.00  0.00     0.274 C 
ENDROOT
BRANCH   1   2
ATOM      2  O   UNL     1      -2.804   1.524   0.724  1.00  0.00    -0.457 OA
BRANCH   2   3
ATOM      3  C   UNL     1      -3.136   2.713   0.141  1.00  0.00     0.368 C 
ATOM      4  O   UNL     1      -4.098   2.871  -0.605  1.00  0.00    -0.245 OA
BRANCH   3   5
ATOM      5  C   UNL     1      -2.191   3.873   0.574  1.00  0.00     0.197 C 
ATOM      6  C   UNL     1      -0.098   4.479   1.630  1.00  0.00     0.125 C 
ATOM      7  C   UNL     1      -1.209   4.963   2.564  1.00  0.00     0.039 C 
ATOM      8  C   UNL     1      -0.747   3.414   0.758  1.00  0.00     0.113 C 
ATOM      9  C   UNL     1      -2.501   4.344   2.013  1.00  0.00     0.084 C 
BRANCH   6  10
ATOM     10  O   UNL     1       1.141   4.174   2.249  1.00  0.00    -0.375 OA
BRANCH  10  11
ATOM     11  C   UNL     1       1.430   2.935   2.895  1.00  0.00     0.118 C 
ATOM     12  C   UNL     1       2.047   0.447   2.585  1.00  0.00    -0.009 C 
ATOM     13  C   UNL     1       1.048   0.134   3.714  1.00  0.00     0.004 C 
ATOM     14  C   UNL     1       1.717   1.788   1.911  1.00  0.00     0.035 C 
ATOM     15  C   UNL     1       0.886   1.276   4.712  1.00  0.00     0.003 C 
ATOM     16  C   UNL     1       0.456   2.556   4.009  1.00  0.00     0.032 C 
BRANCH  12  17
ATOM     17  C   UNL     1       3.504   0.354   3.067  1.00  0.00     0.000 C 
ATOM     18  C   UNL     1       4.514   0.524   1.938  1.00  0.00     0.004 C 
ENDBRANCH  12  17
ENDBRANCH  10  11
ENDBRANCH   6  10
BRANCH   5  19
ATOM     19  N   UNL     1      -2.381   5.056  -0.312  1.00  0.00    -0.330 N 
ATOM     20  H   UNL     1      -1.934   5.857   0.134  1.00  0.00     0.347 HD
ATOM     21  H   UNL     1      -3.389   5.157  -0.429  1.00  0.00     0.347 HD
BRANCH  19  22
ATOM     22  C   UNL     1      -1.831   4.929  -1.670  1.00  0.00     0.176 C 
ATOM     23  C   UNL     1      -2.863   5.419  -2.692  1.00  0.00     0.075 C 
ATOM     24  C   UNL     1      -0.572   5.791  -1.781  1.00  0.00     0.075 C 
ENDBRANCH  19  22
ENDBRANCH   5  19
ENDBRANCH   3   5
ENDBRANCH   2   3
ENDBRANCH   1   2
BRANCH   1  25
ATOM     25  C   UNL     1      -4.390  -0.095   1.623  1.00  0.00     0.275 C 
BRANCH  25  26
ATOM     26  O   UNL     1      -5.276   0.970   1.996  1.00  0.00    -0.458 OA
BRANCH  26  27
ATOM     27  C   UNL     1      -5.430   1.204   3.320  1.00  0.00     0.338 C 
ATOM     28  O   UNL     1      -5.125   0.458   4.233  1.00  0.00    -0.246 OA
BRANCH  27  29
ATOM     29  C   UNL     1      -5.921   2.594   3.506  1.00  0.00     0.060 A 
ATOM     30  C   UNL     1      -5.718   3.545   2.507  1.00  0.00     0.016 A 
ATOM     31  C   UNL     1      -6.455   3.002   4.728  1.00  0.00     0.016 A 
ATOM     32  C   UNL     1      -5.911   4.898   2.769  1.00  0.00     0.010 A 
ATOM     33  C   UNL     1      -6.769   4.355   4.941  1.00  0.00     0.010 A 
ATOM     34  C   UNL     1      -6.457   5.335   3.980  1.00  0.00    -0.014 A 
BRANCH  34  35
ATOM     35  C   UNL     1      -6.630   6.797   4.253  1.00  0.00     0.031 A 
ATOM     36  C   UNL     1      -6.134   7.391   5.550  1.00  0.00     0.074 A 
ATOM     37  C   UNL     1      -7.180   7.634   3.347  1.00  0.00     0.049 A 
ATOM     38  N   UNL     1      -6.457   8.529   6.112  1.00  0.00    -0.248 NA
ATOM     39  C   UNL     1      -5.169   6.595   6.324  1.00  0.00     0.031 C 
ATOM     40  C   UNL     1      -7.639   7.272   2.004  1.00  0.00     0.029 A 
ATOM     41  N   UNL     1      -7.423   8.987   3.416  1.00  0.00    -0.354 N 
ATOM     42  C   UNL     1      -5.827   8.531   7.351  1.00  0.00     0.074 A 
ATOM     43  C   UNL     1      -5.072   7.300   7.443  1.00  0.00     0.031 C 
ATOM     44  C   UNL     1      -8.015   8.379   1.349  1.00  0.00     0.029 A 
ATOM     45  C   UNL     1      -7.973   9.507   2.269  1.00  0.00     0.049 A 
ATOM     46  H   UNL     1      -7.223   9.530   4.212  1.00  0.00     0.167 HD
ATOM     47  C   UNL     1      -5.894   9.466   8.330  1.00  0.00     0.031 A 
ATOM     48  C   UNL     1      -8.461  10.732   1.995  1.00  0.00     0.031 A 
ATOM     49  C   UNL     1      -6.565  10.732   8.200  1.00  0.00     0.049 A 
ATOM     50  C   UNL     1      -8.526  11.758   3.085  1.00  0.00     0.074 A 
ATOM     51  C   UNL     1      -6.717  11.734   9.145  1.00  0.00     0.029 A 
ATOM     52  N   UNL     1      -7.152  11.193   7.033  1.00  0.00    -0.354 N 
ATOM     53  N   UNL     1      -8.104  11.674   4.322  1.00  0.00    -0.248 NA
ATOM     54  C   UNL     1      -9.184  13.031   2.754  1.00  0.00     0.031 C 
ATOM     55  C   UNL     1      -7.410  12.795   8.551  1.00  0.00     0.029 A 
ATOM     56  C   UNL     1      -7.657  12.467   7.229  1.00  0.00     0.049 A 
ATOM     57  H   UNL     1      -7.202  10.689   6.189  1.00  0.00     0.167 HD
ATOM     58  C   UNL     1      -8.465  12.870   4.924  1.00  0.00     0.074 A 
ATOM     59  C   UNL     1      -9.104  13.680   3.907  1.00  0.00     0.031 C 
ATOM     60  C   UNL     1      -8.301  13.254   6.213  1.00  0.00     0.031 A 
BRANCH  47  61
ATOM     61  C   UNL     1      -5.279   9.125   9.658  1.00  0.00    -0.014 A 
ATOM     62  C   UNL     1      -3.893   9.152   9.865  1.00  0.00     0.009 A 
ATOM     63  C   UNL     1      -6.123   8.804  10.735  1.00  0.00     0.009 A 
ATOM     64  C   UNL     1      -3.363   8.837  11.120  1.00  0.00     0.001 A 
ATOM     65  C   UNL     1      -5.592   8.515  11.993  1.00  0.00     0.001 A 
ATOM     66  C   UNL     1      -4.212   8.524  12.182  1.00  0.00     0.000 A 
ENDBRANCH  47  61
BRANCH  48  67
ATOM     67  C   UNL     1      -9.031  11.011   0.651  1.00  0.00    -0.014 A 
ATOM     68  C   UNL     1      -8.367  11.861  -0.244  1.00  0.00     0.009 A 
ATOM     69  C   UNL     1     -10.229  10.399   0.247  1.00  0.00     0.009 A 
ATOM     70  C   UNL     1      -8.891  12.091  -1.518  1.00  0.00     0.001 A 
ATOM     71  C   UNL     1     -10.733  10.605  -1.037  1.00  0.00     0.001 A 
ATOM     72  C   UNL     1     -10.066  11.455  -1.917  1.00  0.00     0.000 A 
ENDBRANCH  48  67
BRANCH  60  73
ATOM     73  C   UNL     1      -8.818  14.611   6.585  1.00  0.00    -0.014 A 
ATOM     74  C   UNL     1     -10.189  14.826   6.791  1.00  0.00     0.009 A 
ATOM     75  C   UNL     1      -7.924  15.680   6.745  1.00  0.00     0.009 A 
ATOM     76  C   UNL     1     -10.660  16.097   7.124  1.00  0.00     0.001 A 
ATOM     77  C   UNL     1      -8.397  16.946   7.095  1.00  0.00     0.001 A 
ATOM     78  C   UNL     1      -9.764  17.155   7.276  1.00  0.00     0.000 A 
ENDBRANCH  60  73
ENDBRANCH  34  35
ENDBRANCH  27  29
ENDBRANCH  26  27
ENDBRANCH  25  26
ENDBRANCH   1  25
TORSDOF 16
