REMARK SMILES CCOc1cccc(C(=O)Nc2ccc(Cl)c(C(=O)OCCOC(=O)c3ccc(-c4c5nc(c(-c6ccccc6)c6ccc([nH]6)c(-c6ccccc6)c6nc(c(-c7ccccc7)c7ccc4[nH]7)C=C6)C=C5)cc3)c2)c1
REMARK SMILES IDX 21 1 20 2 18 3 19 4 17 5 12 6 13 7 74 8 14 9 15 10 16 11
REMARK SMILES IDX 11 12 9 13 10 14 8 16 4 17 5 18 75 19 6 20 7 21 3 22 2 23
REMARK SMILES IDX 1 24 22 25 23 26 24 27 25 28 26 29 27 30 73 31 28 32 72 33
REMARK SMILES IDX 29 34 30 35 31 36 66 37 32 38 71 39 65 40 67 41 33 42 70 43
REMARK SMILES IDX 64 44 63 45 34 47 56 48 41 49 55 50 42 51 45 52 54 53 68 54
REMARK SMILES IDX 43 55 44 56 53 58 69 59 46 60 35 61 36 62 40 63 37 64 39 65
REMARK SMILES IDX 38 66 57 67 58 68 62 69 59 70 61 71 60 72 47 73 48 74 52 75
REMARK SMILES IDX 49 76 51 77 50 78
REMARK H PARENT 11 15 67 46 45 57
REMARK Flexibility Score: inf
ROOT
ATOM      1  C   UNL     1      -0.404  -3.585  -0.965  1.00  0.00     0.275 C 
ENDROOT
BRANCH   1   2
ATOM      2  O   UNL     1       0.574  -2.971  -0.101  1.00  0.00    -0.458 OA
BRANCH   2   3
ATOM      3  C   UNL     1       0.355  -1.674   0.238  1.00  0.00     0.339 C 
ATOM      4  O   UNL     1      -0.652  -1.040  -0.045  1.00  0.00    -0.246 OA
BRANCH   3   5
ATOM      5  C   UNL     1       1.500  -1.142   1.040  1.00  0.00     0.080 A 
ATOM      6  C   UNL     1       3.893  -1.131   1.435  1.00  0.00     0.042 A 
ATOM      7  C   UNL     1       3.751  -0.160   2.422  1.00  0.00     0.028 A 
ATOM      8  C   UNL     1       2.764  -1.739   0.884  1.00  0.00     0.043 A 
ATOM      9  C   UNL     1       2.507   0.426   2.609  1.00  0.00     0.023 A 
ATOM     10  C   UNL     1       1.414   0.016   1.836  1.00  0.00     0.055 A 
ATOM     11  Cl  UNL     1       0.084   1.117   1.843  1.00  0.00    -0.083 Cl
BRANCH   6  12
ATOM     12  N   UNL     1       5.182  -1.316   0.924  1.00  0.00    -0.322 N 
ATOM     13  C   UNL     1       5.640  -1.435  -0.379  1.00  0.00     0.255 C 
ATOM     14  O   UNL     1       6.848  -1.638  -0.531  1.00  0.00    -0.269 OA
ATOM     15  H   UNL     1       5.887  -1.371   1.609  1.00  0.00     0.170 HD
BRANCH  13  16
ATOM     16  C   UNL     1       4.794  -1.268  -1.608  1.00  0.00     0.043 A 
ATOM     17  C   UNL     1       2.759  -0.651  -2.778  1.00  0.00     0.120 A 
ATOM     18  C   UNL     1       3.206  -1.272  -3.936  1.00  0.00     0.046 A 
ATOM     19  C   UNL     1       3.586  -0.567  -1.657  1.00  0.00     0.060 A 
ATOM     20  C   UNL     1       4.485  -1.823  -3.962  1.00  0.00     0.005 A 
ATOM     21  C   UNL     1       5.260  -1.848  -2.797  1.00  0.00     0.014 A 
BRANCH  17  22
ATOM     22  O   UNL     1       1.427  -0.358  -2.662  1.00  0.00    -0.494 OA
BRANCH  22  23
ATOM     23  C   UNL     1       1.103   1.017  -2.870  1.00  0.00     0.226 C 
ATOM     24  C   UNL     1       0.946   1.734  -1.544  1.00  0.00     0.049 C 
ENDBRANCH  22  23
ENDBRANCH  17  22
ENDBRANCH  13  16
ENDBRANCH   6  12
ENDBRANCH   3   5
ENDBRANCH   2   3
ENDBRANCH   1   2
BRANCH   1  25
ATOM     25  C   UNL     1      -1.383  -4.474  -0.190  1.00  0.00     0.275 C 
BRANCH  25  26
ATOM     26  O   UNL     1      -2.237  -3.694   0.670  1.00  0.00    -0.458 OA
BRANCH  26  27
ATOM     27  C   UNL     1      -1.885  -3.685   1.978  1.00  0.00     0.338 C 
ATOM     28  O   UNL     1      -1.002  -4.337   2.509  1.00  0.00    -0.246 OA
BRANCH  27  29
ATOM     29  C   UNL     1      -2.554  -2.567   2.664  1.00  0.00     0.060 A 
ATOM     30  C   UNL     1      -1.733  -1.497   2.999  1.00  0.00     0.016 A 
ATOM     31  C   UNL     1      -3.893  -2.563   3.058  1.00  0.00     0.016 A 
ATOM     32  C   UNL     1      -2.241  -0.389   3.660  1.00  0.00     0.010 A 
ATOM     33  C   UNL     1      -4.405  -1.446   3.750  1.00  0.00     0.010 A 
ATOM     34  C   UNL     1      -3.582  -0.341   4.032  1.00  0.00    -0.014 A 
BRANCH  34  35
ATOM     35  C   UNL     1      -3.996   0.839   4.830  1.00  0.00     0.031 A 
ATOM     36  C   UNL     1      -3.988   0.741   6.327  1.00  0.00     0.074 A 
ATOM     37  C   UNL     1      -4.155   2.042   4.245  1.00  0.00     0.049 A 
ATOM     38  N   UNL     1      -4.240   1.661   7.222  1.00  0.00    -0.248 NA
ATOM     39  C   UNL     1      -3.613  -0.566   6.889  1.00  0.00     0.031 C 
ATOM     40  C   UNL     1      -4.001   2.316   2.815  1.00  0.00     0.029 A 
ATOM     41  N   UNL     1      -4.432   3.272   4.792  1.00  0.00    -0.354 N 
ATOM     42  C   UNL     1      -4.081   1.040   8.454  1.00  0.00     0.074 A 
ATOM     43  C   UNL     1      -3.709  -0.334   8.190  1.00  0.00     0.031 C 
ATOM     44  C   UNL     1      -4.170   3.632   2.602  1.00  0.00     0.029 A 
ATOM     45  C   UNL     1      -4.496   4.286   3.866  1.00  0.00     0.049 A 
ATOM     46  H   UNL     1      -4.572   3.413   5.756  1.00  0.00     0.167 HD
ATOM     47  C   UNL     1      -4.243   1.563   9.692  1.00  0.00     0.031 A 
ATOM     48  C   UNL     1      -4.806   5.588   4.020  1.00  0.00     0.031 A 
ATOM     49  C   UNL     1      -4.622   2.926   9.956  1.00  0.00     0.049 A 
ATOM     50  C   UNL     1      -5.128   6.108   5.396  1.00  0.00     0.074 A 
ATOM     51  C   UNL     1      -4.856   3.536  11.176  1.00  0.00     0.029 A 
ATOM     52  N   UNL     1      -4.829   3.891   8.982  1.00  0.00    -0.354 N 
ATOM     53  N   UNL     1      -5.048   5.498   6.554  1.00  0.00    -0.248 NA
ATOM     54  C   UNL     1      -5.590   7.501   5.483  1.00  0.00     0.031 C 
ATOM     55  C   UNL     1      -5.273   4.851  10.936  1.00  0.00     0.029 A 
ATOM     56  C   UNL     1      -5.223   5.083   9.571  1.00  0.00     0.049 A 
ATOM     57  H   UNL     1      -4.714   3.751   8.014  1.00  0.00     0.167 HD
ATOM     58  C   UNL     1      -5.419   6.439   7.507  1.00  0.00     0.074 A 
ATOM     59  C   UNL     1      -5.703   7.667   6.792  1.00  0.00     0.031 C 
ATOM     60  C   UNL     1      -5.514   6.298   8.853  1.00  0.00     0.031 A 
BRANCH  47  61
ATOM     61  C   UNL     1      -4.113   0.613  10.850  1.00  0.00    -0.014 A 
ATOM     62  C   UNL     1      -2.876   0.078  11.244  1.00  0.00     0.009 A 
ATOM     63  C   UNL     1      -5.271   0.231  11.548  1.00  0.00     0.009 A 
ATOM     64  C   UNL     1      -2.811  -0.855  12.281  1.00  0.00     0.001 A 
ATOM     65  C   UNL     1      -5.197  -0.676  12.605  1.00  0.00     0.001 A 
ATOM     66  C   UNL     1      -3.970  -1.229  12.962  1.00  0.00     0.000 A 
ENDBRANCH  47  61
BRANCH  48  67
ATOM     67  C   UNL     1      -4.889   6.493   2.839  1.00  0.00    -0.014 A 
ATOM     68  C   UNL     1      -4.023   7.589   2.702  1.00  0.00     0.009 A 
ATOM     69  C   UNL     1      -5.884   6.295   1.867  1.00  0.00     0.009 A 
ATOM     70  C   UNL     1      -4.169   8.480   1.635  1.00  0.00     0.001 A 
ATOM     71  C   UNL     1      -6.006   7.168   0.784  1.00  0.00     0.001 A 
ATOM     72  C   UNL     1      -5.157   8.266   0.675  1.00  0.00     0.000 A 
ENDBRANCH  48  67
BRANCH  60  73
ATOM     73  C   UNL     1      -5.900   7.521   9.643  1.00  0.00    -0.014 A 
ATOM     74  C   UNL     1      -7.185   8.081   9.559  1.00  0.00     0.009 A 
ATOM     75  C   UNL     1      -4.957   8.122  10.493  1.00  0.00     0.009 A 
ATOM     76  C   UNL     1      -7.498   9.245  10.264  1.00  0.00     0.001 A 
ATOM     77  C   UNL     1      -5.284   9.264  11.226  1.00  0.00     0.001 A 
ATOM     78  C   UNL     1      -6.549   9.834  11.098  1.00  0.00     0.000 A 
ENDBRANCH  60  73
ENDBRANCH  34  35
ENDBRANCH  27  29
ENDBRANCH  26  27
ENDBRANCH  25  26
ENDBRANCH   1  25
TORSDOF 15
