REMARK SMILES O=C(CCn1ccnc1)N[C@H]1C=C[C@H](C(=O)OCCOC(=O)c2ccc(-c3c4nc(c(-c5ccccc5)c5ccc([nH]5)c(-c5ccccc5)c5nc(c(-c6ccccc6)c6ccc3[nH]6)C=C5)C=C4)cc2)C1
REMARK SMILES IDX 18 1 17 2 15 3 16 4 14 5 11 6 12 7 71 8 13 9 10 10 1 11 2 12
REMARK SMILES IDX 3 14 4 15 5 16 6 17 9 18 7 19 8 20 19 21 20 22 21 23 22 24
REMARK SMILES IDX 23 25 24 26 70 27 25 28 69 29 26 30 27 31 28 32 63 33 29 34
REMARK SMILES IDX 68 35 62 36 64 37 30 38 67 39 61 40 60 41 31 43 53 44 38 45
REMARK SMILES IDX 52 46 39 47 42 48 51 49 65 50 40 51 41 52 50 54 66 55 43 56
REMARK SMILES IDX 32 57 33 58 37 59 34 60 36 61 35 62 54 63 55 64 59 65 56 66
REMARK SMILES IDX 58 67 57 68 44 69 45 70 49 71 46 72 48 73 47 74
REMARK H PARENT 10 13 64 42 42 53
REMARK Flexibility Score: inf
ROOT
ATOM      1  C   UNL     1      -1.201   6.549  -1.121  1.00  0.00     0.274 C 
ENDROOT
BRANCH   1   2
ATOM      2  O   UNL     1      -0.523   5.700  -0.186  1.00  0.00    -0.462 OA
BRANCH   2   3
ATOM      3  C   UNL     1       0.494   4.941  -0.690  1.00  0.00     0.312 C 
ATOM      4  O   UNL     1       0.774   4.837  -1.877  1.00  0.00    -0.252 OA
BRANCH   3   5
ATOM      5  C   UNL     1       1.258   4.283   0.452  1.00  0.00     0.124 C 
ATOM      6  C   UNL     1       1.736   1.986  -0.182  1.00  0.00     0.106 C 
ATOM      7  C   UNL     1       0.600   2.064   0.786  1.00  0.00    -0.006 C 
ATOM      8  C   UNL     1       2.384   3.369  -0.048  1.00  0.00     0.048 C 
ATOM      9  C   UNL     1       0.350   3.322   1.157  1.00  0.00    -0.014 C 
BRANCH   6  10
ATOM     10  N   UNL     1       2.612   0.916   0.218  1.00  0.00    -0.350 N 
ATOM     11  O   UNL     1       1.282  -0.753  -0.632  1.00  0.00    -0.275 OA
ATOM     12  C   UNL     1       2.310  -0.393  -0.067  1.00  0.00     0.222 C 
ATOM     13  H   UNL     1       3.441   1.127   0.704  1.00  0.00     0.164 HD
BRANCH  12  14
ATOM     14  C   UNL     1       3.385  -1.379   0.310  1.00  0.00     0.122 C 
BRANCH  14  15
ATOM     15  C   UNL     1       4.131  -1.801  -0.949  1.00  0.00     0.133 C 
BRANCH  15  16
ATOM     16  N   UNL     1       5.153  -0.843  -1.331  1.00  0.00    -0.337 N 
ATOM     17  C   UNL     1       4.954   0.374  -1.921  1.00  0.00     0.107 A 
ATOM     18  C   UNL     1       6.495  -0.991  -1.136  1.00  0.00     0.199 A 
ATOM     19  C   UNL     1       6.201   0.951  -1.972  1.00  0.00     0.130 A 
ATOM     20  N   UNL     1       7.152   0.092  -1.485  1.00  0.00    -0.245 NA
ENDBRANCH  15  16
ENDBRANCH  14  15
ENDBRANCH  12  14
ENDBRANCH   6  10
ENDBRANCH   3   5
ENDBRANCH   2   3
ENDBRANCH   1   2
BRANCH   1  21
ATOM     21  C   UNL     1      -0.546   7.920  -1.152  1.00  0.00     0.275 C 
BRANCH  21  22
ATOM     22  O   UNL     1       0.680   7.905  -1.885  1.00  0.00    -0.458 OA
BRANCH  22  23
ATOM     23  C   UNL     1       1.802   7.739  -1.154  1.00  0.00     0.338 C 
ATOM     24  O   UNL     1       1.896   7.288  -0.018  1.00  0.00    -0.246 OA
BRANCH  23  25
ATOM     25  C   UNL     1       2.921   8.381  -1.845  1.00  0.00     0.060 A 
ATOM     26  C   UNL     1       4.221   8.112  -1.407  1.00  0.00     0.016 A 
ATOM     27  C   UNL     1       2.656   9.402  -2.770  1.00  0.00     0.016 A 
ATOM     28  C   UNL     1       5.248   8.937  -1.827  1.00  0.00     0.010 A 
ATOM     29  C   UNL     1       3.678  10.224  -3.183  1.00  0.00     0.010 A 
ATOM     30  C   UNL     1       4.956  10.018  -2.670  1.00  0.00    -0.014 A 
BRANCH  30  31
ATOM     31  C   UNL     1       6.045  10.869  -3.116  1.00  0.00     0.031 A 
ATOM     32  C   UNL     1       7.018  10.186  -3.998  1.00  0.00     0.074 A 
ATOM     33  C   UNL     1       6.094  12.194  -2.884  1.00  0.00     0.049 A 
ATOM     34  N   UNL     1       8.274   9.996  -3.777  1.00  0.00    -0.248 NA
ATOM     35  C   UNL     1       6.511   9.542  -5.221  1.00  0.00     0.031 C 
ATOM     36  C   UNL     1       5.059  13.029  -2.265  1.00  0.00     0.029 A 
ATOM     37  N   UNL     1       7.045  13.099  -3.256  1.00  0.00    -0.354 N 
ATOM     38  C   UNL     1       8.765   9.366  -4.915  1.00  0.00     0.074 A 
ATOM     39  C   UNL     1       7.622   8.986  -5.705  1.00  0.00     0.031 C 
ATOM     40  C   UNL     1       5.336  14.331  -2.503  1.00  0.00     0.029 A 
ATOM     41  C   UNL     1       6.634  14.419  -3.150  1.00  0.00     0.049 A 
ATOM     42  H   UNL     1       7.940  12.838  -3.573  1.00  0.00     0.167 HD
ATOM     43  C   UNL     1      10.082   9.442  -5.242  1.00  0.00     0.031 A 
ATOM     44  C   UNL     1       7.302  15.517  -3.573  1.00  0.00     0.031 A 
ATOM     45  C   UNL     1      10.882   9.906  -4.141  1.00  0.00     0.049 A 
ATOM     46  C   UNL     1       8.733  15.172  -3.683  1.00  0.00     0.074 A 
ATOM     47  C   UNL     1      11.374   9.383  -2.967  1.00  0.00     0.029 A 
ATOM     48  N   UNL     1      10.982  11.270  -4.057  1.00  0.00    -0.354 N 
ATOM     49  N   UNL     1       9.480  14.916  -2.649  1.00  0.00    -0.248 NA
ATOM     50  C   UNL     1       9.306  14.809  -4.973  1.00  0.00     0.031 C 
ATOM     51  C   UNL     1      11.564  10.493  -2.091  1.00  0.00     0.029 A 
ATOM     52  C   UNL     1      11.200  11.659  -2.762  1.00  0.00     0.049 A 
ATOM     53  H   UNL     1      10.907  11.886  -4.822  1.00  0.00     0.167 HD
ATOM     54  C   UNL     1      10.382  13.977  -3.108  1.00  0.00     0.074 A 
ATOM     55  C   UNL     1      10.364  14.105  -4.558  1.00  0.00     0.031 C 
ATOM     56  C   UNL     1      10.812  12.971  -2.295  1.00  0.00     0.031 A 
BRANCH  43  57
ATOM     57  C   UNL     1      10.570   9.592  -6.663  1.00  0.00    -0.014 A 
ATOM     58  C   UNL     1      11.957   9.640  -6.893  1.00  0.00     0.009 A 
ATOM     59  C   UNL     1       9.738  10.002  -7.723  1.00  0.00     0.009 A 
ATOM     60  C   UNL     1      12.480  10.133  -8.094  1.00  0.00     0.001 A 
ATOM     61  C   UNL     1      10.256  10.461  -8.937  1.00  0.00     0.001 A 
ATOM     62  C   UNL     1      11.629  10.552  -9.112  1.00  0.00     0.000 A 
ENDBRANCH  43  57
BRANCH  44  63
ATOM     63  C   UNL     1       6.787  16.829  -3.998  1.00  0.00    -0.014 A 
ATOM     64  C   UNL     1       7.589  17.977  -3.919  1.00  0.00     0.009 A 
ATOM     65  C   UNL     1       5.594  16.903  -4.739  1.00  0.00     0.009 A 
ATOM     66  C   UNL     1       7.233  19.147  -4.599  1.00  0.00     0.001 A 
ATOM     67  C   UNL     1       5.239  18.072  -5.418  1.00  0.00     0.001 A 
ATOM     68  C   UNL     1       6.068  19.188  -5.363  1.00  0.00     0.000 A 
ENDBRANCH  44  63
BRANCH  56  69
ATOM     69  C   UNL     1      10.645  13.172  -0.815  1.00  0.00    -0.014 A 
ATOM     70  C   UNL     1       9.389  13.244  -0.188  1.00  0.00     0.009 A 
ATOM     71  C   UNL     1      11.797  13.227  -0.019  1.00  0.00     0.009 A 
ATOM     72  C   UNL     1       9.293  13.402   1.198  1.00  0.00     0.001 A 
ATOM     73  C   UNL     1      11.700  13.363   1.366  1.00  0.00     0.001 A 
ATOM     74  C   UNL     1      10.450  13.458   1.973  1.00  0.00     0.000 A 
ENDBRANCH  56  69
ENDBRANCH  30  31
ENDBRANCH  23  25
ENDBRANCH  22  23
ENDBRANCH  21  22
ENDBRANCH   1  21
TORSDOF 15
