REMARK SMILES Cc1ccnc(C(=O)c2[nH]c3cc(Cl)c(F)cc3c2CC(=O)OCCOC(=O)c2ccc(-c3c4nc(c(-c5ccccc5)c5ccc([nH]5)c(-c5ccccc5)c5nc(c(-c6ccccc6)c6ccc3[nH]6)C=C5)C=C4)cc2)c1
REMARK SMILES IDX 24 1 23 2 21 3 22 4 20 5 19 6 9 7 10 8 11 9 18 11 12 12
REMARK SMILES IDX 17 13 13 14 15 15 14 16 16 17 7 18 8 19 6 20 1 21 2 22 3 23
REMARK SMILES IDX 77 24 4 25 5 26 25 27 26 28 27 29 28 30 29 31 30 32 76 33
REMARK SMILES IDX 31 34 75 35 32 36 33 37 34 38 69 39 35 40 74 41 68 42 70 43
REMARK SMILES IDX 36 44 73 45 67 46 66 47 37 49 59 50 44 51 58 52 45 53 48 54
REMARK SMILES IDX 57 55 71 56 46 57 47 58 56 60 72 61 49 62 38 63 39 64 43 65
REMARK SMILES IDX 40 66 42 67 41 68 60 69 61 70 65 71 62 72 64 73 63 74 50 75
REMARK SMILES IDX 51 76 55 77 52 78 54 79 53 80
REMARK H PARENT 10 10 70 48 48 59
REMARK Flexibility Score: inf
ROOT
ATOM      1  C   UNL     1      -2.683  -0.592  -1.656  1.00  0.00     0.274 C 
ENDROOT
BRANCH   1   2
ATOM      2  O   UNL     1      -1.950  -1.770  -1.216  1.00  0.00    -0.462 OA
BRANCH   2   3
ATOM      3  C   UNL     1      -1.460  -2.516  -2.231  1.00  0.00     0.310 C 
ATOM      4  O   UNL     1      -1.637  -2.217  -3.414  1.00  0.00    -0.252 OA
BRANCH   3   5
ATOM      5  C   UNL     1      -0.785  -3.819  -1.914  1.00  0.00     0.161 C 
BRANCH   5   6
ATOM      6  C   UNL     1      -0.330  -4.355  -0.577  1.00  0.00     0.000 A 
ATOM      7  C   UNL     1       0.647  -3.957   0.350  1.00  0.00     0.093 A 
ATOM      8  N   UNL     1       0.859  -5.014   1.208  1.00  0.00    -0.351 N 
ATOM      9  C   UNL     1       0.053  -6.074   0.914  1.00  0.00     0.048 A 
ATOM     10  H   UNL     1       1.513  -5.006   1.944  1.00  0.00     0.167 HD
ATOM     11  C   UNL     1      -0.695  -5.711  -0.198  1.00  0.00     0.007 A 
ATOM     12  C   UNL     1      -0.024  -7.333   1.521  1.00  0.00     0.050 A 
ATOM     13  C   UNL     1      -1.541  -6.689  -0.769  1.00  0.00     0.051 A 
ATOM     14  C   UNL     1      -0.893  -8.267   0.955  1.00  0.00     0.078 A 
ATOM     15  C   UNL     1      -1.629  -7.950  -0.180  1.00  0.00     0.142 A 
ATOM     16  Cl  UNL     1      -1.028  -9.824   1.676  1.00  0.00    -0.081 Cl
ATOM     17  F   UNL     1      -2.438  -8.858  -0.747  1.00  0.00    -0.205 F 
BRANCH   7  18
ATOM     18  C   UNL     1       1.523  -2.804   0.533  1.00  0.00     0.227 C 
ATOM     19  O   UNL     1       2.707  -2.876   0.211  1.00  0.00    -0.285 OA
BRANCH  18  20
ATOM     20  C   UNL     1       1.002  -1.605   1.287  1.00  0.00     0.113 A 
ATOM     21  C   UNL     1      -2.379  -0.189   2.155  1.00  0.00     0.044 C 
ATOM     22  C   UNL     1      -0.898  -0.310   1.968  1.00  0.00    -0.047 A 
ATOM     23  C   UNL     1      -0.073   0.817   1.953  1.00  0.00     0.023 A 
ATOM     24  C   UNL     1      -0.339  -1.549   1.656  1.00  0.00     0.036 A 
ATOM     25  C   UNL     1       1.279   0.651   1.679  1.00  0.00     0.112 A 
ATOM     26  N   UNL     1       1.849  -0.541   1.389  1.00  0.00    -0.253 NA
ENDBRANCH  18  20
ENDBRANCH   7  18
ENDBRANCH   5   6
ENDBRANCH   3   5
ENDBRANCH   2   3
ENDBRANCH   1   2
BRANCH   1  27
ATOM     27  C   UNL     1      -1.876   0.720  -1.615  1.00  0.00     0.275 C 
BRANCH  27  28
ATOM     28  O   UNL     1      -0.765   0.737  -2.521  1.00  0.00    -0.458 OA
BRANCH  28  29
ATOM     29  C   UNL     1       0.339   0.107  -2.052  1.00  0.00     0.338 C 
ATOM     30  O   UNL     1       0.462  -0.319  -0.923  1.00  0.00    -0.246 OA
BRANCH  29  31
ATOM     31  C   UNL     1       1.181  -0.386  -3.143  1.00  0.00     0.060 A 
ATOM     32  C   UNL     1       0.939   0.128  -4.403  1.00  0.00     0.016 A 
ATOM     33  C   UNL     1       1.698  -1.678  -2.958  1.00  0.00     0.016 A 
ATOM     34  C   UNL     1       0.810  -0.785  -5.421  1.00  0.00     0.010 A 
ATOM     35  C   UNL     1       1.606  -2.584  -3.993  1.00  0.00     0.010 A 
ATOM     36  C   UNL     1       1.025  -2.158  -5.176  1.00  0.00    -0.014 A 
BRANCH  36  37
ATOM     37  C   UNL     1       0.954  -3.036  -6.323  1.00  0.00     0.031 A 
ATOM     38  C   UNL     1       2.110  -2.760  -7.187  1.00  0.00     0.074 A 
ATOM     39  C   UNL     1      -0.006  -3.890  -6.715  1.00  0.00     0.049 A 
ATOM     40  N   UNL     1       2.080  -1.946  -8.183  1.00  0.00    -0.248 NA
ATOM     41  C   UNL     1       3.443  -3.168  -6.741  1.00  0.00     0.031 C 
ATOM     42  C   UNL     1      -1.149  -4.471  -6.020  1.00  0.00     0.029 A 
ATOM     43  N   UNL     1      -0.103  -4.424  -7.965  1.00  0.00    -0.354 N 
ATOM     44  C   UNL     1       3.393  -1.784  -8.566  1.00  0.00     0.074 A 
ATOM     45  C   UNL     1       4.200  -2.454  -7.574  1.00  0.00     0.031 C 
ATOM     46  C   UNL     1      -1.719  -5.421  -6.809  1.00  0.00     0.029 A 
ATOM     47  C   UNL     1      -1.086  -5.382  -8.119  1.00  0.00     0.049 A 
ATOM     48  H   UNL     1       0.485  -4.148  -8.705  1.00  0.00     0.167 HD
ATOM     49  C   UNL     1       3.693  -1.240  -9.770  1.00  0.00     0.031 A 
ATOM     50  C   UNL     1      -1.379  -6.044  -9.266  1.00  0.00     0.031 A 
ATOM     51  C   UNL     1       2.576  -0.517 -10.328  1.00  0.00     0.049 A 
ATOM     52  C   UNL     1      -0.948  -5.176 -10.390  1.00  0.00     0.074 A 
ATOM     53  C   UNL     1       1.896   0.628  -9.957  1.00  0.00     0.029 A 
ATOM     54  N   UNL     1       1.732  -1.203 -11.172  1.00  0.00    -0.354 N 
ATOM     55  N   UNL     1      -1.553  -4.067 -10.705  1.00  0.00    -0.248 NA
ATOM     56  C   UNL     1       0.408  -5.314 -10.898  1.00  0.00     0.031 C 
ATOM     57  C   UNL     1       0.524   0.355 -10.229  1.00  0.00     0.029 A 
ATOM     58  C   UNL     1       0.439  -0.915 -10.804  1.00  0.00     0.049 A 
ATOM     59  H   UNL     1       2.006  -1.795 -11.909  1.00  0.00     0.167 HD
ATOM     60  C   UNL     1      -0.532  -3.196 -11.056  1.00  0.00     0.074 A 
ATOM     61  C   UNL     1       0.642  -4.045 -11.244  1.00  0.00     0.031 C 
ATOM     62  C   UNL     1      -0.669  -1.845 -10.905  1.00  0.00     0.031 A 
BRANCH  49  63
ATOM     63  C   UNL     1       4.877  -1.698 -10.557  1.00  0.00    -0.014 A 
ATOM     64  C   UNL     1       5.569  -2.891 -10.265  1.00  0.00     0.009 A 
ATOM     65  C   UNL     1       5.169  -1.072 -11.775  1.00  0.00     0.009 A 
ATOM     66  C   UNL     1       6.507  -3.438 -11.136  1.00  0.00     0.001 A 
ATOM     67  C   UNL     1       6.080  -1.639 -12.672  1.00  0.00     0.001 A 
ATOM     68  C   UNL     1       6.746  -2.821 -12.353  1.00  0.00     0.000 A 
ENDBRANCH  49  63
BRANCH  50  69
ATOM     69  C   UNL     1      -1.501  -7.509  -9.445  1.00  0.00    -0.014 A 
ATOM     70  C   UNL     1      -0.879  -8.391  -8.544  1.00  0.00     0.009 A 
ATOM     71  C   UNL     1      -1.950  -8.032 -10.671  1.00  0.00     0.009 A 
ATOM     72  C   UNL     1      -0.661  -9.732  -8.881  1.00  0.00     0.001 A 
ATOM     73  C   UNL     1      -1.731  -9.374 -11.007  1.00  0.00     0.001 A 
ATOM     74  C   UNL     1      -1.070 -10.219 -10.119  1.00  0.00     0.000 A 
ENDBRANCH  50  69
BRANCH  62  75
ATOM     75  C   UNL     1      -2.042  -1.299 -10.572  1.00  0.00    -0.014 A 
ATOM     76  C   UNL     1      -2.537  -0.239 -11.349  1.00  0.00     0.009 A 
ATOM     77  C   UNL     1      -2.776  -1.683  -9.435  1.00  0.00     0.009 A 
ATOM     78  C   UNL     1      -3.713   0.428 -10.996  1.00  0.00     0.001 A 
ATOM     79  C   UNL     1      -3.971  -1.034  -9.098  1.00  0.00     0.001 A 
ATOM     80  C   UNL     1      -4.431   0.029  -9.872  1.00  0.00     0.000 A 
ENDBRANCH  62  75
ENDBRANCH  36  37
ENDBRANCH  29  31
ENDBRANCH  28  29
ENDBRANCH  27  28
ENDBRANCH   1  27
TORSDOF 14
