REMARK SMILES CCC(CC)([NH2+]CC(=O)Nc1ccc(C)cc1)C(=O)OCCOC(=O)c1ccc(-c2c3nc(c(-c4ccccc4)c4ccc([nH]4)c(-c4ccccc4)c4nc(c(-c5ccccc5)c5ccc2[nH]5)C=C4)C=C3)cc1
REMARK SMILES IDX 21 1 20 2 18 3 19 4 3 5 2 6 1 7 4 8 5 9 6 10 7 13 8 14 9 15
REMARK SMILES IDX 10 16 11 18 12 19 17 20 13 21 16 22 14 23 15 24 22 25 23 26
REMARK SMILES IDX 24 27 25 28 26 29 27 30 73 31 28 32 72 33 29 34 30 35 31 36
REMARK SMILES IDX 66 37 32 38 71 39 65 40 67 41 33 42 70 43 64 44 63 45 34 47
REMARK SMILES IDX 56 48 41 49 55 50 42 51 45 52 54 53 68 54 43 55 44 56 53 58
REMARK SMILES IDX 69 59 46 60 35 61 36 62 40 63 37 64 39 65 38 66 57 67 58 68
REMARK SMILES IDX 62 69 59 70 61 71 60 72 47 73 48 74 52 75 49 76 51 77 50 78
REMARK H PARENT 6 11 6 12 10 17 67 46 45 57
REMARK Flexibility Score: inf
ROOT
ATOM      1  C   UNL     1       3.275  -0.657   5.822  1.00  0.00     0.274 C 
ENDROOT
BRANCH   1   2
ATOM      2  O   UNL     1       2.087  -0.373   4.978  1.00  0.00    -0.457 OA
BRANCH   2   3
ATOM      3  C   UNL     1       1.326  -1.083   4.076  1.00  0.00     0.368 C 
ATOM      4  O   UNL     1       1.589  -2.245   3.793  1.00  0.00    -0.245 OA
BRANCH   3   5
ATOM      5  C   UNL     1      -0.089  -0.191   3.499  1.00  0.00     0.194 C 
BRANCH   5   6
ATOM      6  C   UNL     1      -0.943  -1.379   2.883  1.00  0.00     0.077 C 
ATOM      7  C   UNL     1      -0.833  -1.518   1.325  1.00  0.00     0.011 C 
ENDBRANCH   5   6
BRANCH   5   8
ATOM      8  C   UNL     1      -0.629   1.041   2.598  1.00  0.00     0.077 C 
ATOM      9  C   UNL     1      -2.172   1.213   2.542  1.00  0.00     0.011 C 
ENDBRANCH   5   8
BRANCH   5  10
ATOM     10  N   UNL     1      -0.277   0.527   4.757  1.00  0.00    -0.324 N 
ATOM     11  H   UNL     1      -0.117  -0.127   5.523  1.00  0.00     0.347 HD
ATOM     12  H   UNL     1      -1.226   0.898   4.738  1.00  0.00     0.347 HD
BRANCH  10  13
ATOM     13  C   UNL     1       0.650   1.724   4.953  1.00  0.00     0.363 C 
BRANCH  13  14
ATOM     14  C   UNL     1       1.922   2.275   4.026  1.00  0.00     0.279 C 
ATOM     15  O   UNL     1       2.432   3.288   4.543  1.00  0.00    -0.268 OA
ATOM     16  N   UNL     1       2.389   1.571   2.666  1.00  0.00    -0.321 N 
ATOM     17  H   UNL     1       1.620   1.069   2.311  1.00  0.00     0.170 HD
BRANCH  16  18
ATOM     18  C   UNL     1       3.938   1.306   1.389  1.00  0.00     0.041 A 
ATOM     19  C   UNL     1       4.106   0.223   0.324  1.00  0.00     0.026 A 
ATOM     20  C   UNL     1       5.358   1.871   1.391  1.00  0.00     0.026 A 
ATOM     21  C   UNL     1       5.273  -0.414  -0.113  1.00  0.00     0.005 A 
ATOM     22  C   UNL     1       6.544   1.279   0.878  1.00  0.00     0.005 A 
ATOM     23  C   UNL     1       6.504   0.060   0.241  1.00  0.00    -0.051 A 
ATOM     24  C   UNL     1       7.706  -0.742  -0.110  1.00  0.00     0.044 C 
ENDBRANCH  16  18
ENDBRANCH  13  14
ENDBRANCH  10  13
ENDBRANCH   5  10
ENDBRANCH   3   5
ENDBRANCH   2   3
ENDBRANCH   1   2
BRANCH   1  25
ATOM     25  C   UNL     1       4.528  -1.442   5.363  1.00  0.00     0.275 C 
BRANCH  25  26
ATOM     26  O   UNL     1       5.167  -0.940   4.204  1.00  0.00    -0.458 OA
BRANCH  26  27
ATOM     27  C   UNL     1       4.381  -1.207   3.161  1.00  0.00     0.338 C 
ATOM     28  O   UNL     1       4.324  -2.229   2.507  1.00  0.00    -0.246 OA
BRANCH  27  29
ATOM     29  C   UNL     1       3.578  -0.010   2.960  1.00  0.00     0.060 A 
ATOM     30  C   UNL     1       2.314  -0.196   1.655  1.00  0.00     0.016 A 
ATOM     31  C   UNL     1       4.207   1.638   3.470  1.00  0.00     0.016 A 
ATOM     32  C   UNL     1       1.816   1.274   0.693  1.00  0.00     0.010 A 
ATOM     33  C   UNL     1       3.636   3.118   2.508  1.00  0.00     0.010 A 
ATOM     34  C   UNL     1       2.477   2.883   1.122  1.00  0.00    -0.014 A 
BRANCH  34  35
ATOM     35  C   UNL     1       2.503   3.931   0.126  1.00  0.00     0.031 A 
ATOM     36  C   UNL     1       1.933   5.211   0.522  1.00  0.00     0.074 A 
ATOM     37  C   UNL     1       3.543   3.727  -0.711  1.00  0.00     0.049 A 
ATOM     38  N   UNL     1       1.829   6.228  -0.259  1.00  0.00    -0.248 NA
ATOM     39  C   UNL     1       1.284   5.440   1.822  1.00  0.00     0.031 C 
ATOM     40  C   UNL     1       4.747   4.509  -0.949  1.00  0.00     0.029 A 
ATOM     41  N   UNL     1       3.816   2.566  -1.393  1.00  0.00    -0.354 N 
ATOM     42  C   UNL     1       1.776   7.280   0.623  1.00  0.00     0.074 A 
ATOM     43  C   UNL     1       1.077   6.760   1.769  1.00  0.00     0.031 C 
ATOM     44  C   UNL     1       5.537   3.865  -1.842  1.00  0.00     0.029 A 
ATOM     45  C   UNL     1       4.868   2.640  -2.281  1.00  0.00     0.049 A 
ATOM     46  H   UNL     1       3.297   1.740  -1.258  1.00  0.00     0.167 HD
ATOM     47  C   UNL     1       2.707   8.273   0.496  1.00  0.00     0.031 A 
ATOM     48  C   UNL     1       4.627   2.222  -3.557  1.00  0.00     0.031 A 
ATOM     49  C   UNL     1       3.598   8.047  -0.670  1.00  0.00     0.049 A 
ATOM     50  C   UNL     1       4.211   3.461  -4.311  1.00  0.00     0.074 A 
ATOM     51  C   UNL     1       4.970   7.945  -0.848  1.00  0.00     0.029 A 
ATOM     52  N   UNL     1       3.046   7.596  -1.869  1.00  0.00    -0.354 N 
ATOM     53  N   UNL     1       3.823   4.547  -3.699  1.00  0.00    -0.248 NA
ATOM     54  C   UNL     1       4.326   3.647  -5.750  1.00  0.00     0.031 C 
ATOM     55  C   UNL     1       5.216   7.442  -2.168  1.00  0.00     0.029 A 
ATOM     56  C   UNL     1       3.997   7.231  -2.794  1.00  0.00     0.049 A 
ATOM     57  H   UNL     1       2.077   7.544  -2.036  1.00  0.00     0.167 HD
ATOM     58  C   UNL     1       3.790   5.581  -4.569  1.00  0.00     0.074 A 
ATOM     59  C   UNL     1       4.045   4.961  -5.859  1.00  0.00     0.031 C 
ATOM     60  C   UNL     1       3.574   6.858  -4.147  1.00  0.00     0.031 A 
BRANCH  47  61
ATOM     61  C   UNL     1       2.970   9.338   1.547  1.00  0.00    -0.014 A 
ATOM     62  C   UNL     1       3.963  10.304   1.308  1.00  0.00     0.009 A 
ATOM     63  C   UNL     1       2.268   9.487   2.760  1.00  0.00     0.009 A 
ATOM     64  C   UNL     1       4.218  11.356   2.199  1.00  0.00     0.001 A 
ATOM     65  C   UNL     1       2.507  10.542   3.653  1.00  0.00     0.001 A 
ATOM     66  C   UNL     1       3.478  11.486   3.366  1.00  0.00     0.000 A 
ENDBRANCH  47  61
BRANCH  48  67
ATOM     67  C   UNL     1       4.014   0.847  -3.639  1.00  0.00    -0.014 A 
ATOM     68  C   UNL     1       4.884  -0.263  -3.566  1.00  0.00     0.009 A 
ATOM     69  C   UNL     1       2.647   0.601  -3.409  1.00  0.00     0.009 A 
ATOM     70  C   UNL     1       4.423  -1.543  -3.209  1.00  0.00     0.001 A 
ATOM     71  C   UNL     1       2.192  -0.675  -3.018  1.00  0.00     0.001 A 
ATOM     72  C   UNL     1       3.082  -1.740  -2.894  1.00  0.00     0.000 A 
ENDBRANCH  48  67
BRANCH  60  73
ATOM     73  C   UNL     1       2.845   7.873  -4.981  1.00  0.00    -0.014 A 
ATOM     74  C   UNL     1       2.243   7.583  -6.209  1.00  0.00     0.009 A 
ATOM     75  C   UNL     1       2.565   9.139  -4.421  1.00  0.00     0.009 A 
ATOM     76  C   UNL     1       1.437   8.519  -6.861  1.00  0.00     0.001 A 
ATOM     77  C   UNL     1       1.702  10.045  -5.028  1.00  0.00     0.001 A 
ATOM     78  C   UNL     1       1.153   9.741  -6.262  1.00  0.00     0.000 A 
ENDBRANCH  60  73
ENDBRANCH  34  35
ENDBRANCH  27  29
ENDBRANCH  26  27
ENDBRANCH  25  26
ENDBRANCH   1  25
TORSDOF 17
