REMARK SMILES O=C(N/N=C/c1ccc(C(=O)OCCOC(=O)c2ccc(-c3c4nc(c(-c5ccccc5)c5ccc([nH]5)c(-c5ccccc5)c5nc(c(-c6ccccc6)c6ccc3[nH]6)C=C5)C=C4)cc2)cc1)C(=O)Nc1ccc2c(c1)OCO2
REMARK SMILES IDX 13 1 12 2 10 3 11 4 9 5 6 6 7 7 67 8 8 9 66 10 5 11 4 12
REMARK SMILES IDX 3 13 1 14 2 15 68 17 69 18 70 19 71 21 72 22 76 23 73 24
REMARK SMILES IDX 75 25 74 26 77 27 79 28 78 29 14 30 15 31 16 32 17 33 18 34
REMARK SMILES IDX 19 35 65 36 20 37 64 38 21 39 22 40 23 41 58 42 24 43 63 44
REMARK SMILES IDX 57 45 59 46 25 47 62 48 56 49 55 50 26 52 48 53 33 54 47 55
REMARK SMILES IDX 34 56 37 57 46 58 60 59 35 60 36 61 45 63 61 64 38 65 27 66
REMARK SMILES IDX 28 67 32 68 29 69 31 70 30 71 49 72 50 73 54 74 51 75 53 76
REMARK SMILES IDX 52 77 39 78 40 79 44 80 41 81 43 82 42 83
REMARK H PARENT 3 16 70 20 59 51 37 62
REMARK Flexibility Score: inf
ROOT
ATOM      1  C   UNL     1      13.271   0.895  -0.886  1.00  0.00     0.275 C 
ENDROOT
BRANCH   1   2
ATOM      2  O   UNL     1      11.851   1.029  -1.102  1.00  0.00    -0.458 OA
BRANCH   2   3
ATOM      3  C   UNL     1      11.099   0.103  -0.468  1.00  0.00     0.338 C 
ATOM      4  O   UNL     1      11.510  -0.856   0.168  1.00  0.00    -0.246 OA
BRANCH   3   5
ATOM      5  C   UNL     1       9.658   0.390  -0.582  1.00  0.00     0.060 A 
ATOM      6  C   UNL     1       6.590   0.122  -0.812  1.00  0.00    -0.005 A 
ATOM      7  C   UNL     1       7.438   0.179   0.421  1.00  0.00     0.010 A 
ATOM      8  C   UNL     1       7.624   0.538  -1.866  1.00  0.00     0.010 A 
ATOM      9  C   UNL     1       8.847   0.275   0.524  1.00  0.00     0.016 A 
ATOM     10  C   UNL     1       9.044   0.631  -1.778  1.00  0.00     0.016 A 
BRANCH   6  11
ATOM     11  C   UNL     1       4.553  -0.495  -1.019  1.00  0.00     0.141 C 
ATOM     12  N   UNL     1       3.357   0.104  -1.345  1.00  0.00    -0.180 NA
BRANCH  12  13
ATOM     13  N   UNL     1       2.278  -0.491  -0.794  1.00  0.00    -0.239 N 
ATOM     14  O   UNL     1       0.804  -0.779   0.890  1.00  0.00    -0.262 OA
ATOM     15  C   UNL     1       1.878  -0.298   0.523  1.00  0.00     0.329 C 
ATOM     16  H   UNL     1       1.743  -1.097  -1.358  1.00  0.00     0.194 HD
BRANCH  15  17
ATOM     17  C   UNL     1       2.687   0.552   1.549  1.00  0.00     0.315 C 
ATOM     18  O   UNL     1       2.058   1.268   2.331  1.00  0.00    -0.263 OA
ATOM     19  N   UNL     1       4.054   0.394   1.765  1.00  0.00    -0.318 N 
ATOM     20  H   UNL     1       4.373   0.355   2.696  1.00  0.00     0.170 HD
BRANCH  19  21
ATOM     21  C   UNL     1       5.006   0.288   0.741  1.00  0.00     0.045 A 
ATOM     22  C   UNL     1       5.625  -1.423   0.429  1.00  0.00     0.030 A 
ATOM     23  C   UNL     1       4.939   1.512  -0.619  1.00  0.00     0.076 A 
ATOM     24  C   UNL     1       6.026  -1.934  -1.286  1.00  0.00     0.053 A 
ATOM     25  C   UNL     1       5.238   0.928  -2.310  1.00  0.00     0.167 A 
ATOM     26  C   UNL     1       5.721  -0.777  -2.628  1.00  0.00     0.165 A 
ATOM     27  O   UNL     1       4.974   1.479  -3.520  1.00  0.00    -0.454 OA
ATOM     28  O   UNL     1       5.700  -0.937  -3.971  1.00  0.00    -0.454 OA
ATOM     29  C   UNL     1       5.009   0.298  -4.408  1.00  0.00     0.468 C 
ENDBRANCH  19  21
ENDBRANCH  15  17
ENDBRANCH  12  13
ENDBRANCH   6  11
ENDBRANCH   3   5
ENDBRANCH   2   3
ENDBRANCH   1   2
BRANCH   1  30
ATOM     30  C   UNL     1      13.732   1.759   0.292  1.00  0.00     0.275 C 
BRANCH  30  31
ATOM     31  O   UNL     1      13.335   1.196   1.560  1.00  0.00    -0.458 OA
BRANCH  31  32
ATOM     32  C   UNL     1      12.215   1.730   2.094  1.00  0.00     0.338 C 
ATOM     33  O   UNL     1      11.517   2.615   1.622  1.00  0.00    -0.246 OA
BRANCH  32  34
ATOM     34  C   UNL     1      11.850   1.065   3.353  1.00  0.00     0.060 A 
ATOM     35  C   UNL     1      11.027  -0.054   3.296  1.00  0.00     0.016 A 
ATOM     36  C   UNL     1      12.087   1.690   4.574  1.00  0.00     0.016 A 
ATOM     37  C   UNL     1      10.296  -0.440   4.412  1.00  0.00     0.010 A 
ATOM     38  C   UNL     1      11.482   1.186   5.733  1.00  0.00     0.010 A 
ATOM     39  C   UNL     1      10.538   0.145   5.661  1.00  0.00    -0.014 A 
BRANCH  39  40
ATOM     40  C   UNL     1       9.814  -0.339   6.874  1.00  0.00     0.031 A 
ATOM     41  C   UNL     1       9.078   0.626   7.771  1.00  0.00     0.074 A 
ATOM     42  C   UNL     1       9.813  -1.654   7.182  1.00  0.00     0.049 A 
ATOM     43  N   UNL     1       8.572   0.426   8.963  1.00  0.00    -0.248 NA
ATOM     44  C   UNL     1       8.902   2.000   7.271  1.00  0.00     0.031 C 
ATOM     45  C   UNL     1      10.429  -2.720   6.386  1.00  0.00     0.029 A 
ATOM     46  N   UNL     1       9.266  -2.324   8.249  1.00  0.00    -0.354 N 
ATOM     47  C   UNL     1       8.077   1.658   9.380  1.00  0.00     0.074 A 
ATOM     48  C   UNL     1       8.352   2.601   8.317  1.00  0.00     0.031 C 
ATOM     49  C   UNL     1      10.177  -3.905   6.956  1.00  0.00     0.029 A 
ATOM     50  C   UNL     1       9.495  -3.679   8.222  1.00  0.00     0.049 A 
ATOM     51  H   UNL     1       8.758  -1.876   8.965  1.00  0.00     0.167 HD
ATOM     52  C   UNL     1       7.457   1.975  10.543  1.00  0.00     0.031 A 
ATOM     53  C   UNL     1       9.246  -4.637   9.133  1.00  0.00     0.031 A 
ATOM     54  C   UNL     1       7.160   1.026  11.586  1.00  0.00     0.049 A 
ATOM     55  C   UNL     1       8.633  -4.249  10.445  1.00  0.00     0.074 A 
ATOM     56  C   UNL     1       6.530   1.245  12.800  1.00  0.00     0.029 A 
ATOM     57  N   UNL     1       7.464  -0.326  11.534  1.00  0.00    -0.354 N 
ATOM     58  N   UNL     1       8.225  -3.071  10.849  1.00  0.00    -0.248 NA
ATOM     59  C   UNL     1       8.462  -5.322  11.432  1.00  0.00     0.031 C 
ATOM     60  C   UNL     1       6.502   0.036  13.504  1.00  0.00     0.029 A 
ATOM     61  C   UNL     1       7.054  -0.949  12.702  1.00  0.00     0.049 A 
ATOM     62  H   UNL     1       7.905  -0.777  10.779  1.00  0.00     0.167 HD
ATOM     63  C   UNL     1       7.726  -3.265  12.129  1.00  0.00     0.074 A 
ATOM     64  C   UNL     1       7.867  -4.676  12.425  1.00  0.00     0.031 C 
ATOM     65  C   UNL     1       7.200  -2.354  12.983  1.00  0.00     0.031 A 
BRANCH  52  66
ATOM     66  C   UNL     1       7.101   3.421  10.772  1.00  0.00    -0.014 A 
ATOM     67  C   UNL     1       6.087   4.060  10.042  1.00  0.00     0.009 A 
ATOM     68  C   UNL     1       7.780   4.151  11.763  1.00  0.00     0.009 A 
ATOM     69  C   UNL     1       5.793   5.408  10.267  1.00  0.00     0.001 A 
ATOM     70  C   UNL     1       7.462   5.488  12.008  1.00  0.00     0.001 A 
ATOM     71  C   UNL     1       6.477   6.119  11.251  1.00  0.00     0.000 A 
ENDBRANCH  52  66
BRANCH  53  72
ATOM     72  C   UNL     1       9.632  -6.046   8.855  1.00  0.00    -0.014 A 
ATOM     73  C   UNL     1       8.648  -7.030   8.679  1.00  0.00     0.009 A 
ATOM     74  C   UNL     1      10.984  -6.413   8.750  1.00  0.00     0.009 A 
ATOM     75  C   UNL     1       9.011  -8.355   8.422  1.00  0.00     0.001 A 
ATOM     76  C   UNL     1      11.343  -7.729   8.456  1.00  0.00     0.001 A 
ATOM     77  C   UNL     1      10.357  -8.701   8.302  1.00  0.00     0.000 A 
ENDBRANCH  53  72
BRANCH  65  78
ATOM     78  C   UNL     1       6.690  -2.871  14.299  1.00  0.00    -0.014 A 
ATOM     79  C   UNL     1       7.566  -3.306  15.305  1.00  0.00     0.009 A 
ATOM     80  C   UNL     1       5.307  -2.903  14.538  1.00  0.00     0.009 A 
ATOM     81  C   UNL     1       7.064  -3.798  16.512  1.00  0.00     0.001 A 
ATOM     82  C   UNL     1       4.810  -3.364  15.757  1.00  0.00     0.001 A 
ATOM     83  C   UNL     1       5.688  -3.822  16.738  1.00  0.00     0.000 A 
ENDBRANCH  65  78
ENDBRANCH  39  40
ENDBRANCH  32  34
ENDBRANCH  31  32
ENDBRANCH  30  31
ENDBRANCH   1  30
TORSDOF 15
