REMARK SMILES COc1ccc2cc([C@@H](O)[C@H](F)C(=O)OCCOC(=O)c3ccc(-c4c5nc(c(-c6ccccc6)c6ccc([nH]6)c(-c6ccccc6)c6nc(c(-c7ccccc7)c7ccc4[nH]7)C=C6)C=C5)cc3)ccc2c1
REMARK SMILES IDX 16 1 15 2 13 3 14 4 11 5 12 6 9 7 8 8 3 9 4 10 72 11 5 12
REMARK SMILES IDX 71 13 6 14 70 15 7 16 69 17 2 18 1 19 10 20 17 22 18 23
REMARK SMILES IDX 19 24 20 25 21 26 22 27 68 28 23 29 67 30 24 31 25 32 26 33
REMARK SMILES IDX 61 34 27 35 66 36 60 37 62 38 28 39 65 40 59 41 58 42 29 44
REMARK SMILES IDX 51 45 36 46 50 47 37 48 40 49 49 50 63 51 38 52 39 53 48 55
REMARK SMILES IDX 64 56 41 57 30 58 31 59 35 60 32 61 34 62 33 63 52 64 53 65
REMARK SMILES IDX 57 66 54 67 56 68 55 69 42 70 43 71 47 72 44 73 46 74 45 75
REMARK H PARENT 10 21 62 43 40 54
REMARK Flexibility Score: inf
ROOT
ATOM      1  C   UNL     1       1.464  11.701   5.703  1.00  0.00     0.274 C 
ENDROOT
BRANCH   1   2
ATOM      2  O   UNL     1       0.861  10.670   4.899  1.00  0.00    -0.460 OA
BRANCH   2   3
ATOM      3  C   UNL     1       1.604  10.155   3.879  1.00  0.00     0.343 C 
ATOM      4  O   UNL     1       2.705  10.579   3.548  1.00  0.00    -0.249 OA
BRANCH   3   5
ATOM      5  C   UNL     1       0.916   8.956   3.244  1.00  0.00     0.308 C 
ATOM      6  F   UNL     1      -0.353   8.792   3.745  1.00  0.00    -0.232 F 
BRANCH   5   7
ATOM      7  C   UNL     1       0.810   9.139   1.724  1.00  0.00     0.190 C 
BRANCH   7   8
ATOM      8  C   UNL     1       2.093   8.941   0.934  1.00  0.00    -0.015 A 
ATOM      9  C   UNL     1       5.841   7.092  -1.966  1.00  0.00     0.119 A 
ATOM     10  C   UNL     1       5.280   5.991  -1.325  1.00  0.00     0.047 A 
ATOM     11  C   UNL     1       5.394   8.377  -1.660  1.00  0.00     0.055 A 
ATOM     12  C   UNL     1       4.229   6.174  -0.419  1.00  0.00     0.012 A 
ATOM     13  C   UNL     1       4.329   8.574  -0.766  1.00  0.00    -0.015 A 
ATOM     14  C   UNL     1       3.727   7.458  -0.144  1.00  0.00    -0.018 A 
ATOM     15  C   UNL     1       3.833   9.857  -0.496  1.00  0.00     0.009 A 
ATOM     16  C   UNL     1       2.625   7.657   0.711  1.00  0.00     0.015 A 
ATOM     17  C   UNL     1       2.727  10.038   0.339  1.00  0.00     0.007 A 
BRANCH   9  18
ATOM     18  O   UNL     1       6.864   7.003  -2.872  1.00  0.00    -0.497 OA
ATOM     19  C   UNL     1       6.650   6.006  -3.869  1.00  0.00     0.278 C 
ENDBRANCH   9  18
ENDBRANCH   7   8
BRANCH   7  20
ATOM     20  O   UNL     1      -0.156   8.216   1.185  1.00  0.00    -0.385 OA
ATOM     21  H   UNL     1       0.157   7.308   1.316  1.00  0.00     0.211 HD
ENDBRANCH   7  20
ENDBRANCH   5   7
ENDBRANCH   3   5
ENDBRANCH   2   3
ENDBRANCH   1   2
BRANCH   1  22
ATOM     22  C   UNL     1       2.027  11.127   7.008  1.00  0.00     0.275 C 
BRANCH  22  23
ATOM     23  O   UNL     1       3.257  10.408   6.793  1.00  0.00    -0.458 OA
BRANCH  23  24
ATOM     24  C   UNL     1       3.112   9.102   6.471  1.00  0.00     0.338 C 
ATOM     25  O   UNL     1       2.071   8.476   6.366  1.00  0.00    -0.246 OA
BRANCH  24  26
ATOM     26  C   UNL     1       4.416   8.526   6.114  1.00  0.00     0.060 A 
ATOM     27  C   UNL     1       4.532   7.894   4.872  1.00  0.00     0.016 A 
ATOM     28  C   UNL     1       5.485   8.537   7.012  1.00  0.00     0.016 A 
ATOM     29  C   UNL     1       5.715   7.248   4.529  1.00  0.00     0.010 A 
ATOM     30  C   UNL     1       6.676   7.897   6.661  1.00  0.00     0.010 A 
ATOM     31  C   UNL     1       6.791   7.235   5.426  1.00  0.00    -0.014 A 
BRANCH  31  32
ATOM     32  C   UNL     1       8.029   6.505   5.072  1.00  0.00     0.031 A 
ATOM     33  C   UNL     1       8.355   5.204   5.743  1.00  0.00     0.074 A 
ATOM     34  C   UNL     1       8.854   7.012   4.140  1.00  0.00     0.049 A 
ATOM     35  N   UNL     1       9.409   4.441   5.597  1.00  0.00    -0.248 NA
ATOM     36  C   UNL     1       7.370   4.696   6.709  1.00  0.00     0.031 C 
ATOM     37  C   UNL     1       8.631   8.256   3.402  1.00  0.00     0.029 A 
ATOM     38  N   UNL     1      10.050   6.543   3.660  1.00  0.00    -0.354 N 
ATOM     39  C   UNL     1       9.223   3.373   6.465  1.00  0.00     0.074 A 
ATOM     40  C   UNL     1       7.967   3.598   7.149  1.00  0.00     0.031 C 
ATOM     41  C   UNL     1       9.659   8.453   2.562  1.00  0.00     0.029 A 
ATOM     42  C   UNL     1      10.626   7.373   2.732  1.00  0.00     0.049 A 
ATOM     43  H   UNL     1      10.454   5.695   3.953  1.00  0.00     0.167 HD
ATOM     44  C   UNL     1      10.027   2.302   6.671  1.00  0.00     0.031 A 
ATOM     45  C   UNL     1      11.814   7.287   2.106  1.00  0.00     0.031 A 
ATOM     46  C   UNL     1      11.278   2.084   5.994  1.00  0.00     0.049 A 
ATOM     47  C   UNL     1      12.710   6.115   2.383  1.00  0.00     0.074 A 
ATOM     48  C   UNL     1      12.149   1.015   6.111  1.00  0.00     0.029 A 
ATOM     49  N   UNL     1      11.842   2.960   5.078  1.00  0.00    -0.354 N 
ATOM     50  N   UNL     1      12.513   5.098   3.186  1.00  0.00    -0.248 NA
ATOM     51  C   UNL     1      13.990   6.077   1.663  1.00  0.00     0.031 C 
ATOM     52  C   UNL     1      13.264   1.269   5.304  1.00  0.00     0.029 A 
ATOM     53  C   UNL     1      13.063   2.471   4.645  1.00  0.00     0.049 A 
ATOM     54  H   UNL     1      11.434   3.805   4.780  1.00  0.00     0.167 HD
ATOM     55  C   UNL     1      13.636   4.293   3.062  1.00  0.00     0.074 A 
ATOM     56  C   UNL     1      14.503   4.932   2.091  1.00  0.00     0.031 C 
ATOM     57  C   UNL     1      13.923   3.129   3.694  1.00  0.00     0.031 A 
BRANCH  44  58
ATOM     58  C   UNL     1       9.587   1.308   7.708  1.00  0.00    -0.014 A 
ATOM     59  C   UNL     1       8.501   0.446   7.484  1.00  0.00     0.009 A 
ATOM     60  C   UNL     1      10.273   1.232   8.930  1.00  0.00     0.009 A 
ATOM     61  C   UNL     1       8.085  -0.440   8.480  1.00  0.00     0.001 A 
ATOM     62  C   UNL     1       9.871   0.326   9.914  1.00  0.00     0.001 A 
ATOM     63  C   UNL     1       8.771  -0.500   9.693  1.00  0.00     0.000 A 
ENDBRANCH  44  58
BRANCH  45  64
ATOM     64  C   UNL     1      12.224   8.368   1.177  1.00  0.00    -0.014 A 
ATOM     65  C   UNL     1      12.214   8.164  -0.210  1.00  0.00     0.009 A 
ATOM     66  C   UNL     1      12.586   9.629   1.678  1.00  0.00     0.009 A 
ATOM     67  C   UNL     1      12.568   9.201  -1.077  1.00  0.00     0.001 A 
ATOM     68  C   UNL     1      12.916  10.670   0.809  1.00  0.00     0.001 A 
ATOM     69  C   UNL     1      12.911  10.454  -0.568  1.00  0.00     0.000 A 
ENDBRANCH  45  64
BRANCH  57  70
ATOM     70  C   UNL     1      15.226   2.468   3.347  1.00  0.00    -0.014 A 
ATOM     71  C   UNL     1      16.446   2.978   3.818  1.00  0.00     0.009 A 
ATOM     72  C   UNL     1      15.231   1.301   2.566  1.00  0.00     0.009 A 
ATOM     73  C   UNL     1      17.648   2.348   3.489  1.00  0.00     0.001 A 
ATOM     74  C   UNL     1      16.432   0.660   2.260  1.00  0.00     0.001 A 
ATOM     75  C   UNL     1      17.639   1.188   2.714  1.00  0.00     0.000 A 
ENDBRANCH  57  70
ENDBRANCH  31  32
ENDBRANCH  24  26
ENDBRANCH  23  24
ENDBRANCH  22  23
ENDBRANCH   1  22
TORSDOF 15
