REMARK SMILES CCc1ccc(S(=O)(=O)CC(=O)OCCOC(=O)c2ccc(-c3c4nc(c(-c5ccccc5)c5ccc([nH]5)c(-c5ccccc5)c5nc(c(-c6ccccc6)c6ccc3[nH]6)C=C5)C=C4)cc2)cc1
REMARK SMILES IDX 14 1 13 2 11 3 12 4 10 5 7 6 8 7 9 8 6 9 3 10 4 11 68 12
REMARK SMILES IDX 5 13 67 14 2 15 1 16 15 17 16 18 17 19 18 20 19 21 20 22
REMARK SMILES IDX 66 23 21 24 65 25 22 26 23 27 24 28 59 29 25 30 64 31 58 32
REMARK SMILES IDX 60 33 26 34 63 35 57 36 56 37 27 39 49 40 34 41 48 42 35 43
REMARK SMILES IDX 38 44 47 45 61 46 36 47 37 48 46 50 62 51 39 52 28 53 29 54
REMARK SMILES IDX 33 55 30 56 32 57 31 58 50 59 51 60 55 61 52 62 54 63 53 64
REMARK SMILES IDX 40 65 41 66 45 67 42 68 44 69 43 70
REMARK H PARENT 60 38 38 49
REMARK Flexibility Score: inf
ROOT
ATOM      1  C   UNL     1       5.543  -4.617   3.497  1.00  0.00     0.274 C 
ENDROOT
BRANCH   1   2
ATOM      2  O   UNL     1       4.238  -5.187   3.252  1.00  0.00    -0.461 OA
BRANCH   2   3
ATOM      3  C   UNL     1       3.474  -5.381   4.348  1.00  0.00     0.321 C 
ATOM      4  O   UNL     1       3.794  -5.011   5.477  1.00  0.00    -0.251 OA
BRANCH   3   5
ATOM      5  C   UNL     1       2.194  -6.103   4.154  1.00  0.00     0.264 C 
BRANCH   5   6
ATOM      6  S   UNL     1       1.709  -6.506   2.526  1.00  0.00     0.189 S 
ATOM      7  O   UNL     1       0.444  -7.213   2.645  1.00  0.00    -0.223 OA
ATOM      8  O   UNL     1       2.824  -7.145   1.853  1.00  0.00    -0.223 OA
BRANCH   6   9
ATOM      9  C   UNL     1       1.312  -5.009   1.657  1.00  0.00     0.067 A 
ATOM     10  C   UNL     1       0.570  -2.734   0.193  1.00  0.00    -0.048 A 
ATOM     11  C   UNL     1       1.286  -3.772  -0.418  1.00  0.00     0.005 A 
ATOM     12  C   UNL     1       0.212  -2.862   1.543  1.00  0.00     0.005 A 
ATOM     13  C   UNL     1       1.662  -4.903   0.309  1.00  0.00     0.020 A 
ATOM     14  C   UNL     1       0.571  -3.999   2.273  1.00  0.00     0.020 A 
BRANCH  10  15
ATOM     15  C   UNL     1       0.172  -1.514  -0.603  1.00  0.00     0.032 C 
ATOM     16  C   UNL     1       0.824  -0.236  -0.093  1.00  0.00     0.009 C 
ENDBRANCH  10  15
ENDBRANCH   6   9
ENDBRANCH   5   6
ENDBRANCH   3   5
ENDBRANCH   2   3
ENDBRANCH   1   2
BRANCH   1  17
ATOM     17  C   UNL     1       5.558  -3.118   3.218  1.00  0.00     0.275 C 
BRANCH  17  18
ATOM     18  O   UNL     1       4.485  -2.479   3.932  1.00  0.00    -0.458 OA
BRANCH  18  19
ATOM     19  C   UNL     1       3.626  -1.769   3.169  1.00  0.00     0.338 C 
ATOM     20  O   UNL     1       3.707  -1.554   1.969  1.00  0.00    -0.246 OA
BRANCH  19  21
ATOM     21  C   UNL     1       2.537  -1.227   4.000  1.00  0.00     0.060 A 
ATOM     22  C   UNL     1       1.845  -2.028   4.913  1.00  0.00     0.016 A 
ATOM     23  C   UNL     1       2.138   0.093   3.783  1.00  0.00     0.016 A 
ATOM     24  C   UNL     1       0.713  -1.528   5.557  1.00  0.00     0.010 A 
ATOM     25  C   UNL     1       1.053   0.616   4.487  1.00  0.00     0.010 A 
ATOM     26  C   UNL     1       0.312  -0.197   5.359  1.00  0.00    -0.014 A 
BRANCH  26  27
ATOM     27  C   UNL     1      -0.871   0.357   6.067  1.00  0.00     0.031 A 
ATOM     28  C   UNL     1      -2.076   0.829   5.298  1.00  0.00     0.074 A 
ATOM     29  C   UNL     1      -0.856   0.462   7.410  1.00  0.00     0.049 A 
ATOM     30  N   UNL     1      -3.145   1.446   5.736  1.00  0.00    -0.248 NA
ATOM     31  C   UNL     1      -2.079   0.580   3.847  1.00  0.00     0.031 C 
ATOM     32  C   UNL     1       0.237   0.032   8.284  1.00  0.00     0.029 A 
ATOM     33  N   UNL     1      -1.794   0.969   8.275  1.00  0.00    -0.354 N 
ATOM     34  C   UNL     1      -3.931   1.687   4.617  1.00  0.00     0.074 A 
ATOM     35  C   UNL     1      -3.215   1.156   3.476  1.00  0.00     0.031 C 
ATOM     36  C   UNL     1      -0.103   0.267   9.560  1.00  0.00     0.029 A 
ATOM     37  C   UNL     1      -1.406   0.921   9.591  1.00  0.00     0.049 A 
ATOM     38  H   UNL     1      -2.660   1.331   7.980  1.00  0.00     0.167 HD
ATOM     39  C   UNL     1      -5.138   2.297   4.543  1.00  0.00     0.031 A 
ATOM     40  C   UNL     1      -2.013   1.380  10.701  1.00  0.00     0.031 A 
ATOM     41  C   UNL     1      -5.864   2.816   5.672  1.00  0.00     0.049 A 
ATOM     42  C   UNL     1      -3.330   2.087  10.588  1.00  0.00     0.074 A 
ATOM     43  C   UNL     1      -7.103   3.433   5.691  1.00  0.00     0.029 A 
ATOM     44  N   UNL     1      -5.418   2.776   6.983  1.00  0.00    -0.354 N 
ATOM     45  N   UNL     1      -4.048   2.324   9.518  1.00  0.00    -0.248 NA
ATOM     46  C   UNL     1      -3.912   2.602  11.835  1.00  0.00     0.031 C 
ATOM     47  C   UNL     1      -7.392   3.797   7.011  1.00  0.00     0.029 A 
ATOM     48  C   UNL     1      -6.349   3.373   7.817  1.00  0.00     0.049 A 
ATOM     49  H   UNL     1      -4.565   2.381   7.278  1.00  0.00     0.167 HD
ATOM     50  C   UNL     1      -5.168   3.013   9.962  1.00  0.00     0.074 A 
ATOM     51  C   UNL     1      -5.045   3.137  11.400  1.00  0.00     0.031 C 
ATOM     52  C   UNL     1      -6.204   3.503   9.241  1.00  0.00     0.031 A 
BRANCH  39  53
ATOM     53  C   UNL     1      -5.747   2.464   3.181  1.00  0.00    -0.014 A 
ATOM     54  C   UNL     1      -6.364   1.390   2.524  1.00  0.00     0.009 A 
ATOM     55  C   UNL     1      -5.750   3.729   2.573  1.00  0.00     0.009 A 
ATOM     56  C   UNL     1      -6.956   1.575   1.272  1.00  0.00     0.001 A 
ATOM     57  C   UNL     1      -6.359   3.916   1.331  1.00  0.00     0.001 A 
ATOM     58  C   UNL     1      -6.957   2.838   0.679  1.00  0.00     0.000 A 
ENDBRANCH  39  53
BRANCH  40  59
ATOM     59  C   UNL     1      -1.355   1.211  12.020  1.00  0.00    -0.014 A 
ATOM     60  C   UNL     1      -1.836   0.267  12.938  1.00  0.00     0.009 A 
ATOM     61  C   UNL     1      -0.232   1.983  12.357  1.00  0.00     0.009 A 
ATOM     62  C   UNL     1      -1.210   0.106  14.175  1.00  0.00     0.001 A 
ATOM     63  C   UNL     1       0.405   1.803  13.585  1.00  0.00     0.001 A 
ATOM     64  C   UNL     1      -0.087   0.869  14.495  1.00  0.00     0.000 A 
ENDBRANCH  40  59
BRANCH  52  65
ATOM     65  C   UNL     1      -7.285   4.209  10.005  1.00  0.00    -0.014 A 
ATOM     66  C   UNL     1      -7.096   5.517  10.477  1.00  0.00     0.009 A 
ATOM     67  C   UNL     1      -8.507   3.564  10.245  1.00  0.00     0.009 A 
ATOM     68  C   UNL     1      -8.102   6.154  11.205  1.00  0.00     0.001 A 
ATOM     69  C   UNL     1      -9.518   4.212  10.956  1.00  0.00     0.001 A 
ATOM     70  C   UNL     1      -9.312   5.502  11.442  1.00  0.00     0.000 A 
ENDBRANCH  52  65
ENDBRANCH  26  27
ENDBRANCH  19  21
ENDBRANCH  18  19
ENDBRANCH  17  18
ENDBRANCH   1  17
TORSDOF 14
