REMARK SMILES O=C(C[C@@H]([NH2+]Cc1ccccc1)C(=O)OCCOC(=O)c1ccc(-c2c3nc(c(-c4ccccc4)c4ccc([nH]4)c(-c4ccccc4)c4nc(c(-c5ccccc5)c5ccc2[nH]5)C=C4)C=C3)cc1)Nc1cccc(Cl)c1Cl
REMARK SMILES IDX 16 1 15 2 13 3 14 4 4 5 3 6 2 7 1 8 69 9 70 11 71 12 76 13
REMARK SMILES IDX 72 14 74 15 77 16 73 17 75 18 5 19 6 22 7 23 8 24 12 25 9 26
REMARK SMILES IDX 11 27 10 28 17 29 18 30 19 31 20 32 21 33 22 34 68 35 23 36
REMARK SMILES IDX 67 37 24 38 25 39 26 40 61 41 27 42 66 43 60 44 62 45 28 46
REMARK SMILES IDX 65 47 59 48 58 49 29 51 51 52 36 53 50 54 37 55 40 56 49 57
REMARK SMILES IDX 63 58 38 59 39 60 48 62 64 63 41 64 30 65 31 66 35 67 32 68
REMARK SMILES IDX 34 69 33 70 52 71 53 72 57 73 54 74 56 75 55 76 42 77 43 78
REMARK SMILES IDX 47 79 44 80 46 81 45 82
REMARK H PARENT 69 10 5 20 5 21 62 50 40 61
REMARK Flexibility Score: inf
ROOT
ATOM      1  C   UNL     1       6.044  -4.181   1.331  1.00  0.00     0.274 C 
ENDROOT
BRANCH   1   2
ATOM      2  O   UNL     1       5.402  -2.931   1.005  1.00  0.00    -0.458 OA
BRANCH   2   3
ATOM      3  C   UNL     1       5.189  -2.713  -0.321  1.00  0.00     0.365 C 
ATOM      4  O   UNL     1       5.556  -3.490  -1.199  1.00  0.00    -0.245 OA
BRANCH   3   5
ATOM      5  C   UNL     1       4.439  -1.399  -0.620  1.00  0.00     0.303 C 
BRANCH   5   6
ATOM      6  C   UNL     1       3.712  -0.844   0.616  1.00  0.00     0.177 C 
BRANCH   6   7
ATOM      7  C   UNL     1       2.642   0.138   0.191  1.00  0.00     0.231 C 
ATOM      8  O   UNL     1       1.510  -0.228  -0.106  1.00  0.00    -0.274 OA
ATOM      9  N   UNL     1       3.138   1.423   0.026  1.00  0.00    -0.325 N 
ATOM     10  H   UNL     1       4.085   1.583   0.238  1.00  0.00     0.169 HD
BRANCH   9  11
ATOM     11  C   UNL     1       2.366   2.514  -0.429  1.00  0.00     0.061 A 
ATOM     12  C   UNL     1       2.927   3.263  -1.476  1.00  0.00     0.028 A 
ATOM     13  C   UNL     1       1.125   2.900   0.119  1.00  0.00     0.083 A 
ATOM     14  C   UNL     1       2.239   4.341  -2.027  1.00  0.00     0.004 A 
ATOM     15  C   UNL     1       0.451   4.005  -0.429  1.00  0.00     0.061 A 
ATOM     16  Cl  UNL     1       0.526   2.161   1.574  1.00  0.00    -0.080 Cl
ATOM     17  C   UNL     1       1.001   4.710  -1.506  1.00  0.00     0.022 A 
ATOM     18  Cl  UNL     1      -1.051   4.594   0.202  1.00  0.00    -0.083 Cl
ENDBRANCH   9  11
ENDBRANCH   6   7
ENDBRANCH   5   6
BRANCH   5  19
ATOM     19  N   UNL     1       5.315  -0.346  -1.229  1.00  0.00    -0.330 N 
ATOM     20  H   UNL     1       6.006  -0.063  -0.534  1.00  0.00     0.347 HD
ATOM     21  H   UNL     1       4.700   0.418  -1.510  1.00  0.00     0.347 HD
BRANCH  19  22
ATOM     22  C   UNL     1       6.032  -0.782  -2.443  1.00  0.00     0.298 C 
BRANCH  22  23
ATOM     23  C   UNL     1       5.130  -1.182  -3.590  1.00  0.00     0.006 A 
ATOM     24  C   UNL     1       4.203  -0.284  -4.143  1.00  0.00     0.009 A 
ATOM     25  C   UNL     1       5.213  -2.474  -4.127  1.00  0.00     0.009 A 
ATOM     26  C   UNL     1       3.359  -0.685  -5.181  1.00  0.00     0.001 A 
ATOM     27  C   UNL     1       4.376  -2.869  -5.171  1.00  0.00     0.001 A 
ATOM     28  C   UNL     1       3.442  -1.978  -5.692  1.00  0.00     0.000 A 
ENDBRANCH  22  23
ENDBRANCH  19  22
ENDBRANCH   5  19
ENDBRANCH   3   5
ENDBRANCH   2   3
ENDBRANCH   1   2
BRANCH   1  29
ATOM     29  C   UNL     1       5.040  -5.296   1.648  1.00  0.00     0.275 C 
BRANCH  29  30
ATOM     30  O   UNL     1       4.259  -5.692   0.503  1.00  0.00    -0.458 OA
BRANCH  30  31
ATOM     31  C   UNL     1       3.089  -5.024   0.354  1.00  0.00     0.338 C 
ATOM     32  O   UNL     1       2.648  -4.154   1.086  1.00  0.00    -0.246 OA
BRANCH  31  33
ATOM     33  C   UNL     1       2.450  -5.381  -0.924  1.00  0.00     0.060 A 
ATOM     34  C   UNL     1       2.151  -4.343  -1.812  1.00  0.00     0.016 A 
ATOM     35  C   UNL     1       2.067  -6.691  -1.217  1.00  0.00     0.016 A 
ATOM     36  C   UNL     1       1.483  -4.605  -3.003  1.00  0.00     0.010 A 
ATOM     37  C   UNL     1       1.374  -6.952  -2.406  1.00  0.00     0.010 A 
ATOM     38  C   UNL     1       1.075  -5.909  -3.300  1.00  0.00    -0.014 A 
BRANCH  38  39
ATOM     39  C   UNL     1       0.277  -6.156  -4.522  1.00  0.00     0.031 A 
ATOM     40  C   UNL     1      -1.215  -6.266  -4.426  1.00  0.00     0.074 A 
ATOM     41  C   UNL     1       0.889  -6.234  -5.717  1.00  0.00     0.049 A 
ATOM     42  N   UNL     1      -2.083  -6.542  -5.366  1.00  0.00    -0.248 NA
ATOM     43  C   UNL     1      -1.808  -6.036  -3.100  1.00  0.00     0.031 C 
ATOM     44  C   UNL     1       2.325  -6.075  -5.938  1.00  0.00     0.029 A 
ATOM     45  N   UNL     1       0.377  -6.456  -6.969  1.00  0.00    -0.354 N 
ATOM     46  C   UNL     1      -3.323  -6.542  -4.741  1.00  0.00     0.074 A 
ATOM     47  C   UNL     1      -3.095  -6.241  -3.344  1.00  0.00     0.031 C 
ATOM     48  C   UNL     1       2.579  -6.189  -7.253  1.00  0.00     0.029 A 
ATOM     49  C   UNL     1       1.332  -6.485  -7.954  1.00  0.00     0.049 A 
ATOM     50  H   UNL     1      -0.584  -6.583  -7.145  1.00  0.00     0.167 HD
ATOM     51  C   UNL     1      -4.540  -6.781  -5.285  1.00  0.00     0.031 A 
ATOM     52  C   UNL     1       1.217  -6.752  -9.269  1.00  0.00     0.031 A 
ATOM     53  C   UNL     1      -4.761  -7.088  -6.673  1.00  0.00     0.049 A 
ATOM     54  C   UNL     1      -0.136  -7.089  -9.832  1.00  0.00     0.074 A 
ATOM     55  C   UNL     1      -5.955  -7.364  -7.316  1.00  0.00     0.029 A 
ATOM     56  N   UNL     1      -3.762  -7.161  -7.631  1.00  0.00    -0.354 N 
ATOM     57  N   UNL     1      -1.299  -7.113  -9.228  1.00  0.00    -0.248 NA
ATOM     58  C   UNL     1      -0.189  -7.450 -11.256  1.00  0.00     0.031 C 
ATOM     59  C   UNL     1      -5.672  -7.649  -8.657  1.00  0.00     0.029 A 
ATOM     60  C   UNL     1      -4.309  -7.500  -8.857  1.00  0.00     0.049 A 
ATOM     61  H   UNL     1      -2.806  -6.996  -7.465  1.00  0.00     0.167 HD
ATOM     62  C   UNL     1      -2.223  -7.478 -10.198  1.00  0.00     0.074 A 
ATOM     63  C   UNL     1      -1.488  -7.646 -11.436  1.00  0.00     0.031 C 
ATOM     64  C   UNL     1      -3.560  -7.663 -10.076  1.00  0.00     0.031 A 
BRANCH  51  65
ATOM     65  C   UNL     1      -5.720  -6.775  -4.356  1.00  0.00    -0.014 A 
ATOM     66  C   UNL     1      -6.243  -5.579  -3.843  1.00  0.00     0.009 A 
ATOM     67  C   UNL     1      -6.329  -7.991  -4.007  1.00  0.00     0.009 A 
ATOM     68  C   UNL     1      -7.335  -5.603  -2.972  1.00  0.00     0.001 A 
ATOM     69  C   UNL     1      -7.434  -8.010  -3.155  1.00  0.00     0.001 A 
ATOM     70  C   UNL     1      -7.931  -6.818  -2.632  1.00  0.00     0.000 A 
ENDBRANCH  51  65
BRANCH  52  71
ATOM     71  C   UNL     1       2.423  -6.758 -10.137  1.00  0.00    -0.014 A 
ATOM     72  C   UNL     1       2.604  -5.772 -11.117  1.00  0.00     0.009 A 
ATOM     73  C   UNL     1       3.394  -7.763  -9.997  1.00  0.00     0.009 A 
ATOM     74  C   UNL     1       3.723  -5.803 -11.953  1.00  0.00     0.001 A 
ATOM     75  C   UNL     1       4.526  -7.775 -10.814  1.00  0.00     0.001 A 
ATOM     76  C   UNL     1       4.685  -6.800 -11.797  1.00  0.00     0.000 A 
ENDBRANCH  52  71
BRANCH  64  77
ATOM     77  C   UNL     1      -4.316  -8.042 -11.316  1.00  0.00    -0.014 A 
ATOM     78  C   UNL     1      -4.246  -9.342 -11.840  1.00  0.00     0.009 A 
ATOM     79  C   UNL     1      -5.148  -7.098 -11.939  1.00  0.00     0.009 A 
ATOM     80  C   UNL     1      -4.976  -9.681 -12.981  1.00  0.00     0.001 A 
ATOM     81  C   UNL     1      -5.895  -7.448 -13.064  1.00  0.00     0.001 A 
ATOM     82  C   UNL     1      -5.803  -8.736 -13.588  1.00  0.00     0.000 A 
ENDBRANCH  64  77
ENDBRANCH  38  39
ENDBRANCH  31  33
ENDBRANCH  30  31
ENDBRANCH  29  30
ENDBRANCH   1  29
TORSDOF 17
