REMARK SMILES CC(=C\c1ccco1)/C=C1/SC(=S)N(CC(=O)OCCOC(=O)c2ccc(-c3c4nc(c(-c5ccccc5)c5ccc([nH]5)c(-c5ccccc5)c5nc(c(-c6ccccc6)c6ccc3[nH]6)C=C5)C=C4)cc2)C1=O
REMARK SMILES IDX 19 1 18 2 16 3 17 4 15 5 14 6 9 7 10 8 11 9 72 10 12 11
REMARK SMILES IDX 73 12 13 13 2 14 1 15 3 16 4 17 5 18 8 19 6 20 7 21 20 22
REMARK SMILES IDX 21 23 22 24 23 25 24 26 25 27 71 28 26 29 70 30 27 31 28 32
REMARK SMILES IDX 29 33 64 34 30 35 69 36 63 37 65 38 31 39 68 40 62 41 61 42
REMARK SMILES IDX 32 44 54 45 39 46 53 47 40 48 43 49 52 50 66 51 41 52 42 53
REMARK SMILES IDX 51 55 67 56 44 57 33 58 34 59 38 60 35 61 37 62 36 63 55 64
REMARK SMILES IDX 56 65 60 66 57 67 59 68 58 69 45 70 46 71 50 72 47 73 49 74
REMARK SMILES IDX 48 75
REMARK H PARENT 65 43 43 54
REMARK Flexibility Score: inf
ROOT
ATOM      1  C   UNL     1       5.260   1.918   3.210  1.00  0.00     0.274 C 
ENDROOT
BRANCH   1   2
ATOM      2  O   UNL     1       5.004   2.341   1.849  1.00  0.00    -0.461 OA
BRANCH   2   3
ATOM      3  C   UNL     1       5.981   2.068   0.945  1.00  0.00     0.326 C 
ATOM      4  O   UNL     1       7.068   1.573   1.232  1.00  0.00    -0.250 OA
BRANCH   3   5
ATOM      5  C   UNL     1       5.643   2.460  -0.493  1.00  0.00     0.250 C 
BRANCH   5   6
ATOM      6  N   UNL     1       4.268   2.860  -0.792  1.00  0.00    -0.282 N 
ATOM      7  C   UNL     1       0.830   1.919  -1.628  1.00  0.00     0.024 C 
ATOM      8  C   UNL     1       2.026   2.513  -1.470  1.00  0.00     0.080 C 
ATOM      9  S   UNL     1       2.196   4.235  -1.457  1.00  0.00    -0.054 SA
ATOM     10  C   UNL     1       3.367   1.899  -1.234  1.00  0.00     0.266 C 
ATOM     11  C   UNL     1       3.830   4.163  -0.805  1.00  0.00     0.148 C 
ATOM     12  O   UNL     1       3.655   0.749  -1.537  1.00  0.00    -0.268 OA
ATOM     13  S   UNL     1       4.660   5.532  -0.335  1.00  0.00    -0.052 S 
BRANCH   7  14
ATOM     14  C   UNL     1       0.469   0.529  -1.365  1.00  0.00    -0.046 C 
ATOM     15  C   UNL     1       0.859   0.008  -0.009  1.00  0.00     0.044 C 
ATOM     16  C   UNL     1      -0.244  -0.190  -2.255  1.00  0.00     0.050 C 
BRANCH  16  17
ATOM     17  C   UNL     1      -0.647  -1.535  -2.006  1.00  0.00     0.126 A 
ATOM     18  C   UNL     1      -1.431  -2.066  -0.983  1.00  0.00     0.050 A 
ATOM     19  O   UNL     1      -0.288  -2.583  -2.825  1.00  0.00    -0.465 OA
ATOM     20  C   UNL     1      -1.482  -3.469  -1.150  1.00  0.00     0.042 A 
ATOM     21  C   UNL     1      -0.773  -3.731  -2.293  1.00  0.00     0.195 A 
ENDBRANCH  16  17
ENDBRANCH   7  14
ENDBRANCH   5   6
ENDBRANCH   3   5
ENDBRANCH   2   3
ENDBRANCH   1   2
BRANCH   1  22
ATOM     22  C   UNL     1       4.469   0.660   3.597  1.00  0.00     0.275 C 
BRANCH  22  23
ATOM     23  O   UNL     1       4.846  -0.491   2.815  1.00  0.00    -0.458 OA
BRANCH  23  24
ATOM     24  C   UNL     1       4.176  -0.564   1.641  1.00  0.00     0.338 C 
ATOM     25  O   UNL     1       3.353   0.244   1.256  1.00  0.00    -0.246 OA
BRANCH  24  26
ATOM     26  C   UNL     1       4.633  -1.690   0.818  1.00  0.00     0.060 A 
ATOM     27  C   UNL     1       5.568  -1.438  -0.187  1.00  0.00     0.016 A 
ATOM     28  C   UNL     1       4.058  -2.954   0.948  1.00  0.00     0.016 A 
ATOM     29  C   UNL     1       5.943  -2.451  -1.063  1.00  0.00     0.010 A 
ATOM     30  C   UNL     1       4.471  -3.986   0.097  1.00  0.00     0.010 A 
ATOM     31  C   UNL     1       5.429  -3.744  -0.904  1.00  0.00    -0.014 A 
BRANCH  31  32
ATOM     32  C   UNL     1       5.994  -4.858  -1.703  1.00  0.00     0.031 A 
ATOM     33  C   UNL     1       5.197  -5.548  -2.768  1.00  0.00     0.074 A 
ATOM     34  C   UNL     1       7.255  -5.252  -1.440  1.00  0.00     0.049 A 
ATOM     35  N   UNL     1       5.516  -6.606  -3.472  1.00  0.00    -0.248 NA
ATOM     36  C   UNL     1       3.879  -4.981  -3.089  1.00  0.00     0.031 C 
ATOM     37  C   UNL     1       8.145  -4.631  -0.454  1.00  0.00     0.029 A 
ATOM     38  N   UNL     1       8.008  -6.266  -1.975  1.00  0.00    -0.354 N 
ATOM     39  C   UNL     1       4.434  -6.845  -4.308  1.00  0.00     0.074 A 
ATOM     40  C   UNL     1       3.446  -5.826  -4.018  1.00  0.00     0.031 C 
ATOM     41  C   UNL     1       9.324  -5.269  -0.464  1.00  0.00     0.029 A 
ATOM     42  C   UNL     1       9.251  -6.381  -1.403  1.00  0.00     0.049 A 
ATOM     43  H   UNL     1       7.689  -6.853  -2.698  1.00  0.00     0.167 HD
ATOM     44  C   UNL     1       4.284  -7.828  -5.230  1.00  0.00     0.031 A 
ATOM     45  C   UNL     1      10.214  -7.304  -1.577  1.00  0.00     0.031 A 
ATOM     46  C   UNL     1       5.271  -8.839  -5.515  1.00  0.00     0.049 A 
ATOM     47  C   UNL     1       9.979  -8.435  -2.533  1.00  0.00     0.074 A 
ATOM     48  C   UNL     1       5.215  -9.859  -6.451  1.00  0.00     0.029 A 
ATOM     49  N   UNL     1       6.488  -8.963  -4.864  1.00  0.00    -0.354 N 
ATOM     50  N   UNL     1       8.948  -8.655  -3.309  1.00  0.00    -0.248 NA
ATOM     51  C   UNL     1      11.034  -9.454  -2.620  1.00  0.00     0.031 C 
ATOM     52  C   UNL     1       6.377 -10.631  -6.329  1.00  0.00     0.029 A 
ATOM     53  C   UNL     1       7.175 -10.064  -5.350  1.00  0.00     0.049 A 
ATOM     54  H   UNL     1       6.816  -8.358  -4.160  1.00  0.00     0.167 HD
ATOM     55  C   UNL     1       9.227  -9.835  -3.981  1.00  0.00     0.074 A 
ATOM     56  C   UNL     1      10.536 -10.272  -3.537  1.00  0.00     0.031 C 
ATOM     57  C   UNL     1       8.464 -10.500  -4.881  1.00  0.00     0.031 A 
BRANCH  44  58
ATOM     58  C   UNL     1       2.982  -7.886  -5.977  1.00  0.00    -0.014 A 
ATOM     59  C   UNL     1       2.690  -6.981  -7.008  1.00  0.00     0.009 A 
ATOM     60  C   UNL     1       2.060  -8.903  -5.683  1.00  0.00     0.009 A 
ATOM     61  C   UNL     1       1.488  -7.078  -7.713  1.00  0.00     0.001 A 
ATOM     62  C   UNL     1       0.869  -9.011  -6.403  1.00  0.00     0.001 A 
ATOM     63  C   UNL     1       0.581  -8.095  -7.413  1.00  0.00     0.000 A 
ENDBRANCH  44  58
BRANCH  45  64
ATOM     64  C   UNL     1      11.461  -7.226  -0.777  1.00  0.00    -0.014 A 
ATOM     65  C   UNL     1      12.675  -6.867  -1.378  1.00  0.00     0.009 A 
ATOM     66  C   UNL     1      11.434  -7.493   0.602  1.00  0.00     0.009 A 
ATOM     67  C   UNL     1      13.842  -6.788  -0.615  1.00  0.00     0.001 A 
ATOM     68  C   UNL     1      12.597  -7.388   1.366  1.00  0.00     0.001 A 
ATOM     69  C   UNL     1      13.801  -7.042   0.756  1.00  0.00     0.000 A 
ENDBRANCH  45  64
BRANCH  57  70
ATOM     70  C   UNL     1       9.034 -11.771  -5.440  1.00  0.00    -0.014 A 
ATOM     71  C   UNL     1       9.057 -12.947  -4.674  1.00  0.00     0.009 A 
ATOM     72  C   UNL     1       9.539 -11.798  -6.748  1.00  0.00     0.009 A 
ATOM     73  C   UNL     1       9.601 -14.120  -5.199  1.00  0.00     0.001 A 
ATOM     74  C   UNL     1      10.062 -12.978  -7.279  1.00  0.00     0.001 A 
ATOM     75  C   UNL     1      10.100 -14.135  -6.502  1.00  0.00     0.000 A 
ENDBRANCH  57  70
ENDBRANCH  31  32
ENDBRANCH  24  26
ENDBRANCH  23  24
ENDBRANCH  22  23
ENDBRANCH   1  22
TORSDOF 14
