REMARK SMILES C[C@H](C(=O)NC1CCCC1)[N@H+]1CCn2nc(CCC(=O)OCCOC(=O)c3ccc(-c4c5nc(c(-c6ccccc6)c6ccc([nH]6)c(-c6ccccc6)c6nc(c(-c7ccccc7)c7ccc4[nH]7)C=C6)C=C5)cc3)cc2C1
REMARK SMILES IDX 21 1 19 2 20 3 18 4 17 5 16 6 11 7 12 8 77 9 13 11 76 12
REMARK SMILES IDX 14 13 75 14 15 15 2 16 1 17 3 18 4 19 5 20 6 22 7 23 10 24
REMARK SMILES IDX 8 25 9 26 22 27 23 28 24 29 25 30 26 31 27 32 28 33 74 34
REMARK SMILES IDX 29 35 73 36 30 37 31 38 32 39 67 40 33 41 72 42 66 43 68 44
REMARK SMILES IDX 34 45 71 46 65 47 64 48 35 50 57 51 42 52 56 53 43 54 46 55
REMARK SMILES IDX 55 56 69 57 44 58 45 59 54 61 70 62 47 63 36 64 37 65 41 66
REMARK SMILES IDX 38 67 40 68 39 69 58 70 59 71 63 72 60 73 62 74 61 75 48 76
REMARK SMILES IDX 49 77 53 78 50 79 52 80 51 81
REMARK H PARENT 11 10 5 21 68 49 46 60
REMARK Flexibility Score: inf
ROOT
ATOM      1  O   UNL     1      -2.631   2.751  -4.984  1.00  0.00    -0.462 OA
ENDROOT
BRANCH   1   2
ATOM      2  C   UNL     1      -3.254   3.830  -5.524  1.00  0.00     0.306 C 
ATOM      3  O   UNL     1      -3.847   3.816  -6.598  1.00  0.00    -0.252 OA
BRANCH   2   4
ATOM      4  C   UNL     1      -3.024   5.102  -4.716  1.00  0.00     0.129 C 
BRANCH   4   5
ATOM      5  C   UNL     1      -3.873   5.302  -3.447  1.00  0.00     0.070 C 
BRANCH   5   6
ATOM      6  C   UNL     1      -3.354   4.493  -2.310  1.00  0.00     0.064 A 
ATOM      7  N   UNL     1      -0.087   2.095  -0.456  1.00  0.00    -0.318 N 
ATOM      8  C   UNL     1      -0.700   1.195  -1.411  1.00  0.00     0.287 C 
ATOM      9  C   UNL     1      -1.022   3.051   0.186  1.00  0.00     0.319 C 
ATOM     10  H   UNL     1       0.541   2.690  -0.996  1.00  0.00     0.349 HD
ATOM     11  C   UNL     1      -1.703   1.749  -2.367  1.00  0.00     0.206 C 
ATOM     12  C   UNL     1      -2.021   3.577  -0.784  1.00  0.00     0.093 A 
ATOM     13  N   UNL     1      -2.544   2.700  -1.688  1.00  0.00    -0.258 N 
ATOM     14  C   UNL     1      -2.495   4.808  -1.215  1.00  0.00     0.055 A 
ATOM     15  N   UNL     1      -3.584   3.182  -2.342  1.00  0.00    -0.177 NA
BRANCH   7  16
ATOM     16  C   UNL     1       0.713   1.327   0.547  1.00  0.00     0.271 C 
ATOM     17  C   UNL     1       2.089   2.019   0.418  1.00  0.00     0.086 C 
BRANCH  16  18
ATOM     18  C   UNL     1       0.917  -0.214   0.261  1.00  0.00     0.278 C 
ATOM     19  O   UNL     1       2.062  -0.637   0.021  1.00  0.00    -0.268 OA
ATOM     20  N   UNL     1      -0.002  -1.220   0.236  1.00  0.00    -0.348 N 
ATOM     21  H   UNL     1       0.435  -2.016  -0.145  1.00  0.00     0.163 HD
BRANCH  20  22
ATOM     22  C   UNL     1      -1.414  -1.588   0.562  1.00  0.00     0.082 C 
ATOM     23  C   UNL     1      -2.545  -1.169  -0.398  1.00  0.00     0.025 C 
ATOM     24  C   UNL     1      -1.532  -3.125   0.429  1.00  0.00     0.025 C 
ATOM     25  C   UNL     1      -3.672  -2.172  -0.222  1.00  0.00     0.002 C 
ATOM     26  C   UNL     1      -2.996  -3.468   0.171  1.00  0.00     0.002 C 
ENDBRANCH  20  22
ENDBRANCH  16  18
ENDBRANCH   7  16
ENDBRANCH   5   6
ENDBRANCH   4   5
ENDBRANCH   2   4
ENDBRANCH   1   2
BRANCH   1  27
ATOM     27  C   UNL     1      -2.737   1.467  -5.637  1.00  0.00     0.274 C 
BRANCH  27  28
ATOM     28  C   UNL     1      -3.952   0.654  -5.197  1.00  0.00     0.275 C 
BRANCH  28  29
ATOM     29  O   UNL     1      -5.129   1.082  -5.884  1.00  0.00    -0.458 OA
BRANCH  29  30
ATOM     30  C   UNL     1      -5.797   2.057  -5.237  1.00  0.00     0.338 C 
ATOM     31  O   UNL     1      -5.485   2.629  -4.216  1.00  0.00    -0.246 OA
BRANCH  30  32
ATOM     32  C   UNL     1      -7.096   2.293  -5.839  1.00  0.00     0.060 A 
ATOM     33  C   UNL     1      -7.732   3.498  -5.514  1.00  0.00     0.016 A 
ATOM     34  C   UNL     1      -7.757   1.237  -6.469  1.00  0.00     0.016 A 
ATOM     35  C   UNL     1      -9.087   3.605  -5.714  1.00  0.00     0.010 A 
ATOM     36  C   UNL     1      -9.112   1.340  -6.662  1.00  0.00     0.010 A 
ATOM     37  C   UNL     1      -9.764   2.499  -6.231  1.00  0.00    -0.014 A 
BRANCH  37  38
ATOM     38  C   UNL     1     -11.202   2.596  -6.375  1.00  0.00     0.031 A 
ATOM     39  C   UNL     1     -11.663   3.412  -7.518  1.00  0.00     0.074 A 
ATOM     40  C   UNL     1     -12.027   1.838  -5.632  1.00  0.00     0.049 A 
ATOM     41  N   UNL     1     -12.508   4.388  -7.510  1.00  0.00    -0.248 NA
ATOM     42  C   UNL     1     -11.047   3.152  -8.832  1.00  0.00     0.031 C 
ATOM     43  C   UNL     1     -11.661   0.769  -4.699  1.00  0.00     0.029 A 
ATOM     44  N   UNL     1     -13.382   1.761  -5.689  1.00  0.00    -0.354 N 
ATOM     45  C   UNL     1     -12.652   4.773  -8.838  1.00  0.00     0.074 A 
ATOM     46  C   UNL     1     -11.648   4.066  -9.591  1.00  0.00     0.031 C 
ATOM     47  C   UNL     1     -12.746  -0.006  -4.481  1.00  0.00     0.029 A 
ATOM     48  C   UNL     1     -13.886   0.581  -5.166  1.00  0.00     0.049 A 
ATOM     49  H   UNL     1     -13.949   2.473  -6.065  1.00  0.00     0.167 HD
ATOM     50  C   UNL     1     -13.724   5.489  -9.270  1.00  0.00     0.031 A 
ATOM     51  C   UNL     1     -15.126   0.078  -5.369  1.00  0.00     0.031 A 
ATOM     52  C   UNL     1     -14.418   6.140  -8.195  1.00  0.00     0.049 A 
ATOM     53  C   UNL     1     -15.990   1.167  -5.880  1.00  0.00     0.074 A 
ATOM     54  C   UNL     1     -14.069   7.073  -7.239  1.00  0.00     0.029 A 
ATOM     55  N   UNL     1     -15.598   5.583  -7.765  1.00  0.00    -0.354 N 
ATOM     56  N   UNL     1     -16.386   2.175  -5.160  1.00  0.00    -0.248 NA
ATOM     57  C   UNL     1     -16.098   1.356  -7.320  1.00  0.00     0.031 C 
ATOM     58  C   UNL     1     -14.794   6.699  -6.072  1.00  0.00     0.029 A 
ATOM     59  C   UNL     1     -15.566   5.580  -6.394  1.00  0.00     0.049 A 
ATOM     60  H   UNL     1     -16.329   5.249  -8.334  1.00  0.00     0.167 HD
ATOM     61  C   UNL     1     -16.372   3.259  -6.027  1.00  0.00     0.074 A 
ATOM     62  C   UNL     1     -16.319   2.672  -7.362  1.00  0.00     0.031 C 
ATOM     63  C   UNL     1     -16.109   4.521  -5.573  1.00  0.00     0.031 A 
BRANCH  50  64
ATOM     64  C   UNL     1     -14.341   5.285 -10.626  1.00  0.00    -0.014 A 
ATOM     65  C   UNL     1     -15.358   6.155 -11.049  1.00  0.00     0.009 A 
ATOM     66  C   UNL     1     -14.150   4.110 -11.380  1.00  0.00     0.009 A 
ATOM     67  C   UNL     1     -16.176   5.836 -12.140  1.00  0.00     0.001 A 
ATOM     68  C   UNL     1     -14.934   3.811 -12.496  1.00  0.00     0.001 A 
ATOM     69  C   UNL     1     -15.965   4.663 -12.860  1.00  0.00     0.000 A 
ENDBRANCH  50  64
BRANCH  51  70
ATOM     70  C   UNL     1     -15.546  -1.337  -5.376  1.00  0.00    -0.014 A 
ATOM     71  C   UNL     1     -16.898  -1.681  -5.247  1.00  0.00     0.009 A 
ATOM     72  C   UNL     1     -14.641  -2.353  -5.740  1.00  0.00     0.009 A 
ATOM     73  C   UNL     1     -17.333  -2.988  -5.500  1.00  0.00     0.001 A 
ATOM     74  C   UNL     1     -15.072  -3.660  -5.982  1.00  0.00     0.001 A 
ATOM     75  C   UNL     1     -16.422  -3.974  -5.876  1.00  0.00     0.000 A 
ENDBRANCH  51  70
BRANCH  63  76
ATOM     76  C   UNL     1     -16.084   4.741  -4.079  1.00  0.00    -0.014 A 
ATOM     77  C   UNL     1     -15.218   4.038  -3.222  1.00  0.00     0.009 A 
ATOM     78  C   UNL     1     -16.852   5.781  -3.536  1.00  0.00     0.009 A 
ATOM     79  C   UNL     1     -15.161   4.331  -1.857  1.00  0.00     0.001 A 
ATOM     80  C   UNL     1     -16.776   6.092  -2.176  1.00  0.00     0.001 A 
ATOM     81  C   UNL     1     -15.939   5.361  -1.335  1.00  0.00     0.000 A 
ENDBRANCH  63  76
ENDBRANCH  37  38
ENDBRANCH  30  32
ENDBRANCH  29  30
ENDBRANCH  28  29
ENDBRANCH  27  28
ENDBRANCH   1  27
TORSDOF 16
