REMARK SMILES O=C(OCCOC(=O)c1cccc(Br)c1O[C@@H]1CCOC2(CCC2)C1)c1ccc(-c2c3nc(c(-c4ccccc4)c4ccc([nH]4)c(-c4ccccc4)c4nc(c(-c5ccccc5)c5ccc2[nH]5)C=C4)C=C3)cc1
REMARK SMILES IDX 4 1 3 2 2 3 1 4 26 5 27 6 73 7 28 8 72 9 29 10 30 11 31 12
REMARK SMILES IDX 66 13 32 14 71 15 65 16 67 17 33 18 70 19 64 20 63 21 34 23
REMARK SMILES IDX 56 24 41 25 55 26 42 27 45 28 54 29 68 30 43 31 44 32 53 34
REMARK SMILES IDX 69 35 46 36 35 37 36 38 40 39 37 40 39 41 38 42 57 43 58 44
REMARK SMILES IDX 62 45 59 46 61 47 60 48 47 49 48 50 52 51 49 52 51 53 50 54
REMARK SMILES IDX 5 55 6 56 7 57 8 58 9 59 10 60 15 61 11 62 13 63 12 64 14 65
REMARK SMILES IDX 16 66 17 67 18 68 25 69 19 70 21 71 20 72 22 73 24 74 23 75
REMARK H PARENT 67 22 45 33
REMARK Flexibility Score: inf
ROOT
ATOM      1  C   UNL     1       4.299  -1.915  -0.161  1.00  0.00     0.275 C 
ENDROOT
BRANCH   1   2
ATOM      2  O   UNL     1       3.548  -1.201   0.826  1.00  0.00    -0.458 OA
BRANCH   2   3
ATOM      3  C   UNL     1       3.438   0.125   1.038  1.00  0.00     0.338 C 
ATOM      4  O   UNL     1       2.679   0.490   1.938  1.00  0.00    -0.246 OA
BRANCH   3   5
ATOM      5  C   UNL     1       4.162   1.199   0.265  1.00  0.00     0.060 A 
ATOM      6  C   UNL     1       5.112   1.079  -0.760  1.00  0.00     0.016 A 
ATOM      7  C   UNL     1       3.804   2.500   0.625  1.00  0.00     0.016 A 
ATOM      8  C   UNL     1       5.631   2.203  -1.438  1.00  0.00     0.010 A 
ATOM      9  C   UNL     1       4.292   3.609  -0.062  1.00  0.00     0.010 A 
ATOM     10  C   UNL     1       5.204   3.487  -1.116  1.00  0.00    -0.014 A 
BRANCH  10  11
ATOM     11  C   UNL     1       5.737   4.728  -1.755  1.00  0.00     0.031 A 
ATOM     12  C   UNL     1       6.274   5.815  -0.860  1.00  0.00     0.074 A 
ATOM     13  C   UNL     1       5.636   4.965  -3.080  1.00  0.00     0.049 A 
ATOM     14  N   UNL     1       6.507   7.075  -1.121  1.00  0.00    -0.248 NA
ATOM     15  C   UNL     1       6.492   5.444   0.548  1.00  0.00     0.031 C 
ATOM     16  C   UNL     1       5.113   4.037  -4.079  1.00  0.00     0.029 A 
ATOM     17  N   UNL     1       5.944   6.089  -3.811  1.00  0.00    -0.354 N 
ATOM     18  C   UNL     1       6.804   7.652   0.107  1.00  0.00     0.074 A 
ATOM     19  C   UNL     1       6.609   6.633   1.112  1.00  0.00     0.031 C 
ATOM     20  C   UNL     1       5.123   4.627  -5.287  1.00  0.00     0.029 A 
ATOM     21  C   UNL     1       5.633   5.986  -5.148  1.00  0.00     0.049 A 
ATOM     22  H   UNL     1       6.348   6.894  -3.414  1.00  0.00     0.167 HD
ATOM     23  C   UNL     1       7.269   8.893   0.380  1.00  0.00     0.031 A 
ATOM     24  C   UNL     1       5.747   6.884  -6.147  1.00  0.00     0.031 A 
ATOM     25  C   UNL     1       7.592   9.858  -0.631  1.00  0.00     0.049 A 
ATOM     26  C   UNL     1       6.335   8.238  -5.849  1.00  0.00     0.074 A 
ATOM     27  C   UNL     1       8.205  11.089  -0.489  1.00  0.00     0.029 A 
ATOM     28  N   UNL     1       7.359   9.674  -1.986  1.00  0.00    -0.354 N 
ATOM     29  N   UNL     1       6.687   8.748  -4.694  1.00  0.00    -0.248 NA
ATOM     30  C   UNL     1       6.583   9.123  -6.997  1.00  0.00     0.031 C 
ATOM     31  C   UNL     1       8.337  11.655  -1.762  1.00  0.00     0.029 A 
ATOM     32  C   UNL     1       7.835  10.760  -2.696  1.00  0.00     0.049 A 
ATOM     33  H   UNL     1       6.920   8.887  -2.383  1.00  0.00     0.167 HD
ATOM     34  C   UNL     1       7.253   9.984  -4.980  1.00  0.00     0.074 A 
ATOM     35  C   UNL     1       7.186  10.152  -6.417  1.00  0.00     0.031 C 
ATOM     36  C   UNL     1       7.795  10.889  -4.130  1.00  0.00     0.031 A 
BRANCH  23  37
ATOM     37  C   UNL     1       7.499   9.227   1.829  1.00  0.00    -0.014 A 
ATOM     38  C   UNL     1       8.463   8.541   2.590  1.00  0.00     0.009 A 
ATOM     39  C   UNL     1       6.704  10.193   2.461  1.00  0.00     0.009 A 
ATOM     40  C   UNL     1       8.557   8.742   3.967  1.00  0.00     0.001 A 
ATOM     41  C   UNL     1       6.834  10.428   3.832  1.00  0.00     0.001 A 
ATOM     42  C   UNL     1       7.741   9.686   4.587  1.00  0.00     0.000 A 
ENDBRANCH  23  37
BRANCH  24  43
ATOM     43  C   UNL     1       5.364   6.516  -7.537  1.00  0.00    -0.014 A 
ATOM     44  C   UNL     1       6.355   6.243  -8.495  1.00  0.00     0.009 A 
ATOM     45  C   UNL     1       4.016   6.441  -7.920  1.00  0.00     0.009 A 
ATOM     46  C   UNL     1       6.006   5.934  -9.812  1.00  0.00     0.001 A 
ATOM     47  C   UNL     1       3.669   6.109  -9.233  1.00  0.00     0.001 A 
ATOM     48  C   UNL     1       4.663   5.864 -10.180  1.00  0.00     0.000 A 
ENDBRANCH  24  43
BRANCH  36  49
ATOM     49  C   UNL     1       8.446  12.102  -4.727  1.00  0.00    -0.014 A 
ATOM     50  C   UNL     1       7.691  13.163  -5.244  1.00  0.00     0.009 A 
ATOM     51  C   UNL     1       9.846  12.212  -4.691  1.00  0.00     0.009 A 
ATOM     52  C   UNL     1       8.328  14.307  -5.729  1.00  0.00     0.001 A 
ATOM     53  C   UNL     1      10.478  13.366  -5.153  1.00  0.00     0.001 A 
ATOM     54  C   UNL     1       9.718  14.411  -5.676  1.00  0.00     0.000 A 
ENDBRANCH  36  49
ENDBRANCH  10  11
ENDBRANCH   3   5
ENDBRANCH   2   3
ENDBRANCH   1   2
BRANCH   1  55
ATOM     55  C   UNL     1       3.569  -2.004  -1.499  1.00  0.00     0.275 C 
BRANCH  55  56
ATOM     56  O   UNL     1       3.279  -0.717  -2.075  1.00  0.00    -0.458 OA
BRANCH  56  57
ATOM     57  C   UNL     1       2.017  -0.224  -1.943  1.00  0.00     0.342 C 
ATOM     58  O   UNL     1       1.114  -0.751  -1.295  1.00  0.00    -0.246 OA
BRANCH  57  59
ATOM     59  C   UNL     1       1.869   0.997  -2.792  1.00  0.00     0.103 A 
ATOM     60  C   UNL     1       2.553   0.949  -4.029  1.00  0.00     0.020 A 
ATOM     61  C   UNL     1       0.993   2.076  -2.453  1.00  0.00     0.148 A 
ATOM     62  C   UNL     1       2.397   1.956  -4.958  1.00  0.00     0.002 A 
ATOM     63  C   UNL     1       0.768   3.014  -3.472  1.00  0.00     0.060 A 
ATOM     64  C   UNL     1       1.505   2.974  -4.679  1.00  0.00     0.019 A 
ATOM     65  Br  UNL     1      -0.607   4.308  -3.593  1.00  0.00    -0.047 Br
BRANCH  61  66
ATOM     66  O   UNL     1       0.540   2.013  -1.178  1.00  0.00    -0.488 OA
BRANCH  66  67
ATOM     67  C   UNL     1      -0.321   2.759  -0.314  1.00  0.00     0.178 C 
ATOM     68  C   UNL     1      -1.744   3.054  -0.765  1.00  0.00     0.074 C 
ATOM     69  C   UNL     1       0.295   3.882   0.527  1.00  0.00     0.080 C 
ATOM     70  C   UNL     1      -2.137   4.517  -0.548  1.00  0.00     0.165 C 
ATOM     71  C   UNL     1       0.194   5.250  -0.137  1.00  0.00     0.072 C 
ATOM     72  O   UNL     1      -1.078   5.434  -0.804  1.00  0.00    -0.375 OA
ATOM     73  C   UNL     1       0.589   6.425   0.820  1.00  0.00     0.036 C 
ATOM     74  C   UNL     1       1.440   5.650  -0.977  1.00  0.00     0.036 C 
ATOM     75  C   UNL     1       1.413   7.033  -0.325  1.00  0.00     0.006 C 
ENDBRANCH  66  67
ENDBRANCH  61  66
ENDBRANCH  57  59
ENDBRANCH  56  57
ENDBRANCH  55  56
ENDBRANCH   1  55
TORSDOF 13
