REMARK SMILES CC(C)(C)OC(=O)N[C@@H](Cc1c[nH]c2cccc(Cl)c12)C(=O)OCCOC(=O)c1ccc(-c2c3nc(c(-c4ccccc4)c4ccc([nH]4)c(-c4ccccc4)c4nc(c(-c5ccccc5)c5ccc2[nH]5)C=C4)C=C3)cc1
REMARK SMILES IDX 24 1 23 2 21 3 22 4 9 5 8 6 6 7 7 8 5 10 2 11 1 12 3 13 4 14
REMARK SMILES IDX 10 15 11 16 12 17 20 18 13 19 14 20 18 21 15 23 17 24 19 25
REMARK SMILES IDX 16 26 25 27 26 28 27 29 28 30 29 31 30 32 76 33 31 34 75 35
REMARK SMILES IDX 32 36 33 37 34 38 69 39 35 40 74 41 68 42 70 43 36 44 73 45
REMARK SMILES IDX 67 46 66 47 37 49 59 50 44 51 58 52 45 53 48 54 57 55 71 56
REMARK SMILES IDX 46 57 47 58 56 60 72 61 49 62 38 63 39 64 43 65 40 66 42 67
REMARK SMILES IDX 41 68 60 69 61 70 65 71 62 72 64 73 63 74 50 75 51 76 55 77
REMARK SMILES IDX 52 78 54 79 53 80
REMARK H PARENT 8 9 13 22 70 48 48 59
REMARK Flexibility Score: inf
ROOT
ATOM      1  C   UNL     1       0.514   0.907  -8.032  1.00  0.00     0.274 C 
ENDROOT
BRANCH   1   2
ATOM      2  O   UNL     1       0.992   0.101  -6.935  1.00  0.00    -0.461 OA
BRANCH   2   3
ATOM      3  C   UNL     1       1.660   0.739  -5.925  1.00  0.00     0.329 C 
ATOM      4  O   UNL     1       1.847   1.950  -5.871  1.00  0.00    -0.250 OA
BRANCH   3   5
ATOM      5  C   UNL     1       2.288  -0.252  -4.935  1.00  0.00     0.200 C 
BRANCH   5   6
ATOM      6  N   UNL     1       1.424  -1.410  -4.673  1.00  0.00    -0.308 N 
ATOM      7  C   UNL     1       0.832  -1.797  -3.505  1.00  0.00     0.408 C 
ATOM      8  O   UNL     1       0.131  -2.796  -3.462  1.00  0.00    -0.225 OA
ATOM      9  H   UNL     1       1.246  -1.990  -5.449  1.00  0.00     0.168 HD
BRANCH   7  10
ATOM     10  O   UNL     1       1.124  -0.998  -2.446  1.00  0.00    -0.444 OA
BRANCH  10  11
ATOM     11  C   UNL     1       0.622  -1.320  -1.113  1.00  0.00     0.106 C 
ATOM     12  C   UNL     1       1.060  -0.144  -0.223  1.00  0.00     0.056 C 
ATOM     13  C   UNL     1       1.272  -2.601  -0.579  1.00  0.00     0.056 C 
ATOM     14  C   UNL     1      -0.909  -1.427  -1.055  1.00  0.00     0.056 C 
ENDBRANCH  10  11
ENDBRANCH   7  10
ENDBRANCH   5   6
BRANCH   5  15
ATOM     15  C   UNL     1       3.673  -0.678  -5.490  1.00  0.00     0.075 C 
BRANCH  15  16
ATOM     16  C   UNL     1       3.595  -1.399  -6.819  1.00  0.00    -0.018 A 
ATOM     17  C   UNL     1       3.396  -2.762  -6.943  1.00  0.00     0.087 A 
ATOM     18  C   UNL     1       3.568  -0.851  -8.161  1.00  0.00     0.021 A 
ATOM     19  N   UNL     1       3.128  -3.045  -8.251  1.00  0.00    -0.361 N 
ATOM     20  C   UNL     1       3.140  -1.892  -8.998  1.00  0.00     0.047 A 
ATOM     21  C   UNL     1       3.739   0.412  -8.780  1.00  0.00     0.050 A 
ATOM     22  H   UNL     1       2.951  -3.945  -8.608  1.00  0.00     0.166 HD
ATOM     23  C   UNL     1       2.793  -1.703 -10.346  1.00  0.00     0.027 A 
ATOM     24  C   UNL     1       3.384   0.632 -10.116  1.00  0.00     0.021 A 
ATOM     25  Cl  UNL     1       4.391   1.691  -7.854  1.00  0.00    -0.084 Cl
ATOM     26  C   UNL     1       2.892  -0.417 -10.882  1.00  0.00     0.004 A 
ENDBRANCH  15  16
ENDBRANCH   5  15
ENDBRANCH   3   5
ENDBRANCH   2   3
ENDBRANCH   1   2
BRANCH   1  27
ATOM     27  C   UNL     1      -0.956   1.262  -7.890  1.00  0.00     0.275 C 
BRANCH  27  28
ATOM     28  O   UNL     1      -1.142   2.105  -6.760  1.00  0.00    -0.458 OA
BRANCH  28  29
ATOM     29  C   UNL     1      -1.223   1.406  -5.611  1.00  0.00     0.338 C 
ATOM     30  O   UNL     1      -1.164   0.197  -5.456  1.00  0.00    -0.246 OA
BRANCH  29  31
ATOM     31  C   UNL     1      -1.562   2.294  -4.514  1.00  0.00     0.060 A 
ATOM     32  C   UNL     1      -1.201   1.847  -3.241  1.00  0.00     0.016 A 
ATOM     33  C   UNL     1      -2.638   3.150  -4.754  1.00  0.00     0.016 A 
ATOM     34  C   UNL     1      -2.095   2.052  -2.221  1.00  0.00     0.010 A 
ATOM     35  C   UNL     1      -3.547   3.315  -3.745  1.00  0.00     0.010 A 
ATOM     36  C   UNL     1      -3.303   2.680  -2.526  1.00  0.00    -0.014 A 
BRANCH  36  37
ATOM     37  C   UNL     1      -4.321   2.686  -1.505  1.00  0.00     0.031 A 
ATOM     38  C   UNL     1      -4.108   3.705  -0.462  1.00  0.00     0.074 A 
ATOM     39  C   UNL     1      -5.426   1.928  -1.606  1.00  0.00     0.049 A 
ATOM     40  N   UNL     1      -4.013   3.540   0.815  1.00  0.00    -0.248 NA
ATOM     41  C   UNL     1      -3.853   5.078  -0.929  1.00  0.00     0.031 C 
ATOM     42  C   UNL     1      -5.874   1.132  -2.752  1.00  0.00     0.029 A 
ATOM     43  N   UNL     1      -6.468   1.846  -0.739  1.00  0.00    -0.354 N 
ATOM     44  C   UNL     1      -3.825   4.815   1.329  1.00  0.00     0.074 A 
ATOM     45  C   UNL     1      -3.581   5.695   0.215  1.00  0.00     0.031 C 
ATOM     46  C   UNL     1      -7.192   0.868  -2.608  1.00  0.00     0.029 A 
ATOM     47  C   UNL     1      -7.635   1.379  -1.320  1.00  0.00     0.049 A 
ATOM     48  H   UNL     1      -6.399   2.095   0.212  1.00  0.00     0.167 HD
ATOM     49  C   UNL     1      -4.103   5.138   2.616  1.00  0.00     0.031 A 
ATOM     50  C   UNL     1      -8.882   1.532  -0.813  1.00  0.00     0.031 A 
ATOM     51  C   UNL     1      -4.207   3.996   3.474  1.00  0.00     0.049 A 
ATOM     52  C   UNL     1      -8.740   1.865   0.627  1.00  0.00     0.074 A 
ATOM     53  C   UNL     1      -3.330   3.009   3.876  1.00  0.00     0.029 A 
ATOM     54  N   UNL     1      -5.467   3.533   3.764  1.00  0.00    -0.354 N 
ATOM     55  N   UNL     1      -8.276   1.044   1.526  1.00  0.00    -0.248 NA
ATOM     56  C   UNL     1      -8.756   3.267   1.021  1.00  0.00     0.031 C 
ATOM     57  C   UNL     1      -4.120   1.829   3.983  1.00  0.00     0.029 A 
ATOM     58  C   UNL     1      -5.435   2.166   3.653  1.00  0.00     0.049 A 
ATOM     59  H   UNL     1      -6.248   4.081   4.005  1.00  0.00     0.167 HD
ATOM     60  C   UNL     1      -7.582   1.844   2.423  1.00  0.00     0.074 A 
ATOM     61  C   UNL     1      -8.016   3.205   2.132  1.00  0.00     0.031 C 
ATOM     62  C   UNL     1      -6.515   1.359   3.124  1.00  0.00     0.031 A 
BRANCH  49  63
ATOM     63  C   UNL     1      -4.613   6.498   2.977  1.00  0.00    -0.014 A 
ATOM     64  C   UNL     1      -4.551   6.944   4.301  1.00  0.00     0.009 A 
ATOM     65  C   UNL     1      -5.354   7.279   2.063  1.00  0.00     0.009 A 
ATOM     66  C   UNL     1      -5.187   8.130   4.684  1.00  0.00     0.001 A 
ATOM     67  C   UNL     1      -5.948   8.484   2.430  1.00  0.00     0.001 A 
ATOM     68  C   UNL     1      -5.875   8.903   3.748  1.00  0.00     0.000 A 
ENDBRANCH  49  63
BRANCH  50  69
ATOM     69  C   UNL     1     -10.144   1.742  -1.561  1.00  0.00    -0.014 A 
ATOM     70  C   UNL     1     -11.377   1.712  -0.890  1.00  0.00     0.009 A 
ATOM     71  C   UNL     1     -10.139   2.219  -2.885  1.00  0.00     0.009 A 
ATOM     72  C   UNL     1     -12.546   2.180  -1.506  1.00  0.00     0.001 A 
ATOM     73  C   UNL     1     -11.307   2.672  -3.506  1.00  0.00     0.001 A 
ATOM     74  C   UNL     1     -12.508   2.670  -2.809  1.00  0.00     0.000 A 
ENDBRANCH  50  69
BRANCH  62  75
ATOM     75  C   UNL     1      -6.262  -0.128   3.075  1.00  0.00    -0.014 A 
ATOM     76  C   UNL     1      -5.867  -0.779   1.893  1.00  0.00     0.009 A 
ATOM     77  C   UNL     1      -6.230  -0.847   4.278  1.00  0.00     0.009 A 
ATOM     78  C   UNL     1      -5.460  -2.117   1.915  1.00  0.00     0.001 A 
ATOM     79  C   UNL     1      -5.807  -2.179   4.301  1.00  0.00     0.001 A 
ATOM     80  C   UNL     1      -5.422  -2.813   3.121  1.00  0.00     0.000 A 
ENDBRANCH  62  75
ENDBRANCH  36  37
ENDBRANCH  29  31
ENDBRANCH  28  29
ENDBRANCH  27  28
ENDBRANCH   1  27
TORSDOF 16
