REMARK SMILES Cc1cc([N+](=O)[O-])ccc1NC(=O)[C@@H]1[C@@H](C(=O)OCCOC(=O)c2ccc(-c3c4nc(c(-c5ccccc5)c5ccc([nH]5)c(-c5ccccc5)c5nc(c(-c6ccccc6)c6ccc3[nH]6)C=C5)C=C4)cc2)[C@H]2C=C[C@@H]1C2
REMARK SMILES IDX 19 1 18 2 16 3 17 4 15 5 14 6 75 7 72 8 74 9 76 10 73 11
REMARK SMILES IDX 12 12 11 13 13 15 10 16 1 17 2 18 3 19 4 20 9 21 8 22 5 23
REMARK SMILES IDX 6 24 7 25 20 26 21 27 22 28 23 29 24 30 25 31 71 32 26 33
REMARK SMILES IDX 70 34 27 35 28 36 29 37 64 38 30 39 69 40 63 41 65 42 31 43
REMARK SMILES IDX 68 44 62 45 61 46 32 48 54 49 39 50 53 51 40 52 43 53 52 54
REMARK SMILES IDX 66 55 41 56 42 57 51 59 67 60 44 61 33 62 34 63 38 64 35 65
REMARK SMILES IDX 37 66 36 67 55 68 56 69 60 70 57 71 59 72 58 73 45 74 46 75
REMARK SMILES IDX 50 76 47 77 49 78 48 79
REMARK H PARENT 11 14 65 47 43 58
REMARK Flexibility Score: inf
ROOT
ATOM      1  C   UNL     1      -2.796   7.800  -1.253  1.00  0.00     0.274 C 
ENDROOT
BRANCH   1   2
ATOM      2  O   UNL     1      -1.816   6.945  -0.626  1.00  0.00    -0.462 OA
BRANCH   2   3
ATOM      3  C   UNL     1      -2.359   6.249   0.424  1.00  0.00     0.310 C 
ATOM      4  O   UNL     1      -3.553   6.314   0.699  1.00  0.00    -0.252 OA
BRANCH   3   5
ATOM      5  C   UNL     1      -1.336   5.522   1.290  1.00  0.00     0.119 C 
ATOM      6  C   UNL     1      -0.964   4.013   0.997  1.00  0.00     0.100 C 
ATOM      7  C   UNL     1      -1.180   3.350   2.395  1.00  0.00     0.025 C 
ATOM      8  C   UNL     1      -1.945   5.409   2.727  1.00  0.00     0.027 C 
ATOM      9  C   UNL     1      -2.667   3.212   2.567  1.00  0.00    -0.027 C 
ATOM     10  C   UNL     1      -0.919   4.495   3.376  1.00  0.00     0.017 C 
ATOM     11  C   UNL     1      -3.134   4.452   2.753  1.00  0.00    -0.027 C 
BRANCH   6  12
ATOM     12  C   UNL     1       0.460   3.724   0.549  1.00  0.00     0.228 C 
ATOM     13  N   UNL     1       0.929   2.451   0.309  1.00  0.00    -0.326 N 
ATOM     14  H   UNL     1       1.884   2.453   0.070  1.00  0.00     0.169 HD
ATOM     15  O   UNL     1       1.260   4.651   0.387  1.00  0.00    -0.274 OA
BRANCH  13  16
ATOM     16  C   UNL     1       0.389   1.136   0.317  1.00  0.00     0.044 A 
ATOM     17  C   UNL     1       2.735   0.068  -0.035  1.00  0.00     0.047 C 
ATOM     18  C   UNL     1       1.234   0.014   0.114  1.00  0.00    -0.021 A 
ATOM     19  C   UNL     1       0.681  -1.294   0.065  1.00  0.00     0.091 A 
ATOM     20  C   UNL     1      -0.689  -1.502   0.234  1.00  0.00     0.269 A 
ATOM     21  C   UNL     1      -0.976   0.876   0.490  1.00  0.00     0.033 A 
ATOM     22  C   UNL     1      -1.517  -0.417   0.477  1.00  0.00     0.088 A 
BRANCH  20  23
ATOM     23  N   UNL     1      -1.264  -2.846   0.122  1.00  0.00     0.062 N 
ATOM     24  O   UNL     1      -0.482  -3.804   0.052  1.00  0.00    -0.258 OA
ATOM     25  O   UNL     1      -2.500  -2.943   0.099  1.00  0.00    -0.258 OA
ENDBRANCH  20  23
ENDBRANCH  13  16
ENDBRANCH   6  12
ENDBRANCH   3   5
ENDBRANCH   2   3
ENDBRANCH   1   2
BRANCH   1  26
ATOM     26  C   UNL     1      -2.413   8.360  -2.628  1.00  0.00     0.275 C 
BRANCH  26  27
ATOM     27  O   UNL     1      -1.608   7.556  -3.528  1.00  0.00    -0.458 OA
BRANCH  27  28
ATOM     28  C   UNL     1      -1.670   6.229  -3.756  1.00  0.00     0.338 C 
ATOM     29  O   UNL     1      -0.773   5.605  -4.320  1.00  0.00    -0.246 OA
BRANCH  28  30
ATOM     30  C   UNL     1      -2.842   5.518  -3.255  1.00  0.00     0.060 A 
ATOM     31  C   UNL     1      -2.632   4.471  -2.347  1.00  0.00     0.016 A 
ATOM     32  C   UNL     1      -4.123   5.943  -3.606  1.00  0.00     0.016 A 
ATOM     33  C   UNL     1      -3.716   3.919  -1.682  1.00  0.00     0.010 A 
ATOM     34  C   UNL     1      -5.199   5.396  -2.941  1.00  0.00     0.010 A 
ATOM     35  C   UNL     1      -4.990   4.404  -1.970  1.00  0.00    -0.014 A 
BRANCH  35  36
ATOM     36  C   UNL     1      -6.188   3.776  -1.449  1.00  0.00     0.031 A 
ATOM     37  C   UNL     1      -6.712   4.085  -0.104  1.00  0.00     0.074 A 
ATOM     38  C   UNL     1      -6.777   2.927  -2.314  1.00  0.00     0.049 A 
ATOM     39  N   UNL     1      -7.318   3.229   0.651  1.00  0.00    -0.248 NA
ATOM     40  C   UNL     1      -6.526   5.383   0.546  1.00  0.00     0.031 C 
ATOM     41  C   UNL     1      -8.110   2.361  -2.275  1.00  0.00     0.029 A 
ATOM     42  N   UNL     1      -6.146   2.253  -3.367  1.00  0.00    -0.354 N 
ATOM     43  C   UNL     1      -7.871   3.946   1.695  1.00  0.00     0.074 A 
ATOM     44  C   UNL     1      -7.209   5.226   1.688  1.00  0.00     0.031 C 
ATOM     45  C   UNL     1      -8.120   1.255  -3.043  1.00  0.00     0.029 A 
ATOM     46  C   UNL     1      -6.742   0.995  -3.440  1.00  0.00     0.049 A 
ATOM     47  H   UNL     1      -5.425   2.599  -3.942  1.00  0.00     0.167 HD
ATOM     48  C   UNL     1      -9.012   3.509   2.298  1.00  0.00     0.031 A 
ATOM     49  C   UNL     1      -6.057  -0.166  -3.217  1.00  0.00     0.031 A 
ATOM     50  C   UNL     1      -9.519   2.336   1.609  1.00  0.00     0.049 A 
ATOM     51  C   UNL     1      -6.705  -0.950  -2.102  1.00  0.00     0.074 A 
ATOM     52  C   UNL     1     -10.407   2.243   0.550  1.00  0.00     0.029 A 
ATOM     53  N   UNL     1      -8.863   1.123   1.705  1.00  0.00    -0.354 N 
ATOM     54  N   UNL     1      -7.278  -0.400  -1.065  1.00  0.00    -0.248 NA
ATOM     55  C   UNL     1      -6.809  -2.404  -2.107  1.00  0.00     0.031 C 
ATOM     56  C   UNL     1     -10.249   0.968  -0.033  1.00  0.00     0.029 A 
ATOM     57  C   UNL     1      -9.285   0.289   0.692  1.00  0.00     0.049 A 
ATOM     58  H   UNL     1      -8.196   0.891   2.391  1.00  0.00     0.167 HD
ATOM     59  C   UNL     1      -7.955  -1.376  -0.371  1.00  0.00     0.074 A 
ATOM     60  C   UNL     1      -7.579  -2.616  -1.024  1.00  0.00     0.031 C 
ATOM     61  C   UNL     1      -8.833  -1.087   0.634  1.00  0.00     0.031 A 
BRANCH  48  62
ATOM     62  C   UNL     1      -9.885   4.349   3.198  1.00  0.00    -0.014 A 
ATOM     63  C   UNL     1     -11.284   4.173   3.153  1.00  0.00     0.009 A 
ATOM     64  C   UNL     1      -9.409   5.326   4.087  1.00  0.00     0.009 A 
ATOM     65  C   UNL     1     -12.166   4.984   3.874  1.00  0.00     0.001 A 
ATOM     66  C   UNL     1     -10.291   6.155   4.802  1.00  0.00     0.001 A 
ATOM     67  C   UNL     1     -11.668   5.993   4.684  1.00  0.00     0.000 A 
ENDBRANCH  48  62
BRANCH  49  68
ATOM     68  C   UNL     1      -4.585  -0.083  -3.446  1.00  0.00    -0.014 A 
ATOM     69  C   UNL     1      -4.102   0.070  -4.763  1.00  0.00     0.009 A 
ATOM     70  C   UNL     1      -3.722   0.231  -2.389  1.00  0.00     0.009 A 
ATOM     71  C   UNL     1      -2.830   0.603  -5.014  1.00  0.00     0.001 A 
ATOM     72  C   UNL     1      -2.458   0.776  -2.655  1.00  0.00     0.001 A 
ATOM     73  C   UNL     1      -2.017   0.982  -3.956  1.00  0.00     0.000 A 
ENDBRANCH  49  68
BRANCH  61  74
ATOM     74  C   UNL     1      -9.494  -2.042   1.602  1.00  0.00    -0.014 A 
ATOM     75  C   UNL     1      -9.076  -3.352   1.839  1.00  0.00     0.009 A 
ATOM     76  C   UNL     1     -10.527  -1.549   2.442  1.00  0.00     0.009 A 
ATOM     77  C   UNL     1      -9.672  -4.132   2.840  1.00  0.00     0.001 A 
ATOM     78  C   UNL     1     -11.087  -2.302   3.472  1.00  0.00     0.001 A 
ATOM     79  C   UNL     1     -10.663  -3.604   3.665  1.00  0.00     0.000 A 
ENDBRANCH  61  74
ENDBRANCH  35  36
ENDBRANCH  28  30
ENDBRANCH  27  28
ENDBRANCH  26  27
ENDBRANCH   1  26
TORSDOF 14
