REMARK SMILES CCCC[C@H](C(=O)OCCOCCOC(=O)c1ccc(-c2c3nc(c(-c4ccccc4)c4ccc([nH]4)c(-c4ccccc4)c4nc(c(-c5ccccc5)c5ccc2[nH]5)C=C4)C=C3)cc1)N1C(=O)[C@H]2[C@@H]3C=C[C@@H]([C@@H]4C[C@H]34)[C@@H]2C1=O
REMARK SMILES IDX 10 1 9 2 8 3 6 4 7 5 5 6 4 7 3 8 2 9 1 10 65 11 66 12 77 13
REMARK SMILES IDX 67 14 68 15 76 16 78 17 69 18 72 19 70 20 75 21 71 22 73 23
REMARK SMILES IDX 74 24 11 25 12 26 13 27 14 28 15 29 16 30 17 31 18 32 64 33
REMARK SMILES IDX 19 34 63 35 20 36 21 37 22 38 57 39 23 40 62 41 56 42 58 43
REMARK SMILES IDX 24 44 61 45 55 46 54 47 25 49 47 50 32 51 46 52 33 53 36 54
REMARK SMILES IDX 45 55 59 56 34 57 35 58 44 60 60 61 37 62 26 63 27 64 31 65
REMARK SMILES IDX 28 66 30 67 29 68 48 69 49 70 53 71 50 72 52 73 51 74 38 75
REMARK SMILES IDX 39 76 43 77 40 78 42 79 41 80
REMARK H PARENT 58 48 36 59
REMARK Flexibility Score: inf
ROOT
ATOM      1  C   UNL     1       3.350   0.036   2.848  1.00  0.00     0.202 C 
ENDROOT
BRANCH   1   2
ATOM      2  C   UNL     1       2.398  -0.673   1.890  1.00  0.00     0.261 C 
BRANCH   2   3
ATOM      3  O   UNL     1       1.028  -0.339   2.162  1.00  0.00    -0.462 OA
BRANCH   3   4
ATOM      4  C   UNL     1       0.272  -1.336   2.699  1.00  0.00     0.329 C 
ATOM      5  O   UNL     1       0.692  -2.464   2.932  1.00  0.00    -0.250 OA
BRANCH   4   6
ATOM      6  C   UNL     1      -1.210  -0.930   2.787  1.00  0.00     0.203 C 
BRANCH   6   7
ATOM      7  C   UNL     1      -2.014  -2.163   3.261  1.00  0.00     0.038 C 
BRANCH   7   8
ATOM      8  C   UNL     1      -3.537  -2.083   3.122  1.00  0.00     0.002 C 
BRANCH   8   9
ATOM      9  C   UNL     1      -4.054  -1.783   1.715  1.00  0.00    -0.003 C 
ATOM     10  C   UNL     1      -3.548  -2.757   0.663  1.00  0.00     0.004 C 
ENDBRANCH   8   9
ENDBRANCH   7   8
ENDBRANCH   6   7
BRANCH   6  11
ATOM     11  N   UNL     1      -1.468   0.317   3.528  1.00  0.00    -0.268 N 
ATOM     12  C   UNL     1      -1.200   1.598   3.021  1.00  0.00     0.234 C 
ATOM     13  C   UNL     1      -2.183   0.418   4.730  1.00  0.00     0.234 C 
ATOM     14  O   UNL     1      -0.780   1.920   1.927  1.00  0.00    -0.274 OA
ATOM     15  C   UNL     1      -1.534   2.509   4.167  1.00  0.00     0.099 C 
ATOM     16  C   UNL     1      -2.804   1.771   4.605  1.00  0.00     0.099 C 
ATOM     17  O   UNL     1      -2.357  -0.395   5.614  1.00  0.00    -0.274 OA
ATOM     18  C   UNL     1      -1.742   4.026   4.274  1.00  0.00     0.028 C 
ATOM     19  C   UNL     1      -3.648   2.686   5.479  1.00  0.00     0.028 C 
ATOM     20  C   UNL     1      -1.788   4.202   5.818  1.00  0.00    -0.026 C 
ATOM     21  C   UNL     1      -3.105   4.523   3.791  1.00  0.00     0.001 C 
ATOM     22  C   UNL     1      -2.745   3.469   6.432  1.00  0.00    -0.026 C 
ATOM     23  C   UNL     1      -4.240   3.751   4.478  1.00  0.00     0.001 C 
ATOM     24  C   UNL     1      -4.094   3.772   2.954  1.00  0.00     0.009 C 
ENDBRANCH   6  11
ENDBRANCH   4   6
ENDBRANCH   3   4
ENDBRANCH   2   3
ENDBRANCH   1   2
BRANCH   1  25
ATOM     25  O   UNL     1       3.151  -0.244   4.231  1.00  0.00    -0.374 OA
BRANCH  25  26
ATOM     26  C   UNL     1       2.118   0.485   4.901  1.00  0.00     0.202 C 
BRANCH  26  27
ATOM     27  C   UNL     1       2.443   1.953   5.192  1.00  0.00     0.261 C 
BRANCH  27  28
ATOM     28  O   UNL     1       2.389   2.733   3.981  1.00  0.00    -0.460 OA
BRANCH  28  29
ATOM     29  C   UNL     1       3.476   3.513   3.767  1.00  0.00     0.338 C 
ATOM     30  O   UNL     1       4.370   3.767   4.556  1.00  0.00    -0.246 OA
BRANCH  29  31
ATOM     31  C   UNL     1       3.561   3.880   2.341  1.00  0.00     0.060 A 
ATOM     32  C   UNL     1       4.678   3.429   1.626  1.00  0.00     0.016 A 
ATOM     33  C   UNL     1       2.624   4.720   1.738  1.00  0.00     0.016 A 
ATOM     34  C   UNL     1       4.886   3.852   0.315  1.00  0.00     0.010 A 
ATOM     35  C   UNL     1       2.843   5.157   0.425  1.00  0.00     0.010 A 
ATOM     36  C   UNL     1       3.991   4.751  -0.281  1.00  0.00    -0.014 A 
BRANCH  36  37
ATOM     37  C   UNL     1       4.330   5.360  -1.590  1.00  0.00     0.031 A 
ATOM     38  C   UNL     1       4.993   6.709  -1.625  1.00  0.00     0.074 A 
ATOM     39  C   UNL     1       4.093   4.702  -2.739  1.00  0.00     0.049 A 
ATOM     40  N   UNL     1       5.364   7.424  -2.657  1.00  0.00    -0.248 NA
ATOM     41  C   UNL     1       5.285   7.330  -0.323  1.00  0.00     0.031 C 
ATOM     42  C   UNL     1       3.519   3.362  -2.844  1.00  0.00     0.029 A 
ATOM     43  N   UNL     1       4.312   5.080  -4.040  1.00  0.00    -0.354 N 
ATOM     44  C   UNL     1       5.934   8.576  -2.132  1.00  0.00     0.074 A 
ATOM     45  C   UNL     1       5.837   8.478  -0.691  1.00  0.00     0.031 C 
ATOM     46  C   UNL     1       3.430   3.030  -4.143  1.00  0.00     0.029 A 
ATOM     47  C   UNL     1       3.903   4.146  -4.959  1.00  0.00     0.049 A 
ATOM     48  H   UNL     1       4.724   5.939  -4.290  1.00  0.00     0.167 HD
ATOM     49  C   UNL     1       6.494   9.621  -2.787  1.00  0.00     0.031 A 
ATOM     50  C   UNL     1       3.886   4.197  -6.305  1.00  0.00     0.031 A 
ATOM     51  C   UNL     1       6.570   9.738  -4.219  1.00  0.00     0.049 A 
ATOM     52  C   UNL     1       4.386   5.429  -7.010  1.00  0.00     0.074 A 
ATOM     53  C   UNL     1       7.132  10.753  -4.973  1.00  0.00     0.029 A 
ATOM     54  N   UNL     1       6.053   8.814  -5.113  1.00  0.00    -0.354 N 
ATOM     55  N   UNL     1       4.939   6.504  -6.504  1.00  0.00    -0.248 NA
ATOM     56  C   UNL     1       4.246   5.457  -8.474  1.00  0.00     0.031 C 
ATOM     57  C   UNL     1       6.899  10.474  -6.325  1.00  0.00     0.029 A 
ATOM     58  C   UNL     1       6.240   9.258  -6.411  1.00  0.00     0.049 A 
ATOM     59  H   UNL     1       5.617   7.968  -4.862  1.00  0.00     0.167 HD
ATOM     60  C   UNL     1       5.228   7.328  -7.585  1.00  0.00     0.074 A 
ATOM     61  C   UNL     1       4.801   6.623  -8.776  1.00  0.00     0.031 C 
ATOM     62  C   UNL     1       5.796   8.558  -7.588  1.00  0.00     0.031 A 
BRANCH  49  63
ATOM     63  C   UNL     1       7.032  10.748  -1.952  1.00  0.00    -0.014 A 
ATOM     64  C   UNL     1       8.221  10.608  -1.219  1.00  0.00     0.009 A 
ATOM     65  C   UNL     1       6.351  11.974  -1.918  1.00  0.00     0.009 A 
ATOM     66  C   UNL     1       8.698  11.665  -0.441  1.00  0.00     0.001 A 
ATOM     67  C   UNL     1       6.844  13.037  -1.159  1.00  0.00     0.001 A 
ATOM     68  C   UNL     1       8.012  12.878  -0.414  1.00  0.00     0.000 A 
ENDBRANCH  49  63
BRANCH  50  69
ATOM     69  C   UNL     1       3.338   3.055  -7.082  1.00  0.00    -0.014 A 
ATOM     70  C   UNL     1       4.184   2.239  -7.846  1.00  0.00     0.009 A 
ATOM     71  C   UNL     1       1.960   2.785  -7.069  1.00  0.00     0.009 A 
ATOM     72  C   UNL     1       3.658   1.181  -8.593  1.00  0.00     0.001 A 
ATOM     73  C   UNL     1       1.442   1.713  -7.796  1.00  0.00     0.001 A 
ATOM     74  C   UNL     1       2.290   0.916  -8.563  1.00  0.00     0.000 A 
ENDBRANCH  50  69
BRANCH  62  75
ATOM     75  C   UNL     1       5.998   9.223  -8.920  1.00  0.00    -0.014 A 
ATOM     76  C   UNL     1       4.918   9.784  -9.618  1.00  0.00     0.009 A 
ATOM     77  C   UNL     1       7.290   9.338  -9.457  1.00  0.00     0.009 A 
ATOM     78  C   UNL     1       5.125  10.430 -10.839  1.00  0.00     0.001 A 
ATOM     79  C   UNL     1       7.497  10.005 -10.666  1.00  0.00     0.001 A 
ATOM     80  C   UNL     1       6.414  10.544 -11.358  1.00  0.00     0.000 A 
ENDBRANCH  62  75
ENDBRANCH  36  37
ENDBRANCH  29  31
ENDBRANCH  28  29
ENDBRANCH  27  28
ENDBRANCH  26  27
ENDBRANCH  25  26
ENDBRANCH   1  25
TORSDOF 18
