REMARK SMILES COc1cc(C=C2C(=O)N(C)C(=S)N(C)C2=O)c(Br)cc1OCC(=O)OCCOCCOC(=O)c1ccc(-c2c3nc(c(-c4ccccc4)c4ccc([nH]4)c(-c4ccccc4)c4nc(c(-c5ccccc5)c5ccc2[nH]5)C=C4)C=C3)cc1
REMARK SMILES IDX 28 1 27 2 26 3 24 4 25 5 23 6 22 7 21 8 3 9 4 10 5 11 20 12
REMARK SMILES IDX 18 13 19 14 2 15 1 16 6 17 7 18 8 19 16 20 9 21 10 22 14 23
REMARK SMILES IDX 17 24 11 25 12 26 15 27 13 28 29 29 30 30 31 31 32 32 33 33
REMARK SMILES IDX 34 34 35 35 36 36 82 37 37 38 81 39 38 40 39 41 40 42 75 43
REMARK SMILES IDX 41 44 80 45 74 46 76 47 42 48 79 49 73 50 72 51 43 53 65 54
REMARK SMILES IDX 50 55 64 56 51 57 54 58 63 59 77 60 52 61 53 62 62 64 78 65
REMARK SMILES IDX 55 66 44 67 45 68 49 69 46 70 48 71 47 72 66 73 67 74 71 75
REMARK SMILES IDX 68 76 70 77 69 78 56 79 57 80 61 81 58 82 60 83 59 84
REMARK H PARENT 76 52 54 63
REMARK Flexibility Score: inf
ROOT
ATOM      1  C   UNL     1       0.528   3.016   3.448  1.00  0.00     0.202 C 
ENDROOT
BRANCH   1   2
ATOM      2  C   UNL     1      -0.892   2.710   2.959  1.00  0.00     0.261 C 
BRANCH   2   3
ATOM      3  O   UNL     1      -1.201   1.296   2.977  1.00  0.00    -0.461 OA
BRANCH   3   4
ATOM      4  C   UNL     1      -1.755   0.794   1.831  1.00  0.00     0.344 C 
ATOM      5  O   UNL     1      -1.970   1.457   0.821  1.00  0.00    -0.248 OA
BRANCH   4   6
ATOM      6  C   UNL     1      -2.191  -0.669   1.968  1.00  0.00     0.352 C 
BRANCH   6   7
ATOM      7  O   UNL     1      -1.495  -1.564   2.811  1.00  0.00    -0.478 OA
BRANCH   7   8
ATOM      8  C   UNL     1      -0.327  -2.166   2.431  1.00  0.00     0.163 A 
ATOM      9  C   UNL     1       0.390  -2.050   1.234  1.00  0.00     0.161 A 
ATOM     10  C   UNL     1       1.663  -2.657   1.128  1.00  0.00     0.059 A 
ATOM     11  C   UNL     1       2.314  -3.225   2.236  1.00  0.00    -0.006 A 
ATOM     12  C   UNL     1       0.222  -2.935   3.466  1.00  0.00     0.066 A 
ATOM     13  C   UNL     1       1.529  -3.436   3.386  1.00  0.00     0.029 A 
ATOM     14  Br  UNL     1       2.184  -4.303   4.952  1.00  0.00    -0.050 Br
BRANCH   9  15
ATOM     15  O   UNL     1      -0.155  -1.304   0.224  1.00  0.00    -0.493 OA
ATOM     16  C   UNL     1       0.737  -0.740  -0.736  1.00  0.00     0.278 C 
ENDBRANCH   9  15
BRANCH  11  17
ATOM     17  C   UNL     1       3.780  -3.510   2.252  1.00  0.00     0.029 C 
ATOM     18  C   UNL     1       4.838  -2.720   1.928  1.00  0.00     0.106 C 
ATOM     19  C   UNL     1       4.756  -1.427   1.225  1.00  0.00     0.265 C 
ATOM     20  C   UNL     1       6.168  -3.151   2.436  1.00  0.00     0.265 C 
ATOM     21  O   UNL     1       3.879  -1.198   0.397  1.00  0.00    -0.268 OA
ATOM     22  N   UNL     1       5.762  -0.508   1.484  1.00  0.00    -0.288 N 
ATOM     23  N   UNL     1       7.163  -2.168   2.453  1.00  0.00    -0.288 N 
ATOM     24  O   UNL     1       6.341  -4.296   2.850  1.00  0.00    -0.268 OA
ATOM     25  C   UNL     1       5.399   0.872   1.131  1.00  0.00     0.156 C 
ATOM     26  C   UNL     1       7.032  -0.849   1.965  1.00  0.00     0.185 C 
ATOM     27  C   UNL     1       8.419  -2.565   3.103  1.00  0.00     0.156 C 
ATOM     28  S   UNL     1       8.336   0.241   1.939  1.00  0.00    -0.040 S 
ENDBRANCH  11  17
ENDBRANCH   7   8
ENDBRANCH   6   7
ENDBRANCH   4   6
ENDBRANCH   3   4
ENDBRANCH   2   3
ENDBRANCH   1   2
BRANCH   1  29
ATOM     29  O   UNL     1       1.613   2.648   2.594  1.00  0.00    -0.374 OA
BRANCH  29  30
ATOM     30  C   UNL     1       1.706   1.281   2.221  1.00  0.00     0.202 C 
BRANCH  30  31
ATOM     31  C   UNL     1       2.209   0.298   3.279  1.00  0.00     0.261 C 
BRANCH  31  32
ATOM     32  O   UNL     1       1.804   0.582   4.609  1.00  0.00    -0.460 OA
BRANCH  32  33
ATOM     33  C   UNL     1       2.768   1.168   5.345  1.00  0.00     0.338 C 
ATOM     34  O   UNL     1       3.927   1.403   5.024  1.00  0.00    -0.246 OA
BRANCH  33  35
ATOM     35  C   UNL     1       2.164   1.627   6.594  1.00  0.00     0.060 A 
ATOM     36  C   UNL     1       2.292   2.983   6.904  1.00  0.00     0.016 A 
ATOM     37  C   UNL     1       1.511   0.737   7.453  1.00  0.00     0.016 A 
ATOM     38  C   UNL     1       1.821   3.446   8.122  1.00  0.00     0.010 A 
ATOM     39  C   UNL     1       1.036   1.205   8.675  1.00  0.00     0.010 A 
ATOM     40  C   UNL     1       1.236   2.549   9.028  1.00  0.00    -0.014 A 
BRANCH  40  41
ATOM     41  C   UNL     1       1.003   3.009  10.410  1.00  0.00     0.031 A 
ATOM     42  C   UNL     1       2.021   2.667  11.459  1.00  0.00     0.074 A 
ATOM     43  C   UNL     1      -0.049   3.797  10.685  1.00  0.00     0.049 A 
ATOM     44  N   UNL     1       2.087   3.058  12.704  1.00  0.00    -0.248 NA
ATOM     45  C   UNL     1       3.115   1.770  11.049  1.00  0.00     0.031 C 
ATOM     46  C   UNL     1      -1.069   4.210   9.720  1.00  0.00     0.029 A 
ATOM     47  N   UNL     1      -0.416   4.412  11.851  1.00  0.00    -0.354 N 
ATOM     48  C   UNL     1       3.229   2.459  13.222  1.00  0.00     0.074 A 
ATOM     49  C   UNL     1       3.801   1.645  12.174  1.00  0.00     0.031 C 
ATOM     50  C   UNL     1      -1.937   5.033  10.332  1.00  0.00     0.029 A 
ATOM     51  C   UNL     1      -1.546   5.181  11.732  1.00  0.00     0.049 A 
ATOM     52  H   UNL     1       0.082   4.311  12.694  1.00  0.00     0.167 HD
ATOM     53  C   UNL     1       3.760   2.590  14.460  1.00  0.00     0.031 A 
ATOM     54  C   UNL     1      -2.186   5.922  12.654  1.00  0.00     0.031 A 
ATOM     55  C   UNL     1       3.167   3.387  15.499  1.00  0.00     0.049 A 
ATOM     56  C   UNL     1      -1.610   6.000  14.041  1.00  0.00     0.074 A 
ATOM     57  C   UNL     1       3.611   3.593  16.792  1.00  0.00     0.029 A 
ATOM     58  N   UNL     1       1.988   4.106  15.357  1.00  0.00    -0.354 N 
ATOM     59  N   UNL     1      -0.513   5.454  14.514  1.00  0.00    -0.248 NA
ATOM     60  C   UNL     1      -2.350   6.809  15.018  1.00  0.00     0.031 C 
ATOM     61  C   UNL     1       2.671   4.393  17.450  1.00  0.00     0.029 A 
ATOM     62  C   UNL     1       1.676   4.738  16.548  1.00  0.00     0.049 A 
ATOM     63  H   UNL     1       1.454   4.159  14.533  1.00  0.00     0.167 HD
ATOM     64  C   UNL     1      -0.416   5.877  15.833  1.00  0.00     0.074 A 
ATOM     65  C   UNL     1      -1.557   6.738  16.077  1.00  0.00     0.031 C 
ATOM     66  C   UNL     1       0.529   5.585  16.760  1.00  0.00     0.031 A 
BRANCH  53  67
ATOM     67  C   UNL     1       5.018   1.822  14.757  1.00  0.00    -0.014 A 
ATOM     68  C   UNL     1       6.245   2.168  14.166  1.00  0.00     0.009 A 
ATOM     69  C   UNL     1       4.979   0.738  15.647  1.00  0.00     0.009 A 
ATOM     70  C   UNL     1       7.396   1.423  14.433  1.00  0.00     0.001 A 
ATOM     71  C   UNL     1       6.136   0.013  15.935  1.00  0.00     0.001 A 
ATOM     72  C   UNL     1       7.341   0.349  15.320  1.00  0.00     0.000 A 
ENDBRANCH  53  67
BRANCH  54  73
ATOM     73  C   UNL     1      -3.431   6.649  12.292  1.00  0.00    -0.014 A 
ATOM     74  C   UNL     1      -3.458   8.050  12.240  1.00  0.00     0.009 A 
ATOM     75  C   UNL     1      -4.604   5.937  11.994  1.00  0.00     0.009 A 
ATOM     76  C   UNL     1      -4.640   8.724  11.920  1.00  0.00     0.001 A 
ATOM     77  C   UNL     1      -5.776   6.612  11.646  1.00  0.00     0.001 A 
ATOM     78  C   UNL     1      -5.796   8.005  11.618  1.00  0.00     0.000 A 
ENDBRANCH  54  73
BRANCH  66  79
ATOM     79  C   UNL     1       0.385   6.234  18.107  1.00  0.00    -0.014 A 
ATOM     80  C   UNL     1      -0.622   5.843  19.003  1.00  0.00     0.009 A 
ATOM     81  C   UNL     1       1.295   7.230  18.495  1.00  0.00     0.009 A 
ATOM     82  C   UNL     1      -0.739   6.468  20.246  1.00  0.00     0.001 A 
ATOM     83  C   UNL     1       1.196   7.828  19.751  1.00  0.00     0.001 A 
ATOM     84  C   UNL     1       0.172   7.455  20.620  1.00  0.00     0.000 A 
ENDBRANCH  66  79
ENDBRANCH  40  41
ENDBRANCH  33  35
ENDBRANCH  32  33
ENDBRANCH  31  32
ENDBRANCH  30  31
ENDBRANCH  29  30
ENDBRANCH   1  29
TORSDOF 18
