REMARK SMILES CN(C)Nc1ncnc(Nc2ccc(C(=O)OCCOCCOC(=O)c3ccc(-c4c5nc(c(-c6ccccc6)c6ccc([nH]6)c(-c6ccccc6)c6nc(c(-c7ccccc7)c7ccc4[nH]7)C=C6)C=C5)cc3)cc2)c1[N+](=O)[O-]
REMARK SMILES IDX 19 1 18 2 17 3 15 4 16 5 14 6 11 7 12 8 75 9 13 10 74 11
REMARK SMILES IDX 10 12 9 14 5 15 6 16 76 17 7 18 8 19 4 20 2 22 1 23 3 24
REMARK SMILES IDX 77 25 78 26 79 27 20 28 21 29 22 30 23 31 24 32 25 33 26 34
REMARK SMILES IDX 27 35 73 36 28 37 72 38 29 39 30 40 31 41 66 42 32 43 71 44
REMARK SMILES IDX 65 45 67 46 33 47 70 48 64 49 63 50 34 52 56 53 41 54 55 55
REMARK SMILES IDX 42 56 45 57 54 58 68 59 43 60 44 61 53 63 69 64 46 65 35 66
REMARK SMILES IDX 36 67 40 68 37 69 39 70 38 71 57 72 58 73 62 74 59 75 61 76
REMARK SMILES IDX 60 77 47 78 48 79 52 80 49 81 51 82 50 83
REMARK H PARENT 10 13 4 21 67 51 45 62
REMARK Flexibility Score: inf
ROOT
ATOM      1  C   UNL     1       9.056  -3.472  -8.764  1.00  0.00     0.202 C 
ENDROOT
BRANCH   1   2
ATOM      2  C   UNL     1       8.277  -4.580  -8.050  1.00  0.00     0.261 C 
BRANCH   2   3
ATOM      3  O   UNL     1       7.363  -4.032  -7.088  1.00  0.00    -0.460 OA
BRANCH   3   4
ATOM      4  C   UNL     1       7.726  -4.224  -5.799  1.00  0.00     0.338 C 
ATOM      5  O   UNL     1       8.636  -4.931  -5.391  1.00  0.00    -0.246 OA
BRANCH   4   6
ATOM      6  C   UNL     1       6.955  -3.334  -4.907  1.00  0.00     0.060 A 
ATOM      7  C   UNL     1       5.545  -1.865  -2.984  1.00  0.00     0.040 A 
ATOM      8  C   UNL     1       6.913  -2.097  -2.824  1.00  0.00     0.027 A 
ATOM      9  C   UNL     1       4.916  -2.293  -4.166  1.00  0.00     0.027 A 
ATOM     10  C   UNL     1       7.612  -2.841  -3.773  1.00  0.00     0.018 A 
ATOM     11  C   UNL     1       5.616  -3.015  -5.135  1.00  0.00     0.018 A 
BRANCH   7  12
ATOM     12  N   UNL     1       4.803  -1.414  -1.875  1.00  0.00    -0.334 N 
ATOM     13  H   UNL     1       5.058  -0.549  -1.478  1.00  0.00     0.168 HD
BRANCH  12  14
ATOM     14  C   UNL     1       3.723  -2.107  -1.289  1.00  0.00     0.215 A 
ATOM     15  C   UNL     1       1.874  -2.308   0.185  1.00  0.00     0.225 A 
ATOM     16  N   UNL     1       1.530  -3.484  -0.382  1.00  0.00    -0.212 NA
ATOM     17  C   UNL     1       3.022  -1.638  -0.192  1.00  0.00     0.354 A 
ATOM     18  C   UNL     1       2.291  -3.914  -1.385  1.00  0.00     0.227 A 
ATOM     19  N   UNL     1       3.337  -3.259  -1.885  1.00  0.00    -0.212 NA
BRANCH  15  20
ATOM     20  N   UNL     1       0.886  -1.838   1.054  1.00  0.00    -0.298 N 
ATOM     21  H   UNL     1       0.490  -2.490   1.676  1.00  0.00     0.184 HD
BRANCH  20  22
ATOM     22  N   UNL     1       0.401  -0.502   1.120  1.00  0.00    -0.228 NA
ATOM     23  C   UNL     1       0.334   0.153  -0.199  1.00  0.00     0.130 C 
ATOM     24  C   UNL     1      -0.979  -0.583   1.642  1.00  0.00     0.130 C 
ENDBRANCH  20  22
ENDBRANCH  15  20
BRANCH  17  25
ATOM     25  N   UNL     1       3.566  -0.597   0.633  1.00  0.00     0.070 N 
ATOM     26  O   UNL     1       3.970   0.430   0.066  1.00  0.00    -0.258 OA
ATOM     27  O   UNL     1       3.722  -0.842   1.837  1.00  0.00    -0.258 OA
ENDBRANCH  17  25
ENDBRANCH  12  14
ENDBRANCH   7  12
ENDBRANCH   4   6
ENDBRANCH   3   4
ENDBRANCH   2   3
ENDBRANCH   1   2
BRANCH   1  28
ATOM     28  O   UNL     1       9.885  -2.653  -7.939  1.00  0.00    -0.374 OA
BRANCH  28  29
ATOM     29  C   UNL     1       9.252  -1.570  -7.255  1.00  0.00     0.202 C 
BRANCH  29  30
ATOM     30  C   UNL     1       8.973  -0.314  -8.088  1.00  0.00     0.261 C 
BRANCH  30  31
ATOM     31  O   UNL     1       7.939  -0.543  -9.064  1.00  0.00    -0.460 OA
BRANCH  31  32
ATOM     32  C   UNL     1       8.358  -0.558 -10.349  1.00  0.00     0.338 C 
ATOM     33  O   UNL     1       9.481  -0.308 -10.768  1.00  0.00    -0.246 OA
BRANCH  32  34
ATOM     34  C   UNL     1       7.300  -1.107 -11.216  1.00  0.00     0.060 A 
ATOM     35  C   UNL     1       7.643  -2.167 -12.065  1.00  0.00     0.016 A 
ATOM     36  C   UNL     1       6.016  -0.558 -11.249  1.00  0.00     0.016 A 
ATOM     37  C   UNL     1       6.718  -2.652 -12.987  1.00  0.00     0.010 A 
ATOM     38  C   UNL     1       5.092  -1.040 -12.182  1.00  0.00     0.010 A 
ATOM     39  C   UNL     1       5.450  -2.064 -13.078  1.00  0.00    -0.014 A 
BRANCH  39  40
ATOM     40  C   UNL     1       4.552  -2.425 -14.201  1.00  0.00     0.031 A 
ATOM     41  C   UNL     1       4.478  -1.515 -15.397  1.00  0.00     0.074 A 
ATOM     42  C   UNL     1       3.819  -3.552 -14.163  1.00  0.00     0.049 A 
ATOM     43  N   UNL     1       3.729  -1.611 -16.466  1.00  0.00    -0.248 NA
ATOM     44  C   UNL     1       5.363  -0.337 -15.386  1.00  0.00     0.031 C 
ATOM     45  C   UNL     1       3.828  -4.533 -13.079  1.00  0.00     0.029 A 
ATOM     46  N   UNL     1       2.912  -4.052 -15.064  1.00  0.00    -0.354 N 
ATOM     47  C   UNL     1       4.037  -0.501 -17.243  1.00  0.00     0.074 A 
ATOM     48  C   UNL     1       5.028   0.264 -16.519  1.00  0.00     0.031 C 
ATOM     49  C   UNL     1       2.953  -5.511 -13.371  1.00  0.00     0.029 A 
ATOM     50  C   UNL     1       2.302  -5.209 -14.644  1.00  0.00     0.049 A 
ATOM     51  H   UNL     1       2.717  -3.623 -15.928  1.00  0.00     0.167 HD
ATOM     52  C   UNL     1       3.538  -0.151 -18.451  1.00  0.00     0.031 A 
ATOM     53  C   UNL     1       1.312  -5.926 -15.210  1.00  0.00     0.031 A 
ATOM     54  C   UNL     1       2.558  -0.913 -19.177  1.00  0.00     0.049 A 
ATOM     55  C   UNL     1       0.736  -5.481 -16.529  1.00  0.00     0.074 A 
ATOM     56  C   UNL     1       2.028  -0.661 -20.430  1.00  0.00     0.029 A 
ATOM     57  N   UNL     1       1.955  -2.069 -18.710  1.00  0.00    -0.354 N 
ATOM     58  N   UNL     1       1.074  -4.459 -17.277  1.00  0.00    -0.248 NA
ATOM     59  C   UNL     1      -0.354  -6.297 -17.085  1.00  0.00     0.031 C 
ATOM     60  C   UNL     1       1.060  -1.634 -20.697  1.00  0.00     0.029 A 
ATOM     61  C   UNL     1       1.031  -2.523 -19.635  1.00  0.00     0.049 A 
ATOM     62  H   UNL     1       2.154  -2.503 -17.849  1.00  0.00     0.167 HD
ATOM     63  C   UNL     1       0.261  -4.527 -18.402  1.00  0.00     0.074 A 
ATOM     64  C   UNL     1      -0.576  -5.697 -18.246  1.00  0.00     0.031 C 
ATOM     65  C   UNL     1       0.212  -3.694 -19.470  1.00  0.00     0.031 A 
BRANCH  52  66
ATOM     66  C   UNL     1       4.015   1.137 -19.059  1.00  0.00    -0.014 A 
ATOM     67  C   UNL     1       5.297   1.254 -19.617  1.00  0.00     0.009 A 
ATOM     68  C   UNL     1       3.138   2.232 -19.131  1.00  0.00     0.009 A 
ATOM     69  C   UNL     1       5.697   2.449 -20.218  1.00  0.00     0.001 A 
ATOM     70  C   UNL     1       3.532   3.416 -19.755  1.00  0.00     0.001 A 
ATOM     71  C   UNL     1       4.813   3.526 -20.293  1.00  0.00     0.000 A 
ENDBRANCH  52  66
BRANCH  53  72
ATOM     72  C   UNL     1       0.763  -7.123 -14.520  1.00  0.00    -0.014 A 
ATOM     73  C   UNL     1       0.950  -8.409 -15.049  1.00  0.00     0.009 A 
ATOM     74  C   UNL     1       0.004  -6.977 -13.347  1.00  0.00     0.009 A 
ATOM     75  C   UNL     1       0.359  -9.518 -14.439  1.00  0.00     0.001 A 
ATOM     76  C   UNL     1      -0.559  -8.091 -12.722  1.00  0.00     0.001 A 
ATOM     77  C   UNL     1      -0.392  -9.359 -13.276  1.00  0.00     0.000 A 
ENDBRANCH  53  72
BRANCH  65  78
ATOM     78  C   UNL     1      -0.747  -4.040 -20.574  1.00  0.00    -0.014 A 
ATOM     79  C   UNL     1      -2.131  -3.872 -20.418  1.00  0.00     0.009 A 
ATOM     80  C   UNL     1      -0.250  -4.494 -21.806  1.00  0.00     0.009 A 
ATOM     81  C   UNL     1      -3.001  -4.182 -21.466  1.00  0.00     0.001 A 
ATOM     82  C   UNL     1      -1.119  -4.775 -22.861  1.00  0.00     0.001 A 
ATOM     83  C   UNL     1      -2.494  -4.627 -22.687  1.00  0.00     0.000 A 
ENDBRANCH  65  78
ENDBRANCH  39  40
ENDBRANCH  32  34
ENDBRANCH  31  32
ENDBRANCH  30  31
ENDBRANCH  29  30
ENDBRANCH  28  29
ENDBRANCH   1  28
TORSDOF 19
