REMARK SMILES O=C(N[C@@H](Cc1c[nH]c2ccccc12)C(=O)N[C@@H](CO)C(=O)OCCOCCOC(=O)c1ccc(-c2c3nc(c(-c4ccccc4)c4ccc([nH]4)c(-c4ccccc4)c4nc(c(-c5ccccc5)c5ccc2[nH]5)C=C4)C=C3)cc1)c1ccc(F)cc1
REMARK SMILES IDX 25 1 24 2 23 3 21 4 22 5 18 6 17 7 15 8 16 9 4 11 3 12 1 13
REMARK SMILES IDX 2 14 80 16 81 17 86 18 82 19 85 20 83 21 84 22 5 23 6 24
REMARK SMILES IDX 7 25 14 26 8 27 9 28 13 29 10 31 12 32 11 33 19 34 20 35
REMARK SMILES IDX 26 37 27 38 28 39 29 40 30 41 31 42 32 43 33 44 79 45 34 46
REMARK SMILES IDX 78 47 35 48 36 49 37 50 72 51 38 52 77 53 71 54 73 55 39 56
REMARK SMILES IDX 76 57 70 58 69 59 40 61 62 62 47 63 61 64 48 65 51 66 60 67
REMARK SMILES IDX 74 68 49 69 50 70 59 72 75 73 52 74 41 75 42 76 46 77 43 78
REMARK SMILES IDX 45 79 44 80 63 81 64 82 68 83 65 84 67 85 66 86 53 87 54 88
REMARK SMILES IDX 58 89 55 90 57 91 56 92
REMARK H PARENT 17 10 3 15 8 30 20 36 73 60 51 71
REMARK Flexibility Score: inf
ROOT
ATOM      1  C   UNL     1       7.456  -5.952  -4.245  1.00  0.00     0.202 C 
ENDROOT
BRANCH   1   2
ATOM      2  C   UNL     1       6.384  -5.468  -5.254  1.00  0.00     0.261 C 
BRANCH   2   3
ATOM      3  O   UNL     1       5.689  -4.251  -4.950  1.00  0.00    -0.462 OA
BRANCH   3   4
ATOM      4  C   UNL     1       4.696  -4.526  -4.062  1.00  0.00     0.331 C 
ATOM      5  O   UNL     1       4.606  -5.628  -3.506  1.00  0.00    -0.250 OA
BRANCH   4   6
ATOM      6  C   UNL     1       3.620  -3.226  -3.744  1.00  0.00     0.218 C 
BRANCH   6   7
ATOM      7  N   UNL     1       4.712  -1.942  -3.464  1.00  0.00    -0.339 N 
ATOM      8  C   UNL     1       5.003  -1.122  -2.379  1.00  0.00     0.243 C 
ATOM      9  O   UNL     1       5.870  -0.258  -2.596  1.00  0.00    -0.273 OA
ATOM     10  H   UNL     1       5.263  -1.734  -4.253  1.00  0.00     0.164 HD
BRANCH   8  11
ATOM     11  C   UNL     1       4.256  -1.073  -0.937  1.00  0.00     0.176 C 
BRANCH  11  12
ATOM     12  N   UNL     1       3.016  -0.264  -0.789  1.00  0.00    -0.340 N 
ATOM     13  O   UNL     1       1.330   0.826   0.152  1.00  0.00    -0.269 OA
ATOM     14  C   UNL     1       2.543   0.623   0.122  1.00  0.00     0.251 C 
ATOM     15  H   UNL     1       2.386  -0.407  -1.532  1.00  0.00     0.164 HD
BRANCH  14  16
ATOM     16  C   UNL     1       3.404   1.300   1.091  1.00  0.00     0.040 A 
ATOM     17  C   UNL     1       4.580   1.938   0.698  1.00  0.00     0.017 A 
ATOM     18  C   UNL     1       2.938   1.395   2.411  1.00  0.00     0.017 A 
ATOM     19  C   UNL     1       5.315   2.647   1.648  1.00  0.00     0.040 A 
ATOM     20  C   UNL     1       3.678   2.099   3.356  1.00  0.00     0.040 A 
ATOM     21  C   UNL     1       4.862   2.714   2.966  1.00  0.00     0.123 A 
ATOM     22  F   UNL     1       5.574   3.396   3.871  1.00  0.00    -0.207 F 
ENDBRANCH  14  16
ENDBRANCH  11  12
BRANCH  11  23
ATOM     23  C   UNL     1       3.993  -2.429  -0.282  1.00  0.00     0.072 C 
BRANCH  23  24
ATOM     24  C   UNL     1       2.851  -3.220  -0.896  1.00  0.00    -0.020 A 
ATOM     25  C   UNL     1       2.689  -4.583  -0.631  1.00  0.00     0.087 A 
ATOM     26  C   UNL     1       2.210  -2.906  -2.177  1.00  0.00     0.003 A 
ATOM     27  N   UNL     1       2.224  -5.326  -1.714  1.00  0.00    -0.361 N 
ATOM     28  C   UNL     1       2.199  -4.540  -2.842  1.00  0.00     0.046 A 
ATOM     29  C   UNL     1       2.442  -1.515  -3.352  1.00  0.00     0.010 A 
ATOM     30  H   UNL     1       1.955  -6.272  -1.678  1.00  0.00     0.166 HD
ATOM     31  C   UNL     1       2.455  -4.825  -4.613  1.00  0.00     0.026 A 
ATOM     32  C   UNL     1       2.828  -1.808  -5.078  1.00  0.00     0.001 A 
ATOM     33  C   UNL     1       2.850  -3.459  -5.690  1.00  0.00     0.002 A 
ENDBRANCH  23  24
ENDBRANCH  11  23
ENDBRANCH   8  11
ENDBRANCH   6   7
BRANCH   6  34
ATOM     34  C   UNL     1       1.455  -3.090  -4.142  1.00  0.00     0.193 C 
BRANCH  34  35
ATOM     35  O   UNL     1       0.709  -2.627  -5.438  1.00  0.00    -0.394 OA
ATOM     36  H   UNL     1       0.787  -1.664  -5.530  1.00  0.00     0.210 HD
ENDBRANCH  34  35
ENDBRANCH   6  34
ENDBRANCH   4   6
ENDBRANCH   3   4
ENDBRANCH   2   3
ENDBRANCH   1   2
BRANCH   1  37
ATOM     37  O   UNL     1       7.364  -5.682  -2.854  1.00  0.00    -0.374 OA
BRANCH  37  38
ATOM     38  C   UNL     1       7.331  -4.348  -2.365  1.00  0.00     0.202 C 
BRANCH  38  39
ATOM     39  C   UNL     1       8.339  -3.306  -2.861  1.00  0.00     0.261 C 
BRANCH  39  40
ATOM     40  O   UNL     1       8.329  -3.129  -4.284  1.00  0.00    -0.460 OA
BRANCH  40  41
ATOM     41  C   UNL     1       9.470  -3.510  -4.904  1.00  0.00     0.338 C 
ATOM     42  O   UNL     1      10.486  -3.952  -4.396  1.00  0.00    -0.246 OA
BRANCH  41  43
ATOM     43  C   UNL     1       9.254  -3.522  -6.356  1.00  0.00     0.060 A 
ATOM     44  C   UNL     1       9.351  -4.751  -7.024  1.00  0.00     0.016 A 
ATOM     45  C   UNL     1       9.060  -2.333  -7.058  1.00  0.00     0.016 A 
ATOM     46  C   UNL     1       9.272  -4.797  -8.407  1.00  0.00     0.010 A 
ATOM     47  C   UNL     1       9.027  -2.374  -8.451  1.00  0.00     0.010 A 
ATOM     48  C   UNL     1       9.171  -3.601  -9.124  1.00  0.00    -0.014 A 
BRANCH  48  49
ATOM     49  C   UNL     1       9.449  -3.630 -10.572  1.00  0.00     0.031 A 
ATOM     50  C   UNL     1      10.848  -3.332 -11.027  1.00  0.00     0.074 A 
ATOM     51  C   UNL     1       8.490  -3.975 -11.444  1.00  0.00     0.049 A 
ATOM     52  N   UNL     1      11.327  -3.267 -12.241  1.00  0.00    -0.248 NA
ATOM     53  C   UNL     1      11.842  -3.075  -9.970  1.00  0.00     0.031 C 
ATOM     54  C   UNL     1       7.124  -4.360 -11.093  1.00  0.00     0.029 A 
ATOM     55  N   UNL     1       8.526  -4.056 -12.810  1.00  0.00    -0.354 N 
ATOM     56  C   UNL     1      12.672  -2.949 -12.093  1.00  0.00     0.074 A 
ATOM     57  C   UNL     1      12.928  -2.812 -10.678  1.00  0.00     0.031 C 
ATOM     58  C   UNL     1       6.445  -4.625 -12.222  1.00  0.00     0.029 A 
ATOM     59  C   UNL     1       7.318  -4.388 -13.369  1.00  0.00     0.049 A 
ATOM     60  H   UNL     1       9.339  -3.891 -13.340  1.00  0.00     0.167 HD
ATOM     61  C   UNL     1      13.607  -2.787 -13.058  1.00  0.00     0.031 A 
ATOM     62  C   UNL     1       6.959  -4.461 -14.664  1.00  0.00     0.031 A 
ATOM     63  C   UNL     1      13.329  -2.906 -14.463  1.00  0.00     0.049 A 
ATOM     64  C   UNL     1       7.994  -4.178 -15.720  1.00  0.00     0.074 A 
ATOM     65  C   UNL     1      14.197  -2.760 -15.530  1.00  0.00     0.029 A 
ATOM     66  N   UNL     1      12.079  -3.189 -14.995  1.00  0.00    -0.354 N 
ATOM     67  N   UNL     1       9.265  -3.885 -15.575  1.00  0.00    -0.248 NA
ATOM     68  C   UNL     1       7.546  -4.241 -17.117  1.00  0.00     0.031 C 
ATOM     69  C   UNL     1      13.458  -2.891 -16.709  1.00  0.00     0.029 A 
ATOM     70  C   UNL     1      12.146  -3.192 -16.377  1.00  0.00     0.049 A 
ATOM     71  H   UNL     1      11.267  -3.363 -14.467  1.00  0.00     0.167 HD
ATOM     72  C   UNL     1       9.775  -3.760 -16.861  1.00  0.00     0.074 A 
ATOM     73  C   UNL     1       8.678  -4.025 -17.771  1.00  0.00     0.031 C 
ATOM     74  C   UNL     1      11.036  -3.457 -17.258  1.00  0.00     0.031 A 
BRANCH  61  75
ATOM     75  C   UNL     1      14.994  -2.407 -12.621  1.00  0.00    -0.014 A 
ATOM     76  C   UNL     1      15.825  -3.311 -11.939  1.00  0.00     0.009 A 
ATOM     77  C   UNL     1      15.485  -1.125 -12.913  1.00  0.00     0.009 A 
ATOM     78  C   UNL     1      17.104  -2.925 -11.529  1.00  0.00     0.001 A 
ATOM     79  C   UNL     1      16.774  -0.753 -12.531  1.00  0.00     0.001 A 
ATOM     80  C   UNL     1      17.579  -1.650 -11.831  1.00  0.00     0.000 A 
ENDBRANCH  61  75
BRANCH  62  81
ATOM     81  C   UNL     1       5.556  -4.784 -15.031  1.00  0.00    -0.014 A 
ATOM     82  C   UNL     1       5.241  -5.987 -15.680  1.00  0.00     0.009 A 
ATOM     83  C   UNL     1       4.521  -3.880 -14.741  1.00  0.00     0.009 A 
ATOM     84  C   UNL     1       3.923  -6.264 -16.055  1.00  0.00     0.001 A 
ATOM     85  C   UNL     1       3.201  -4.174 -15.087  1.00  0.00     0.001 A 
ATOM     86  C   UNL     1       2.905  -5.362 -15.753  1.00  0.00     0.000 A 
ENDBRANCH  62  81
BRANCH  74  87
ATOM     87  C   UNL     1      11.305  -3.439 -18.737  1.00  0.00    -0.014 A 
ATOM     88  C   UNL     1      10.795  -2.426 -19.563  1.00  0.00     0.009 A 
ATOM     89  C   UNL     1      12.122  -4.432 -19.303  1.00  0.00     0.009 A 
ATOM     90  C   UNL     1      11.068  -2.429 -20.933  1.00  0.00     0.001 A 
ATOM     91  C   UNL     1      12.422  -4.412 -20.665  1.00  0.00     0.001 A 
ATOM     92  C   UNL     1      11.885  -3.418 -21.480  1.00  0.00     0.000 A 
ENDBRANCH  74  87
ENDBRANCH  48  49
ENDBRANCH  41  43
ENDBRANCH  40  41
ENDBRANCH  39  40
ENDBRANCH  38  39
ENDBRANCH  37  38
ENDBRANCH   1  37
TORSDOF 22
