REMARK SMILES O=C(OCCOCCOC(=O)[C@H]1CCc2[nH]nc(C(F)(F)F)c2C1)c1ccc(-c2c3nc(c(-c4ccccc4)c4ccc([nH]4)c(-c4ccccc4)c4nc(c(-c5ccccc5)c5ccc2[nH]5)C=C4)C=C3)cc1
REMARK SMILES IDX 5 1 4 2 3 3 2 4 1 5 25 6 26 7 72 8 27 9 71 10 28 11 29 12
REMARK SMILES IDX 30 13 65 14 31 15 70 16 64 17 66 18 32 19 69 20 63 21 62 22
REMARK SMILES IDX 33 24 55 25 40 26 54 27 41 28 44 29 53 30 67 31 42 32 43 33
REMARK SMILES IDX 52 35 68 36 45 37 34 38 35 39 39 40 36 41 38 42 37 43 56 44
REMARK SMILES IDX 57 45 61 46 58 47 60 48 59 49 46 50 47 51 51 52 48 53 50 54
REMARK SMILES IDX 49 55 6 56 7 57 8 58 9 59 10 60 11 61 12 62 13 63 24 64
REMARK SMILES IDX 14 65 23 66 15 67 18 68 16 69 17 70 19 72 20 73 21 74 22 75
REMARK H PARENT 66 23 44 34 16 71
REMARK Flexibility Score: inf
ROOT
ATOM      1  C   UNL     1       6.570   5.857  -2.024  1.00  0.00     0.202 C 
ENDROOT
BRANCH   1   2
ATOM      2  C   UNL     1       7.049   6.634  -3.262  1.00  0.00     0.261 C 
BRANCH   2   3
ATOM      3  O   UNL     1       7.938   5.848  -4.099  1.00  0.00    -0.460 OA
BRANCH   3   4
ATOM      4  C   UNL     1       9.236   6.144  -4.408  1.00  0.00     0.338 C 
ATOM      5  O   UNL     1       9.820   5.616  -5.336  1.00  0.00    -0.246 OA
BRANCH   4   6
ATOM      6  C   UNL     1       9.928   7.157  -3.581  1.00  0.00     0.060 A 
ATOM      7  C   UNL     1       9.697   7.173  -2.221  1.00  0.00     0.016 A 
ATOM      8  C   UNL     1      10.770   8.121  -4.130  1.00  0.00     0.016 A 
ATOM      9  C   UNL     1       9.956   8.292  -1.479  1.00  0.00     0.010 A 
ATOM     10  C   UNL     1      11.263   9.146  -3.307  1.00  0.00     0.010 A 
ATOM     11  C   UNL     1      10.803   9.268  -1.985  1.00  0.00    -0.014 A 
BRANCH  11  12
ATOM     12  C   UNL     1      11.111  10.395  -1.077  1.00  0.00     0.031 A 
ATOM     13  C   UNL     1      10.740  11.788  -1.480  1.00  0.00     0.074 A 
ATOM     14  C   UNL     1      11.534  10.119   0.178  1.00  0.00     0.049 A 
ATOM     15  N   UNL     1      10.969  12.909  -0.850  1.00  0.00    -0.248 NA
ATOM     16  C   UNL     1      10.024  11.952  -2.757  1.00  0.00     0.031 C 
ATOM     17  C   UNL     1      11.809   8.773   0.705  1.00  0.00     0.029 A 
ATOM     18  N   UNL     1      11.713  10.928   1.266  1.00  0.00    -0.354 N 
ATOM     19  C   UNL     1      10.494  13.910  -1.685  1.00  0.00     0.074 A 
ATOM     20  C   UNL     1       9.949  13.270  -2.860  1.00  0.00     0.031 C 
ATOM     21  C   UNL     1      11.979   8.839   2.031  1.00  0.00     0.029 A 
ATOM     22  C   UNL     1      12.004  10.238   2.421  1.00  0.00     0.049 A 
ATOM     23  H   UNL     1      11.641  11.909   1.228  1.00  0.00     0.167 HD
ATOM     24  C   UNL     1      10.535  15.247  -1.485  1.00  0.00     0.031 A 
ATOM     25  C   UNL     1      12.316  10.687   3.649  1.00  0.00     0.031 A 
ATOM     26  C   UNL     1      11.069  15.843  -0.291  1.00  0.00     0.049 A 
ATOM     27  C   UNL     1      12.406  12.172   3.826  1.00  0.00     0.074 A 
ATOM     28  C   UNL     1      11.278  17.177  -0.000  1.00  0.00     0.029 A 
ATOM     29  N   UNL     1      11.457  15.120   0.830  1.00  0.00    -0.354 N 
ATOM     30  N   UNL     1      12.108  13.121   2.969  1.00  0.00    -0.248 NA
ATOM     31  C   UNL     1      12.918  12.652   5.113  1.00  0.00     0.031 C 
ATOM     32  C   UNL     1      11.821  17.258   1.288  1.00  0.00     0.029 A 
ATOM     33  C   UNL     1      11.903  15.978   1.817  1.00  0.00     0.049 A 
ATOM     34  H   UNL     1      11.420  14.139   0.910  1.00  0.00     0.167 HD
ATOM     35  C   UNL     1      12.414  14.312   3.604  1.00  0.00     0.074 A 
ATOM     36  C   UNL     1      12.871  13.965   4.938  1.00  0.00     0.031 C 
ATOM     37  C   UNL     1      12.352  15.579   3.127  1.00  0.00     0.031 A 
BRANCH  24  38
ATOM     38  C   UNL     1      10.076  16.120  -2.618  1.00  0.00    -0.014 A 
ATOM     39  C   UNL     1       8.718  16.254  -2.946  1.00  0.00     0.009 A 
ATOM     40  C   UNL     1      11.032  16.785  -3.402  1.00  0.00     0.009 A 
ATOM     41  C   UNL     1       8.332  17.006  -4.059  1.00  0.00     0.001 A 
ATOM     42  C   UNL     1      10.641  17.555  -4.499  1.00  0.00     0.001 A 
ATOM     43  C   UNL     1       9.292  17.655  -4.834  1.00  0.00     0.000 A 
ENDBRANCH  24  38
BRANCH  25  44
ATOM     44  C   UNL     1      12.685   9.737   4.736  1.00  0.00    -0.014 A 
ATOM     45  C   UNL     1      11.938   9.657   5.920  1.00  0.00     0.009 A 
ATOM     46  C   UNL     1      13.801   8.893   4.590  1.00  0.00     0.009 A 
ATOM     47  C   UNL     1      12.310   8.768   6.935  1.00  0.00     0.001 A 
ATOM     48  C   UNL     1      14.146   7.977   5.585  1.00  0.00     0.001 A 
ATOM     49  C   UNL     1      13.407   7.924   6.763  1.00  0.00     0.000 A 
ENDBRANCH  25  44
BRANCH  37  50
ATOM     50  C   UNL     1      12.771  16.659   4.075  1.00  0.00    -0.014 A 
ATOM     51  C   UNL     1      14.126  16.867   4.378  1.00  0.00     0.009 A 
ATOM     52  C   UNL     1      11.798  17.480   4.662  1.00  0.00     0.009 A 
ATOM     53  C   UNL     1      14.495  17.858   5.286  1.00  0.00     0.001 A 
ATOM     54  C   UNL     1      12.173  18.487   5.549  1.00  0.00     0.001 A 
ATOM     55  C   UNL     1      13.519  18.668   5.868  1.00  0.00     0.000 A 
ENDBRANCH  37  50
ENDBRANCH  11  12
ENDBRANCH   4   6
ENDBRANCH   3   4
ENDBRANCH   2   3
ENDBRANCH   1   2
BRANCH   1  56
ATOM     56  O   UNL     1       7.573   5.296  -1.182  1.00  0.00    -0.374 OA
BRANCH  56  57
ATOM     57  C   UNL     1       8.125   4.053  -1.638  1.00  0.00     0.202 C 
BRANCH  57  58
ATOM     58  C   UNL     1       7.735   2.929  -0.684  1.00  0.00     0.261 C 
BRANCH  58  59
ATOM     59  O   UNL     1       6.430   2.453  -1.049  1.00  0.00    -0.463 OA
BRANCH  59  60
ATOM     60  C   UNL     1       5.364   3.158  -0.590  1.00  0.00     0.309 C 
ATOM     61  O   UNL     1       5.404   3.974   0.322  1.00  0.00    -0.252 OA
BRANCH  60  62
ATOM     62  C   UNL     1       4.089   2.775  -1.333  1.00  0.00     0.104 C 
ATOM     63  C   UNL     1       3.103   3.977  -1.450  1.00  0.00     0.022 C 
ATOM     64  C   UNL     1       4.352   2.072  -2.686  1.00  0.00     0.055 C 
ATOM     65  C   UNL     1       3.215   4.908  -2.682  1.00  0.00     0.057 C 
ATOM     66  C   UNL     1       4.599   3.055  -3.771  1.00  0.00     0.006 A 
ATOM     67  C   UNL     1       4.010   4.295  -3.769  1.00  0.00     0.039 A 
ATOM     68  C   UNL     1       5.452   3.049  -4.914  1.00  0.00     0.169 A 
ATOM     69  N   UNL     1       4.397   4.909  -4.920  1.00  0.00    -0.282 N 
ATOM     70  N   UNL     1       5.288   4.192  -5.619  1.00  0.00    -0.171 NA
ATOM     71  H   UNL     1       4.059   5.788  -5.209  1.00  0.00     0.190 HD
BRANCH  68  72
ATOM     72  C   UNL     1       6.456   1.996  -5.324  1.00  0.00     0.435 C 
ATOM     73  F   UNL     1       6.404   1.696  -6.649  1.00  0.00    -0.164 F 
ATOM     74  F   UNL     1       7.734   2.371  -5.046  1.00  0.00    -0.164 F 
ATOM     75  F   UNL     1       6.261   0.820  -4.662  1.00  0.00    -0.164 F 
ENDBRANCH  68  72
ENDBRANCH  60  62
ENDBRANCH  59  60
ENDBRANCH  58  59
ENDBRANCH  57  58
ENDBRANCH  56  57
ENDBRANCH   1  56
TORSDOF 15
