REMARK SMILES NS(=O)(=O)c1ccc(/N=C/c2ccc(O)c(C(=O)OCCOCCOC(=O)c3ccc(-c4c5nc(c(-c6ccccc6)c6ccc([nH]6)c(-c6ccccc6)c6nc(c(-c7ccccc7)c7ccc4[nH]7)C=C6)C=C5)cc3)c2)cc1
REMARK SMILES IDX 21 1 20 2 19 3 17 4 18 5 16 6 11 7 12 8 76 9 13 10 14 11
REMARK SMILES IDX 10 12 9 13 8 14 5 15 6 16 78 17 7 18 77 19 2 20 3 21 4 22
REMARK SMILES IDX 1 23 15 26 22 28 23 29 24 30 25 31 26 32 27 33 28 34 29 35
REMARK SMILES IDX 75 36 30 37 74 38 31 39 32 40 33 41 68 42 34 43 73 44 67 45
REMARK SMILES IDX 69 46 35 47 72 48 66 49 65 50 36 52 58 53 43 54 57 55 44 56
REMARK SMILES IDX 47 57 56 58 70 59 45 60 46 61 55 63 71 64 48 65 37 66 38 67
REMARK SMILES IDX 42 68 39 69 41 70 40 71 59 72 60 73 64 74 61 75 63 76 62 77
REMARK SMILES IDX 49 78 50 79 54 80 51 81 53 82 52 83
REMARK H PARENT 1 24 1 25 15 27 69 51 47 62
REMARK Flexibility Score: inf
ROOT
ATOM      1  C   UNL     1       6.490  -9.541   6.932  1.00  0.00     0.202 C 
ENDROOT
BRANCH   1   2
ATOM      2  C   UNL     1       5.016  -9.722   6.551  1.00  0.00     0.261 C 
BRANCH   2   3
ATOM      3  O   UNL     1       4.251  -8.523   6.764  1.00  0.00    -0.460 OA
BRANCH   3   4
ATOM      4  C   UNL     1       3.454  -8.556   7.858  1.00  0.00     0.342 C 
ATOM      5  O   UNL     1       3.256  -9.515   8.592  1.00  0.00    -0.246 OA
BRANCH   4   6
ATOM      6  C   UNL     1       3.017  -7.198   8.243  1.00  0.00     0.102 A 
ATOM      7  C   UNL     1       2.326  -4.938   7.742  1.00  0.00    -0.006 A 
ATOM      8  C   UNL     1       2.248  -4.652   9.111  1.00  0.00     0.013 A 
ATOM      9  C   UNL     1       2.726  -6.205   7.298  1.00  0.00     0.029 A 
ATOM     10  C   UNL     1       2.564  -5.634  10.047  1.00  0.00     0.048 A 
ATOM     11  C   UNL     1       2.938  -6.901   9.615  1.00  0.00     0.130 A 
BRANCH   7  12
ATOM     12  C   UNL     1       1.949  -3.864   6.799  1.00  0.00     0.119 C 
ATOM     13  N   UNL     1       2.046  -3.999   5.516  1.00  0.00    -0.256 NA
BRANCH  13  14
ATOM     14  C   UNL     1       1.652  -2.939   4.675  1.00  0.00     0.063 A 
ATOM     15  C   UNL     1       0.911  -0.935   2.845  1.00  0.00     0.082 A 
ATOM     16  C   UNL     1       0.774  -2.279   2.494  1.00  0.00     0.024 A 
ATOM     17  C   UNL     1       1.412  -0.581   4.098  1.00  0.00     0.024 A 
ATOM     18  C   UNL     1       1.146  -3.269   3.411  1.00  0.00     0.030 A 
ATOM     19  C   UNL     1       1.790  -1.581   5.000  1.00  0.00     0.030 A 
BRANCH  15  20
ATOM     20  S   UNL     1       0.492   0.330   1.683  1.00  0.00     0.238 S 
ATOM     21  O   UNL     1       1.148   1.562   2.071  1.00  0.00    -0.207 OA
ATOM     22  O   UNL     1      -0.918   0.253   1.405  1.00  0.00    -0.207 OA
BRANCH  20  23
ATOM     23  N   UNL     1       1.283  -0.160   0.284  1.00  0.00    -0.225 NA
ATOM     24  H   UNL     1       1.103   0.513  -0.461  1.00  0.00     0.137 HD
ATOM     25  H   UNL     1       0.940  -1.078   0.003  1.00  0.00     0.137 HD
ENDBRANCH  20  23
ENDBRANCH  15  20
ENDBRANCH  13  14
ENDBRANCH   7  12
BRANCH  11  26
ATOM     26  O   UNL     1       3.247  -7.802  10.600  1.00  0.00    -0.507 OA
ATOM     27  H   UNL     1       3.178  -7.554  11.501  1.00  0.00     0.293 HD
ENDBRANCH  11  26
ENDBRANCH   4   6
ENDBRANCH   3   4
ENDBRANCH   2   3
ENDBRANCH   1   2
BRANCH   1  28
ATOM     28  O   UNL     1       6.785  -9.228   8.291  1.00  0.00    -0.374 OA
BRANCH  28  29
ATOM     29  C   UNL     1       6.627  -7.874   8.714  1.00  0.00     0.202 C 
BRANCH  29  30
ATOM     30  C   UNL     1       7.686  -6.855   8.274  1.00  0.00     0.261 C 
BRANCH  30  31
ATOM     31  O   UNL     1       7.689  -6.643   6.852  1.00  0.00    -0.460 OA
BRANCH  31  32
ATOM     32  C   UNL     1       8.747  -7.183   6.199  1.00  0.00     0.338 C 
ATOM     33  O   UNL     1       9.699  -7.767   6.685  1.00  0.00    -0.246 OA
BRANCH  32  34
ATOM     34  C   UNL     1       8.505  -7.133   4.746  1.00  0.00     0.060 A 
ATOM     35  C   UNL     1       8.579  -8.335   4.028  1.00  0.00     0.016 A 
ATOM     36  C   UNL     1       8.281  -5.923   4.090  1.00  0.00     0.016 A 
ATOM     37  C   UNL     1       8.476  -8.325   2.639  1.00  0.00     0.010 A 
ATOM     38  C   UNL     1       8.189  -5.913   2.697  1.00  0.00     0.010 A 
ATOM     39  C   UNL     1       8.322  -7.108   1.964  1.00  0.00    -0.014 A 
BRANCH  39  40
ATOM     40  C   UNL     1       8.455  -7.049   0.489  1.00  0.00     0.031 A 
ATOM     41  C   UNL     1       9.742  -6.541  -0.100  1.00  0.00     0.074 A 
ATOM     42  C   UNL     1       7.446  -7.428  -0.313  1.00  0.00     0.049 A 
ATOM     43  N   UNL     1      10.041  -6.292  -1.348  1.00  0.00    -0.248 NA
ATOM     44  C   UNL     1      10.834  -6.269   0.850  1.00  0.00     0.031 C 
ATOM     45  C   UNL     1       6.172  -7.989   0.135  1.00  0.00     0.029 A 
ATOM     46  N   UNL     1       7.333  -7.379  -1.679  1.00  0.00    -0.354 N 
ATOM     47  C   UNL     1      11.346  -5.814  -1.333  1.00  0.00     0.074 A 
ATOM     48  C   UNL     1      11.772  -5.785   0.050  1.00  0.00     0.031 C 
ATOM     49  C   UNL     1       5.398  -8.219  -0.940  1.00  0.00     0.029 A 
ATOM     50  C   UNL     1       6.103  -7.778  -2.141  1.00  0.00     0.049 A 
ATOM     51  H   UNL     1       8.063  -7.087  -2.271  1.00  0.00     0.167 HD
ATOM     52  C   UNL     1      12.120  -5.434  -2.377  1.00  0.00     0.031 A 
ATOM     53  C   UNL     1       5.593  -7.756  -3.388  1.00  0.00     0.031 A 
ATOM     54  C   UNL     1      11.688  -5.454  -3.748  1.00  0.00     0.049 A 
ATOM     55  C   UNL     1       6.442  -7.245  -4.524  1.00  0.00     0.074 A 
ATOM     56  C   UNL     1      12.400  -5.103  -4.881  1.00  0.00     0.029 A 
ATOM     57  N   UNL     1      10.425  -5.838  -4.171  1.00  0.00    -0.354 N 
ATOM     58  N   UNL     1       7.678  -6.809  -4.502  1.00  0.00    -0.248 NA
ATOM     59  C   UNL     1       5.824  -7.229  -5.858  1.00  0.00     0.031 C 
ATOM     60  C   UNL     1      11.548  -5.213  -5.983  1.00  0.00     0.029 A 
ATOM     61  C   UNL     1      10.328  -5.705  -5.545  1.00  0.00     0.049 A 
ATOM     62  H   UNL     1       9.704  -6.158  -3.582  1.00  0.00     0.167 HD
ATOM     63  C   UNL     1       7.998  -6.506  -5.820  1.00  0.00     0.074 A 
ATOM     64  C   UNL     1       6.828  -6.811  -6.616  1.00  0.00     0.031 C 
ATOM     65  C   UNL     1       9.160  -6.025  -6.326  1.00  0.00     0.031 A 
BRANCH  52  66
ATOM     66  C   UNL     1      13.500  -4.922  -2.068  1.00  0.00    -0.014 A 
ATOM     67  C   UNL     1      14.512  -5.773  -1.597  1.00  0.00     0.009 A 
ATOM     68  C   UNL     1      13.800  -3.568  -2.285  1.00  0.00     0.009 A 
ATOM     69  C   UNL     1      15.784  -5.271  -1.313  1.00  0.00     0.001 A 
ATOM     70  C   UNL     1      15.081  -3.075  -2.032  1.00  0.00     0.001 A 
ATOM     71  C   UNL     1      16.069  -3.924  -1.536  1.00  0.00     0.000 A 
ENDBRANCH  52  66
BRANCH  53  72
ATOM     72  C   UNL     1       4.198  -8.209  -3.630  1.00  0.00    -0.014 A 
ATOM     73  C   UNL     1       3.942  -9.376  -4.366  1.00  0.00     0.009 A 
ATOM     74  C   UNL     1       3.112  -7.466  -3.140  1.00  0.00     0.009 A 
ATOM     75  C   UNL     1       2.628  -9.774  -4.628  1.00  0.00     0.001 A 
ATOM     76  C   UNL     1       1.800  -7.884  -3.376  1.00  0.00     0.001 A 
ATOM     77  C   UNL     1       1.560  -9.031  -4.128  1.00  0.00     0.000 A 
ENDBRANCH  53  72
BRANCH  65  78
ATOM     78  C   UNL     1       9.255  -5.854  -7.818  1.00  0.00    -0.014 A 
ATOM     79  C   UNL     1       8.571  -4.829  -8.488  1.00  0.00     0.009 A 
ATOM     80  C   UNL     1      10.106  -6.697  -8.553  1.00  0.00     0.009 A 
ATOM     81  C   UNL     1       8.718  -4.669  -9.868  1.00  0.00     0.001 A 
ATOM     82  C   UNL     1      10.275  -6.514  -9.925  1.00  0.00     0.001 A 
ATOM     83  C   UNL     1       9.575  -5.505 -10.583  1.00  0.00     0.000 A 
ENDBRANCH  65  78
ENDBRANCH  39  40
ENDBRANCH  32  34
ENDBRANCH  31  32
ENDBRANCH  30  31
ENDBRANCH  29  30
ENDBRANCH  28  29
ENDBRANCH   1  28
TORSDOF 19
