REMARK SMILES CCCC[C@H](C(=O)OCCOCCOC(=O)c1ccc(-c2c3nc(c(-c4ccccc4)c4ccc([nH]4)c(-c4ccccc4)c4nc(c(-c5ccccc5)c5ccc2[nH]5)C=C4)C=C3)cc1)[C@H](O)c1ccc(C(F)(F)F)cc1
REMARK SMILES IDX 10 1 9 2 8 3 6 4 7 5 5 6 4 7 3 8 2 9 1 10 65 11 67 12 68 13
REMARK SMILES IDX 76 14 69 15 75 16 70 17 71 18 72 19 73 20 74 21 66 22 11 24
REMARK SMILES IDX 12 25 13 26 14 27 15 28 16 29 17 30 18 31 64 32 19 33 63 34
REMARK SMILES IDX 20 35 21 36 22 37 57 38 23 39 62 40 56 41 58 42 24 43 61 44
REMARK SMILES IDX 55 45 54 46 25 48 47 49 32 50 46 51 33 52 36 53 45 54 59 55
REMARK SMILES IDX 34 56 35 57 44 59 60 60 37 61 26 62 27 63 31 64 28 65 30 66
REMARK SMILES IDX 29 67 48 68 49 69 53 70 50 71 52 72 51 73 38 74 39 75 43 76
REMARK SMILES IDX 40 77 42 78 41 79
REMARK H PARENT 66 23 58 47 36 58
REMARK Flexibility Score: inf
ROOT
ATOM      1  C   UNL     1      -2.127   7.606   2.238  1.00  0.00     0.202 C 
ENDROOT
BRANCH   1   2
ATOM      2  C   UNL     1      -2.659   6.886   1.000  1.00  0.00     0.261 C 
BRANCH   2   3
ATOM      3  O   UNL     1      -2.527   5.462   1.178  1.00  0.00    -0.463 OA
BRANCH   3   4
ATOM      4  C   UNL     1      -1.668   4.839   0.347  1.00  0.00     0.312 C 
ATOM      5  O   UNL     1      -1.157   5.417  -0.603  1.00  0.00    -0.252 OA
BRANCH   4   6
ATOM      6  C   UNL     1      -1.354   3.382   0.720  1.00  0.00     0.132 C 
BRANCH   6   7
ATOM      7  C   UNL     1       0.191   3.194   0.536  1.00  0.00     0.018 C 
BRANCH   7   8
ATOM      8  C   UNL     1       0.630   2.640  -0.834  1.00  0.00     0.001 C 
BRANCH   8   9
ATOM      9  C   UNL     1       0.399   3.522  -2.062  1.00  0.00    -0.003 C 
ATOM     10  C   UNL     1       1.264   4.778  -2.091  1.00  0.00     0.004 C 
ENDBRANCH   8   9
ENDBRANCH   7   8
ENDBRANCH   6   7
BRANCH   6  11
ATOM     11  C   UNL     1      -1.798   2.957   2.161  1.00  0.00     0.158 C 
BRANCH  11  12
ATOM     12  C   UNL     1      -3.294   2.794   2.389  1.00  0.00    -0.019 A 
ATOM     13  C   UNL     1      -4.039   3.851   2.932  1.00  0.00     0.007 A 
ATOM     14  C   UNL     1      -3.975   1.607   2.083  1.00  0.00     0.007 A 
ATOM     15  C   UNL     1      -5.426   3.777   3.055  1.00  0.00     0.013 A 
ATOM     16  C   UNL     1      -5.363   1.512   2.247  1.00  0.00     0.013 A 
ATOM     17  C   UNL     1      -6.107   2.609   2.702  1.00  0.00     0.056 A 
BRANCH  17  18
ATOM     18  C   UNL     1      -7.613   2.570   2.774  1.00  0.00     0.416 C 
ATOM     19  F   UNL     1      -8.100   3.099   3.930  1.00  0.00    -0.166 F 
ATOM     20  F   UNL     1      -8.191   3.281   1.765  1.00  0.00    -0.166 F 
ATOM     21  F   UNL     1      -8.131   1.314   2.688  1.00  0.00    -0.166 F 
ENDBRANCH  17  18
ENDBRANCH  11  12
BRANCH  11  22
ATOM     22  O   UNL     1      -1.184   1.718   2.554  1.00  0.00    -0.388 OA
ATOM     23  H   UNL     1      -1.511   1.001   1.988  1.00  0.00     0.211 HD
ENDBRANCH  11  22
ENDBRANCH   6  11
ENDBRANCH   4   6
ENDBRANCH   3   4
ENDBRANCH   2   3
ENDBRANCH   1   2
BRANCH   1  24
ATOM     24  O   UNL     1      -0.714   7.566   2.437  1.00  0.00    -0.374 OA
BRANCH  24  25
ATOM     25  C   UNL     1      -0.153   6.378   2.992  1.00  0.00     0.202 C 
BRANCH  25  26
ATOM     26  C   UNL     1      -0.310   6.177   4.506  1.00  0.00     0.261 C 
BRANCH  26  27
ATOM     27  O   UNL     1      -1.687   6.011   4.896  1.00  0.00    -0.460 OA
BRANCH  27  28
ATOM     28  C   UNL     1      -2.226   7.077   5.534  1.00  0.00     0.338 C 
ATOM     29  O   UNL     1      -1.654   8.104   5.874  1.00  0.00    -0.246 OA
BRANCH  28  30
ATOM     30  C   UNL     1      -3.694   6.942   5.588  1.00  0.00     0.060 A 
ATOM     31  C   UNL     1      -4.455   8.013   5.099  1.00  0.00     0.016 A 
ATOM     32  C   UNL     1      -4.319   5.825   6.145  1.00  0.00     0.016 A 
ATOM     33  C   UNL     1      -5.842   7.997   5.216  1.00  0.00     0.010 A 
ATOM     34  C   UNL     1      -5.713   5.815   6.269  1.00  0.00     0.010 A 
ATOM     35  C   UNL     1      -6.476   6.918   5.843  1.00  0.00    -0.014 A 
BRANCH  35  36
ATOM     36  C   UNL     1      -7.912   7.028   6.200  1.00  0.00     0.031 A 
ATOM     37  C   UNL     1      -8.283   7.363   7.619  1.00  0.00     0.074 A 
ATOM     38  C   UNL     1      -8.873   6.878   5.271  1.00  0.00     0.049 A 
ATOM     39  N   UNL     1      -9.469   7.499   8.157  1.00  0.00    -0.248 NA
ATOM     40  C   UNL     1      -7.168   7.576   8.556  1.00  0.00     0.031 C 
ATOM     41  C   UNL     1      -8.647   6.608   3.853  1.00  0.00     0.029 A 
ATOM     42  N   UNL     1     -10.239   6.932   5.392  1.00  0.00    -0.354 N 
ATOM     43  C   UNL     1      -9.242   7.801   9.494  1.00  0.00     0.074 A 
ATOM     44  C   UNL     1      -7.809   7.799   9.693  1.00  0.00     0.031 C 
ATOM     45  C   UNL     1      -9.836   6.504   3.235  1.00  0.00     0.029 A 
ATOM     46  C   UNL     1     -10.904   6.675   4.219  1.00  0.00     0.049 A 
ATOM     47  H   UNL     1     -10.698   7.135   6.239  1.00  0.00     0.167 HD
ATOM     48  C   UNL     1     -10.144   8.064  10.470  1.00  0.00     0.031 A 
ATOM     49  C   UNL     1     -12.224   6.571   3.970  1.00  0.00     0.031 A 
ATOM     50  C   UNL     1     -11.569   8.056  10.278  1.00  0.00     0.049 A 
ATOM     51  C   UNL     1     -13.209   6.786   5.089  1.00  0.00     0.074 A 
ATOM     52  C   UNL     1     -12.565   8.328  11.200  1.00  0.00     0.029 A 
ATOM     53  N   UNL     1     -12.203   7.748   9.084  1.00  0.00    -0.354 N 
ATOM     54  N   UNL     1     -12.983   7.101   6.341  1.00  0.00    -0.248 NA
ATOM     55  C   UNL     1     -14.633   6.640   4.754  1.00  0.00     0.031 C 
ATOM     56  C   UNL     1     -13.802   8.125  10.581  1.00  0.00     0.029 A 
ATOM     57  C   UNL     1     -13.576   7.793   9.254  1.00  0.00     0.049 A 
ATOM     58  H   UNL     1     -11.744   7.530   8.241  1.00  0.00     0.167 HD
ATOM     59  C   UNL     1     -14.234   7.222   6.935  1.00  0.00     0.074 A 
ATOM     60  C   UNL     1     -15.214   6.959   5.902  1.00  0.00     0.031 C 
ATOM     61  C   UNL     1     -14.542   7.528   8.219  1.00  0.00     0.031 A 
BRANCH  48  62
ATOM     62  C   UNL     1      -9.610   8.342  11.848  1.00  0.00    -0.014 A 
ATOM     63  C   UNL     1      -8.927   9.533  12.143  1.00  0.00     0.009 A 
ATOM     64  C   UNL     1      -9.817   7.407  12.873  1.00  0.00     0.009 A 
ATOM     65  C   UNL     1      -8.430   9.763  13.428  1.00  0.00     0.001 A 
ATOM     66  C   UNL     1      -9.347   7.653  14.164  1.00  0.00     0.001 A 
ATOM     67  C   UNL     1      -8.645   8.825  14.438  1.00  0.00     0.000 A 
ENDBRANCH  48  62
BRANCH  49  68
ATOM     68  C   UNL     1     -12.696   6.232   2.602  1.00  0.00    -0.014 A 
ATOM     69  C   UNL     1     -13.379   7.178   1.823  1.00  0.00     0.009 A 
ATOM     70  C   UNL     1     -12.473   4.951   2.072  1.00  0.00     0.009 A 
ATOM     71  C   UNL     1     -13.849   6.840   0.551  1.00  0.00     0.001 A 
ATOM     72  C   UNL     1     -12.919   4.625   0.790  1.00  0.00     0.001 A 
ATOM     73  C   UNL     1     -13.614   5.566   0.034  1.00  0.00     0.000 A 
ENDBRANCH  49  68
BRANCH  61  74
ATOM     74  C   UNL     1     -16.000   7.639   8.575  1.00  0.00    -0.014 A 
ATOM     75  C   UNL     1     -16.823   6.505   8.659  1.00  0.00     0.009 A 
ATOM     76  C   UNL     1     -16.545   8.897   8.878  1.00  0.00     0.009 A 
ATOM     77  C   UNL     1     -18.169   6.634   9.006  1.00  0.00     0.001 A 
ATOM     78  C   UNL     1     -17.883   9.020   9.255  1.00  0.00     0.001 A 
ATOM     79  C   UNL     1     -18.696   7.889   9.309  1.00  0.00     0.000 A 
ENDBRANCH  61  74
ENDBRANCH  35  36
ENDBRANCH  28  30
ENDBRANCH  27  28
ENDBRANCH  26  27
ENDBRANCH  25  26
ENDBRANCH  24  25
ENDBRANCH   1  24
TORSDOF 21
