REMARK SMILES C[C@@H](C(=O)OCCOCCOC(=O)c1ccc(-c2c3nc(c(-c4ccccc4)c4ccc([nH]4)c(-c4ccccc4)c4nc(c(-c5ccccc5)c5ccc2[nH]5)C=C4)C=C3)cc1)c1ccc(-c2cccc(OC(=O)NCCC3CCCCC3)c2)c(F)c1
REMARK SMILES IDX 6 1 5 2 3 3 4 4 2 5 1 6 62 7 63 8 86 9 64 10 84 11 65 12
REMARK SMILES IDX 85 13 66 14 67 15 83 16 68 17 70 18 69 19 71 20 72 21 73 22
REMARK SMILES IDX 74 23 75 25 76 26 77 27 78 28 82 29 79 30 81 31 80 32 7 33
REMARK SMILES IDX 8 34 9 35 10 36 11 37 12 38 13 39 14 40 15 41 61 42 16 43
REMARK SMILES IDX 60 44 17 45 18 46 19 47 54 48 20 49 59 50 53 51 55 52 21 53
REMARK SMILES IDX 58 54 52 55 51 56 22 58 44 59 29 60 43 61 30 62 33 63 42 64
REMARK SMILES IDX 56 65 31 66 32 67 41 69 57 70 34 71 23 72 24 73 28 74 25 75
REMARK SMILES IDX 27 76 26 77 45 78 46 79 50 80 47 81 49 82 48 83 35 84 36 85
REMARK SMILES IDX 40 86 37 87 39 88 38 89
REMARK H PARENT 74 24 55 57 33 68
REMARK Flexibility Score: inf
ROOT
ATOM      1  C   UNL     1       2.461  -3.249   2.453  1.00  0.00     0.261 C 
ENDROOT
BRANCH   1   2
ATOM      2  O   UNL     1       2.107  -2.369   1.375  1.00  0.00    -0.463 OA
BRANCH   2   3
ATOM      3  C   UNL     1       1.205  -2.871   0.485  1.00  0.00     0.313 C 
ATOM      4  O   UNL     1       0.863  -4.049   0.455  1.00  0.00    -0.252 OA
BRANCH   3   5
ATOM      5  C   UNL     1       0.633  -1.801  -0.467  1.00  0.00     0.126 C 
ATOM      6  C   UNL     1       1.422  -0.484  -0.420  1.00  0.00     0.025 C 
BRANCH   5   7
ATOM      7  C   UNL     1      -0.888  -1.644  -0.322  1.00  0.00    -0.031 A 
ATOM      8  C   UNL     1      -1.534  -0.410  -0.138  1.00  0.00     0.005 A 
ATOM      9  C   UNL     1      -1.705  -2.784  -0.405  1.00  0.00     0.044 A 
ATOM     10  C   UNL     1      -2.933  -0.328  -0.007  1.00  0.00     0.012 A 
ATOM     11  C   UNL     1      -3.089  -2.700  -0.256  1.00  0.00     0.131 A 
ATOM     12  C   UNL     1      -3.734  -1.477  -0.048  1.00  0.00     0.018 A 
ATOM     13  F   UNL     1      -3.799  -3.837  -0.315  1.00  0.00    -0.206 F 
BRANCH  12  14
ATOM     14  C   UNL     1      -5.188  -1.421   0.166  1.00  0.00    -0.012 A 
ATOM     15  C   UNL     1      -6.039  -0.719  -0.701  1.00  0.00     0.009 A 
ATOM     16  C   UNL     1      -5.758  -2.103   1.255  1.00  0.00     0.056 A 
ATOM     17  C   UNL     1      -7.422  -0.713  -0.492  1.00  0.00     0.004 A 
ATOM     18  C   UNL     1      -7.133  -2.078   1.478  1.00  0.00     0.133 A 
ATOM     19  C   UNL     1      -7.970  -1.393   0.597  1.00  0.00     0.047 A 
BRANCH  18  20
ATOM     20  O   UNL     1      -7.779  -2.723   2.564  1.00  0.00    -0.410 OA
BRANCH  20  21
ATOM     21  C   UNL     1      -7.128  -3.241   3.681  1.00  0.00     0.412 C 
ATOM     22  O   UNL     1      -5.917  -3.274   3.873  1.00  0.00    -0.224 OA
ATOM     23  N   UNL     1      -7.967  -3.722   4.642  1.00  0.00    -0.321 N 
ATOM     24  H   UNL     1      -7.533  -4.082   5.449  1.00  0.00     0.167 HD
BRANCH  23  25
ATOM     25  C   UNL     1      -9.413  -3.772   4.629  1.00  0.00     0.119 C 
BRANCH  25  26
ATOM     26  C   UNL     1      -9.923  -5.215   4.656  1.00  0.00     0.025 C 
BRANCH  26  27
ATOM     27  C   UNL     1      -9.498  -6.027   5.901  1.00  0.00    -0.009 C 
ATOM     28  C   UNL     1     -10.149  -5.495   7.189  1.00  0.00     0.003 C 
ATOM     29  C   UNL     1      -9.837  -7.513   5.696  1.00  0.00     0.003 C 
ATOM     30  C   UNL     1      -9.801  -6.352   8.406  1.00  0.00     0.000 C 
ATOM     31  C   UNL     1      -9.467  -8.352   6.916  1.00  0.00     0.000 C 
ATOM     32  C   UNL     1     -10.135  -7.822   8.179  1.00  0.00     0.000 C 
ENDBRANCH  26  27
ENDBRANCH  25  26
ENDBRANCH  23  25
ENDBRANCH  20  21
ENDBRANCH  18  20
ENDBRANCH  12  14
ENDBRANCH   5   7
ENDBRANCH   3   5
ENDBRANCH   2   3
ENDBRANCH   1   2
BRANCH   1  33
ATOM     33  C   UNL     1       2.141  -2.637   3.821  1.00  0.00     0.202 C 
BRANCH  33  34
ATOM     34  O   UNL     1       0.827  -2.136   4.039  1.00  0.00    -0.374 OA
BRANCH  34  35
ATOM     35  C   UNL     1       0.425  -0.956   3.344  1.00  0.00     0.202 C 
BRANCH  35  36
ATOM     36  C   UNL     1       1.125   0.367   3.688  1.00  0.00     0.261 C 
BRANCH  36  37
ATOM     37  O   UNL     1       2.538   0.362   3.406  1.00  0.00    -0.460 OA
BRANCH  37  38
ATOM     38  C   UNL     1       3.331   0.464   4.502  1.00  0.00     0.338 C 
ATOM     39  O   UNL     1       2.980   0.611   5.661  1.00  0.00    -0.246 OA
BRANCH  38  40
ATOM     40  C   UNL     1       4.734   0.183   4.147  1.00  0.00     0.060 A 
ATOM     41  C   UNL     1       5.360  -0.898   4.783  1.00  0.00     0.016 A 
ATOM     42  C   UNL     1       5.456   1.026   3.303  1.00  0.00     0.016 A 
ATOM     43  C   UNL     1       6.724  -1.116   4.610  1.00  0.00     0.010 A 
ATOM     44  C   UNL     1       6.829   0.811   3.138  1.00  0.00     0.010 A 
ATOM     45  C   UNL     1       7.476  -0.238   3.819  1.00  0.00    -0.014 A 
BRANCH  45  46
ATOM     46  C   UNL     1       8.956  -0.338   3.822  1.00  0.00     0.031 A 
ATOM     47  C   UNL     1       9.757   0.645   4.632  1.00  0.00     0.074 A 
ATOM     48  C   UNL     1       9.579  -1.314   3.140  1.00  0.00     0.049 A 
ATOM     49  N   UNL     1      11.056   0.761   4.747  1.00  0.00    -0.248 NA
ATOM     50  C   UNL     1       8.992   1.629   5.415  1.00  0.00     0.031 C 
ATOM     51  C   UNL     1       8.916  -2.358   2.360  1.00  0.00     0.029 A 
ATOM     52  N   UNL     1      10.917  -1.582   2.993  1.00  0.00    -0.354 N 
ATOM     53  C   UNL     1      11.264   1.834   5.606  1.00  0.00     0.074 A 
ATOM     54  C   UNL     1       9.960   2.356   5.954  1.00  0.00     0.031 C 
ATOM     55  C   UNL     1       9.851  -3.151   1.811  1.00  0.00     0.029 A 
ATOM     56  C   UNL     1      11.176  -2.647   2.166  1.00  0.00     0.049 A 
ATOM     57  H   UNL     1      11.624  -1.060   3.439  1.00  0.00     0.167 HD
ATOM     58  C   UNL     1      12.434   2.336   6.068  1.00  0.00     0.031 A 
ATOM     59  C   UNL     1      12.348  -3.143   1.725  1.00  0.00     0.031 A 
ATOM     60  C   UNL     1      13.731   1.827   5.709  1.00  0.00     0.049 A 
ATOM     61  C   UNL     1      13.636  -2.511   2.182  1.00  0.00     0.074 A 
ATOM     62  C   UNL     1      14.975   2.261   6.131  1.00  0.00     0.029 A 
ATOM     63  N   UNL     1      13.951   0.775   4.833  1.00  0.00    -0.354 N 
ATOM     64  N   UNL     1      13.820  -1.510   3.007  1.00  0.00    -0.248 NA
ATOM     65  C   UNL     1      14.880  -3.088   1.650  1.00  0.00     0.031 C 
ATOM     66  C   UNL     1      15.950   1.515   5.460  1.00  0.00     0.029 A 
ATOM     67  C   UNL     1      15.312   0.567   4.677  1.00  0.00     0.049 A 
ATOM     68  H   UNL     1      13.245   0.253   4.388  1.00  0.00     0.167 HD
ATOM     69  C   UNL     1      15.197  -1.357   3.119  1.00  0.00     0.074 A 
ATOM     70  C   UNL     1      15.800  -2.379   2.288  1.00  0.00     0.031 C 
ATOM     71  C   UNL     1      15.900  -0.452   3.845  1.00  0.00     0.031 A 
BRANCH  58  72
ATOM     72  C   UNL     1      12.363   3.527   6.986  1.00  0.00    -0.014 A 
ATOM     73  C   UNL     1      11.860   3.417   8.293  1.00  0.00     0.009 A 
ATOM     74  C   UNL     1      12.837   4.773   6.546  1.00  0.00     0.009 A 
ATOM     75  C   UNL     1      11.798   4.538   9.124  1.00  0.00     0.001 A 
ATOM     76  C   UNL     1      12.805   5.884   7.390  1.00  0.00     0.001 A 
ATOM     77  C   UNL     1      12.276   5.769   8.674  1.00  0.00     0.000 A 
ENDBRANCH  58  72
BRANCH  59  78
ATOM     78  C   UNL     1      12.359  -4.285   0.772  1.00  0.00    -0.014 A 
ATOM     79  C   UNL     1      12.857  -5.539   1.157  1.00  0.00     0.009 A 
ATOM     80  C   UNL     1      11.885  -4.118  -0.539  1.00  0.00     0.009 A 
ATOM     81  C   UNL     1      12.904  -6.593   0.241  1.00  0.00     0.001 A 
ATOM     82  C   UNL     1      11.902  -5.183  -1.442  1.00  0.00     0.001 A 
ATOM     83  C   UNL     1      12.421  -6.416  -1.055  1.00  0.00     0.000 A 
ENDBRANCH  59  78
BRANCH  71  84
ATOM     84  C   UNL     1      17.401  -0.553   3.810  1.00  0.00    -0.014 A 
ATOM     85  C   UNL     1      18.134  -0.218   2.661  1.00  0.00     0.009 A 
ATOM     86  C   UNL     1      18.095  -0.951   4.965  1.00  0.00     0.009 A 
ATOM     87  C   UNL     1      19.528  -0.317   2.658  1.00  0.00     0.001 A 
ATOM     88  C   UNL     1      19.489  -1.016   4.969  1.00  0.00     0.001 A 
ATOM     89  C   UNL     1      20.204  -0.710   3.813  1.00  0.00     0.000 A 
ENDBRANCH  71  84
ENDBRANCH  45  46
ENDBRANCH  38  40
ENDBRANCH  37  38
ENDBRANCH  36  37
ENDBRANCH  35  36
ENDBRANCH  34  35
ENDBRANCH  33  34
ENDBRANCH   1  33
TORSDOF 21
