REMARK SMILES CC[NH2+][C@@]1(C(=O)OCCOCCOC(=O)c2ccc(-c3c4nc(c(-c5ccccc5)c5ccc([nH]5)c(-c5ccccc5)c5nc(c(-c6ccccc6)c6ccc3[nH]6)C=C5)C=C4)cc2)CC[C@@H]([NH+]2CCC(C)(CC)CC2)C1
REMARK SMILES IDX 10 1 9 2 8 3 7 4 5 5 6 6 4 7 64 8 76 9 65 10 66 11 3 12 2 15
REMARK SMILES IDX 1 16 67 17 68 18 75 19 69 21 74 22 70 23 71 24 72 25 73 26
REMARK SMILES IDX 11 27 12 28 13 29 14 30 15 31 16 32 17 33 63 34 18 35 62 36
REMARK SMILES IDX 19 37 20 38 21 39 56 40 22 41 61 42 55 43 57 44 23 45 60 46
REMARK SMILES IDX 54 47 53 48 24 50 46 51 31 52 45 53 32 54 35 55 44 56 58 57
REMARK SMILES IDX 33 58 34 59 43 61 59 62 36 63 25 64 26 65 30 66 27 67 29 68
REMARK SMILES IDX 28 69 47 70 48 71 52 72 49 73 51 74 50 75 37 76 38 77 42 78
REMARK SMILES IDX 39 79 41 80 40 81
REMARK H PARENT 3 13 3 14 67 20 57 49 35 60
REMARK Flexibility Score: inf
ROOT
ATOM      1  O   UNL     1       4.740   0.678   5.214  1.00  0.00    -0.374 OA
ENDROOT
BRANCH   1   2
ATOM      2  C   UNL     1       4.110   1.105   6.423  1.00  0.00     0.202 C 
BRANCH   2   3
ATOM      3  C   UNL     1       3.120   2.263   6.297  1.00  0.00     0.261 C 
BRANCH   3   4
ATOM      4  O   UNL     1       1.894   1.773   5.722  1.00  0.00    -0.459 OA
BRANCH   4   5
ATOM      5  C   UNL     1       1.527   2.366   4.560  1.00  0.00     0.368 C 
ATOM      6  O   UNL     1       2.015   3.417   4.147  1.00  0.00    -0.245 OA
BRANCH   5   7
ATOM      7  C   UNL     1       0.519   1.507   3.710  1.00  0.00     0.200 C 
ATOM      8  C   UNL     1      -0.878   2.114   3.902  1.00  0.00     0.087 C 
ATOM      9  C   UNL     1       0.350   0.045   4.237  1.00  0.00     0.146 C 
ATOM     10  C   UNL     1      -1.427   1.427   5.148  1.00  0.00     0.072 C 
ATOM     11  C   UNL     1      -0.956  -0.034   5.064  1.00  0.00     0.191 C 
BRANCH   7  12
ATOM     12  N   UNL     1       0.974   1.743   2.309  1.00  0.00    -0.332 N 
ATOM     13  H   UNL     1       0.457   2.556   1.973  1.00  0.00     0.347 HD
ATOM     14  H   UNL     1       1.986   1.814   2.419  1.00  0.00     0.347 HD
BRANCH  12  15
ATOM     15  C   UNL     1       0.848   0.732   1.288  1.00  0.00     0.257 C 
ATOM     16  C   UNL     1       1.649   1.084   0.042  1.00  0.00     0.071 C 
ENDBRANCH  12  15
ENDBRANCH   7  12
BRANCH  11  17
ATOM     17  N   UNL     1      -2.021  -0.973   4.668  1.00  0.00    -0.332 N 
ATOM     18  C   UNL     1      -1.779  -2.396   4.901  1.00  0.00     0.263 C 
ATOM     19  C   UNL     1      -2.711  -0.788   3.400  1.00  0.00     0.263 C 
ATOM     20  H   UNL     1      -2.678  -0.641   5.373  1.00  0.00     0.348 HD
ATOM     21  C   UNL     1      -1.006  -3.123   3.796  1.00  0.00     0.068 C 
ATOM     22  C   UNL     1      -1.930  -1.319   2.204  1.00  0.00     0.068 C 
ATOM     23  C   UNL     1      -1.371  -2.756   2.329  1.00  0.00    -0.022 C 
ATOM     24  C   UNL     1      -0.058  -2.865   1.500  1.00  0.00     0.012 C 
BRANCH  23  25
ATOM     25  C   UNL     1      -2.338  -3.773   1.659  1.00  0.00     0.004 C 
ATOM     26  C   UNL     1      -3.788  -3.747   2.104  1.00  0.00     0.004 C 
ENDBRANCH  23  25
ENDBRANCH  11  17
ENDBRANCH   5   7
ENDBRANCH   4   5
ENDBRANCH   3   4
ENDBRANCH   2   3
ENDBRANCH   1   2
BRANCH   1  27
ATOM     27  C   UNL     1       3.999  -0.180   4.348  1.00  0.00     0.202 C 
BRANCH  27  28
ATOM     28  C   UNL     1       3.896  -1.658   4.762  1.00  0.00     0.261 C 
BRANCH  28  29
ATOM     29  O   UNL     1       3.250  -1.841   6.036  1.00  0.00    -0.460 OA
BRANCH  29  30
ATOM     30  C   UNL     1       4.083  -2.193   7.045  1.00  0.00     0.338 C 
ATOM     31  O   UNL     1       5.272  -2.473   6.959  1.00  0.00    -0.246 OA
BRANCH  30  32
ATOM     32  C   UNL     1       3.420  -2.009   8.350  1.00  0.00     0.060 A 
ATOM     33  C   UNL     1       4.071  -1.199   9.290  1.00  0.00     0.016 A 
ATOM     34  C   UNL     1       2.232  -2.663   8.683  1.00  0.00     0.016 A 
ATOM     35  C   UNL     1       3.568  -1.081  10.583  1.00  0.00     0.010 A 
ATOM     36  C   UNL     1       1.734  -2.555   9.989  1.00  0.00     0.010 A 
ATOM     37  C   UNL     1       2.421  -1.795  10.954  1.00  0.00    -0.014 A 
BRANCH  37  38
ATOM     38  C   UNL     1       2.055  -1.866  12.390  1.00  0.00     0.031 A 
ATOM     39  C   UNL     1       2.478  -3.068  13.193  1.00  0.00     0.074 A 
ATOM     40  C   UNL     1       1.413  -0.850  12.994  1.00  0.00     0.049 A 
ATOM     41  N   UNL     1       2.299  -3.321  14.464  1.00  0.00    -0.248 NA
ATOM     42  C   UNL     1       3.204  -4.121  12.465  1.00  0.00     0.031 C 
ATOM     43  C   UNL     1       0.989   0.389  12.346  1.00  0.00     0.029 A 
ATOM     44  N   UNL     1       1.014  -0.703  14.300  1.00  0.00    -0.354 N 
ATOM     45  C   UNL     1       2.885  -4.561  14.688  1.00  0.00     0.074 A 
ATOM     46  C   UNL     1       3.399  -5.022  13.416  1.00  0.00     0.031 C 
ATOM     47  C   UNL     1       0.387   1.173  13.258  1.00  0.00     0.029 A 
ATOM     48  C   UNL     1       0.361   0.480  14.545  1.00  0.00     0.049 A 
ATOM     49  H   UNL     1       1.180  -1.381  14.994  1.00  0.00     0.167 HD
ATOM     50  C   UNL     1       2.995  -5.252  15.847  1.00  0.00     0.031 A 
ATOM     51  C   UNL     1      -0.203   0.946  15.676  1.00  0.00     0.031 A 
ATOM     52  C   UNL     1       2.478  -4.806  17.113  1.00  0.00     0.049 A 
ATOM     53  C   UNL     1      -0.133   0.124  16.936  1.00  0.00     0.074 A 
ATOM     54  C   UNL     1       2.556  -5.433  18.345  1.00  0.00     0.029 A 
ATOM     55  N   UNL     1       1.780  -3.625  17.307  1.00  0.00    -0.354 N 
ATOM     56  N   UNL     1       0.450  -1.032  17.139  1.00  0.00    -0.248 NA
ATOM     57  C   UNL     1      -0.794   0.681  18.127  1.00  0.00     0.031 C 
ATOM     58  C   UNL     1       1.857  -4.656  19.275  1.00  0.00     0.029 A 
ATOM     59  C   UNL     1       1.395  -3.518  18.633  1.00  0.00     0.049 A 
ATOM     60  H   UNL     1       1.586  -2.961  16.607  1.00  0.00     0.167 HD
ATOM     61  C   UNL     1       0.250  -1.327  18.483  1.00  0.00     0.074 A 
ATOM     62  C   UNL     1      -0.495  -0.223  19.049  1.00  0.00     0.031 C 
ATOM     63  C   UNL     1       0.651  -2.416  19.185  1.00  0.00     0.031 A 
BRANCH  50  64
ATOM     64  C   UNL     1       3.677  -6.590  15.789  1.00  0.00    -0.014 A 
ATOM     65  C   UNL     1       5.066  -6.694  15.619  1.00  0.00     0.009 A 
ATOM     66  C   UNL     1       2.920  -7.762  15.940  1.00  0.00     0.009 A 
ATOM     67  C   UNL     1       5.679  -7.949  15.568  1.00  0.00     0.001 A 
ATOM     68  C   UNL     1       3.538  -9.013  15.915  1.00  0.00     0.001 A 
ATOM     69  C   UNL     1       4.915  -9.106  15.721  1.00  0.00     0.000 A 
ENDBRANCH  50  64
BRANCH  51  70
ATOM     70  C   UNL     1      -0.906   2.256  15.672  1.00  0.00    -0.014 A 
ATOM     71  C   UNL     1      -0.374   3.359  16.356  1.00  0.00     0.009 A 
ATOM     72  C   UNL     1      -2.130   2.399  14.999  1.00  0.00     0.009 A 
ATOM     73  C   UNL     1      -1.065   4.572  16.386  1.00  0.00     0.001 A 
ATOM     74  C   UNL     1      -2.805   3.621  15.008  1.00  0.00     0.001 A 
ATOM     75  C   UNL     1      -2.277   4.704  15.709  1.00  0.00     0.000 A 
ENDBRANCH  51  70
BRANCH  63  76
ATOM     76  C   UNL     1       0.323  -2.451  20.651  1.00  0.00    -0.014 A 
ATOM     77  C   UNL     1      -0.988  -2.673  21.101  1.00  0.00     0.009 A 
ATOM     78  C   UNL     1       1.350  -2.301  21.597  1.00  0.00     0.009 A 
ATOM     79  C   UNL     1      -1.268  -2.710  22.468  1.00  0.00     0.001 A 
ATOM     80  C   UNL     1       1.071  -2.366  22.963  1.00  0.00     0.001 A 
ATOM     81  C   UNL     1      -0.239  -2.561  23.398  1.00  0.00     0.000 A 
ENDBRANCH  63  76
ENDBRANCH  37  38
ENDBRANCH  30  32
ENDBRANCH  29  30
ENDBRANCH  28  29
ENDBRANCH  27  28
ENDBRANCH   1  27
TORSDOF 18
