REMARK SMILES C[C@]12C(=O)N(c3ccc(C(=O)OCCOCCOC(=O)c4ccc(-c5c6nc(c(-c7ccccc7)c7ccc([nH]7)c(-c7ccccc7)c7nc(c(-c8ccccc8)c8ccc5[nH]8)C=C7)C=C6)cc4)cc3)C(=O)[C@H]1[C@H]1c3ccccc3[C@@H]2c2ccccc21
REMARK SMILES IDX 16 1 15 2 14 3 13 4 12 5 10 6 11 7 9 8 6 9 7 10 70 11 8 12
REMARK SMILES IDX 69 13 5 14 1 15 2 16 3 17 73 18 81 19 4 20 71 21 74 22 80 23
REMARK SMILES IDX 82 24 72 25 75 26 87 27 79 28 83 29 76 30 86 31 78 32 84 33
REMARK SMILES IDX 77 34 85 35 17 36 18 37 19 38 20 39 21 40 22 41 68 42 23 43
REMARK SMILES IDX 67 44 24 45 25 46 26 47 61 48 27 49 66 50 60 51 62 52 28 53
REMARK SMILES IDX 65 54 59 55 58 56 29 58 51 59 36 60 50 61 37 62 40 63 49 64
REMARK SMILES IDX 63 65 38 66 39 67 48 69 64 70 41 71 30 72 31 73 35 74 32 75
REMARK SMILES IDX 34 76 33 77 52 78 53 79 57 80 54 81 56 82 55 83 42 84 43 85
REMARK SMILES IDX 47 86 44 87 46 88 45 89
REMARK H PARENT 62 57 40 68
REMARK Flexibility Score: inf
ROOT
ATOM      1  C   UNL     1       2.279   9.658  -3.490  1.00  0.00     0.202 C 
ENDROOT
BRANCH   1   2
ATOM      2  O   UNL     1       2.154  10.529  -4.610  1.00  0.00    -0.374 OA
BRANCH   2   3
ATOM      3  C   UNL     1       0.849  10.918  -5.029  1.00  0.00     0.202 C 
BRANCH   3   4
ATOM      4  C   UNL     1      -0.065   9.854  -5.645  1.00  0.00     0.261 C 
BRANCH   4   5
ATOM      5  O   UNL     1      -0.384   8.803  -4.716  1.00  0.00    -0.460 OA
BRANCH   5   6
ATOM      6  C   UNL     1       0.041   7.575  -5.099  1.00  0.00     0.338 C 
ATOM      7  O   UNL     1       0.552   7.268  -6.164  1.00  0.00    -0.246 OA
BRANCH   6   8
ATOM      8  C   UNL     1      -0.010   6.638  -3.963  1.00  0.00     0.060 A 
ATOM      9  C   UNL     1      -0.058   4.481  -2.151  1.00  0.00     0.052 A 
ATOM     10  C   UNL     1       1.151   4.931  -2.719  1.00  0.00     0.028 A 
ATOM     11  C   UNL     1      -1.213   5.238  -2.402  1.00  0.00     0.028 A 
ATOM     12  C   UNL     1       1.170   5.969  -3.648  1.00  0.00     0.018 A 
ATOM     13  C   UNL     1      -1.190   6.326  -3.292  1.00  0.00     0.018 A 
BRANCH   9  14
ATOM     14  N   UNL     1      -0.103   3.175  -1.572  1.00  0.00    -0.250 N 
ATOM     15  C   UNL     1       1.252   0.219  -0.224  1.00  0.00     0.024 C 
ATOM     16  C   UNL     1       0.757   1.013  -1.439  1.00  0.00     0.071 C 
ATOM     17  C   UNL     1       1.026   2.473  -1.231  1.00  0.00     0.241 C 
ATOM     18  C   UNL     1      -0.788   0.906  -1.555  1.00  0.00     0.107 C 
ATOM     19  C   UNL     1       1.430   0.636  -2.810  1.00  0.00     0.066 C 
ATOM     20  O   UNL     1       2.111   2.902  -0.859  1.00  0.00    -0.273 OA
ATOM     21  C   UNL     1      -1.226   2.369  -1.498  1.00  0.00     0.238 C 
ATOM     22  C   UNL     1      -1.166   0.184  -2.898  1.00  0.00     0.063 C 
ATOM     23  C   UNL     1       0.705   1.383  -3.951  1.00  0.00    -0.036 A 
ATOM     24  C   UNL     1       1.098  -0.830  -3.006  1.00  0.00    -0.036 A 
ATOM     25  O   UNL     1      -2.400   2.701  -1.405  1.00  0.00    -0.274 OA
ATOM     26  C   UNL     1      -0.692   1.125  -4.003  1.00  0.00    -0.036 A 
ATOM     27  C   UNL     1      -0.300  -1.089  -3.028  1.00  0.00    -0.036 A 
ATOM     28  C   UNL     1       1.275   2.283  -4.840  1.00  0.00     0.005 A 
ATOM     29  C   UNL     1       2.041  -1.833  -3.183  1.00  0.00     0.005 A 
ATOM     30  C   UNL     1      -1.513   1.767  -4.920  1.00  0.00     0.004 A 
ATOM     31  C   UNL     1      -0.742  -2.383  -3.259  1.00  0.00     0.004 A 
ATOM     32  C   UNL     1       0.443   2.945  -5.750  1.00  0.00     0.000 A 
ATOM     33  C   UNL     1       1.587  -3.128  -3.401  1.00  0.00     0.000 A 
ATOM     34  C   UNL     1      -0.937   2.690  -5.790  1.00  0.00     0.000 A 
ATOM     35  C   UNL     1       0.210  -3.399  -3.443  1.00  0.00     0.000 A 
ENDBRANCH   9  14
ENDBRANCH   6   8
ENDBRANCH   5   6
ENDBRANCH   4   5
ENDBRANCH   3   4
ENDBRANCH   2   3
ENDBRANCH   1   2
BRANCH   1  36
ATOM     36  C   UNL     1       1.962  10.208  -2.093  1.00  0.00     0.261 C 
BRANCH  36  37
ATOM     37  O   UNL     1       0.623  10.709  -1.963  1.00  0.00    -0.460 OA
BRANCH  37  38
ATOM     38  C   UNL     1       0.527  12.062  -1.881  1.00  0.00     0.338 C 
ATOM     39  O   UNL     1       1.434  12.871  -1.871  1.00  0.00    -0.246 OA
BRANCH  38  40
ATOM     40  C   UNL     1      -0.893  12.450  -1.998  1.00  0.00     0.060 A 
ATOM     41  C   UNL     1      -1.856  11.945  -1.124  1.00  0.00     0.016 A 
ATOM     42  C   UNL     1      -1.245  13.371  -2.993  1.00  0.00     0.016 A 
ATOM     43  C   UNL     1      -3.177  12.386  -1.237  1.00  0.00     0.010 A 
ATOM     44  C   UNL     1      -2.565  13.807  -3.105  1.00  0.00     0.010 A 
ATOM     45  C   UNL     1      -3.538  13.332  -2.215  1.00  0.00    -0.014 A 
BRANCH  45  46
ATOM     46  C   UNL     1      -4.898  13.925  -2.216  1.00  0.00     0.031 A 
ATOM     47  C   UNL     1      -5.912  13.569  -3.260  1.00  0.00     0.074 A 
ATOM     48  C   UNL     1      -5.202  14.821  -1.257  1.00  0.00     0.049 A 
ATOM     49  N   UNL     1      -7.160  13.957  -3.352  1.00  0.00    -0.248 NA
ATOM     50  C   UNL     1      -5.479  12.670  -4.339  1.00  0.00     0.031 C 
ATOM     51  C   UNL     1      -4.285  15.265  -0.207  1.00  0.00     0.029 A 
ATOM     52  N   UNL     1      -6.362  15.510  -1.002  1.00  0.00    -0.354 N 
ATOM     53  C   UNL     1      -7.667  13.336  -4.485  1.00  0.00     0.074 A 
ATOM     54  C   UNL     1      -6.580  12.584  -5.076  1.00  0.00     0.031 C 
ATOM     55  C   UNL     1      -4.927  16.120   0.602  1.00  0.00     0.029 A 
ATOM     56  C   UNL     1      -6.286  16.320   0.105  1.00  0.00     0.049 A 
ATOM     57  H   UNL     1      -7.170  15.430  -1.559  1.00  0.00     0.167 HD
ATOM     58  C   UNL     1      -8.931  13.380  -4.972  1.00  0.00     0.031 A 
ATOM     59  C   UNL     1      -7.203  17.135   0.663  1.00  0.00     0.031 A 
ATOM     60  C   UNL     1     -10.000  14.150  -4.386  1.00  0.00     0.049 A 
ATOM     61  C   UNL     1      -8.580  17.209   0.067  1.00  0.00     0.074 A 
ATOM     62  C   UNL     1     -11.324  14.214  -4.787  1.00  0.00     0.029 A 
ATOM     63  N   UNL     1      -9.872  14.995  -3.295  1.00  0.00    -0.354 N 
ATOM     64  N   UNL     1      -9.072  16.546  -0.951  1.00  0.00    -0.248 NA
ATOM     65  C   UNL     1      -9.534  18.131   0.700  1.00  0.00     0.031 C 
ATOM     66  C   UNL     1     -11.975  15.161  -3.995  1.00  0.00     0.029 A 
ATOM     67  C   UNL     1     -11.082  15.621  -3.040  1.00  0.00     0.049 A 
ATOM     68  H   UNL     1      -9.044  15.131  -2.779  1.00  0.00     0.167 HD
ATOM     69  C   UNL     1     -10.395  16.954  -1.069  1.00  0.00     0.074 A 
ATOM     70  C   UNL     1     -10.636  17.906  -0.005  1.00  0.00     0.031 C 
ATOM     71  C   UNL     1     -11.320  16.573  -1.983  1.00  0.00     0.031 A 
BRANCH  58  72
ATOM     72  C   UNL     1      -9.255  12.569  -6.199  1.00  0.00    -0.014 A 
ATOM     73  C   UNL     1      -9.642  13.216  -7.384  1.00  0.00     0.009 A 
ATOM     74  C   UNL     1      -9.317  11.168  -6.141  1.00  0.00     0.009 A 
ATOM     75  C   UNL     1     -10.108  12.481  -8.476  1.00  0.00     0.001 A 
ATOM     76  C   UNL     1      -9.754  10.433  -7.246  1.00  0.00     0.001 A 
ATOM     77  C   UNL     1     -10.161  11.090  -8.407  1.00  0.00     0.000 A 
ENDBRANCH  58  72
BRANCH  59  78
ATOM     78  C   UNL     1      -6.838  17.913   1.878  1.00  0.00    -0.014 A 
ATOM     79  C   UNL     1      -5.861  18.922   1.814  1.00  0.00     0.009 A 
ATOM     80  C   UNL     1      -7.414  17.610   3.120  1.00  0.00     0.009 A 
ATOM     81  C   UNL     1      -5.444  19.584   2.971  1.00  0.00     0.001 A 
ATOM     82  C   UNL     1      -7.022  18.300   4.270  1.00  0.00     0.001 A 
ATOM     83  C   UNL     1      -6.029  19.275   4.197  1.00  0.00     0.000 A 
ENDBRANCH  59  78
BRANCH  71  84
ATOM     84  C   UNL     1     -12.698  17.174  -1.896  1.00  0.00    -0.014 A 
ATOM     85  C   UNL     1     -13.801  16.354  -1.601  1.00  0.00     0.009 A 
ATOM     86  C   UNL     1     -12.925  18.517  -2.232  1.00  0.00     0.009 A 
ATOM     87  C   UNL     1     -15.101  16.856  -1.676  1.00  0.00     0.001 A 
ATOM     88  C   UNL     1     -14.225  19.026  -2.271  1.00  0.00     0.001 A 
ATOM     89  C   UNL     1     -15.312  18.193  -2.009  1.00  0.00     0.000 A 
ENDBRANCH  71  84
ENDBRANCH  45  46
ENDBRANCH  38  40
ENDBRANCH  37  38
ENDBRANCH  36  37
ENDBRANCH   1  36
TORSDOF 15
