REMARK SMILES CCn1c(N2CCC(C(=O)OCCOCCOC(=O)c3ccc(-c4c5nc(c(-c6ccccc6)c6ccc([nH]6)c(-c6ccccc6)c6nc(c(-c7ccccc7)c7ccc4[nH]7)C=C6)C=C5)cc3)CC2)nc2cc(C)ccc21
REMARK SMILES IDX 14 1 13 2 12 3 11 4 9 5 10 6 8 7 5 8 6 9 69 10 7 11 68 12
REMARK SMILES IDX 4 13 3 14 77 15 70 16 71 17 76 18 72 19 75 20 73 21 74 22
REMARK SMILES IDX 2 23 1 24 15 25 16 26 17 27 18 28 19 29 20 30 21 31 67 32
REMARK SMILES IDX 22 33 66 34 23 35 24 36 25 37 60 38 26 39 65 40 59 41 61 42
REMARK SMILES IDX 27 43 64 44 58 45 57 46 28 48 50 49 35 50 49 51 36 52 39 53
REMARK SMILES IDX 48 54 62 55 37 56 38 57 47 59 63 60 40 61 29 62 30 63 34 64
REMARK SMILES IDX 31 65 33 66 32 67 51 68 52 69 56 70 53 71 55 72 54 73 41 74
REMARK SMILES IDX 42 75 46 76 43 77 45 78 44 79
REMARK H PARENT 61 47 39 58
REMARK Flexibility Score: inf
ROOT
ATOM      1  O   UNL     1       6.950  -0.354   6.350  1.00  0.00    -0.374 OA
ENDROOT
BRANCH   1   2
ATOM      2  C   UNL     1       6.090  -1.106   7.196  1.00  0.00     0.202 C 
BRANCH   2   3
ATOM      3  C   UNL     1       4.581  -1.104   6.932  1.00  0.00     0.261 C 
BRANCH   3   4
ATOM      4  O   UNL     1       4.234  -1.342   5.565  1.00  0.00    -0.463 OA
BRANCH   4   5
ATOM      5  C   UNL     1       3.884  -0.219   4.892  1.00  0.00     0.309 C 
ATOM      6  O   UNL     1       3.837   0.909   5.372  1.00  0.00    -0.252 OA
BRANCH   5   7
ATOM      7  C   UNL     1       3.485  -0.481   3.467  1.00  0.00     0.103 C 
ATOM      8  N   UNL     1       2.302  -1.524   1.104  1.00  0.00    -0.342 N 
ATOM      9  C   UNL     1       3.759  -1.585   1.242  1.00  0.00     0.120 C 
ATOM     10  C   UNL     1       1.536  -0.647   1.985  1.00  0.00     0.120 C 
ATOM     11  C   UNL     1       4.213  -1.586   2.704  1.00  0.00     0.037 C 
ATOM     12  C   UNL     1       1.991  -0.762   3.425  1.00  0.00     0.037 C 
BRANCH   8  13
ATOM     13  C   UNL     1       1.671  -2.532   0.458  1.00  0.00     0.206 A 
ATOM     14  N   UNL     1       0.739  -2.336  -0.543  1.00  0.00    -0.310 N 
ATOM     15  C   UNL     1       0.272  -3.588  -0.918  1.00  0.00     0.070 A 
ATOM     16  N   UNL     1       1.878  -3.815   0.666  1.00  0.00    -0.213 NA
ATOM     17  C   UNL     1       1.001  -4.481  -0.148  1.00  0.00     0.091 A 
ATOM     18  C   UNL     1      -0.678  -4.001  -1.860  1.00  0.00     0.029 A 
ATOM     19  C   UNL     1       0.771  -5.860  -0.293  1.00  0.00     0.034 A 
ATOM     20  C   UNL     1      -0.899  -5.375  -1.989  1.00  0.00     0.006 A 
ATOM     21  C   UNL     1      -0.193  -6.305  -1.217  1.00  0.00    -0.049 A 
ATOM     22  C   UNL     1      -0.464  -7.774  -1.364  1.00  0.00     0.044 C 
BRANCH  14  23
ATOM     23  C   UNL     1       0.360  -1.155  -1.297  1.00  0.00     0.122 C 
ATOM     24  C   UNL     1       0.707   0.246  -0.832  1.00  0.00     0.028 C 
ENDBRANCH  14  23
ENDBRANCH   8  13
ENDBRANCH   5   7
ENDBRANCH   4   5
ENDBRANCH   3   4
ENDBRANCH   2   3
ENDBRANCH   1   2
BRANCH   1  25
ATOM     25  C   UNL     1       7.167  -0.815   5.013  1.00  0.00     0.202 C 
BRANCH  25  26
ATOM     26  C   UNL     1       7.732  -2.231   4.787  1.00  0.00     0.261 C 
BRANCH  26  27
ATOM     27  O   UNL     1       6.809  -3.239   5.218  1.00  0.00    -0.460 OA
BRANCH  27  28
ATOM     28  C   UNL     1       7.388  -4.298   5.861  1.00  0.00     0.338 C 
ATOM     29  O   UNL     1       8.524  -4.681   5.783  1.00  0.00    -0.246 OA
BRANCH  28  30
ATOM     30  C   UNL     1       6.472  -4.594   6.985  1.00  0.00     0.060 A 
ATOM     31  C   UNL     1       5.111  -4.809   6.768  1.00  0.00     0.016 A 
ATOM     32  C   UNL     1       6.975  -4.330   8.270  1.00  0.00     0.016 A 
ATOM     33  C   UNL     1       4.239  -4.695   7.844  1.00  0.00     0.010 A 
ATOM     34  C   UNL     1       6.094  -4.163   9.331  1.00  0.00     0.010 A 
ATOM     35  C   UNL     1       4.724  -4.327   9.114  1.00  0.00    -0.014 A 
BRANCH  35  36
ATOM     36  C   UNL     1       3.797  -4.395  10.244  1.00  0.00     0.031 A 
ATOM     37  C   UNL     1       3.405  -5.795  10.558  1.00  0.00     0.074 A 
ATOM     38  C   UNL     1       3.431  -3.388  11.064  1.00  0.00     0.049 A 
ATOM     39  N   UNL     1       2.222  -6.311  10.548  1.00  0.00    -0.248 NA
ATOM     40  C   UNL     1       4.489  -6.765  10.789  1.00  0.00     0.031 C 
ATOM     41  C   UNL     1       3.963  -2.025  11.109  1.00  0.00     0.029 A 
ATOM     42  N   UNL     1       2.559  -3.415  12.121  1.00  0.00    -0.354 N 
ATOM     43  C   UNL     1       2.391  -7.641  10.919  1.00  0.00     0.074 A 
ATOM     44  C   UNL     1       3.806  -7.901  10.911  1.00  0.00     0.031 C 
ATOM     45  C   UNL     1       3.579  -1.434  12.267  1.00  0.00     0.029 A 
ATOM     46  C   UNL     1       2.663  -2.319  12.970  1.00  0.00     0.049 A 
ATOM     47  H   UNL     1       1.917  -4.146  12.268  1.00  0.00     0.167 HD
ATOM     48  C   UNL     1       1.371  -8.372  11.440  1.00  0.00     0.031 A 
ATOM     49  C   UNL     1       2.073  -2.170  14.181  1.00  0.00     0.031 A 
ATOM     50  C   UNL     1       0.095  -7.759  11.199  1.00  0.00     0.049 A 
ATOM     51  C   UNL     1       0.907  -3.073  14.252  1.00  0.00     0.074 A 
ATOM     52  C   UNL     1      -0.754  -7.615  10.126  1.00  0.00     0.029 A 
ATOM     53  N   UNL     1      -0.287  -6.855  12.153  1.00  0.00    -0.354 N 
ATOM     54  N   UNL     1      -0.163  -2.924  13.528  1.00  0.00    -0.248 NA
ATOM     55  C   UNL     1       1.007  -4.339  14.968  1.00  0.00     0.031 C 
ATOM     56  C   UNL     1      -1.510  -6.433  10.382  1.00  0.00     0.029 A 
ATOM     57  C   UNL     1      -1.115  -5.908  11.611  1.00  0.00     0.049 A 
ATOM     58  H   UNL     1      -0.006  -6.882  13.096  1.00  0.00     0.167 HD
ATOM     59  C   UNL     1      -0.632  -4.208  13.348  1.00  0.00     0.074 A 
ATOM     60  C   UNL     1      -0.006  -4.997  14.400  1.00  0.00     0.031 C 
ATOM     61  C   UNL     1      -1.218  -4.577  12.175  1.00  0.00     0.031 A 
BRANCH  48  62
ATOM     62  C   UNL     1       1.562  -9.378  12.550  1.00  0.00    -0.014 A 
ATOM     63  C   UNL     1       2.731  -9.457  13.333  1.00  0.00     0.009 A 
ATOM     64  C   UNL     1       0.439 -10.079  13.027  1.00  0.00     0.009 A 
ATOM     65  C   UNL     1       2.782 -10.187  14.524  1.00  0.00     0.001 A 
ATOM     66  C   UNL     1       0.475 -10.780  14.239  1.00  0.00     0.001 A 
ATOM     67  C   UNL     1       1.646 -10.831  14.988  1.00  0.00     0.000 A 
ENDBRANCH  48  62
BRANCH  49  68
ATOM     68  C   UNL     1       2.558  -1.482  15.398  1.00  0.00    -0.014 A 
ATOM     69  C   UNL     1       3.930  -1.478  15.696  1.00  0.00     0.009 A 
ATOM     70  C   UNL     1       1.662  -1.129  16.424  1.00  0.00     0.009 A 
ATOM     71  C   UNL     1       4.388  -1.200  16.989  1.00  0.00     0.001 A 
ATOM     72  C   UNL     1       2.120  -0.852  17.718  1.00  0.00     0.001 A 
ATOM     73  C   UNL     1       3.482  -0.909  18.005  1.00  0.00     0.000 A 
ENDBRANCH  49  68
BRANCH  61  74
ATOM     74  C   UNL     1      -1.789  -3.494  11.301  1.00  0.00    -0.014 A 
ATOM     75  C   UNL     1      -3.147  -3.578  10.956  1.00  0.00     0.009 A 
ATOM     76  C   UNL     1      -1.015  -2.472  10.728  1.00  0.00     0.009 A 
ATOM     77  C   UNL     1      -3.713  -2.680  10.051  1.00  0.00     0.001 A 
ATOM     78  C   UNL     1      -1.590  -1.554   9.842  1.00  0.00     0.001 A 
ATOM     79  C   UNL     1      -2.935  -1.667   9.496  1.00  0.00     0.000 A 
ENDBRANCH  61  74
ENDBRANCH  35  36
ENDBRANCH  28  30
ENDBRANCH  27  28
ENDBRANCH  26  27
ENDBRANCH  25  26
ENDBRANCH   1  25
TORSDOF 16
