REMARK SMILES Cn1ncc2c(NCCC3=CCCCC3)c(C(=O)OCCOCCOC(=O)c3ccc(-c4c5nc(c(-c6ccccc6)c6ccc([nH]6)c(-c6ccccc6)c6nc(c(-c7ccccc7)c7ccc4[nH]7)C=C6)C=C5)cc3)cnc21
REMARK SMILES IDX 21 1 20 2 19 3 17 4 18 5 16 6 1 7 2 8 3 9 78 10 4 11 5 12
REMARK SMILES IDX 77 13 6 14 76 15 7 16 8 18 9 19 10 20 11 21 15 22 12 23
REMARK SMILES IDX 14 24 13 25 22 26 23 27 24 28 25 29 26 30 27 31 28 32 29 33
REMARK SMILES IDX 75 34 30 35 74 36 31 37 32 38 33 39 68 40 34 41 73 42 67 43
REMARK SMILES IDX 69 44 35 45 72 46 66 47 65 48 36 50 58 51 43 52 57 53 44 54
REMARK SMILES IDX 47 55 56 56 70 57 45 58 46 59 55 61 71 62 48 63 37 64 38 65
REMARK SMILES IDX 42 66 39 67 41 68 40 69 59 70 60 71 64 72 61 73 63 74 62 75
REMARK SMILES IDX 49 76 50 77 54 78 51 79 53 80 52 81
REMARK H PARENT 7 17 69 49 47 60
REMARK Flexibility Score: inf
ROOT
ATOM      1  C   UNL     1      -3.034   0.175   8.565  1.00  0.00     0.202 C 
ENDROOT
BRANCH   1   2
ATOM      2  C   UNL     1      -1.754   0.847   8.063  1.00  0.00     0.261 C 
BRANCH   2   3
ATOM      3  O   UNL     1      -1.594   0.779   6.633  1.00  0.00    -0.460 OA
BRANCH   3   4
ATOM      4  C   UNL     1      -0.484   0.107   6.236  1.00  0.00     0.341 C 
ATOM      5  O   UNL     1       0.376  -0.364   6.961  1.00  0.00    -0.246 OA
BRANCH   4   6
ATOM      6  C   UNL     1      -0.462  -0.113   4.781  1.00  0.00     0.102 A 
ATOM      7  C   UNL     1       0.906   0.389  -0.116  1.00  0.00     0.176 C 
ATOM      8  N   UNL     1       0.565  -0.544   0.927  1.00  0.00    -0.250 N 
ATOM      9  N   UNL     1       0.735  -1.863   0.715  1.00  0.00    -0.179 NA
ATOM     10  C   UNL     1       0.144  -0.237   2.193  1.00  0.00     0.159 A 
ATOM     11  C   UNL     1       0.429  -2.400   1.900  1.00  0.00     0.147 A 
ATOM     12  C   UNL     1       0.066  -1.447   2.884  1.00  0.00     0.063 A 
ATOM     13  N   UNL     1      -0.111   1.003   2.659  1.00  0.00    -0.236 NA
ATOM     14  C   UNL     1      -0.291  -1.428   4.253  1.00  0.00     0.063 A 
ATOM     15  C   UNL     1      -0.393   1.016   3.976  1.00  0.00     0.131 A 
BRANCH  14  16
ATOM     16  N   UNL     1      -0.524  -2.530   5.067  1.00  0.00    -0.383 N 
ATOM     17  H   UNL     1      -0.904  -2.314   5.950  1.00  0.00     0.160 HD
BRANCH  16  18
ATOM     18  C   UNL     1      -0.303  -3.948   4.835  1.00  0.00     0.117 C 
BRANCH  18  19
ATOM     19  C   UNL     1       0.813  -4.469   5.766  1.00  0.00     0.052 C 
BRANCH  19  20
ATOM     20  C   UNL     1       0.338  -4.695   7.193  1.00  0.00    -0.072 C 
ATOM     21  C   UNL     1       0.149  -3.683   8.060  1.00  0.00    -0.028 C 
ATOM     22  C   UNL     1       0.091  -6.129   7.601  1.00  0.00     0.031 C 
ATOM     23  C   UNL     1      -0.416  -3.844   9.437  1.00  0.00     0.027 C 
ATOM     24  C   UNL     1      -0.707  -6.284   8.899  1.00  0.00     0.005 C 
ATOM     25  C   UNL     1      -0.288  -5.270   9.958  1.00  0.00     0.004 C 
ENDBRANCH  19  20
ENDBRANCH  18  19
ENDBRANCH  16  18
ENDBRANCH  14  16
ENDBRANCH   4   6
ENDBRANCH   3   4
ENDBRANCH   2   3
ENDBRANCH   1   2
BRANCH   1  26
ATOM     26  O   UNL     1      -3.226  -1.220   8.329  1.00  0.00    -0.374 OA
BRANCH  26  27
ATOM     27  C   UNL     1      -3.255  -1.721   6.999  1.00  0.00     0.202 C 
BRANCH  27  28
ATOM     28  C   UNL     1      -4.442  -1.408   6.100  1.00  0.00     0.261 C 
BRANCH  28  29
ATOM     29  O   UNL     1      -4.756  -0.027   6.072  1.00  0.00    -0.460 OA
BRANCH  29  30
ATOM     30  C   UNL     1      -5.711   0.296   6.974  1.00  0.00     0.338 C 
ATOM     31  O   UNL     1      -6.129  -0.388   7.890  1.00  0.00    -0.246 OA
BRANCH  30  32
ATOM     32  C   UNL     1      -6.310   1.577   6.598  1.00  0.00     0.060 A 
ATOM     33  C   UNL     1      -7.296   2.046   7.467  1.00  0.00     0.016 A 
ATOM     34  C   UNL     1      -6.203   2.006   5.268  1.00  0.00     0.016 A 
ATOM     35  C   UNL     1      -8.352   2.728   6.920  1.00  0.00     0.010 A 
ATOM     36  C   UNL     1      -7.272   2.666   4.718  1.00  0.00     0.010 A 
ATOM     37  C   UNL     1      -8.367   2.927   5.536  1.00  0.00    -0.014 A 
BRANCH  37  38
ATOM     38  C   UNL     1      -9.577   3.459   4.969  1.00  0.00     0.031 A 
ATOM     39  C   UNL     1      -9.697   4.918   5.108  1.00  0.00     0.074 A 
ATOM     40  C   UNL     1     -10.482   2.699   4.334  1.00  0.00     0.049 A 
ATOM     41  N   UNL     1     -10.507   5.570   5.871  1.00  0.00    -0.248 NA
ATOM     42  C   UNL     1      -8.689   5.739   4.425  1.00  0.00     0.031 C 
ATOM     43  C   UNL     1     -10.368   1.317   3.867  1.00  0.00     0.029 A 
ATOM     44  N   UNL     1     -11.702   3.083   3.886  1.00  0.00    -0.354 N 
ATOM     45  C   UNL     1     -10.219   6.908   5.648  1.00  0.00     0.074 A 
ATOM     46  C   UNL     1      -8.994   6.949   4.888  1.00  0.00     0.031 C 
ATOM     47  C   UNL     1     -11.388   1.059   3.013  1.00  0.00     0.029 A 
ATOM     48  C   UNL     1     -12.284   2.205   2.990  1.00  0.00     0.049 A 
ATOM     49  H   UNL     1     -12.138   3.917   4.175  1.00  0.00     0.167 HD
ATOM     50  C   UNL     1     -11.125   7.887   5.896  1.00  0.00     0.031 A 
ATOM     51  C   UNL     1     -13.376   2.474   2.236  1.00  0.00     0.031 A 
ATOM     52  C   UNL     1     -12.186   7.447   6.760  1.00  0.00     0.049 A 
ATOM     53  C   UNL     1     -14.097   3.595   2.893  1.00  0.00     0.074 A 
ATOM     54  C   UNL     1     -12.245   6.971   8.055  1.00  0.00     0.029 A 
ATOM     55  N   UNL     1     -13.378   7.094   6.173  1.00  0.00    -0.354 N 
ATOM     56  N   UNL     1     -14.685   3.495   4.052  1.00  0.00    -0.248 NA
ATOM     57  C   UNL     1     -13.815   4.955   2.456  1.00  0.00     0.031 C 
ATOM     58  C   UNL     1     -13.256   5.967   8.036  1.00  0.00     0.029 A 
ATOM     59  C   UNL     1     -13.774   5.910   6.740  1.00  0.00     0.049 A 
ATOM     60  H   UNL     1     -13.857   7.598   5.476  1.00  0.00     0.167 HD
ATOM     61  C   UNL     1     -14.486   4.725   4.664  1.00  0.00     0.074 A 
ATOM     62  C   UNL     1     -14.043   5.614   3.595  1.00  0.00     0.031 C 
ATOM     63  C   UNL     1     -14.430   4.837   6.024  1.00  0.00     0.031 A 
BRANCH  50  64
ATOM     64  C   UNL     1     -11.224   9.116   5.039  1.00  0.00    -0.014 A 
ATOM     65  C   UNL     1     -12.078  10.157   5.431  1.00  0.00     0.009 A 
ATOM     66  C   UNL     1     -10.697   9.180   3.733  1.00  0.00     0.009 A 
ATOM     67  C   UNL     1     -12.408  11.191   4.547  1.00  0.00     0.001 A 
ATOM     68  C   UNL     1     -10.984  10.233   2.866  1.00  0.00     0.001 A 
ATOM     69  C   UNL     1     -11.859  11.229   3.267  1.00  0.00     0.000 A 
ENDBRANCH  50  64
BRANCH  51  70
ATOM     70  C   UNL     1     -13.648   2.064   0.840  1.00  0.00    -0.014 A 
ATOM     71  C   UNL     1     -14.897   2.334   0.257  1.00  0.00     0.009 A 
ATOM     72  C   UNL     1     -12.604   1.661  -0.014  1.00  0.00     0.009 A 
ATOM     73  C   UNL     1     -15.077   2.262  -1.131  1.00  0.00     0.001 A 
ATOM     74  C   UNL     1     -12.787   1.577  -1.398  1.00  0.00     0.001 A 
ATOM     75  C   UNL     1     -14.018   1.898  -1.959  1.00  0.00     0.000 A 
ENDBRANCH  51  70
BRANCH  63  76
ATOM     76  C   UNL     1     -14.789   3.626   6.848  1.00  0.00    -0.014 A 
ATOM     77  C   UNL     1     -13.984   2.472   6.866  1.00  0.00     0.009 A 
ATOM     78  C   UNL     1     -15.825   3.733   7.786  1.00  0.00     0.009 A 
ATOM     79  C   UNL     1     -14.210   1.456   7.801  1.00  0.00     0.001 A 
ATOM     80  C   UNL     1     -16.040   2.725   8.729  1.00  0.00     0.001 A 
ATOM     81  C   UNL     1     -15.231   1.590   8.739  1.00  0.00     0.000 A 
ENDBRANCH  63  76
ENDBRANCH  37  38
ENDBRANCH  30  32
ENDBRANCH  29  30
ENDBRANCH  28  29
ENDBRANCH  27  28
ENDBRANCH  26  27
ENDBRANCH   1  26
TORSDOF 18
