REMARK SMILES O=C(OCCOCCOC(=O)c1nc(/N=C/c2cccc([N+](=O)[O-])c2)n[nH]1)c1ccc(-c2c3nc(c(-c4ccccc4)c4ccc([nH]4)c(-c4ccccc4)c4nc(c(-c5ccccc5)c5ccc2[nH]5)C=C4)C=C3)cc1
REMARK SMILES IDX 7 1 6 2 5 3 4 4 3 5 2 6 1 7 28 8 29 9 75 10 30 11 74 12
REMARK SMILES IDX 31 13 32 14 33 15 68 16 34 17 73 18 67 19 69 20 35 21 72 22
REMARK SMILES IDX 66 23 65 24 36 26 58 27 43 28 57 29 44 30 47 31 56 32 70 33
REMARK SMILES IDX 45 34 46 35 55 37 71 38 48 39 37 40 38 41 42 42 39 43 41 44
REMARK SMILES IDX 40 45 59 46 60 47 64 48 61 49 63 50 62 51 49 52 50 53 54 54
REMARK SMILES IDX 51 55 53 56 52 57 8 58 9 59 10 60 11 61 12 62 13 63 27 64
REMARK SMILES IDX 14 65 26 66 15 68 16 69 17 70 18 71 25 72 19 73 21 74 20 75
REMARK SMILES IDX 22 76 23 77 24 78
REMARK H PARENT 69 25 47 36 27 67
REMARK Flexibility Score: inf
ROOT
ATOM      1  C   UNL     1       2.664  -0.826   2.032  1.00  0.00     0.202 C 
ENDROOT
BRANCH   1   2
ATOM      2  O   UNL     1       3.995  -0.348   1.769  1.00  0.00    -0.374 OA
BRANCH   2   3
ATOM      3  C   UNL     1       4.108   1.068   1.603  1.00  0.00     0.202 C 
BRANCH   3   4
ATOM      4  C   UNL     1       3.862   1.544   0.169  1.00  0.00     0.261 C 
BRANCH   4   5
ATOM      5  O   UNL     1       2.501   1.265  -0.205  1.00  0.00    -0.460 OA
BRANCH   5   6
ATOM      6  C   UNL     1       2.044   0.451  -1.182  1.00  0.00     0.338 C 
ATOM      7  O   UNL     1       0.853   0.499  -1.484  1.00  0.00    -0.246 OA
BRANCH   6   8
ATOM      8  C   UNL     1       2.903  -0.539  -1.899  1.00  0.00     0.060 A 
ATOM      9  C   UNL     1       4.029  -1.162  -1.354  1.00  0.00     0.016 A 
ATOM     10  C   UNL     1       2.458  -0.964  -3.163  1.00  0.00     0.016 A 
ATOM     11  C   UNL     1       4.726  -2.141  -2.059  1.00  0.00     0.010 A 
ATOM     12  C   UNL     1       3.121  -1.982  -3.854  1.00  0.00     0.010 A 
ATOM     13  C   UNL     1       4.262  -2.574  -3.301  1.00  0.00    -0.014 A 
BRANCH  13  14
ATOM     14  C   UNL     1       4.964  -3.668  -3.998  1.00  0.00     0.031 A 
ATOM     15  C   UNL     1       5.824  -3.361  -5.184  1.00  0.00     0.074 A 
ATOM     16  C   UNL     1       4.843  -4.925  -3.532  1.00  0.00     0.049 A 
ATOM     17  N   UNL     1       6.465  -4.184  -5.970  1.00  0.00    -0.248 NA
ATOM     18  C   UNL     1       5.991  -1.939  -5.526  1.00  0.00     0.031 C 
ATOM     19  C   UNL     1       4.079  -5.316  -2.345  1.00  0.00     0.029 A 
ATOM     20  N   UNL     1       5.366  -6.104  -3.995  1.00  0.00    -0.354 N 
ATOM     21  C   UNL     1       7.092  -3.385  -6.915  1.00  0.00     0.074 A 
ATOM     22  C   UNL     1       6.760  -2.012  -6.604  1.00  0.00     0.031 C 
ATOM     23  C   UNL     1       4.192  -6.642  -2.167  1.00  0.00     0.029 A 
ATOM     24  C   UNL     1       4.983  -7.199  -3.258  1.00  0.00     0.049 A 
ATOM     25  H   UNL     1       5.958  -6.162  -4.779  1.00  0.00     0.167 HD
ATOM     26  C   UNL     1       7.866  -3.771  -7.955  1.00  0.00     0.031 A 
ATOM     27  C   UNL     1       5.213  -8.508  -3.468  1.00  0.00     0.031 A 
ATOM     28  C   UNL     1       8.176  -5.140  -8.259  1.00  0.00     0.049 A 
ATOM     29  C   UNL     1       6.003  -8.910  -4.682  1.00  0.00     0.074 A 
ATOM     30  C   UNL     1       8.940  -5.645  -9.295  1.00  0.00     0.029 A 
ATOM     31  N   UNL     1       7.724  -6.226  -7.524  1.00  0.00    -0.354 N 
ATOM     32  N   UNL     1       6.591  -8.147  -5.572  1.00  0.00    -0.248 NA
ATOM     33  C   UNL     1       6.140 -10.351  -4.935  1.00  0.00     0.031 C 
ATOM     34  C   UNL     1       8.909  -7.042  -9.214  1.00  0.00     0.029 A 
ATOM     35  C   UNL     1       8.159  -7.402  -8.105  1.00  0.00     0.049 A 
ATOM     36  H   UNL     1       7.175  -6.167  -6.708  1.00  0.00     0.167 HD
ATOM     37  C   UNL     1       7.163  -9.012  -6.493  1.00  0.00     0.074 A 
ATOM     38  C   UNL     1       6.880 -10.358  -6.036  1.00  0.00     0.031 C 
ATOM     39  C   UNL     1       7.849  -8.723  -7.625  1.00  0.00     0.031 A 
BRANCH  26  40
ATOM     40  C   UNL     1       8.368  -2.695  -8.871  1.00  0.00    -0.014 A 
ATOM     41  C   UNL     1       9.447  -1.873  -8.511  1.00  0.00     0.009 A 
ATOM     42  C   UNL     1       7.753  -2.507 -10.118  1.00  0.00     0.009 A 
ATOM     43  C   UNL     1       9.883  -0.866  -9.376  1.00  0.00     0.001 A 
ATOM     44  C   UNL     1       8.201  -1.512 -10.986  1.00  0.00     0.001 A 
ATOM     45  C   UNL     1       9.262  -0.687 -10.612  1.00  0.00     0.000 A 
ENDBRANCH  26  40
BRANCH  27  46
ATOM     46  C   UNL     1       4.627  -9.531  -2.562  1.00  0.00    -0.014 A 
ATOM     47  C   UNL     1       5.446 -10.323  -1.744  1.00  0.00     0.009 A 
ATOM     48  C   UNL     1       3.237  -9.732  -2.526  1.00  0.00     0.009 A 
ATOM     49  C   UNL     1       4.885 -11.309  -0.926  1.00  0.00     0.001 A 
ATOM     50  C   UNL     1       2.678 -10.697  -1.687  1.00  0.00     0.001 A 
ATOM     51  C   UNL     1       3.503 -11.492  -0.894  1.00  0.00     0.000 A 
ENDBRANCH  27  46
BRANCH  39  52
ATOM     52  C   UNL     1       8.325  -9.887  -8.441  1.00  0.00    -0.014 A 
ATOM     53  C   UNL     1       7.434 -10.595  -9.261  1.00  0.00     0.009 A 
ATOM     54  C   UNL     1       9.681 -10.245  -8.427  1.00  0.00     0.009 A 
ATOM     55  C   UNL     1       7.890 -11.657 -10.041  1.00  0.00     0.001 A 
ATOM     56  C   UNL     1      10.137 -11.295  -9.224  1.00  0.00     0.001 A 
ATOM     57  C   UNL     1       9.242 -12.003 -10.026  1.00  0.00     0.000 A 
ENDBRANCH  39  52
ENDBRANCH  13  14
ENDBRANCH   6   8
ENDBRANCH   5   6
ENDBRANCH   4   5
ENDBRANCH   3   4
ENDBRANCH   2   3
ENDBRANCH   1   2
BRANCH   1  58
ATOM     58  C   UNL     1       2.750  -2.124   2.848  1.00  0.00     0.261 C 
BRANCH  58  59
ATOM     59  O   UNL     1       3.310  -1.818   4.133  1.00  0.00    -0.457 OA
BRANCH  59  60
ATOM     60  C   UNL     1       4.663  -1.644   4.106  1.00  0.00     0.376 C 
ATOM     61  O   UNL     1       5.449  -2.312   3.449  1.00  0.00    -0.242 OA
BRANCH  60  62
ATOM     62  C   UNL     1       5.005  -0.456   4.836  1.00  0.00     0.237 A 
ATOM     63  N   UNL     1       4.233   0.215   5.668  1.00  0.00    -0.184 NA
ATOM     64  N   UNL     1       6.180   0.216   4.684  1.00  0.00    -0.251 N 
ATOM     65  C   UNL     1       5.007   1.286   6.010  1.00  0.00     0.268 A 
ATOM     66  N   UNL     1       6.200   1.341   5.418  1.00  0.00    -0.132 NA
ATOM     67  H   UNL     1       6.921  -0.084   4.110  1.00  0.00     0.192 HD
BRANCH  65  68
ATOM     68  N   UNL     1       4.666   2.218   6.985  1.00  0.00    -0.218 NA
ATOM     69  C   UNL     1       4.328   1.587   8.062  1.00  0.00     0.123 C 
BRANCH  69  70
ATOM     70  C   UNL     1       3.901   2.271   9.294  1.00  0.00    -0.000 A 
ATOM     71  C   UNL     1       3.724   1.484  10.439  1.00  0.00     0.010 A 
ATOM     72  C   UNL     1       3.677   3.648   9.330  1.00  0.00     0.095 A 
ATOM     73  C   UNL     1       3.330   2.073  11.638  1.00  0.00     0.008 A 
ATOM     74  C   UNL     1       3.273   4.229  10.538  1.00  0.00     0.270 A 
ATOM     75  C   UNL     1       3.103   3.448  11.693  1.00  0.00     0.085 A 
BRANCH  74  76
ATOM     76  N   UNL     1       3.018   5.673  10.604  1.00  0.00     0.062 N 
ATOM     77  O   UNL     1       2.759   6.160  11.715  1.00  0.00    -0.258 OA
ATOM     78  O   UNL     1       3.071   6.319   9.549  1.00  0.00    -0.258 OA
ENDBRANCH  74  76
ENDBRANCH  69  70
ENDBRANCH  65  68
ENDBRANCH  60  62
ENDBRANCH  59  60
ENDBRANCH  58  59
ENDBRANCH   1  58
TORSDOF 17
