REMARK SMILES CC(=O)Nc1ccc(N2CCCCCC2)c(C(=O)OCCOCCOC(=O)c2ccc(-c3c4nc(c(-c5ccccc5)c5ccc([nH]5)c(-c5ccccc5)c5nc(c(-c6ccccc6)c6ccc3[nH]6)C=C5)C=C4)cc2)c1
REMARK SMILES IDX 21 1 20 2 19 3 17 4 18 5 16 6 5 7 6 8 76 9 7 10 8 11 4 12
REMARK SMILES IDX 1 13 2 14 3 15 9 17 10 18 11 19 12 20 15 22 14 23 13 24
REMARK SMILES IDX 22 26 23 27 24 28 25 29 26 30 27 31 28 32 29 33 75 34 30 35
REMARK SMILES IDX 74 36 31 37 32 38 33 39 68 40 34 41 73 42 67 43 69 44 35 45
REMARK SMILES IDX 72 46 66 47 65 48 36 50 58 51 43 52 57 53 44 54 47 55 56 56
REMARK SMILES IDX 70 57 45 58 46 59 55 61 71 62 48 63 37 64 38 65 42 66 39 67
REMARK SMILES IDX 41 68 40 69 59 70 60 71 64 72 61 73 63 74 62 75 49 76 50 77
REMARK SMILES IDX 54 78 51 79 53 80 52 81
REMARK H PARENT 4 16 69 49 47 60
REMARK Flexibility Score: 90.00
ROOT
ATOM      1  C   UNL     1       7.502  -1.606  -0.379  1.00  0.00     0.202 C 
ENDROOT
BRANCH   1   2
ATOM      2  C   UNL     1       6.284  -1.947  -1.242  1.00  0.00     0.261 C 
BRANCH   2   3
ATOM      3  O   UNL     1       5.105  -1.985  -0.425  1.00  0.00    -0.460 OA
BRANCH   3   4
ATOM      4  C   UNL     1       4.366  -3.120  -0.501  1.00  0.00     0.340 C 
ATOM      5  O   UNL     1       4.484  -4.006  -1.333  1.00  0.00    -0.246 OA
BRANCH   4   6
ATOM      6  C   UNL     1       3.434  -3.140   0.652  1.00  0.00     0.085 A 
ATOM      7  C   UNL     1       1.758  -1.924   1.940  1.00  0.00     0.042 A 
ATOM      8  C   UNL     1       1.620  -3.043   2.763  1.00  0.00     0.028 A 
ATOM      9  C   UNL     1       2.698  -1.967   0.914  1.00  0.00     0.044 A 
ATOM     10  C   UNL     1       2.361  -4.205   2.517  1.00  0.00     0.029 A 
ATOM     11  C   UNL     1       3.274  -4.286   1.455  1.00  0.00     0.051 A 
BRANCH   7  12
ATOM     12  N   UNL     1       0.946  -0.814   2.224  1.00  0.00    -0.326 N 
ATOM     13  C   UNL     1       0.865   0.334   0.005  1.00  0.00     0.114 C 
ATOM     14  C   UNL     1       0.574   0.268   1.479  1.00  0.00     0.221 C 
ATOM     15  O   UNL     1      -0.052   1.176   2.031  1.00  0.00    -0.275 OA
ATOM     16  H   UNL     1       0.573  -0.816   3.135  1.00  0.00     0.169 HD
ENDBRANCH   7  12
BRANCH  11  17
ATOM     17  N   UNL     1       3.938  -5.499   1.276  1.00  0.00    -0.371 N 
BRANCH  17  18
ATOM     18  C   UNL     1       3.377  -6.386   0.262  1.00  0.00     0.116 C 
BRANCH  18  19
ATOM     19  C   UNL     1       2.931  -7.684   0.929  1.00  0.00     0.021 C 
BRANCH  19  20
ATOM     20  C   UNL     1       4.079  -8.620   1.308  1.00  0.00     0.002 CG0
ATOM     21  G   UNL     1       5.141  -8.016   2.227  1.00  0.00     0.000 G0
ENDBRANCH  19  20
ENDBRANCH  18  19
ENDBRANCH  17  18
BRANCH  17  22
ATOM     22  C   UNL     1       5.367  -5.544   1.562  1.00  0.00     0.116 C 
BRANCH  22  23
ATOM     23  C   UNL     1       5.978  -6.943   1.538  1.00  0.00     0.021 C 
BRANCH  23  24
ATOM     24  C   UNL     1       5.141  -8.016   2.227  1.00  0.00     0.002 CG0
ATOM     25  G   UNL     1       4.079  -8.620   1.308  1.00  0.00     0.000 G0
ENDBRANCH  23  24
ENDBRANCH  22  23
ENDBRANCH  17  22
ENDBRANCH  11  17
ENDBRANCH   4   6
ENDBRANCH   3   4
ENDBRANCH   2   3
ENDBRANCH   1   2
BRANCH   1  26
ATOM     26  O   UNL     1       7.883  -2.576   0.598  1.00  0.00    -0.374 OA
BRANCH  26  27
ATOM     27  C   UNL     1       7.103  -2.653   1.789  1.00  0.00     0.202 C 
BRANCH  27  28
ATOM     28  C   UNL     1       7.396  -1.655   2.910  1.00  0.00     0.261 C 
BRANCH  28  29
ATOM     29  O   UNL     1       7.270  -0.297   2.485  1.00  0.00    -0.460 OA
BRANCH  29  30
ATOM     30  C   UNL     1       8.447   0.286   2.163  1.00  0.00     0.338 C 
ATOM     31  O   UNL     1       9.569  -0.189   2.256  1.00  0.00    -0.246 OA
BRANCH  30  32
ATOM     32  C   UNL     1       8.175   1.568   1.500  1.00  0.00     0.060 A 
ATOM     33  C   UNL     1       8.815   1.817   0.280  1.00  0.00     0.016 A 
ATOM     34  C   UNL     1       7.341   2.521   2.087  1.00  0.00     0.016 A 
ATOM     35  C   UNL     1       8.666   3.053  -0.336  1.00  0.00     0.010 A 
ATOM     36  C   UNL     1       7.198   3.762   1.472  1.00  0.00     0.010 A 
ATOM     37  C   UNL     1       7.892   4.043   0.282  1.00  0.00    -0.014 A 
BRANCH  37  38
ATOM     38  C   UNL     1       7.942   5.430  -0.222  1.00  0.00     0.031 A 
ATOM     39  C   UNL     1       8.820   6.419   0.488  1.00  0.00     0.074 A 
ATOM     40  C   UNL     1       7.218   5.792  -1.293  1.00  0.00     0.049 A 
ATOM     41  N   UNL     1       8.972   7.699   0.269  1.00  0.00    -0.248 NA
ATOM     42  C   UNL     1       9.630   5.896   1.601  1.00  0.00     0.031 C 
ATOM     43  C   UNL     1       6.367   4.900  -2.080  1.00  0.00     0.029 A 
ATOM     44  N   UNL     1       7.079   7.014  -1.895  1.00  0.00    -0.354 N 
ATOM     45  C   UNL     1       9.881   8.136   1.224  1.00  0.00     0.074 A 
ATOM     46  C   UNL     1      10.224   6.994   2.042  1.00  0.00     0.031 C 
ATOM     47  C   UNL     1       5.783   5.612  -3.060  1.00  0.00     0.029 A 
ATOM     48  C   UNL     1       6.191   7.010  -2.941  1.00  0.00     0.049 A 
ATOM     49  H   UNL     1       7.569   7.818  -1.605  1.00  0.00     0.167 HD
ATOM     50  C   UNL     1      10.385   9.379   1.400  1.00  0.00     0.031 A 
ATOM     51  C   UNL     1       5.742   8.028  -3.697  1.00  0.00     0.031 A 
ATOM     52  C   UNL     1      10.024  10.510   0.590  1.00  0.00     0.049 A 
ATOM     53  C   UNL     1       6.262   9.416  -3.436  1.00  0.00     0.074 A 
ATOM     54  C   UNL     1      10.486  11.811   0.668  1.00  0.00     0.029 A 
ATOM     55  N   UNL     1       9.100  10.473  -0.444  1.00  0.00    -0.354 N 
ATOM     56  N   UNL     1       7.141   9.816  -2.548  1.00  0.00    -0.248 NA
ATOM     57  C   UNL     1       5.733  10.490  -4.287  1.00  0.00     0.031 C 
ATOM     58  C   UNL     1       9.797  12.575  -0.280  1.00  0.00     0.029 A 
ATOM     59  C   UNL     1       8.957  11.735  -0.994  1.00  0.00     0.049 A 
ATOM     60  H   UNL     1       8.618   9.668  -0.743  1.00  0.00     0.167 HD
ATOM     61  C   UNL     1       7.295  11.182  -2.754  1.00  0.00     0.074 A 
ATOM     62  C   UNL     1       6.426  11.536  -3.859  1.00  0.00     0.031 C 
ATOM     63  C   UNL     1       8.085  12.063  -2.093  1.00  0.00     0.031 A 
BRANCH  50  64
ATOM     64  C   UNL     1      11.347   9.581   2.538  1.00  0.00    -0.014 A 
ATOM     65  C   UNL     1      12.639   9.032   2.513  1.00  0.00     0.009 A 
ATOM     66  C   UNL     1      10.958  10.348   3.647  1.00  0.00     0.009 A 
ATOM     67  C   UNL     1      13.507   9.216   3.592  1.00  0.00     0.001 A 
ATOM     68  C   UNL     1      11.838  10.556   4.710  1.00  0.00     0.001 A 
ATOM     69  C   UNL     1      13.107   9.982   4.687  1.00  0.00     0.000 A 
ENDBRANCH  50  64
BRANCH  51  70
ATOM     70  C   UNL     1       4.736   7.775  -4.761  1.00  0.00    -0.014 A 
ATOM     71  C   UNL     1       5.082   7.892  -6.115  1.00  0.00     0.009 A 
ATOM     72  C   UNL     1       3.421   7.416  -4.425  1.00  0.00     0.009 A 
ATOM     73  C   UNL     1       4.125   7.676  -7.110  1.00  0.00     0.001 A 
ATOM     74  C   UNL     1       2.475   7.172  -5.422  1.00  0.00     0.001 A 
ATOM     75  C   UNL     1       2.825   7.311  -6.763  1.00  0.00     0.000 A 
ENDBRANCH  51  70
BRANCH  63  76
ATOM     76  C   UNL     1       8.080  13.487  -2.577  1.00  0.00    -0.014 A 
ATOM     77  C   UNL     1       6.978  14.329  -2.365  1.00  0.00     0.009 A 
ATOM     78  C   UNL     1       9.220  14.003  -3.214  1.00  0.00     0.009 A 
ATOM     79  C   UNL     1       7.006  15.652  -2.814  1.00  0.00     0.001 A 
ATOM     80  C   UNL     1       9.257  15.334  -3.632  1.00  0.00     0.001 A 
ATOM     81  C   UNL     1       8.146  16.154  -3.441  1.00  0.00     0.000 A 
ENDBRANCH  63  76
ENDBRANCH  37  38
ENDBRANCH  30  32
ENDBRANCH  29  30
ENDBRANCH  28  29
ENDBRANCH  27  28
ENDBRANCH  26  27
ENDBRANCH   1  26
TORSDOF 16
