REMARK SMILES C[C@H](C(=O)OCCOCCOC(=O)c1ccc(-c2c3nc(c(-c4ccccc4)c4ccc([nH]4)c(-c4ccccc4)c4nc(c(-c5ccccc5)c5ccc2[nH]5)C=C4)C=C3)cc1)c1cccc(C(=O)c2ccccc2)c1
REMARK SMILES IDX 7 1 6 2 5 3 3 4 4 5 2 6 1 7 62 8 63 9 75 10 64 11 66 12
REMARK SMILES IDX 65 13 67 14 68 15 69 16 70 17 74 18 71 19 73 20 72 21 8 22
REMARK SMILES IDX 9 23 10 24 11 25 12 26 13 27 14 28 15 29 61 30 16 31 60 32
REMARK SMILES IDX 17 33 18 34 19 35 54 36 20 37 59 38 53 39 55 40 21 41 58 42
REMARK SMILES IDX 52 43 51 44 22 46 44 47 29 48 43 49 30 50 33 51 42 52 56 53
REMARK SMILES IDX 31 54 32 55 41 57 57 58 34 59 23 60 24 61 28 62 25 63 27 64
REMARK SMILES IDX 26 65 45 66 46 67 50 68 47 69 49 70 48 71 35 72 36 73 40 74
REMARK SMILES IDX 37 75 39 76 38 77
REMARK H PARENT 55 45 33 56
REMARK Flexibility Score: inf
ROOT
ATOM      1  C   UNL     1       2.672  -1.890  -0.873  1.00  0.00     0.202 C 
ENDROOT
BRANCH   1   2
ATOM      2  C   UNL     1       2.069  -1.541   0.492  1.00  0.00     0.261 C 
BRANCH   2   3
ATOM      3  O   UNL     1       1.120  -0.463   0.350  1.00  0.00    -0.463 OA
BRANCH   3   4
ATOM      4  C   UNL     1       1.172   0.527   1.280  1.00  0.00     0.313 C 
ATOM      5  O   UNL     1       1.904   0.509   2.263  1.00  0.00    -0.252 OA
BRANCH   4   6
ATOM      6  C   UNL     1       0.282   1.719   0.937  1.00  0.00     0.126 C 
ATOM      7  C   UNL     1       0.867   2.523  -0.228  1.00  0.00     0.025 C 
BRANCH   6   8
ATOM      8  C   UNL     1      -1.216   1.484   0.765  1.00  0.00    -0.033 A 
ATOM      9  C   UNL     1      -2.067   2.604   0.807  1.00  0.00     0.004 A 
ATOM     10  C   UNL     1      -1.803   0.223   0.582  1.00  0.00     0.016 A 
ATOM     11  C   UNL     1      -3.450   2.469   0.701  1.00  0.00     0.001 A 
ATOM     12  C   UNL     1      -3.199   0.068   0.528  1.00  0.00     0.023 A 
ATOM     13  C   UNL     1      -4.015   1.203   0.575  1.00  0.00     0.012 A 
BRANCH  12  14
ATOM     14  C   UNL     1      -3.861  -1.264   0.388  1.00  0.00     0.193 C 
ATOM     15  O   UNL     1      -5.056  -1.322   0.104  1.00  0.00    -0.289 OA
BRANCH  14  16
ATOM     16  C   UNL     1      -3.120  -2.538   0.539  1.00  0.00     0.022 A 
ATOM     17  C   UNL     1      -3.357  -3.546  -0.402  1.00  0.00     0.012 A 
ATOM     18  C   UNL     1      -2.226  -2.764   1.593  1.00  0.00     0.012 A 
ATOM     19  C   UNL     1      -2.661  -4.750  -0.322  1.00  0.00     0.001 A 
ATOM     20  C   UNL     1      -1.518  -3.965   1.658  1.00  0.00     0.001 A 
ATOM     21  C   UNL     1      -1.730  -4.954   0.697  1.00  0.00     0.000 A 
ENDBRANCH  14  16
ENDBRANCH  12  14
ENDBRANCH   6   8
ENDBRANCH   4   6
ENDBRANCH   3   4
ENDBRANCH   2   3
ENDBRANCH   1   2
BRANCH   1  22
ATOM     22  O   UNL     1       3.568  -0.903  -1.398  1.00  0.00    -0.374 OA
BRANCH  22  23
ATOM     23  C   UNL     1       2.953   0.259  -1.952  1.00  0.00     0.202 C 
BRANCH  23  24
ATOM     24  C   UNL     1       2.608   0.189  -3.441  1.00  0.00     0.261 C 
BRANCH  24  25
ATOM     25  O   UNL     1       1.790  -0.951  -3.741  1.00  0.00    -0.460 OA
BRANCH  25  26
ATOM     26  C   UNL     1       2.483  -2.002  -4.232  1.00  0.00     0.338 C 
ATOM     27  O   UNL     1       3.665  -2.026  -4.551  1.00  0.00    -0.246 OA
BRANCH  26  28
ATOM     28  C   UNL     1       1.651  -3.216  -4.216  1.00  0.00     0.060 A 
ATOM     29  C   UNL     1       2.257  -4.395  -3.764  1.00  0.00     0.016 A 
ATOM     30  C   UNL     1       0.340  -3.230  -4.701  1.00  0.00     0.016 A 
ATOM     31  C   UNL     1       1.583  -5.607  -3.867  1.00  0.00     0.010 A 
ATOM     32  C   UNL     1      -0.336  -4.449  -4.805  1.00  0.00     0.010 A 
ATOM     33  C   UNL     1       0.302  -5.646  -4.432  1.00  0.00    -0.014 A 
BRANCH  33  34
ATOM     34  C   UNL     1      -0.292  -6.957  -4.779  1.00  0.00     0.031 A 
ATOM     35  C   UNL     1      -0.200  -7.443  -6.199  1.00  0.00     0.074 A 
ATOM     36  C   UNL     1      -0.859  -7.725  -3.835  1.00  0.00     0.049 A 
ATOM     37  N   UNL     1      -0.639  -8.559  -6.721  1.00  0.00    -0.248 NA
ATOM     38  C   UNL     1       0.485  -6.557  -7.155  1.00  0.00     0.031 C 
ATOM     39  C   UNL     1      -0.956  -7.385  -2.417  1.00  0.00     0.029 A 
ATOM     40  N   UNL     1      -1.464  -8.951  -3.930  1.00  0.00    -0.354 N 
ATOM     41  C   UNL     1      -0.281  -8.512  -8.062  1.00  0.00     0.074 A 
ATOM     42  C   UNL     1       0.377  -7.243  -8.283  1.00  0.00     0.031 C 
ATOM     43  C   UNL     1      -1.605  -8.371  -1.776  1.00  0.00     0.029 A 
ATOM     44  C   UNL     1      -1.980  -9.401  -2.741  1.00  0.00     0.049 A 
ATOM     45  H   UNL     1      -1.522  -9.460  -4.771  1.00  0.00     0.167 HD
ATOM     46  C   UNL     1      -0.471  -9.448  -9.022  1.00  0.00     0.031 A 
ATOM     47  C   UNL     1      -2.689 -10.512  -2.467  1.00  0.00     0.031 A 
ATOM     48  C   UNL     1      -1.141 -10.701  -8.805  1.00  0.00     0.049 A 
ATOM     49  C   UNL     1      -2.965 -11.498  -3.569  1.00  0.00     0.074 A 
ATOM     50  C   UNL     1      -1.380 -11.720  -9.711  1.00  0.00     0.029 A 
ATOM     51  N   UNL     1      -1.688 -11.101  -7.596  1.00  0.00    -0.354 N 
ATOM     52  N   UNL     1      -2.596 -11.455  -4.826  1.00  0.00    -0.248 NA
ATOM     53  C   UNL     1      -3.740 -12.694  -3.209  1.00  0.00     0.031 C 
ATOM     54  C   UNL     1      -2.117 -12.716  -9.061  1.00  0.00     0.029 A 
ATOM     55  C   UNL     1      -2.288 -12.341  -7.737  1.00  0.00     0.049 A 
ATOM     56  H   UNL     1      -1.655 -10.581  -6.761  1.00  0.00     0.167 HD
ATOM     57  C   UNL     1      -3.068 -12.629  -5.401  1.00  0.00     0.074 A 
ATOM     58  C   UNL     1      -3.739 -13.368  -4.351  1.00  0.00     0.031 C 
ATOM     59  C   UNL     1      -2.953 -13.059  -6.681  1.00  0.00     0.031 A 
BRANCH  46  60
ATOM     60  C   UNL     1       0.032  -9.130 -10.401  1.00  0.00    -0.014 A 
ATOM     61  C   UNL     1       1.406  -9.122 -10.691  1.00  0.00     0.009 A 
ATOM     62  C   UNL     1      -0.881  -8.856 -11.431  1.00  0.00     0.009 A 
ATOM     63  C   UNL     1       1.855  -8.813 -11.977  1.00  0.00     0.001 A 
ATOM     64  C   UNL     1      -0.430  -8.573 -12.721  1.00  0.00     0.001 A 
ATOM     65  C   UNL     1       0.937  -8.543 -12.991  1.00  0.00     0.000 A 
ENDBRANCH  46  60
BRANCH  47  66
ATOM     66  C   UNL     1      -3.199 -10.746  -1.091  1.00  0.00    -0.014 A 
ATOM     67  C   UNL     1      -2.659 -11.760  -0.286  1.00  0.00     0.009 A 
ATOM     68  C   UNL     1      -4.240  -9.954  -0.580  1.00  0.00     0.009 A 
ATOM     69  C   UNL     1      -3.168 -11.992   0.994  1.00  0.00     0.001 A 
ATOM     70  C   UNL     1      -4.728 -10.171   0.710  1.00  0.00     0.001 A 
ATOM     71  C   UNL     1      -4.198 -11.195   1.493  1.00  0.00     0.000 A 
ENDBRANCH  47  66
BRANCH  59  72
ATOM     72  C   UNL     1      -3.538 -14.403  -7.008  1.00  0.00    -0.014 A 
ATOM     73  C   UNL     1      -4.925 -14.592  -7.100  1.00  0.00     0.009 A 
ATOM     74  C   UNL     1      -2.683 -15.486  -7.270  1.00  0.00     0.009 A 
ATOM     75  C   UNL     1      -5.445 -15.848  -7.417  1.00  0.00     0.001 A 
ATOM     76  C   UNL     1      -3.206 -16.733  -7.614  1.00  0.00     0.001 A 
ATOM     77  C   UNL     1      -4.586 -16.916  -7.678  1.00  0.00     0.000 A 
ENDBRANCH  59  72
ENDBRANCH  33  34
ENDBRANCH  26  28
ENDBRANCH  25  26
ENDBRANCH  24  25
ENDBRANCH  23  24
ENDBRANCH  22  23
ENDBRANCH   1  22
TORSDOF 17
