REMARK SMILES CC1(C)NC(=O)N(CCC(=O)N2CCC[C@H]2C(=O)OCCOCCOC(=O)c2ccc(-c3c4nc(c(-c5ccccc5)c5ccc([nH]5)c(-c5ccccc5)c5nc(c(-c6ccccc6)c6ccc3[nH]6)C=C5)C=C4)cc2)C1=O
REMARK SMILES IDX 21 1 20 2 19 3 17 4 18 5 16 6 12 7 13 8 14 9 15 10 10 11
REMARK SMILES IDX 11 12 9 13 8 14 7 15 1 16 2 17 3 18 4 19 76 20 5 21 77 23
REMARK SMILES IDX 6 24 22 25 23 26 24 27 25 28 26 29 27 30 28 31 29 32 75 33
REMARK SMILES IDX 30 34 74 35 31 36 32 37 33 38 68 39 34 40 73 41 67 42 69 43
REMARK SMILES IDX 35 44 72 45 66 46 65 47 36 49 58 50 43 51 57 52 44 53 47 54
REMARK SMILES IDX 56 55 70 56 45 57 46 58 55 60 71 61 48 62 37 63 38 64 42 65
REMARK SMILES IDX 39 66 41 67 40 68 59 69 60 70 64 71 61 72 63 73 62 74 49 75
REMARK SMILES IDX 50 76 54 77 51 78 53 79 52 80
REMARK H PARENT 4 22 69 48 47 59
REMARK Flexibility Score: inf
ROOT
ATOM      1  C   UNL     1      -1.859   0.571   3.466  1.00  0.00     0.202 C 
ENDROOT
BRANCH   1   2
ATOM      2  C   UNL     1      -2.442  -0.492   2.518  1.00  0.00     0.261 C 
BRANCH   2   3
ATOM      3  O   UNL     1      -2.196  -1.900   2.777  1.00  0.00    -0.462 OA
BRANCH   3   4
ATOM      4  C   UNL     1      -0.917  -2.328   2.778  1.00  0.00     0.328 C 
ATOM      5  O   UNL     1       0.047  -1.611   2.980  1.00  0.00    -0.250 OA
BRANCH   4   6
ATOM      6  C   UNL     1      -0.675  -3.793   2.489  1.00  0.00     0.195 C 
ATOM      7  N   UNL     1      -0.302  -4.538   3.681  1.00  0.00    -0.329 N 
ATOM      8  C   UNL     1      -1.371  -5.479   3.983  1.00  0.00     0.120 C 
ATOM      9  C   UNL     1      -1.911  -5.858   2.617  1.00  0.00     0.024 C 
ATOM     10  C   UNL     1      -1.821  -4.560   1.825  1.00  0.00     0.039 C 
BRANCH   7  11
ATOM     11  C   UNL     1       0.939  -4.635   4.279  1.00  0.00     0.225 C 
ATOM     12  O   UNL     1       1.180  -5.615   4.999  1.00  0.00    -0.275 OA
BRANCH  11  13
ATOM     13  C   UNL     1       1.946  -3.469   4.322  1.00  0.00     0.122 C 
BRANCH  13  14
ATOM     14  C   UNL     1       2.905  -2.917   3.253  1.00  0.00     0.140 C 
BRANCH  14  15
ATOM     15  N   UNL     1       2.425  -2.400   1.984  1.00  0.00    -0.262 N 
ATOM     16  C   UNL     1       2.564  -0.053  -0.680  1.00  0.00     0.045 C 
ATOM     17  C   UNL     1       1.740  -0.987   0.194  1.00  0.00     0.115 C 
ATOM     18  C   UNL     1       0.269  -0.587   0.123  1.00  0.00     0.045 C 
ATOM     19  N   UNL     1       1.899  -2.373  -0.182  1.00  0.00    -0.324 N 
ATOM     20  C   UNL     1       2.298  -1.069   1.639  1.00  0.00     0.255 C 
ATOM     21  C   UNL     1       2.294  -3.166   0.870  1.00  0.00     0.325 C 
ATOM     22  H   UNL     1       1.743  -2.714  -1.092  1.00  0.00     0.166 HD
ATOM     23  O   UNL     1       2.608  -0.104   2.326  1.00  0.00    -0.272 OA
ATOM     24  O   UNL     1       2.474  -4.369   0.778  1.00  0.00    -0.248 OA
ENDBRANCH  14  15
ENDBRANCH  13  14
ENDBRANCH  11  13
ENDBRANCH   7  11
ENDBRANCH   4   6
ENDBRANCH   3   4
ENDBRANCH   2   3
ENDBRANCH   1   2
BRANCH   1  25
ATOM     25  O   UNL     1      -0.449   0.694   3.413  1.00  0.00    -0.374 OA
BRANCH  25  26
ATOM     26  C   UNL     1       0.246   0.871   4.659  1.00  0.00     0.202 C 
BRANCH  26  27
ATOM     27  C   UNL     1       0.152  -0.281   5.683  1.00  0.00     0.261 C 
BRANCH  27  28
ATOM     28  O   UNL     1      -1.139  -0.475   6.263  1.00  0.00    -0.460 OA
BRANCH  28  29
ATOM     29  C   UNL     1      -1.612   0.565   6.975  1.00  0.00     0.338 C 
ATOM     30  O   UNL     1      -1.003   1.541   7.373  1.00  0.00    -0.246 OA
BRANCH  29  31
ATOM     31  C   UNL     1      -3.073   0.454   6.881  1.00  0.00     0.060 A 
ATOM     32  C   UNL     1      -3.762   1.537   6.321  1.00  0.00     0.016 A 
ATOM     33  C   UNL     1      -3.727  -0.737   7.213  1.00  0.00     0.016 A 
ATOM     34  C   UNL     1      -5.134   1.454   6.146  1.00  0.00     0.010 A 
ATOM     35  C   UNL     1      -5.105  -0.814   7.053  1.00  0.00     0.010 A 
ATOM     36  C   UNL     1      -5.808   0.301   6.568  1.00  0.00    -0.014 A 
BRANCH  36  37
ATOM     37  C   UNL     1      -7.263   0.384   6.779  1.00  0.00     0.031 A 
ATOM     38  C   UNL     1      -7.729   0.776   8.150  1.00  0.00     0.074 A 
ATOM     39  C   UNL     1      -8.122   0.160   5.774  1.00  0.00     0.049 A 
ATOM     40  N   UNL     1      -8.943   0.951   8.595  1.00  0.00    -0.248 NA
ATOM     41  C   UNL     1      -6.676   1.002   9.159  1.00  0.00     0.031 C 
ATOM     42  C   UNL     1      -7.753  -0.190   4.404  1.00  0.00     0.029 A 
ATOM     43  N   UNL     1      -9.489   0.199   5.761  1.00  0.00    -0.354 N 
ATOM     44  C   UNL     1      -8.798   1.304   9.931  1.00  0.00     0.074 A 
ATOM     45  C   UNL     1      -7.388   1.279  10.237  1.00  0.00     0.031 C 
ATOM     46  C   UNL     1      -8.876  -0.336   3.678  1.00  0.00     0.029 A 
ATOM     47  C   UNL     1     -10.033  -0.114   4.542  1.00  0.00     0.049 A 
ATOM     48  H   UNL     1     -10.030   0.431   6.551  1.00  0.00     0.167 HD
ATOM     49  C   UNL     1      -9.761   1.627  10.823  1.00  0.00     0.031 A 
ATOM     50  C   UNL     1     -11.325  -0.218   4.181  1.00  0.00     0.031 A 
ATOM     51  C   UNL     1     -11.161   1.611  10.509  1.00  0.00     0.049 A 
ATOM     52  C   UNL     1     -12.385   0.077   5.209  1.00  0.00     0.074 A 
ATOM     53  C   UNL     1     -12.234   1.919  11.322  1.00  0.00     0.029 A 
ATOM     54  N   UNL     1     -11.678   1.249   9.273  1.00  0.00    -0.354 N 
ATOM     55  N   UNL     1     -12.242   0.445   6.461  1.00  0.00    -0.248 NA
ATOM     56  C   UNL     1     -13.781  -0.047   4.772  1.00  0.00     0.031 C 
ATOM     57  C   UNL     1     -13.406   1.685  10.594  1.00  0.00     0.029 A 
ATOM     58  C   UNL     1     -13.059   1.295   9.308  1.00  0.00     0.049 A 
ATOM     59  H   UNL     1     -11.141   0.997   8.487  1.00  0.00     0.167 HD
ATOM     60  C   UNL     1     -13.527   0.620   6.956  1.00  0.00     0.074 A 
ATOM     61  C   UNL     1     -14.435   0.332   5.861  1.00  0.00     0.031 C 
ATOM     62  C   UNL     1     -13.928   0.989   8.199  1.00  0.00     0.031 A 
BRANCH  49  63
ATOM     63  C   UNL     1      -9.314   1.962  12.218  1.00  0.00    -0.014 A 
ATOM     64  C   UNL     1      -8.590   3.135  12.496  1.00  0.00     0.009 A 
ATOM     65  C   UNL     1      -9.591   1.074  13.268  1.00  0.00     0.009 A 
ATOM     66  C   UNL     1      -8.115   3.386  13.785  1.00  0.00     0.001 A 
ATOM     67  C   UNL     1      -9.143   1.343  14.562  1.00  0.00     0.001 A 
ATOM     68  C   UNL     1      -8.395   2.491  14.818  1.00  0.00     0.000 A 
ENDBRANCH  49  63
BRANCH  50  69
ATOM     69  C   UNL     1     -11.675  -0.619   2.794  1.00  0.00    -0.014 A 
ATOM     70  C   UNL     1     -12.243   0.300   1.900  1.00  0.00     0.009 A 
ATOM     71  C   UNL     1     -11.418  -1.927   2.349  1.00  0.00     0.009 A 
ATOM     72  C   UNL     1     -12.559  -0.086   0.594  1.00  0.00     0.001 A 
ATOM     73  C   UNL     1     -11.710  -2.301   1.036  1.00  0.00     0.001 A 
ATOM     74  C   UNL     1     -12.286  -1.383   0.161  1.00  0.00     0.000 A 
ENDBRANCH  50  69
BRANCH  62  75
ATOM     75  C   UNL     1     -15.406   1.123   8.428  1.00  0.00    -0.014 A 
ATOM     76  C   UNL     1     -16.236  -0.006   8.508  1.00  0.00     0.009 A 
ATOM     77  C   UNL     1     -15.964   2.397   8.619  1.00  0.00     0.009 A 
ATOM     78  C   UNL     1     -17.604   0.144   8.742  1.00  0.00     0.001 A 
ATOM     79  C   UNL     1     -17.325   2.540   8.884  1.00  0.00     0.001 A 
ATOM     80  C   UNL     1     -18.146   1.415   8.936  1.00  0.00     0.000 A 
ENDBRANCH  62  75
ENDBRANCH  36  37
ENDBRANCH  29  31
ENDBRANCH  28  29
ENDBRANCH  27  28
ENDBRANCH  26  27
ENDBRANCH  25  26
ENDBRANCH   1  25
TORSDOF 18
