REMARK SMILES CCOC(=O)COc1ccc(/C=C/C(=O)OCCOCCOC(=O)c2ccc(-c3c4nc(c(-c5ccccc5)c5ccc([nH]5)c(-c5ccccc5)c5nc(c(-c6ccccc6)c6ccc3[nH]6)C=C5)C=C4)cc2)cc1
REMARK SMILES IDX 17 1 16 2 14 3 15 4 13 5 12 6 11 7 8 8 9 9 74 10 10 11 73 12
REMARK SMILES IDX 7 13 6 14 4 15 5 16 3 17 2 18 1 19 18 20 19 21 20 22 21 23
REMARK SMILES IDX 22 24 23 25 24 26 25 27 26 28 72 29 27 30 71 31 28 32 29 33
REMARK SMILES IDX 30 34 65 35 31 36 70 37 64 38 66 39 32 40 69 41 63 42 62 43
REMARK SMILES IDX 33 45 55 46 40 47 54 48 41 49 44 50 53 51 67 52 42 53 43 54
REMARK SMILES IDX 52 56 68 57 45 58 34 59 35 60 39 61 36 62 38 63 37 64 56 65
REMARK SMILES IDX 57 66 61 67 58 68 60 69 59 70 46 71 47 72 51 73 48 74 50 75
REMARK SMILES IDX 49 76
REMARK H PARENT 66 44 44 55
REMARK Flexibility Score: inf
ROOT
ATOM      1  C   UNL     1       4.695  -1.287   9.266  1.00  0.00     0.261 C 
ENDROOT
BRANCH   1   2
ATOM      2  O   UNL     1       4.431  -1.642   7.899  1.00  0.00    -0.460 OA
BRANCH   2   3
ATOM      3  C   UNL     1       5.014  -2.788   7.473  1.00  0.00     0.330 C 
ATOM      4  O   UNL     1       5.811  -3.474   8.094  1.00  0.00    -0.247 OA
BRANCH   3   5
ATOM      5  C   UNL     1       4.545  -3.188   6.132  1.00  0.00     0.094 C 
ATOM      6  C   UNL     1       3.671  -2.506   5.375  1.00  0.00     0.015 C 
BRANCH   6   7
ATOM      7  C   UNL     1       3.285  -2.958   4.032  1.00  0.00    -0.025 A 
ATOM      8  C   UNL     1       2.590  -3.732   1.413  1.00  0.00     0.120 A 
ATOM      9  C   UNL     1       2.646  -4.678   2.436  1.00  0.00     0.047 A 
ATOM     10  C   UNL     1       2.850  -2.396   1.711  1.00  0.00     0.047 A 
ATOM     11  C   UNL     1       2.998  -4.297   3.736  1.00  0.00     0.012 A 
ATOM     12  C   UNL     1       3.179  -2.009   3.013  1.00  0.00     0.012 A 
BRANCH   8  13
ATOM     13  O   UNL     1       2.205  -4.202   0.188  1.00  0.00    -0.482 OA
BRANCH  13  14
ATOM     14  C   UNL     1       2.824  -3.597  -0.942  1.00  0.00     0.351 C 
BRANCH  14  15
ATOM     15  C   UNL     1       2.287  -2.252  -1.423  1.00  0.00     0.344 C 
ATOM     16  O   UNL     1       2.964  -1.437  -2.039  1.00  0.00    -0.248 OA
BRANCH  15  17
ATOM     17  O   UNL     1       0.988  -2.073  -1.059  1.00  0.00    -0.463 OA
BRANCH  17  18
ATOM     18  C   UNL     1       0.433  -0.774  -1.316  1.00  0.00     0.229 C 
ATOM     19  C   UNL     1       0.739   0.157  -0.156  1.00  0.00     0.049 C 
ENDBRANCH  17  18
ENDBRANCH  15  17
ENDBRANCH  14  15
ENDBRANCH  13  14
ENDBRANCH   8  13
ENDBRANCH   6   7
ENDBRANCH   3   5
ENDBRANCH   2   3
ENDBRANCH   1   2
BRANCH   1  20
ATOM     20  C   UNL     1       3.423  -1.374  10.110  1.00  0.00     0.202 C 
BRANCH  20  21
ATOM     21  O   UNL     1       2.854  -2.678  10.220  1.00  0.00    -0.374 OA
BRANCH  21  22
ATOM     22  C   UNL     1       1.987  -3.088   9.160  1.00  0.00     0.202 C 
BRANCH  22  23
ATOM     23  C   UNL     1       0.547  -2.567   9.251  1.00  0.00     0.261 C 
BRANCH  23  24
ATOM     24  O   UNL     1       0.478  -1.151   8.993  1.00  0.00    -0.460 OA
BRANCH  24  25
ATOM     25  C   UNL     1       0.184  -0.384  10.068  1.00  0.00     0.338 C 
ATOM     26  O   UNL     1      -0.106  -0.762  11.195  1.00  0.00    -0.246 OA
BRANCH  25  27
ATOM     27  C   UNL     1       0.427   1.035   9.750  1.00  0.00     0.060 A 
ATOM     28  C   UNL     1       1.216   1.775  10.641  1.00  0.00     0.016 A 
ATOM     29  C   UNL     1      -0.148   1.650   8.636  1.00  0.00     0.016 A 
ATOM     30  C   UNL     1       1.398   3.143  10.444  1.00  0.00     0.010 A 
ATOM     31  C   UNL     1       0.029   3.024   8.444  1.00  0.00     0.010 A 
ATOM     32  C   UNL     1       0.777   3.782   9.363  1.00  0.00    -0.014 A 
BRANCH  32  33
ATOM     33  C   UNL     1       0.805   5.261   9.262  1.00  0.00     0.031 A 
ATOM     34  C   UNL     1      -0.391   6.050   9.717  1.00  0.00     0.074 A 
ATOM     35  C   UNL     1       1.888   5.896   8.779  1.00  0.00     0.049 A 
ATOM     36  N   UNL     1      -0.597   7.342   9.673  1.00  0.00    -0.248 NA
ATOM     37  C   UNL     1      -1.502   5.280  10.299  1.00  0.00     0.031 C 
ATOM     38  C   UNL     1       3.125   5.250   8.344  1.00  0.00     0.029 A 
ATOM     39  N   UNL     1       2.111   7.233   8.567  1.00  0.00    -0.354 N 
ATOM     40  C   UNL     1      -1.863   7.539  10.210  1.00  0.00     0.074 A 
ATOM     41  C   UNL     1      -2.387   6.234  10.550  1.00  0.00     0.031 C 
ATOM     42  C   UNL     1       3.978   6.194   7.908  1.00  0.00     0.029 A 
ATOM     43  C   UNL     1       3.333   7.502   8.001  1.00  0.00     0.049 A 
ATOM     44  H   UNL     1       1.458   7.933   8.799  1.00  0.00     0.167 HD
ATOM     45  C   UNL     1      -2.528   8.702  10.407  1.00  0.00     0.031 A 
ATOM     46  C   UNL     1       3.862   8.668   7.585  1.00  0.00     0.031 A 
ATOM     47  C   UNL     1      -2.015   9.999  10.058  1.00  0.00     0.049 A 
ATOM     48  C   UNL     1       3.071   9.939   7.742  1.00  0.00     0.074 A 
ATOM     49  C   UNL     1      -2.608  11.238  10.234  1.00  0.00     0.029 A 
ATOM     50  N   UNL     1      -0.788  10.225   9.454  1.00  0.00    -0.354 N 
ATOM     51  N   UNL     1       1.885  10.115   8.273  1.00  0.00    -0.248 NA
ATOM     52  C   UNL     1       3.697  11.174   7.247  1.00  0.00     0.031 C 
ATOM     53  C   UNL     1      -1.763  12.209   9.688  1.00  0.00     0.029 A 
ATOM     54  C   UNL     1      -0.618  11.580   9.225  1.00  0.00     0.049 A 
ATOM     55  H   UNL     1      -0.135   9.526   9.223  1.00  0.00     0.167 HD
ATOM     56  C   UNL     1       1.636  11.480   8.201  1.00  0.00     0.074 A 
ATOM     57  C   UNL     1       2.799  12.087   7.587  1.00  0.00     0.031 C 
ATOM     58  C   UNL     1       0.543  12.170   8.611  1.00  0.00     0.031 A 
BRANCH  45  59
ATOM     59  C   UNL     1      -3.906   8.617  11.000  1.00  0.00    -0.014 A 
ATOM     60  C   UNL     1      -4.101   8.294  12.352  1.00  0.00     0.009 A 
ATOM     61  C   UNL     1      -5.026   8.895  10.200  1.00  0.00     0.009 A 
ATOM     62  C   UNL     1      -5.391   8.221  12.882  1.00  0.00     0.001 A 
ATOM     63  C   UNL     1      -6.312   8.847  10.739  1.00  0.00     0.001 A 
ATOM     64  C   UNL     1      -6.494   8.501  12.077  1.00  0.00     0.000 A 
ENDBRANCH  45  59
BRANCH  46  65
ATOM     65  C   UNL     1       5.208   8.692   6.955  1.00  0.00    -0.014 A 
ATOM     66  C   UNL     1       6.299   9.271   7.620  1.00  0.00     0.009 A 
ATOM     67  C   UNL     1       5.402   8.149   5.675  1.00  0.00     0.009 A 
ATOM     68  C   UNL     1       7.553   9.326   7.006  1.00  0.00     0.001 A 
ATOM     69  C   UNL     1       6.662   8.182   5.075  1.00  0.00     0.001 A 
ATOM     70  C   UNL     1       7.734   8.778   5.737  1.00  0.00     0.000 A 
ENDBRANCH  46  65
BRANCH  58  71
ATOM     71  C   UNL     1       0.568  13.663   8.444  1.00  0.00    -0.014 A 
ATOM     72  C   UNL     1       0.432  14.259   7.181  1.00  0.00     0.009 A 
ATOM     73  C   UNL     1       0.688  14.486   9.576  1.00  0.00     0.009 A 
ATOM     74  C   UNL     1       0.447  15.650   7.052  1.00  0.00     0.001 A 
ATOM     75  C   UNL     1       0.674  15.875   9.447  1.00  0.00     0.001 A 
ATOM     76  C   UNL     1       0.563  16.456   8.184  1.00  0.00     0.000 A 
ENDBRANCH  58  71
ENDBRANCH  32  33
ENDBRANCH  25  27
ENDBRANCH  24  25
ENDBRANCH  23  24
ENDBRANCH  22  23
ENDBRANCH  21  22
ENDBRANCH  20  21
ENDBRANCH   1  20
TORSDOF 20
