REMARK SMILES CC(C)CCn1nc(C(=O)OCCOCCOC(=O)c2ccc(-c3c4nc(c(-c5ccccc5)c5ccc([nH]5)c(-c5ccccc5)c5nc(c(-c6ccccc6)c6ccc3[nH]6)C=C5)C=C4)cc2)c2c1CCN(C(=O)[C@@H]1CCc3nn(C)c(=O)n3C1)C2
REMARK SMILES IDX 13 1 12 2 11 3 9 4 10 5 8 6 6 7 7 8 69 9 68 10 70 11 86 12
REMARK SMILES IDX 71 13 72 14 5 15 4 16 2 17 1 18 3 19 73 20 74 21 75 22 76 23
REMARK SMILES IDX 85 24 77 25 84 26 78 27 82 28 79 29 80 30 83 31 81 32 14 33
REMARK SMILES IDX 15 34 16 35 17 36 18 37 19 38 20 39 21 40 67 41 22 42 66 43
REMARK SMILES IDX 23 44 24 45 25 46 60 47 26 48 65 49 59 50 61 51 27 52 64 53
REMARK SMILES IDX 58 54 57 55 28 57 50 58 35 59 49 60 36 61 39 62 48 63 62 64
REMARK SMILES IDX 37 65 38 66 47 68 63 69 40 70 29 71 30 72 34 73 31 74 33 75
REMARK SMILES IDX 32 76 51 77 52 78 56 79 53 80 55 81 54 82 41 83 42 84 46 85
REMARK SMILES IDX 43 86 45 87 44 88
REMARK H PARENT 61 56 39 67
REMARK Flexibility Score: inf
ROOT
ATOM      1  C   UNL     1       2.198  -6.083   5.902  1.00  0.00     0.202 C 
ENDROOT
BRANCH   1   2
ATOM      2  C   UNL     1       0.721  -5.885   6.239  1.00  0.00     0.261 C 
BRANCH   2   3
ATOM      3  O   UNL     1      -0.000  -5.484   5.067  1.00  0.00    -0.458 OA
BRANCH   3   4
ATOM      4  C   UNL     1      -0.325  -4.157   4.982  1.00  0.00     0.359 C 
ATOM      5  O   UNL     1      -0.219  -3.362   5.904  1.00  0.00    -0.244 OA
BRANCH   4   6
ATOM      6  C   UNL     1      -0.731  -3.803   3.610  1.00  0.00     0.175 A 
ATOM      7  N   UNL     1      -1.358  -2.591   1.960  1.00  0.00    -0.268 N 
ATOM      8  N   UNL     1      -0.889  -2.516   3.218  1.00  0.00    -0.165 NA
ATOM      9  C   UNL     1      -1.624  -3.874   1.610  1.00  0.00     0.046 A 
ATOM     10  C   UNL     1      -1.015  -4.694   2.535  1.00  0.00     0.028 A 
ATOM     11  C   UNL     1      -2.525  -4.365   0.551  1.00  0.00     0.078 C 
ATOM     12  C   UNL     1      -0.974  -6.197   2.421  1.00  0.00     0.159 C 
ATOM     13  C   UNL     1      -2.943  -5.775   1.013  1.00  0.00     0.126 C 
ATOM     14  N   UNL     1      -1.781  -6.630   1.247  1.00  0.00    -0.338 N 
BRANCH   7  15
ATOM     15  C   UNL     1      -1.659  -1.415   1.161  1.00  0.00     0.145 C 
BRANCH  15  16
ATOM     16  C   UNL     1      -1.043  -0.084   1.598  1.00  0.00     0.027 C 
BRANCH  16  17
ATOM     17  C   UNL     1       0.488   0.028   1.456  1.00  0.00    -0.016 C 
ATOM     18  C   UNL     1       0.948   0.014  -0.004  1.00  0.00     0.007 C 
ATOM     19  C   UNL     1       0.962   1.325   2.121  1.00  0.00     0.007 C 
ENDBRANCH  16  17
ENDBRANCH  15  16
ENDBRANCH   7  15
BRANCH  14  20
ATOM     20  C   UNL     1      -1.419  -7.781   0.573  1.00  0.00     0.227 C 
ATOM     21  O   UNL     1      -0.406  -8.396   0.938  1.00  0.00    -0.274 OA
BRANCH  20  22
ATOM     22  C   UNL     1      -2.162  -8.377  -0.657  1.00  0.00     0.099 C 
ATOM     23  C   UNL     1      -1.878  -7.730  -2.019  1.00  0.00     0.023 C 
ATOM     24  C   UNL     1      -3.634  -8.746  -0.502  1.00  0.00     0.142 C 
ATOM     25  C   UNL     1      -2.813  -6.593  -2.409  1.00  0.00     0.078 C 
ATOM     26  N   UNL     1      -4.524  -7.731  -1.019  1.00  0.00    -0.278 N 
ATOM     27  C   UNL     1      -4.184  -6.692  -1.808  1.00  0.00     0.133 A 
ATOM     28  C   UNL     1      -5.721  -7.392  -0.431  1.00  0.00     0.345 A 
ATOM     29  N   UNL     1      -5.042  -5.713  -1.823  1.00  0.00    -0.155 NA
ATOM     30  N   UNL     1      -6.028  -6.127  -0.949  1.00  0.00    -0.216 N 
ATOM     31  O   UNL     1      -6.283  -7.979   0.479  1.00  0.00    -0.246 OA
ATOM     32  C   UNL     1      -6.922  -5.197  -0.307  1.00  0.00     0.179 C 
ENDBRANCH  20  22
ENDBRANCH  14  20
ENDBRANCH   4   6
ENDBRANCH   3   4
ENDBRANCH   2   3
ENDBRANCH   1   2
BRANCH   1  33
ATOM     33  O   UNL     1       2.955  -4.896   5.654  1.00  0.00    -0.374 OA
BRANCH  33  34
ATOM     34  C   UNL     1       2.849  -4.249   4.390  1.00  0.00     0.202 C 
BRANCH  34  35
ATOM     35  C   UNL     1       3.590  -4.874   3.221  1.00  0.00     0.261 C 
BRANCH  35  36
ATOM     36  O   UNL     1       3.082  -6.165   2.921  1.00  0.00    -0.460 OA
BRANCH  36  37
ATOM     37  C   UNL     1       3.828  -7.182   3.411  1.00  0.00     0.338 C 
ATOM     38  O   UNL     1       4.690  -7.127   4.265  1.00  0.00    -0.246 OA
BRANCH  37  39
ATOM     39  C   UNL     1       3.561  -8.365   2.590  1.00  0.00     0.060 A 
ATOM     40  C   UNL     1       4.381  -9.470   2.821  1.00  0.00     0.016 A 
ATOM     41  C   UNL     1       2.784  -8.238   1.430  1.00  0.00     0.016 A 
ATOM     42  C   UNL     1       4.619 -10.321   1.770  1.00  0.00     0.010 A 
ATOM     43  C   UNL     1       3.030  -9.079   0.379  1.00  0.00     0.010 A 
ATOM     44  C   UNL     1       4.019 -10.042   0.538  1.00  0.00    -0.014 A 
BRANCH  44  45
ATOM     45  C   UNL     1       4.376 -10.860  -0.591  1.00  0.00     0.031 A 
ATOM     46  C   UNL     1       3.772 -12.203  -0.517  1.00  0.00     0.074 A 
ATOM     47  C   UNL     1       5.090 -10.385  -1.626  1.00  0.00     0.049 A 
ATOM     48  N   UNL     1       4.385 -13.321  -0.331  1.00  0.00    -0.248 NA
ATOM     49  C   UNL     1       2.303 -12.292  -0.443  1.00  0.00     0.031 C 
ATOM     50  C   UNL     1       5.483  -9.005  -1.919  1.00  0.00     0.029 A 
ATOM     51  N   UNL     1       5.522 -11.058  -2.720  1.00  0.00    -0.354 N 
ATOM     52  C   UNL     1       3.390 -14.286  -0.312  1.00  0.00     0.074 A 
ATOM     53  C   UNL     1       2.137 -13.587  -0.183  1.00  0.00     0.031 C 
ATOM     54  C   UNL     1       5.852  -8.919  -3.220  1.00  0.00     0.029 A 
ATOM     55  C   UNL     1       5.840 -10.252  -3.802  1.00  0.00     0.049 A 
ATOM     56  H   UNL     1       5.602 -12.039  -2.745  1.00  0.00     0.167 HD
ATOM     57  C   UNL     1       3.648 -15.566  -0.689  1.00  0.00     0.031 A 
ATOM     58  C   UNL     1       5.981 -10.668  -5.087  1.00  0.00     0.031 A 
ATOM     59  C   UNL     1       5.059 -15.854  -0.678  1.00  0.00     0.049 A 
ATOM     60  C   UNL     1       6.189 -12.140  -5.054  1.00  0.00     0.074 A 
ATOM     61  C   UNL     1       6.037 -15.807   0.298  1.00  0.00     0.029 A 
ATOM     62  N   UNL     1       5.724 -15.817  -1.882  1.00  0.00    -0.354 N 
ATOM     63  N   UNL     1       7.259 -12.696  -4.560  1.00  0.00    -0.248 NA
ATOM     64  C   UNL     1       5.008 -12.994  -5.097  1.00  0.00     0.031 C 
ATOM     65  C   UNL     1       7.173 -15.244  -0.351  1.00  0.00     0.029 A 
ATOM     66  C   UNL     1       6.858 -15.065  -1.700  1.00  0.00     0.049 A 
ATOM     67  H   UNL     1       5.440 -16.251  -2.719  1.00  0.00     0.167 HD
ATOM     68  C   UNL     1       6.792 -13.781  -3.831  1.00  0.00     0.074 A 
ATOM     69  C   UNL     1       5.405 -13.963  -4.265  1.00  0.00     0.031 C 
ATOM     70  C   UNL     1       7.455 -14.239  -2.727  1.00  0.00     0.031 A 
BRANCH  57  71
ATOM     71  C   UNL     1       2.652 -16.380  -1.464  1.00  0.00    -0.014 A 
ATOM     72  C   UNL     1       2.931 -17.729  -1.725  1.00  0.00     0.009 A 
ATOM     73  C   UNL     1       1.580 -15.801  -2.175  1.00  0.00     0.009 A 
ATOM     74  C   UNL     1       2.202 -18.444  -2.683  1.00  0.00     0.001 A 
ATOM     75  C   UNL     1       0.823 -16.522  -3.098  1.00  0.00     0.001 A 
ATOM     76  C   UNL     1       1.152 -17.840  -3.370  1.00  0.00     0.000 A 
ENDBRANCH  57  71
BRANCH  58  77
ATOM     77  C   UNL     1       5.597  -9.945  -6.324  1.00  0.00    -0.014 A 
ATOM     78  C   UNL     1       6.009 -10.399  -7.587  1.00  0.00     0.009 A 
ATOM     79  C   UNL     1       4.602  -8.949  -6.288  1.00  0.00     0.009 A 
ATOM     80  C   UNL     1       5.425  -9.900  -8.762  1.00  0.00     0.001 A 
ATOM     81  C   UNL     1       4.022  -8.448  -7.458  1.00  0.00     0.001 A 
ATOM     82  C   UNL     1       4.424  -8.934  -8.696  1.00  0.00     0.000 A 
ENDBRANCH  58  77
BRANCH  70  83
ATOM     83  C   UNL     1       8.814 -13.653  -2.412  1.00  0.00    -0.014 A 
ATOM     84  C   UNL     1       9.029 -12.284  -2.167  1.00  0.00     0.009 A 
ATOM     85  C   UNL     1       9.878 -14.538  -2.185  1.00  0.00     0.009 A 
ATOM     86  C   UNL     1      10.277 -11.818  -1.735  1.00  0.00     0.001 A 
ATOM     87  C   UNL     1      11.116 -14.076  -1.734  1.00  0.00     0.001 A 
ATOM     88  C   UNL     1      11.318 -12.716  -1.514  1.00  0.00     0.000 A 
ENDBRANCH  70  83
ENDBRANCH  44  45
ENDBRANCH  37  39
ENDBRANCH  36  37
ENDBRANCH  35  36
ENDBRANCH  34  35
ENDBRANCH  33  34
ENDBRANCH   1  33
TORSDOF 19
