REMARK SMILES Cc1ccc(NC(=O)c2ccccc2NC(=O)[C@H]2CCCC[C@H]2C(=O)OCCOCCOC(=O)c2ccc(-c3c4nc(c(-c5ccccc5)c5ccc([nH]5)c(-c5ccccc5)c5nc(c(-c6ccccc6)c6ccc3[nH]6)C=C5)C=C4)cc2)cc1
REMARK SMILES IDX 28 1 27 2 26 3 24 4 25 5 23 6 18 7 19 8 20 9 22 10 21 11
REMARK SMILES IDX 16 12 15 13 17 15 14 16 9 17 10 18 11 19 13 20 12 21 7 22
REMARK SMILES IDX 6 23 8 25 5 26 1 27 2 28 3 29 84 30 4 31 83 32 29 33 30 34
REMARK SMILES IDX 31 35 32 36 33 37 34 38 35 39 36 40 82 41 37 42 81 43 38 44
REMARK SMILES IDX 39 45 40 46 75 47 41 48 80 49 74 50 76 51 42 52 79 53 73 54
REMARK SMILES IDX 72 55 43 57 65 58 50 59 64 60 51 61 54 62 63 63 77 64 52 65
REMARK SMILES IDX 53 66 62 68 78 69 55 70 44 71 45 72 49 73 46 74 48 75 47 76
REMARK SMILES IDX 66 77 67 78 71 79 68 80 70 81 69 82 56 83 57 84 61 85 58 86
REMARK SMILES IDX 60 87 59 88
REMARK H PARENT 15 14 6 24 76 56 54 67
REMARK Flexibility Score: inf
ROOT
ATOM      1  C   UNL     1      -0.272   1.106   4.687  1.00  0.00     0.202 C 
ENDROOT
BRANCH   1   2
ATOM      2  C   UNL     1      -0.200   0.297   5.932  1.00  0.00     0.261 C 
BRANCH   2   3
ATOM      3  O   UNL     1      -0.391  -1.093   5.725  1.00  0.00    -0.463 OA
BRANCH   3   4
ATOM      4  C   UNL     1      -1.649  -1.504   5.428  1.00  0.00     0.309 C 
ATOM      5  O   UNL     1      -2.683  -0.959   5.742  1.00  0.00    -0.252 OA
BRANCH   4   6
ATOM      6  C   UNL     1      -1.555  -2.739   4.561  1.00  0.00     0.111 C 
ATOM      7  C   UNL     1      -0.535  -2.550   3.397  1.00  0.00     0.093 C 
ATOM      8  C   UNL     1      -0.416  -3.845   2.591  1.00  0.00     0.014 C 
ATOM      9  C   UNL     1      -0.173  -5.067   3.484  1.00  0.00     0.001 C 
ATOM     10  C   UNL     1      -1.357  -3.984   5.421  1.00  0.00     0.016 C 
ATOM     11  C   UNL     1      -1.248  -5.229   4.551  1.00  0.00     0.001 C 
BRANCH   7  12
ATOM     12  C   UNL     1       0.889  -2.124   3.794  1.00  0.00     0.228 C 
ATOM     13  N   UNL     1       1.586  -1.099   3.218  1.00  0.00    -0.325 N 
ATOM     14  H   UNL     1       2.414  -0.918   3.719  1.00  0.00     0.169 HD
ATOM     15  O   UNL     1       1.464  -2.702   4.727  1.00  0.00    -0.274 OA
BRANCH  13  16
ATOM     16  C   UNL     1       1.467  -0.217   2.111  1.00  0.00     0.054 A 
ATOM     17  C   UNL     1       2.346   0.900   1.978  1.00  0.00     0.063 A 
ATOM     18  C   UNL     1       2.059   1.892   1.011  1.00  0.00     0.016 A 
ATOM     19  C   UNL     1       0.968   1.780   0.155  1.00  0.00     0.001 A 
ATOM     20  C   UNL     1       0.443  -0.353   1.164  1.00  0.00     0.027 A 
ATOM     21  C   UNL     1       0.178   0.644   0.216  1.00  0.00     0.002 A 
BRANCH  17  22
ATOM     22  C   UNL     1       3.510   1.264   2.852  1.00  0.00     0.257 C 
ATOM     23  N   UNL     1       4.405   0.378   3.406  1.00  0.00    -0.322 N 
ATOM     24  H   UNL     1       5.015   0.790   4.060  1.00  0.00     0.170 HD
ATOM     25  O   UNL     1       3.664   2.454   3.139  1.00  0.00    -0.269 OA
BRANCH  23  26
ATOM     26  C   UNL     1       4.619  -0.992   3.225  1.00  0.00     0.041 A 
ATOM     27  C   UNL     1       3.944  -5.204   3.432  1.00  0.00     0.044 C 
ATOM     28  C   UNL     1       4.326  -3.761   3.317  1.00  0.00    -0.051 A 
ATOM     29  C   UNL     1       4.069  -3.063   2.131  1.00  0.00     0.005 A 
ATOM     30  C   UNL     1       4.883  -3.080   4.402  1.00  0.00     0.005 A 
ATOM     31  C   UNL     1       4.238  -1.679   2.077  1.00  0.00     0.026 A 
ATOM     32  C   UNL     1       5.068  -1.700   4.341  1.00  0.00     0.026 A 
ENDBRANCH  23  26
ENDBRANCH  17  22
ENDBRANCH  13  16
ENDBRANCH   7  12
ENDBRANCH   4   6
ENDBRANCH   3   4
ENDBRANCH   2   3
ENDBRANCH   1   2
BRANCH   1  33
ATOM     33  O   UNL     1      -1.611   1.482   4.435  1.00  0.00    -0.374 OA
BRANCH  33  34
ATOM     34  C   UNL     1      -1.773   2.170   3.202  1.00  0.00     0.202 C 
BRANCH  34  35
ATOM     35  C   UNL     1      -0.800   3.351   3.008  1.00  0.00     0.261 C 
BRANCH  35  36
ATOM     36  O   UNL     1      -1.005   4.341   4.043  1.00  0.00    -0.460 OA
BRANCH  36  37
ATOM     37  C   UNL     1      -0.026   4.453   4.990  1.00  0.00     0.338 C 
ATOM     38  O   UNL     1       1.166   4.573   4.763  1.00  0.00    -0.246 OA
BRANCH  37  39
ATOM     39  C   UNL     1      -0.577   4.079   6.331  1.00  0.00     0.060 A 
ATOM     40  C   UNL     1       0.287   3.806   7.412  1.00  0.00     0.016 A 
ATOM     41  C   UNL     1      -1.883   3.613   6.367  1.00  0.00     0.016 A 
ATOM     42  C   UNL     1      -0.107   2.920   8.433  1.00  0.00     0.010 A 
ATOM     43  C   UNL     1      -2.190   2.622   7.270  1.00  0.00     0.010 A 
ATOM     44  C   UNL     1      -1.314   2.245   8.306  1.00  0.00    -0.014 A 
BRANCH  44  45
ATOM     45  C   UNL     1      -1.781   1.076   9.076  1.00  0.00     0.031 A 
ATOM     46  C   UNL     1      -3.107   1.218   9.726  1.00  0.00     0.074 A 
ATOM     47  C   UNL     1      -1.216  -0.163   8.987  1.00  0.00     0.049 A 
ATOM     48  N   UNL     1      -3.582   0.369  10.562  1.00  0.00    -0.248 NA
ATOM     49  C   UNL     1      -4.016   2.350   9.519  1.00  0.00     0.031 C 
ATOM     50  C   UNL     1      -1.810  -1.472   9.289  1.00  0.00     0.029 A 
ATOM     51  N   UNL     1       0.087  -0.522   8.620  1.00  0.00    -0.354 N 
ATOM     52  C   UNL     1      -4.919   0.632  10.713  1.00  0.00     0.074 A 
ATOM     53  C   UNL     1      -5.122   1.930  10.135  1.00  0.00     0.031 C 
ATOM     54  C   UNL     1      -0.835  -2.392   9.429  1.00  0.00     0.029 A 
ATOM     55  C   UNL     1       0.431  -1.692   9.316  1.00  0.00     0.049 A 
ATOM     56  H   UNL     1       0.662  -0.038   7.984  1.00  0.00     0.167 HD
ATOM     57  C   UNL     1      -5.707  -0.356  11.210  1.00  0.00     0.031 A 
ATOM     58  C   UNL     1       1.492  -1.690  10.165  1.00  0.00     0.031 A 
ATOM     59  C   UNL     1      -4.886  -1.481  11.681  1.00  0.00     0.049 A 
ATOM     60  C   UNL     1       0.955  -1.905  11.548  1.00  0.00     0.074 A 
ATOM     61  C   UNL     1      -4.640  -2.754  11.197  1.00  0.00     0.029 A 
ATOM     62  N   UNL     1      -3.881  -1.219  12.615  1.00  0.00    -0.354 N 
ATOM     63  N   UNL     1      -0.293  -1.664  11.852  1.00  0.00    -0.248 NA
ATOM     64  C   UNL     1       1.697  -2.496  12.653  1.00  0.00     0.031 C 
ATOM     65  C   UNL     1      -3.420  -3.212  11.786  1.00  0.00     0.029 A 
ATOM     66  C   UNL     1      -2.950  -2.239  12.658  1.00  0.00     0.049 A 
ATOM     67  H   UNL     1      -3.841  -0.409  13.173  1.00  0.00     0.167 HD
ATOM     68  C   UNL     1      -0.565  -2.159  13.085  1.00  0.00     0.074 A 
ATOM     69  C   UNL     1       0.725  -2.618  13.577  1.00  0.00     0.031 C 
ATOM     70  C   UNL     1      -1.828  -2.175  13.596  1.00  0.00     0.031 A 
BRANCH  57  71
ATOM     71  C   UNL     1      -7.214  -0.379  11.116  1.00  0.00    -0.014 A 
ATOM     72  C   UNL     1      -7.911  -1.503  11.589  1.00  0.00     0.009 A 
ATOM     73  C   UNL     1      -8.007   0.622  10.521  1.00  0.00     0.009 A 
ATOM     74  C   UNL     1      -9.306  -1.615  11.480  1.00  0.00     0.001 A 
ATOM     75  C   UNL     1      -9.402   0.529  10.427  1.00  0.00     0.001 A 
ATOM     76  C   UNL     1     -10.053  -0.595  10.905  1.00  0.00     0.000 A 
ENDBRANCH  57  71
BRANCH  58  77
ATOM     77  C   UNL     1       2.571  -0.774   9.667  1.00  0.00    -0.014 A 
ATOM     78  C   UNL     1       3.148  -1.136   8.424  1.00  0.00     0.009 A 
ATOM     79  C   UNL     1       2.615   0.579  10.037  1.00  0.00     0.009 A 
ATOM     80  C   UNL     1       3.535  -0.159   7.500  1.00  0.00     0.001 A 
ATOM     81  C   UNL     1       3.070   1.548   9.122  1.00  0.00     0.001 A 
ATOM     82  C   UNL     1       3.468   1.187   7.835  1.00  0.00     0.000 A 
ENDBRANCH  58  77
BRANCH  70  83
ATOM     83  C   UNL     1      -2.109  -2.147  15.071  1.00  0.00    -0.014 A 
ATOM     84  C   UNL     1      -1.143  -1.824  16.033  1.00  0.00     0.009 A 
ATOM     85  C   UNL     1      -3.442  -2.256  15.518  1.00  0.00     0.009 A 
ATOM     86  C   UNL     1      -1.480  -1.671  17.380  1.00  0.00     0.001 A 
ATOM     87  C   UNL     1      -3.794  -2.034  16.847  1.00  0.00     0.001 A 
ATOM     88  C   UNL     1      -2.808  -1.760  17.783  1.00  0.00     0.000 A 
ENDBRANCH  70  83
ENDBRANCH  44  45
ENDBRANCH  37  39
ENDBRANCH  36  37
ENDBRANCH  35  36
ENDBRANCH  34  35
ENDBRANCH  33  34
ENDBRANCH   1  33
TORSDOF 18
