REMARK SMILES C[C@@H]1CC([NH2+][C@@](C)(C(=O)OCCOCCOC(=O)c2ccc(-c3c4nc(c(-c5ccccc5)c5ccc([nH]5)c(-c5ccccc5)c5nc(c(-c6ccccc6)c6ccc3[nH]6)C=C5)C=C4)cc2)C(F)(F)F)C[C@@H](C)C1
REMARK SMILES IDX 13 1 12 2 11 3 10 4 8 5 9 6 6 7 7 8 5 9 4 12 1 13 2 14 3 15
REMARK SMILES IDX 74 16 72 17 71 18 73 19 67 20 68 21 69 22 70 23 14 24 15 25
REMARK SMILES IDX 16 26 17 27 18 28 19 29 20 30 66 31 21 32 65 33 22 34 23 35
REMARK SMILES IDX 24 36 59 37 25 38 64 39 58 40 60 41 26 42 63 43 57 44 56 45
REMARK SMILES IDX 27 47 49 48 34 49 48 50 35 51 38 52 47 53 61 54 36 55 37 56
REMARK SMILES IDX 46 58 62 59 39 60 28 61 29 62 33 63 30 64 32 65 31 66 50 67
REMARK SMILES IDX 51 68 55 69 52 70 54 71 53 72 40 73 41 74 45 75 42 76 44 77
REMARK SMILES IDX 43 78
REMARK H PARENT 5 10 5 11 60 46 38 57
REMARK Flexibility Score: inf
ROOT
ATOM      1  O   UNL     1       4.857  -2.898   3.362  1.00  0.00    -0.374 OA
ENDROOT
BRANCH   1   2
ATOM      2  C   UNL     1       5.127  -1.508   3.524  1.00  0.00     0.202 C 
BRANCH   2   3
ATOM      3  C   UNL     1       5.921  -0.821   2.411  1.00  0.00     0.261 C 
BRANCH   3   4
ATOM      4  O   UNL     1       5.265  -0.901   1.135  1.00  0.00    -0.458 OA
BRANCH   4   5
ATOM      5  C   UNL     1       5.779  -1.845   0.282  1.00  0.00     0.377 C 
ATOM      6  O   UNL     1       6.781  -2.503   0.535  1.00  0.00    -0.244 OA
BRANCH   5   7
ATOM      7  C   UNL     1       5.018  -1.878  -1.057  1.00  0.00     0.287 C 
ATOM      8  C   UNL     1       5.748  -0.842  -1.929  1.00  0.00     0.103 C 
BRANCH   7   9
ATOM      9  N   UNL     1       3.559  -1.514  -0.816  1.00  0.00    -0.322 N 
ATOM     10  H   UNL     1       3.227  -2.093  -0.045  1.00  0.00     0.347 HD
ATOM     11  H   UNL     1       3.576  -0.509  -0.644  1.00  0.00     0.347 HD
BRANCH   9  12
ATOM     12  C   UNL     1       2.608  -1.677  -1.925  1.00  0.00     0.184 C 
ATOM     13  C   UNL     1       0.815   0.257   0.270  1.00  0.00     0.008 C 
ATOM     14  C   UNL     1       0.539  -0.228  -1.153  1.00  0.00    -0.008 C 
ATOM     15  C   UNL     1       1.142  -1.624  -1.424  1.00  0.00     0.068 C 
ATOM     16  C   UNL     1       0.940   0.826  -2.204  1.00  0.00     0.007 C 
ATOM     17  C   UNL     1       2.426   0.769  -2.567  1.00  0.00    -0.008 C 
ATOM     18  C   UNL     1       2.757  -0.647  -3.051  1.00  0.00     0.068 C 
ATOM     19  C   UNL     1       2.799   1.798  -3.631  1.00  0.00     0.008 C 
ENDBRANCH   9  12
ENDBRANCH   7   9
BRANCH   7  20
ATOM     20  C   UNL     1       5.281  -3.306  -1.600  1.00  0.00     0.455 C 
ATOM     21  F   UNL     1       4.746  -4.259  -0.800  1.00  0.00    -0.164 F 
ATOM     22  F   UNL     1       4.720  -3.466  -2.829  1.00  0.00    -0.164 F 
ATOM     23  F   UNL     1       6.593  -3.582  -1.768  1.00  0.00    -0.164 F 
ENDBRANCH   7  20
ENDBRANCH   5   7
ENDBRANCH   4   5
ENDBRANCH   3   4
ENDBRANCH   2   3
ENDBRANCH   1   2
BRANCH   1  24
ATOM     24  C   UNL     1       3.778  -3.263   2.500  1.00  0.00     0.202 C 
BRANCH  24  25
ATOM     25  C   UNL     1       2.361  -3.109   3.063  1.00  0.00     0.261 C 
BRANCH  25  26
ATOM     26  O   UNL     1       2.039  -1.739   3.365  1.00  0.00    -0.460 OA
BRANCH  26  27
ATOM     27  C   UNL     1       1.924  -1.466   4.683  1.00  0.00     0.338 C 
ATOM     28  O   UNL     1       1.964  -2.265   5.614  1.00  0.00    -0.246 OA
BRANCH  27  29
ATOM     29  C   UNL     1       1.906  -0.011   4.912  1.00  0.00     0.060 A 
ATOM     30  C   UNL     1       2.782   0.494   5.880  1.00  0.00     0.016 A 
ATOM     31  C   UNL     1       1.003   0.836   4.263  1.00  0.00     0.016 A 
ATOM     32  C   UNL     1       2.713   1.832   6.254  1.00  0.00     0.010 A 
ATOM     33  C   UNL     1       0.933   2.182   4.642  1.00  0.00     0.010 A 
ATOM     34  C   UNL     1       1.757   2.674   5.670  1.00  0.00    -0.014 A 
BRANCH  34  35
ATOM     35  C   UNL     1       1.545   4.021   6.252  1.00  0.00     0.031 A 
ATOM     36  C   UNL     1       0.422   4.231   7.231  1.00  0.00     0.074 A 
ATOM     37  C   UNL     1       2.391   5.028   5.973  1.00  0.00     0.049 A 
ATOM     38  N   UNL     1       0.122   5.296   7.931  1.00  0.00    -0.248 NA
ATOM     39  C   UNL     1      -0.480   3.090   7.454  1.00  0.00     0.031 C 
ATOM     40  C   UNL     1       3.533   4.945   5.064  1.00  0.00     0.029 A 
ATOM     41  N   UNL     1       2.425   6.316   6.443  1.00  0.00    -0.354 N 
ATOM     42  C   UNL     1      -0.999   4.954   8.677  1.00  0.00     0.074 A 
ATOM     43  C   UNL     1      -1.347   3.596   8.318  1.00  0.00     0.031 C 
ATOM     44  C   UNL     1       4.164   6.132   5.050  1.00  0.00     0.029 A 
ATOM     45  C   UNL     1       3.461   7.059   5.935  1.00  0.00     0.049 A 
ATOM     46  H   UNL     1       1.769   6.674   7.084  1.00  0.00     0.167 HD
ATOM     47  C   UNL     1      -1.673   5.697   9.586  1.00  0.00     0.031 A 
ATOM     48  C   UNL     1       3.806   8.341   6.159  1.00  0.00     0.031 A 
ATOM     49  C   UNL     1      -1.340   7.052   9.937  1.00  0.00     0.049 A 
ATOM     50  C   UNL     1       3.015   9.162   7.140  1.00  0.00     0.074 A 
ATOM     51  C   UNL     1      -1.952   7.880  10.861  1.00  0.00     0.029 A 
ATOM     52  N   UNL     1      -0.306   7.780   9.370  1.00  0.00    -0.354 N 
ATOM     53  N   UNL     1       1.984   8.810   7.870  1.00  0.00    -0.248 NA
ATOM     54  C   UNL     1       3.449  10.552   7.341  1.00  0.00     0.031 C 
ATOM     55  C   UNL     1      -1.319   9.128  10.817  1.00  0.00     0.029 A 
ATOM     56  C   UNL     1      -0.278   9.057   9.906  1.00  0.00     0.049 A 
ATOM     57  H   UNL     1       0.316   7.441   8.687  1.00  0.00     0.167 HD
ATOM     58  C   UNL     1       1.665   9.925   8.637  1.00  0.00     0.074 A 
ATOM     59  C   UNL     1       2.620  10.958   8.292  1.00  0.00     0.031 C 
ATOM     60  C   UNL     1       0.673  10.077   9.549  1.00  0.00     0.031 A 
BRANCH  47  61
ATOM     61  C   UNL     1      -2.865   5.062  10.246  1.00  0.00    -0.014 A 
ATOM     62  C   UNL     1      -2.714   4.048  11.205  1.00  0.00     0.009 A 
ATOM     63  C   UNL     1      -4.158   5.503   9.921  1.00  0.00     0.009 A 
ATOM     64  C   UNL     1      -3.835   3.466  11.800  1.00  0.00     0.001 A 
ATOM     65  C   UNL     1      -5.275   4.937  10.537  1.00  0.00     0.001 A 
ATOM     66  C   UNL     1      -5.114   3.913  11.469  1.00  0.00     0.000 A 
ENDBRANCH  47  61
BRANCH  48  67
ATOM     67  C   UNL     1       4.967   8.929   5.443  1.00  0.00    -0.014 A 
ATOM     68  C   UNL     1       6.157   9.223   6.126  1.00  0.00     0.009 A 
ATOM     69  C   UNL     1       4.886   9.204   4.069  1.00  0.00     0.009 A 
ATOM     70  C   UNL     1       7.235   9.800   5.449  1.00  0.00     0.001 A 
ATOM     71  C   UNL     1       5.973   9.756   3.391  1.00  0.00     0.001 A 
ATOM     72  C   UNL     1       7.144  10.061   4.083  1.00  0.00     0.000 A 
ENDBRANCH  48  67
BRANCH  60  73
ATOM     73  C   UNL     1       0.592  11.398  10.260  1.00  0.00    -0.014 A 
ATOM     74  C   UNL     1       0.146  12.556   9.604  1.00  0.00     0.009 A 
ATOM     75  C   UNL     1       0.943  11.478  11.617  1.00  0.00     0.009 A 
ATOM     76  C   UNL     1       0.090  13.775  10.283  1.00  0.00     0.001 A 
ATOM     77  C   UNL     1       0.859  12.692  12.301  1.00  0.00     0.001 A 
ATOM     78  C   UNL     1       0.444  13.841  11.631  1.00  0.00     0.000 A 
ENDBRANCH  60  73
ENDBRANCH  34  35
ENDBRANCH  27  29
ENDBRANCH  26  27
ENDBRANCH  25  26
ENDBRANCH  24  25
ENDBRANCH   1  24
TORSDOF 17
