REMARK SMILES CCC[C@@H](Oc1ccc(-c2ccccc2)cc1)C(=O)OCCOCCOC(=O)c1ccc(-c2c3nc(c(-c4ccccc4)c4ccc([nH]4)c(-c4ccccc4)c4nc(c(-c5ccccc5)c5ccc2[nH]5)C=C4)C=C3)cc1
REMARK SMILES IDX 22 1 21 2 20 3 18 4 19 5 4 6 3 7 2 8 1 9 5 10 6 11 7 12
REMARK SMILES IDX 17 13 8 14 16 15 9 16 10 17 11 18 15 19 12 20 14 21 13 22
REMARK SMILES IDX 23 23 24 24 25 25 26 26 27 27 28 28 29 29 30 30 76 31 31 32
REMARK SMILES IDX 75 33 32 34 33 35 34 36 69 37 35 38 74 39 68 40 70 41 36 42
REMARK SMILES IDX 73 43 67 44 66 45 37 47 59 48 44 49 58 50 45 51 48 52 57 53
REMARK SMILES IDX 71 54 46 55 47 56 56 58 72 59 49 60 38 61 39 62 43 63 40 64
REMARK SMILES IDX 42 65 41 66 60 67 61 68 65 69 62 70 64 71 63 72 50 73 51 74
REMARK SMILES IDX 55 75 52 76 54 77 53 78
REMARK H PARENT 70 46 48 57
REMARK Flexibility Score: inf
ROOT
ATOM      1  C   UNL     1       2.149   5.729   3.672  1.00  0.00     0.202 C 
ENDROOT
BRANCH   1   2
ATOM      2  C   UNL     1       0.761   5.611   3.033  1.00  0.00     0.261 C 
BRANCH   2   3
ATOM      3  O   UNL     1       0.417   4.238   2.759  1.00  0.00    -0.461 OA
BRANCH   3   4
ATOM      4  C   UNL     1       0.089   3.945   1.467  1.00  0.00     0.347 C 
ATOM      5  O   UNL     1       0.084   4.755   0.546  1.00  0.00    -0.248 OA
BRANCH   4   6
ATOM      6  C   UNL     1      -0.277   2.471   1.277  1.00  0.00     0.282 C 
BRANCH   6   7
ATOM      7  C   UNL     1       0.744   1.532   1.956  1.00  0.00     0.057 C 
BRANCH   7   8
ATOM      8  C   UNL     1       0.967   0.158   1.306  1.00  0.00     0.001 C 
ATOM      9  C   UNL     1       1.345   0.203  -0.166  1.00  0.00     0.004 C 
ENDBRANCH   7   8
ENDBRANCH   6   7
BRANCH   6  10
ATOM     10  O   UNL     1      -1.597   2.321   1.831  1.00  0.00    -0.479 OA
BRANCH  10  11
ATOM     11  C   UNL     1      -2.280   1.322   1.200  1.00  0.00     0.120 A 
ATOM     12  C   UNL     1      -2.856   1.513  -0.051  1.00  0.00     0.047 A 
ATOM     13  C   UNL     1      -2.384   0.099   1.844  1.00  0.00     0.047 A 
ATOM     14  C   UNL     1      -3.463   0.431  -0.701  1.00  0.00     0.012 A 
ATOM     15  C   UNL     1      -2.948  -0.985   1.173  1.00  0.00     0.012 A 
ATOM     16  C   UNL     1      -3.492  -0.852  -0.119  1.00  0.00    -0.018 A 
BRANCH  16  17
ATOM     17  C   UNL     1      -4.046  -2.030  -0.831  1.00  0.00    -0.018 A 
ATOM     18  C   UNL     1      -3.947  -2.166  -2.227  1.00  0.00     0.009 A 
ATOM     19  C   UNL     1      -4.662  -3.083  -0.127  1.00  0.00     0.009 A 
ATOM     20  C   UNL     1      -4.434  -3.301  -2.886  1.00  0.00     0.001 A 
ATOM     21  C   UNL     1      -5.134  -4.225  -0.779  1.00  0.00     0.001 A 
ATOM     22  C   UNL     1      -5.021  -4.333  -2.160  1.00  0.00     0.000 A 
ENDBRANCH  16  17
ENDBRANCH  10  11
ENDBRANCH   6  10
ENDBRANCH   4   6
ENDBRANCH   3   4
ENDBRANCH   2   3
ENDBRANCH   1   2
BRANCH   1  23
ATOM     23  O   UNL     1       3.268   5.563   2.799  1.00  0.00    -0.374 OA
BRANCH  23  24
ATOM     24  C   UNL     1       3.529   4.249   2.318  1.00  0.00     0.202 C 
BRANCH  24  25
ATOM     25  C   UNL     1       4.243   3.298   3.290  1.00  0.00     0.261 C 
BRANCH  25  26
ATOM     26  O   UNL     1       3.521   3.105   4.520  1.00  0.00    -0.460 OA
BRANCH  26  27
ATOM     27  C   UNL     1       4.120   3.637   5.612  1.00  0.00     0.338 C 
ATOM     28  O   UNL     1       5.225   4.166   5.669  1.00  0.00    -0.246 OA
BRANCH  27  29
ATOM     29  C   UNL     1       3.200   3.649   6.762  1.00  0.00     0.060 A 
ATOM     30  C   UNL     1       2.967   4.882   7.385  1.00  0.00     0.016 A 
ATOM     31  C   UNL     1       2.661   2.475   7.291  1.00  0.00     0.016 A 
ATOM     32  C   UNL     1       2.237   4.939   8.571  1.00  0.00     0.010 A 
ATOM     33  C   UNL     1       1.935   2.533   8.488  1.00  0.00     0.010 A 
ATOM     34  C   UNL     1       1.752   3.760   9.152  1.00  0.00    -0.014 A 
BRANCH  34  35
ATOM     35  C   UNL     1       1.185   3.808  10.523  1.00  0.00     0.031 A 
ATOM     36  C   UNL     1       2.063   3.452  11.693  1.00  0.00     0.074 A 
ATOM     37  C   UNL     1      -0.079   4.214  10.734  1.00  0.00     0.049 A 
ATOM     38  N   UNL     1       1.778   3.445  12.971  1.00  0.00    -0.248 NA
ATOM     39  C   UNL     1       3.446   3.056  11.381  1.00  0.00     0.031 C 
ATOM     40  C   UNL     1      -1.019   4.632   9.696  1.00  0.00     0.029 A 
ATOM     41  N   UNL     1      -0.786   4.344  11.904  1.00  0.00    -0.354 N 
ATOM     42  C   UNL     1       2.942   3.044  13.614  1.00  0.00     0.074 A 
ATOM     43  C   UNL     1       3.928   2.790  12.586  1.00  0.00     0.031 C 
ATOM     44  C   UNL     1      -2.183   4.974  10.276  1.00  0.00     0.029 A 
ATOM     45  C   UNL     1      -2.077   4.773  11.720  1.00  0.00     0.049 A 
ATOM     46  H   UNL     1      -0.404   4.149  12.790  1.00  0.00     0.167 HD
ATOM     47  C   UNL     1       3.175   2.906  14.942  1.00  0.00     0.031 A 
ATOM     48  C   UNL     1      -3.066   4.969  12.613  1.00  0.00     0.031 A 
ATOM     49  C   UNL     1       2.198   3.144  15.970  1.00  0.00     0.049 A 
ATOM     50  C   UNL     1      -2.807   4.729  14.076  1.00  0.00     0.074 A 
ATOM     51  C   UNL     1       2.347   3.041  17.342  1.00  0.00     0.029 A 
ATOM     52  N   UNL     1       0.886   3.524  15.737  1.00  0.00    -0.354 N 
ATOM     53  N   UNL     1      -1.695   4.372  14.671  1.00  0.00    -0.248 NA
ATOM     54  C   UNL     1      -3.942   4.926  14.990  1.00  0.00     0.031 C 
ATOM     55  C   UNL     1       1.110   3.311  17.938  1.00  0.00     0.029 A 
ATOM     56  C   UNL     1       0.206   3.633  16.938  1.00  0.00     0.049 A 
ATOM     57  H   UNL     1       0.496   3.692  14.849  1.00  0.00     0.167 HD
ATOM     58  C   UNL     1      -1.990   4.327  16.029  1.00  0.00     0.074 A 
ATOM     59  C   UNL     1      -3.381   4.704  16.170  1.00  0.00     0.031 C 
ATOM     60  C   UNL     1      -1.178   4.005  17.065  1.00  0.00     0.031 A 
BRANCH  47  61
ATOM     61  C   UNL     1       4.544   2.445  15.355  1.00  0.00    -0.014 A 
ATOM     62  C   UNL     1       5.653   3.302  15.283  1.00  0.00     0.009 A 
ATOM     63  C   UNL     1       4.719   1.143  15.849  1.00  0.00     0.009 A 
ATOM     64  C   UNL     1       6.918   2.853  15.669  1.00  0.00     0.001 A 
ATOM     65  C   UNL     1       5.980   0.705  16.256  1.00  0.00     0.001 A 
ATOM     66  C   UNL     1       7.080   1.557  16.158  1.00  0.00     0.000 A 
ENDBRANCH  47  61
BRANCH  48  67
ATOM     67  C   UNL     1      -4.410   5.402  12.150  1.00  0.00    -0.014 A 
ATOM     68  C   UNL     1      -4.878   6.696  12.422  1.00  0.00     0.009 A 
ATOM     69  C   UNL     1      -5.238   4.512  11.448  1.00  0.00     0.009 A 
ATOM     70  C   UNL     1      -6.159   7.082  12.018  1.00  0.00     0.001 A 
ATOM     71  C   UNL     1      -6.508   4.910  11.025  1.00  0.00     0.001 A 
ATOM     72  C   UNL     1      -6.970   6.191  11.317  1.00  0.00     0.000 A 
ENDBRANCH  48  67
BRANCH  60  73
ATOM     73  C   UNL     1      -1.764   4.075  18.447  1.00  0.00    -0.014 A 
ATOM     74  C   UNL     1      -2.662   3.100  18.907  1.00  0.00     0.009 A 
ATOM     75  C   UNL     1      -1.379   5.110  19.314  1.00  0.00     0.009 A 
ATOM     76  C   UNL     1      -3.185   3.176  20.200  1.00  0.00     0.001 A 
ATOM     77  C   UNL     1      -1.884   5.169  20.614  1.00  0.00     0.001 A 
ATOM     78  C   UNL     1      -2.792   4.208  21.053  1.00  0.00     0.000 A 
ENDBRANCH  60  73
ENDBRANCH  34  35
ENDBRANCH  27  29
ENDBRANCH  26  27
ENDBRANCH  25  26
ENDBRANCH  24  25
ENDBRANCH  23  24
ENDBRANCH   1  23
TORSDOF 19
