REMARK SMILES CC(C)(C(=O)OCCOCCOC(=O)c1ccc(-c2c3nc(c(-c4ccccc4)c4ccc([nH]4)c(-c4ccccc4)c4nc(c(-c5ccccc5)c5ccc2[nH]5)C=C4)C=C3)cc1)c1ccc(C(=O)CCCCl)cc1
REMARK SMILES IDX 7 1 6 2 4 3 5 4 2 5 1 6 3 7 63 8 64 9 74 10 65 11 73 12
REMARK SMILES IDX 66 13 67 14 68 15 69 16 70 17 71 18 72 19 8 20 9 21 10 22
REMARK SMILES IDX 11 23 12 24 13 25 14 26 15 27 16 28 62 29 17 30 61 31 18 32
REMARK SMILES IDX 19 33 20 34 55 35 21 36 60 37 54 38 56 39 22 40 59 41 53 42
REMARK SMILES IDX 52 43 23 45 45 46 30 47 44 48 31 49 34 50 43 51 57 52 32 53
REMARK SMILES IDX 33 54 42 56 58 57 35 58 24 59 25 60 29 61 26 62 28 63 27 64
REMARK SMILES IDX 46 65 47 66 51 67 48 68 50 69 49 70 36 71 37 72 41 73 38 74
REMARK SMILES IDX 40 75 39 76
REMARK H PARENT 56 44 34 55
REMARK Flexibility Score: inf
ROOT
ATOM      1  C   UNL     1      -3.007  -1.361   1.192  1.00  0.00     0.261 C 
ENDROOT
BRANCH   1   2
ATOM      2  O   UNL     1      -1.601  -1.098   1.061  1.00  0.00    -0.463 OA
BRANCH   2   3
ATOM      3  C   UNL     1      -0.772  -2.110   1.442  1.00  0.00     0.316 C 
ATOM      4  O   UNL     1      -1.158  -3.110   2.040  1.00  0.00    -0.251 OA
BRANCH   3   5
ATOM      5  C   UNL     1       0.702  -1.876   1.017  1.00  0.00     0.087 C 
ATOM      6  C   UNL     1       0.937  -0.381   0.683  1.00  0.00     0.028 C 
ATOM      7  C   UNL     1       1.553  -2.205   2.260  1.00  0.00     0.028 C 
BRANCH   5   8
ATOM      8  C   UNL     1       1.148  -2.801  -0.145  1.00  0.00    -0.031 A 
ATOM      9  C   UNL     1       0.550  -4.054  -0.369  1.00  0.00     0.005 A 
ATOM     10  C   UNL     1       2.211  -2.449  -0.998  1.00  0.00     0.005 A 
ATOM     11  C   UNL     1       0.937  -4.870  -1.442  1.00  0.00     0.012 A 
ATOM     12  C   UNL     1       2.611  -3.271  -2.063  1.00  0.00     0.012 A 
ATOM     13  C   UNL     1       1.949  -4.470  -2.319  1.00  0.00     0.018 A 
BRANCH  13  14
ATOM     14  C   UNL     1       2.244  -5.338  -3.501  1.00  0.00     0.162 C 
ATOM     15  O   UNL     1       1.722  -6.451  -3.573  1.00  0.00    -0.294 OA
BRANCH  14  16
ATOM     16  C   UNL     1       3.113  -4.831  -4.639  1.00  0.00     0.082 C 
BRANCH  16  17
ATOM     17  C   UNL     1       2.300  -4.109  -5.717  1.00  0.00     0.024 C 
BRANCH  17  18
ATOM     18  C   UNL     1       2.019  -2.632  -5.453  1.00  0.00     0.110 C 
ATOM     19  Cl  UNL     1       3.516  -1.671  -5.383  1.00  0.00    -0.127 Cl
ENDBRANCH  17  18
ENDBRANCH  16  17
ENDBRANCH  14  16
ENDBRANCH  13  14
ENDBRANCH   5   8
ENDBRANCH   3   5
ENDBRANCH   2   3
ENDBRANCH   1   2
BRANCH   1  20
ATOM     20  C   UNL     1      -3.783  -0.903  -0.047  1.00  0.00     0.202 C 
BRANCH  20  21
ATOM     21  O   UNL     1      -3.329  -1.395  -1.306  1.00  0.00    -0.374 OA
BRANCH  21  22
ATOM     22  C   UNL     1      -2.102  -0.876  -1.821  1.00  0.00     0.202 C 
BRANCH  22  23
ATOM     23  C   UNL     1      -2.099   0.594  -2.267  1.00  0.00     0.261 C 
BRANCH  23  24
ATOM     24  O   UNL     1      -2.362   1.512  -1.187  1.00  0.00    -0.460 OA
BRANCH  24  25
ATOM     25  C   UNL     1      -3.424   2.328  -1.391  1.00  0.00     0.338 C 
ATOM     26  O   UNL     1      -4.094   2.430  -2.412  1.00  0.00    -0.246 OA
BRANCH  25  27
ATOM     27  C   UNL     1      -3.824   2.996  -0.141  1.00  0.00     0.060 A 
ATOM     28  C   UNL     1      -5.124   2.761   0.323  1.00  0.00     0.016 A 
ATOM     29  C   UNL     1      -3.003   3.929   0.496  1.00  0.00     0.016 A 
ATOM     30  C   UNL     1      -5.626   3.496   1.394  1.00  0.00     0.010 A 
ATOM     31  C   UNL     1      -3.513   4.672   1.570  1.00  0.00     0.010 A 
ATOM     32  C   UNL     1      -4.840   4.487   1.998  1.00  0.00    -0.014 A 
BRANCH  32  33
ATOM     33  C   UNL     1      -5.481   5.399   2.978  1.00  0.00     0.031 A 
ATOM     34  C   UNL     1      -5.978   6.745   2.522  1.00  0.00     0.074 A 
ATOM     35  C   UNL     1      -5.711   4.994   4.241  1.00  0.00     0.049 A 
ATOM     36  N   UNL     1      -6.668   7.641   3.184  1.00  0.00    -0.248 NA
ATOM     37  C   UNL     1      -5.662   7.130   1.138  1.00  0.00     0.031 C 
ATOM     38  C   UNL     1      -5.308   3.706   4.802  1.00  0.00     0.029 A 
ATOM     39  N   UNL     1      -6.359   5.625   5.273  1.00  0.00    -0.354 N 
ATOM     40  C   UNL     1      -6.883   8.685   2.292  1.00  0.00     0.074 A 
ATOM     41  C   UNL     1      -6.214   8.333   1.059  1.00  0.00     0.031 C 
ATOM     42  C   UNL     1      -5.726   3.637   6.077  1.00  0.00     0.029 A 
ATOM     43  C   UNL     1      -6.414   4.879   6.425  1.00  0.00     0.049 A 
ATOM     44  H   UNL     1      -6.747   6.526   5.196  1.00  0.00     0.167 HD
ATOM     45  C   UNL     1      -7.588   9.828   2.475  1.00  0.00     0.031 A 
ATOM     46  C   UNL     1      -6.958   5.163   7.623  1.00  0.00     0.031 A 
ATOM     47  C   UNL     1      -8.236  10.199   3.705  1.00  0.00     0.049 A 
ATOM     48  C   UNL     1      -7.687   6.465   7.819  1.00  0.00     0.074 A 
ATOM     49  C   UNL     1      -8.967  11.341   3.986  1.00  0.00     0.029 A 
ATOM     50  N   UNL     1      -8.227   9.436   4.861  1.00  0.00    -0.354 N 
ATOM     51  N   UNL     1      -7.907   7.427   6.956  1.00  0.00    -0.248 NA
ATOM     52  C   UNL     1      -8.257   6.709   9.152  1.00  0.00     0.031 C 
ATOM     53  C   UNL     1      -9.363  11.289   5.327  1.00  0.00     0.029 A 
ATOM     54  C   UNL     1      -8.922  10.090   5.865  1.00  0.00     0.049 A 
ATOM     55  H   UNL     1      -7.791   8.558   4.956  1.00  0.00     0.167 HD
ATOM     56  C   UNL     1      -8.655   8.381   7.636  1.00  0.00     0.074 A 
ATOM     57  C   UNL     1      -8.873   7.869   8.973  1.00  0.00     0.031 C 
ATOM     58  C   UNL     1      -9.118   9.576   7.194  1.00  0.00     0.031 A 
BRANCH  45  59
ATOM     59  C   UNL     1      -7.678  10.774   1.311  1.00  0.00    -0.014 A 
ATOM     60  C   UNL     1      -8.489  10.480   0.202  1.00  0.00     0.009 A 
ATOM     61  C   UNL     1      -6.976  11.989   1.337  1.00  0.00     0.009 A 
ATOM     62  C   UNL     1      -8.571  11.373  -0.869  1.00  0.00     0.001 A 
ATOM     63  C   UNL     1      -7.080  12.889   0.276  1.00  0.00     0.001 A 
ATOM     64  C   UNL     1      -7.871  12.578  -0.829  1.00  0.00     0.000 A 
ENDBRANCH  45  59
BRANCH  46  65
ATOM     65  C   UNL     1      -6.831   4.197   8.745  1.00  0.00    -0.014 A 
ATOM     66  C   UNL     1      -7.947   3.495   9.226  1.00  0.00     0.009 A 
ATOM     67  C   UNL     1      -5.585   3.995   9.361  1.00  0.00     0.009 A 
ATOM     68  C   UNL     1      -7.823   2.632  10.317  1.00  0.00     0.001 A 
ATOM     69  C   UNL     1      -5.459   3.111  10.434  1.00  0.00     0.001 A 
ATOM     70  C   UNL     1      -6.579   2.438  10.917  1.00  0.00     0.000 A 
ENDBRANCH  46  65
BRANCH  58  71
ATOM     71  C   UNL     1      -9.918  10.399   8.165  1.00  0.00    -0.014 A 
ATOM     72  C   UNL     1      -9.304  11.039   9.254  1.00  0.00     0.009 A 
ATOM     73  C   UNL     1     -11.301  10.548   7.982  1.00  0.00     0.009 A 
ATOM     74  C   UNL     1     -10.066  11.775  10.163  1.00  0.00     0.001 A 
ATOM     75  C   UNL     1     -12.057  11.307   8.877  1.00  0.00     0.001 A 
ATOM     76  C   UNL     1     -11.441  11.910   9.973  1.00  0.00     0.000 A 
ENDBRANCH  58  71
ENDBRANCH  32  33
ENDBRANCH  25  27
ENDBRANCH  24  25
ENDBRANCH  23  24
ENDBRANCH  22  23
ENDBRANCH  21  22
ENDBRANCH  20  21
ENDBRANCH   1  20
TORSDOF 19
