REMARK SMILES CC1(C)CCC[C@H]1NS(=O)(=O)c1ccc(O)c(C(=O)OCCOCCOC(=O)c2ccc(-c3c4nc(c(-c5ccccc5)c5ccc([nH]5)c(-c5ccccc5)c5nc(c(-c6ccccc6)c6ccc3[nH]6)C=C5)C=C4)cc2)c1
REMARK SMILES IDX 22 1 21 2 20 3 18 4 19 5 17 6 12 7 13 8 77 9 14 10 15 11
REMARK SMILES IDX 9 12 10 13 11 14 8 15 7 17 1 18 2 19 3 20 4 21 5 22 6 23
REMARK SMILES IDX 16 24 23 26 24 27 25 28 26 29 27 30 28 31 29 32 30 33 76 34
REMARK SMILES IDX 31 35 75 36 32 37 33 38 34 39 69 40 35 41 74 42 68 43 70 44
REMARK SMILES IDX 36 45 73 46 67 47 66 48 37 50 59 51 44 52 58 53 45 54 48 55
REMARK SMILES IDX 57 56 71 57 46 58 47 59 56 61 72 62 49 63 38 64 39 65 43 66
REMARK SMILES IDX 40 67 42 68 41 69 60 70 61 71 65 72 62 73 64 74 63 75 50 76
REMARK SMILES IDX 51 77 55 78 52 79 54 80 53 81
REMARK H PARENT 8 16 16 25 70 49 48 60
REMARK Flexibility Score: inf
ROOT
ATOM      1  C   UNL     1      -2.070  10.557   1.537  1.00  0.00     0.202 C 
ENDROOT
BRANCH   1   2
ATOM      2  C   UNL     1      -0.581  10.221   1.655  1.00  0.00     0.261 C 
BRANCH   2   3
ATOM      3  O   UNL     1      -0.303   9.059   0.859  1.00  0.00    -0.460 OA
BRANCH   3   4
ATOM      4  C   UNL     1       0.404   8.067   1.448  1.00  0.00     0.342 C 
ATOM      5  O   UNL     1       0.968   8.109   2.529  1.00  0.00    -0.246 OA
BRANCH   4   6
ATOM      6  C   UNL     1       0.178   6.812   0.693  1.00  0.00     0.103 A 
ATOM      7  C   UNL     1      -0.582   4.514   0.780  1.00  0.00     0.083 A 
ATOM      8  C   UNL     1      -0.634   4.483  -0.617  1.00  0.00     0.025 A 
ATOM      9  C   UNL     1      -0.176   5.677   1.441  1.00  0.00     0.041 A 
ATOM     10  C   UNL     1      -0.217   5.587  -1.361  1.00  0.00     0.048 A 
ATOM     11  C   UNL     1       0.183   6.752  -0.707  1.00  0.00     0.130 A 
BRANCH   7  12
ATOM     12  S   UNL     1      -1.272   3.164   1.706  1.00  0.00     0.240 S 
ATOM     13  O   UNL     1      -2.601   2.947   1.184  1.00  0.00    -0.207 OA
ATOM     14  O   UNL     1      -1.054   3.441   3.110  1.00  0.00    -0.207 OA
BRANCH  12  15
ATOM     15  N   UNL     1      -0.297   1.832   1.377  1.00  0.00    -0.208 NA
ATOM     16  H   UNL     1       0.664   2.169   1.430  1.00  0.00     0.141 HD
BRANCH  15  17
ATOM     17  C   UNL     1      -0.386   1.057   0.127  1.00  0.00     0.075 C 
ATOM     18  C   UNL     1       1.928   0.093   0.896  1.00  0.00     0.013 C 
ATOM     19  C   UNL     1       0.654  -0.102   0.065  1.00  0.00    -0.019 C 
ATOM     20  C   UNL     1       1.084  -0.322  -1.404  1.00  0.00     0.013 C 
ATOM     21  C   UNL     1      -0.145  -1.313   0.574  1.00  0.00     0.008 C 
ATOM     22  C   UNL     1      -1.523  -1.133  -0.037  1.00  0.00     0.002 C 
ATOM     23  C   UNL     1      -1.757   0.372  -0.025  1.00  0.00     0.020 C 
ENDBRANCH  15  17
ENDBRANCH  12  15
ENDBRANCH   7  12
BRANCH  11  24
ATOM     24  O   UNL     1       0.568   7.832  -1.450  1.00  0.00    -0.507 OA
ATOM     25  H   UNL     1       0.567   7.782  -2.385  1.00  0.00     0.293 HD
ENDBRANCH  11  24
ENDBRANCH   4   6
ENDBRANCH   3   4
ENDBRANCH   2   3
ENDBRANCH   1   2
BRANCH   1  26
ATOM     26  O   UNL     1      -2.931   9.643   2.221  1.00  0.00    -0.374 OA
BRANCH  26  27
ATOM     27  C   UNL     1      -3.271   8.445   1.519  1.00  0.00     0.202 C 
BRANCH  27  28
ATOM     28  C   UNL     1      -4.473   8.581   0.577  1.00  0.00     0.261 C 
BRANCH  28  29
ATOM     29  O   UNL     1      -4.129   9.332  -0.603  1.00  0.00    -0.460 OA
BRANCH  29  30
ATOM     30  C   UNL     1      -4.644  10.583  -0.663  1.00  0.00     0.338 C 
ATOM     31  O   UNL     1      -5.418  11.109   0.118  1.00  0.00    -0.246 OA
BRANCH  30  32
ATOM     32  C   UNL     1      -4.000  11.323  -1.766  1.00  0.00     0.060 A 
ATOM     33  C   UNL     1      -3.482  12.595  -1.486  1.00  0.00     0.016 A 
ATOM     34  C   UNL     1      -3.955  10.808  -3.062  1.00  0.00     0.016 A 
ATOM     35  C   UNL     1      -2.947  13.373  -2.512  1.00  0.00     0.010 A 
ATOM     36  C   UNL     1      -3.430  11.593  -4.091  1.00  0.00     0.010 A 
ATOM     37  C   UNL     1      -2.950  12.889  -3.826  1.00  0.00    -0.014 A 
BRANCH  37  38
ATOM     38  C   UNL     1      -2.591  13.775  -4.957  1.00  0.00     0.031 A 
ATOM     39  C   UNL     1      -3.694  14.419  -5.748  1.00  0.00     0.074 A 
ATOM     40  C   UNL     1      -1.306  13.982  -5.294  1.00  0.00     0.049 A 
ATOM     41  N   UNL     1      -3.625  15.107  -6.859  1.00  0.00    -0.248 NA
ATOM     42  C   UNL     1      -5.058  14.259  -5.219  1.00  0.00     0.031 C 
ATOM     43  C   UNL     1      -0.145  13.465  -4.572  1.00  0.00     0.029 A 
ATOM     44  N   UNL     1      -0.768  14.671  -6.352  1.00  0.00    -0.354 N 
ATOM     45  C   UNL     1      -4.936  15.445  -7.171  1.00  0.00     0.074 A 
ATOM     46  C   UNL     1      -5.779  14.876  -6.143  1.00  0.00     0.031 C 
ATOM     47  C   UNL     1       0.971  13.838  -5.223  1.00  0.00     0.029 A 
ATOM     48  C   UNL     1       0.600  14.580  -6.426  1.00  0.00     0.049 A 
ATOM     49  H   UNL     1      -1.311  15.182  -6.996  1.00  0.00     0.167 HD
ATOM     50  C   UNL     1      -5.395  16.162  -8.223  1.00  0.00     0.031 A 
ATOM     51  C   UNL     1       1.450  15.013  -7.377  1.00  0.00     0.031 A 
ATOM     52  C   UNL     1      -4.557  16.718  -9.250  1.00  0.00     0.049 A 
ATOM     53  C   UNL     1       0.909  15.731  -8.584  1.00  0.00     0.074 A 
ATOM     54  C   UNL     1      -4.928  17.467 -10.353  1.00  0.00     0.029 A 
ATOM     55  N   UNL     1      -3.180  16.581  -9.301  1.00  0.00    -0.354 N 
ATOM     56  N   UNL     1      -0.331  16.046  -8.871  1.00  0.00    -0.248 NA
ATOM     57  C   UNL     1       1.885  16.150  -9.601  1.00  0.00     0.031 C 
ATOM     58  C   UNL     1      -3.777  17.742 -11.099  1.00  0.00     0.029 A 
ATOM     59  C   UNL     1      -2.686  17.209 -10.430  1.00  0.00     0.049 A 
ATOM     60  H   UNL     1      -2.634  16.106  -8.633  1.00  0.00     0.167 HD
ATOM     61  C   UNL     1      -0.280  16.727 -10.081  1.00  0.00     0.074 A 
ATOM     62  C   UNL     1       1.112  16.781 -10.475  1.00  0.00     0.031 C 
ATOM     63  C   UNL     1      -1.296  17.263 -10.800  1.00  0.00     0.031 A 
BRANCH  50  64
ATOM     64  C   UNL     1      -6.881  16.348  -8.336  1.00  0.00    -0.014 A 
ATOM     65  C   UNL     1      -7.575  17.217  -7.480  1.00  0.00     0.009 A 
ATOM     66  C   UNL     1      -7.592  15.664  -9.334  1.00  0.00     0.009 A 
ATOM     67  C   UNL     1      -8.957  17.373  -7.603  1.00  0.00     0.001 A 
ATOM     68  C   UNL     1      -8.969  15.841  -9.471  1.00  0.00     0.001 A 
ATOM     69  C   UNL     1      -9.652  16.689  -8.600  1.00  0.00     0.000 A 
ENDBRANCH  50  64
BRANCH  51  70
ATOM     70  C   UNL     1       2.906  14.748  -7.248  1.00  0.00    -0.014 A 
ATOM     71  C   UNL     1       3.804  15.794  -6.989  1.00  0.00     0.009 A 
ATOM     72  C   UNL     1       3.408  13.445  -7.400  1.00  0.00     0.009 A 
ATOM     73  C   UNL     1       5.176  15.545  -6.905  1.00  0.00     0.001 A 
ATOM     74  C   UNL     1       4.777  13.195  -7.289  1.00  0.00     0.001 A 
ATOM     75  C   UNL     1       5.661  14.246  -7.050  1.00  0.00     0.000 A 
ENDBRANCH  51  70
BRANCH  63  76
ATOM     76  C   UNL     1      -0.943  18.000 -12.060  1.00  0.00    -0.014 A 
ATOM     77  C   UNL     1      -0.590  17.315 -13.232  1.00  0.00     0.009 A 
ATOM     78  C   UNL     1      -1.039  19.401 -12.090  1.00  0.00     0.009 A 
ATOM     79  C   UNL     1      -0.322  18.021 -14.406  1.00  0.00     0.001 A 
ATOM     80  C   UNL     1      -0.794  20.102 -13.271  1.00  0.00     0.001 A 
ATOM     81  C   UNL     1      -0.431  19.412 -14.427  1.00  0.00     0.000 A 
ENDBRANCH  63  76
ENDBRANCH  37  38
ENDBRANCH  30  32
ENDBRANCH  29  30
ENDBRANCH  28  29
ENDBRANCH  27  28
ENDBRANCH  26  27
ENDBRANCH   1  26
TORSDOF 18
