REMARK SMILES C[C@@H](C(=O)OCCOCCOC(=O)c1ccc(-c2c3nc(c(-c4ccccc4)c4ccc([nH]4)c(-c4ccccc4)c4nc(c(-c5ccccc5)c5ccc2[nH]5)C=C4)C=C3)cc1)c1ccccc1-c1ccn(C(F)F)c(=O)c1
REMARK SMILES IDX 7 1 6 2 5 3 3 4 4 5 2 6 1 7 62 8 63 9 67 10 64 11 66 12
REMARK SMILES IDX 65 13 68 14 69 15 77 16 70 17 75 18 71 19 76 20 72 21 73 22
REMARK SMILES IDX 74 23 8 24 9 25 10 26 11 27 12 28 13 29 14 30 15 31 61 32
REMARK SMILES IDX 16 33 60 34 17 35 18 36 19 37 54 38 20 39 59 40 53 41 55 42
REMARK SMILES IDX 21 43 58 44 52 45 51 46 22 48 44 49 29 50 43 51 30 52 33 53
REMARK SMILES IDX 42 54 56 55 31 56 32 57 41 59 57 60 34 61 23 62 24 63 28 64
REMARK SMILES IDX 25 65 27 66 26 67 45 68 46 69 50 70 47 71 49 72 48 73 35 74
REMARK SMILES IDX 36 75 40 76 37 77 39 78 38 79
REMARK H PARENT 55 47 33 58
REMARK Flexibility Score: inf
ROOT
ATOM      1  C   UNL     1       2.144   4.694   1.227  1.00  0.00     0.202 C 
ENDROOT
BRANCH   1   2
ATOM      2  C   UNL     1       2.144   3.701   2.393  1.00  0.00     0.261 C 
BRANCH   2   3
ATOM      3  O   UNL     1       1.887   2.377   1.899  1.00  0.00    -0.463 OA
BRANCH   3   4
ATOM      4  C   UNL     1       1.002   1.636   2.615  1.00  0.00     0.313 C 
ATOM      5  O   UNL     1       0.626   1.920   3.747  1.00  0.00    -0.252 OA
BRANCH   4   6
ATOM      6  C   UNL     1       0.489   0.418   1.835  1.00  0.00     0.127 C 
ATOM      7  C   UNL     1       1.137   0.211   0.458  1.00  0.00     0.025 C 
BRANCH   6   8
ATOM      8  C   UNL     1      -1.045   0.359   1.744  1.00  0.00    -0.026 A 
ATOM      9  C   UNL     1      -1.802   1.551   1.777  1.00  0.00     0.005 A 
ATOM     10  C   UNL     1      -1.745  -0.865   1.587  1.00  0.00    -0.014 A 
ATOM     11  C   UNL     1      -3.197   1.535   1.699  1.00  0.00     0.000 A 
ATOM     12  C   UNL     1      -3.152  -0.863   1.527  1.00  0.00     0.009 A 
ATOM     13  C   UNL     1      -3.873   0.328   1.585  1.00  0.00     0.001 A 
BRANCH  10  14
ATOM     14  C   UNL     1      -1.044  -2.155   1.410  1.00  0.00    -0.011 A 
ATOM     15  C   UNL     1      -0.212  -2.762   2.429  1.00  0.00     0.027 A 
ATOM     16  C   UNL     1      -1.108  -2.726   0.193  1.00  0.00     0.080 A 
ATOM     17  C   UNL     1       0.601  -3.778   2.120  1.00  0.00     0.095 A 
ATOM     18  C   UNL     1      -0.269  -3.908  -0.141  1.00  0.00     0.255 A 
ATOM     19  N   UNL     1       0.608  -4.321   0.849  1.00  0.00    -0.258 N 
ATOM     20  O   UNL     1      -0.371  -4.400  -1.260  1.00  0.00    -0.269 OA
BRANCH  19  21
ATOM     21  C   UNL     1       1.526  -5.375   0.505  1.00  0.00     0.451 C 
ATOM     22  F   UNL     1       0.868  -6.524   0.223  1.00  0.00    -0.185 F 
ATOM     23  F   UNL     1       2.269  -5.037  -0.578  1.00  0.00    -0.185 F 
ENDBRANCH  19  21
ENDBRANCH  10  14
ENDBRANCH   6   8
ENDBRANCH   4   6
ENDBRANCH   3   4
ENDBRANCH   2   3
ENDBRANCH   1   2
BRANCH   1  24
ATOM     24  O   UNL     1       0.889   4.877   0.566  1.00  0.00    -0.374 OA
BRANCH  24  25
ATOM     25  C   UNL     1       0.447   3.836  -0.305  1.00  0.00     0.202 C 
BRANCH  25  26
ATOM     26  C   UNL     1       1.109   3.761  -1.686  1.00  0.00     0.261 C 
BRANCH  26  27
ATOM     27  O   UNL     1       2.513   3.454  -1.604  1.00  0.00    -0.460 OA
BRANCH  27  28
ATOM     28  C   UNL     1       3.333   4.459  -1.988  1.00  0.00     0.338 C 
ATOM     29  O   UNL     1       3.010   5.541  -2.463  1.00  0.00    -0.246 OA
BRANCH  28  30
ATOM     30  C   UNL     1       4.721   4.168  -1.590  1.00  0.00     0.060 A 
ATOM     31  C   UNL     1       5.385   5.136  -0.826  1.00  0.00     0.016 A 
ATOM     32  C   UNL     1       5.391   3.022  -2.024  1.00  0.00     0.016 A 
ATOM     33  C   UNL     1       6.739   4.991  -0.538  1.00  0.00     0.010 A 
ATOM     34  C   UNL     1       6.755   2.882  -1.743  1.00  0.00     0.010 A 
ATOM     35  C   UNL     1       7.442   3.885  -1.033  1.00  0.00    -0.014 A 
BRANCH  35  36
ATOM     36  C   UNL     1       8.921   3.872  -0.942  1.00  0.00     0.031 A 
ATOM     37  C   UNL     1       9.726   4.324  -2.130  1.00  0.00     0.074 A 
ATOM     38  C   UNL     1       9.539   3.513   0.197  1.00  0.00     0.049 A 
ATOM     39  N   UNL     1      11.025   4.407  -2.267  1.00  0.00    -0.248 NA
ATOM     40  C   UNL     1       8.966   4.743  -3.318  1.00  0.00     0.031 C 
ATOM     41  C   UNL     1       8.871   3.105   1.431  1.00  0.00     0.029 A 
ATOM     42  N   UNL     1      10.876   3.441   0.496  1.00  0.00    -0.354 N 
ATOM     43  C   UNL     1      11.237   4.880  -3.556  1.00  0.00     0.074 A 
ATOM     44  C   UNL     1       9.937   5.043  -4.169  1.00  0.00     0.031 C 
ATOM     45  C   UNL     1       9.804   2.824   2.358  1.00  0.00     0.029 A 
ATOM     46  C   UNL     1      11.131   3.005   1.772  1.00  0.00     0.049 A 
ATOM     47  H   UNL     1      11.586   3.679  -0.144  1.00  0.00     0.167 HD
ATOM     48  C   UNL     1      12.409   5.160  -4.174  1.00  0.00     0.031 A 
ATOM     49  C   UNL     1      12.302   2.764   2.392  1.00  0.00     0.031 A 
ATOM     50  C   UNL     1      13.704   4.990  -3.572  1.00  0.00     0.049 A 
ATOM     51  C   UNL     1      13.592   3.007   1.655  1.00  0.00     0.074 A 
ATOM     52  C   UNL     1      14.949   5.261  -4.113  1.00  0.00     0.029 A 
ATOM     53  N   UNL     1      13.919   4.495  -2.296  1.00  0.00    -0.354 N 
ATOM     54  N   UNL     1      13.778   3.479   0.446  1.00  0.00    -0.248 NA
ATOM     55  C   UNL     1      14.835   2.687   2.373  1.00  0.00     0.031 C 
ATOM     56  C   UNL     1      15.921   4.881  -3.181  1.00  0.00     0.029 A 
ATOM     57  C   UNL     1      15.278   4.425  -2.041  1.00  0.00     0.049 A 
ATOM     58  H   UNL     1      13.211   4.233  -1.664  1.00  0.00     0.167 HD
ATOM     59  C   UNL     1      15.155   3.539   0.270  1.00  0.00     0.074 A 
ATOM     60  C   UNL     1      15.757   3.067   1.500  1.00  0.00     0.031 C 
ATOM     61  C   UNL     1      15.859   3.952  -0.812  1.00  0.00     0.031 A 
BRANCH  48  62
ATOM     62  C   UNL     1      12.342   5.646  -5.594  1.00  0.00    -0.014 A 
ATOM     63  C   UNL     1      11.906   6.945  -5.900  1.00  0.00     0.009 A 
ATOM     64  C   UNL     1      12.750   4.801  -6.637  1.00  0.00     0.009 A 
ATOM     65  C   UNL     1      11.852   7.376  -7.228  1.00  0.00     0.001 A 
ATOM     66  C   UNL     1      12.719   5.244  -7.961  1.00  0.00     0.001 A 
ATOM     67  C   UNL     1      12.262   6.527  -8.255  1.00  0.00     0.000 A 
ENDBRANCH  48  62
BRANCH  49  68
ATOM     68  C   UNL     1      12.317   2.247   3.784  1.00  0.00    -0.014 A 
ATOM     69  C   UNL     1      12.761   3.052   4.843  1.00  0.00     0.009 A 
ATOM     70  C   UNL     1      11.907   0.932   4.056  1.00  0.00     0.009 A 
ATOM     71  C   UNL     1      12.818   2.543   6.143  1.00  0.00     0.001 A 
ATOM     72  C   UNL     1      11.940   0.434   5.361  1.00  0.00     0.001 A 
ATOM     73  C   UNL     1      12.403   1.237   6.401  1.00  0.00     0.000 A 
ENDBRANCH  49  68
BRANCH  61  74
ATOM     74  C   UNL     1      17.358   3.943  -0.703  1.00  0.00    -0.014 A 
ATOM     75  C   UNL     1      18.084   2.743  -0.736  1.00  0.00     0.009 A 
ATOM     76  C   UNL     1      18.054   5.159  -0.610  1.00  0.00     0.009 A 
ATOM     77  C   UNL     1      19.478   2.760  -0.646  1.00  0.00     0.001 A 
ATOM     78  C   UNL     1      19.448   5.174  -0.547  1.00  0.00     0.001 A 
ATOM     79  C   UNL     1      20.158   3.975  -0.557  1.00  0.00     0.000 A 
ENDBRANCH  61  74
ENDBRANCH  35  36
ENDBRANCH  28  30
ENDBRANCH  27  28
ENDBRANCH  26  27
ENDBRANCH  25  26
ENDBRANCH  24  25
ENDBRANCH   1  24
TORSDOF 17
