REMARK SMILES Cc1c(Br)c(C)c2c(c1Br)O[C@H](C(F)(F)F)C(C(=O)OCCOCCOC(=O)c1ccc(-c3c4nc(c(-c5ccccc5)c5ccc([nH]5)c(-c5ccccc5)c5nc(c(-c6ccccc6)c6ccc3[nH]6)C=C5)C=C4)cc1)=C2
REMARK SMILES IDX 24 1 23 2 22 3 21 4 20 5 18 6 19 7 17 8 1 9 2 10 3 11 9 12
REMARK SMILES IDX 4 13 5 14 8 15 10 16 6 17 7 18 11 19 77 20 12 21 13 22 14 23
REMARK SMILES IDX 15 24 16 25 25 26 26 27 27 28 28 29 29 30 30 31 76 32 31 33
REMARK SMILES IDX 75 34 32 35 33 36 34 37 69 38 35 39 74 40 68 41 70 42 36 43
REMARK SMILES IDX 73 44 67 45 66 46 37 48 59 49 44 50 58 51 45 52 48 53 57 54
REMARK SMILES IDX 71 55 46 56 47 57 56 59 72 60 49 61 38 62 39 63 43 64 40 65
REMARK SMILES IDX 42 66 41 67 60 68 61 69 65 70 62 71 64 72 63 73 50 74 51 75
REMARK SMILES IDX 55 76 52 77 54 78 53 79
REMARK H PARENT 70 47 48 58
REMARK Flexibility Score: inf
ROOT
ATOM      1  C   UNL     1       0.506  -2.538   8.701  1.00  0.00     0.202 C 
ENDROOT
BRANCH   1   2
ATOM      2  O   UNL     1      -0.523  -2.913   9.619  1.00  0.00    -0.374 OA
BRANCH   2   3
ATOM      3  C   UNL     1      -0.971  -4.267   9.598  1.00  0.00     0.202 C 
BRANCH   3   4
ATOM      4  C   UNL     1      -1.958  -4.638   8.490  1.00  0.00     0.261 C 
BRANCH   4   5
ATOM      5  O   UNL     1      -1.400  -4.396   7.188  1.00  0.00    -0.460 OA
BRANCH   5   6
ATOM      6  C   UNL     1      -2.024  -3.428   6.480  1.00  0.00     0.338 C 
ATOM      7  O   UNL     1      -3.068  -2.862   6.772  1.00  0.00    -0.246 OA
BRANCH   6   8
ATOM      8  C   UNL     1      -1.194  -3.035   5.327  1.00  0.00     0.087 C 
ATOM      9  C   UNL     1       1.174  -0.076   0.031  1.00  0.00     0.047 C 
ATOM     10  C   UNL     1       0.665  -0.456   1.402  1.00  0.00    -0.019 A 
ATOM     11  C   UNL     1       0.176   0.510   2.315  1.00  0.00     0.025 A 
ATOM     12  C   UNL     1       0.706  -1.804   1.820  1.00  0.00     0.064 A 
ATOM     13  Br  UNL     1       0.263   2.369   1.844  1.00  0.00    -0.050 Br
ATOM     14  C   UNL     1      -0.364   0.131   3.569  1.00  0.00    -0.026 A 
ATOM     15  C   UNL     1       0.160  -2.200   3.053  1.00  0.00     0.142 A 
ATOM     16  Br  UNL     1       1.505  -3.149   0.710  1.00  0.00    -0.046 Br
ATOM     17  C   UNL     1      -0.891   1.141   4.568  1.00  0.00     0.046 C 
ATOM     18  C   UNL     1      -0.416  -1.247   3.901  1.00  0.00     0.022 A 
ATOM     19  O   UNL     1       0.244  -3.530   3.378  1.00  0.00    -0.474 OA
ATOM     20  C   UNL     1      -1.108  -1.719   5.098  1.00  0.00     0.027 C 
ATOM     21  C   UNL     1      -0.530  -4.070   4.477  1.00  0.00     0.316 C 
BRANCH  21  22
ATOM     22  C   UNL     1      -1.516  -5.108   3.921  1.00  0.00     0.430 C 
ATOM     23  F   UNL     1      -0.885  -6.010   3.131  1.00  0.00    -0.167 F 
ATOM     24  F   UNL     1      -2.111  -5.814   4.911  1.00  0.00    -0.167 F 
ATOM     25  F   UNL     1      -2.494  -4.535   3.185  1.00  0.00    -0.167 F 
ENDBRANCH  21  22
ENDBRANCH   6   8
ENDBRANCH   5   6
ENDBRANCH   4   5
ENDBRANCH   3   4
ENDBRANCH   2   3
ENDBRANCH   1   2
BRANCH   1  26
ATOM     26  C   UNL     1       1.925  -3.029   9.014  1.00  0.00     0.261 C 
BRANCH  26  27
ATOM     27  O   UNL     1       2.050  -4.454   8.847  1.00  0.00    -0.460 OA
BRANCH  27  28
ATOM     28  C   UNL     1       2.332  -5.136   9.981  1.00  0.00     0.338 C 
ATOM     29  O   UNL     1       2.557  -4.673  11.092  1.00  0.00    -0.246 OA
BRANCH  28  30
ATOM     30  C   UNL     1       2.154  -6.580   9.757  1.00  0.00     0.060 A 
ATOM     31  C   UNL     1       1.243  -7.257  10.579  1.00  0.00     0.016 A 
ATOM     32  C   UNL     1       2.924  -7.276   8.824  1.00  0.00     0.016 A 
ATOM     33  C   UNL     1       1.131  -8.643  10.501  1.00  0.00     0.010 A 
ATOM     34  C   UNL     1       2.820  -8.670   8.756  1.00  0.00     0.010 A 
ATOM     35  C   UNL     1       1.948  -9.360   9.617  1.00  0.00    -0.014 A 
BRANCH  35  36
ATOM     36  C   UNL     1       1.989 -10.838   9.706  1.00  0.00     0.031 A 
ATOM     37  C   UNL     1       3.077 -11.492  10.512  1.00  0.00     0.074 A 
ATOM     38  C   UNL     1       1.038 -11.588   9.121  1.00  0.00     0.049 A 
ATOM     39  N   UNL     1       3.291 -12.764  10.734  1.00  0.00    -0.248 NA
ATOM     40  C   UNL     1       4.047 -10.594  11.161  1.00  0.00     0.031 C 
ATOM     41  C   UNL     1      -0.100 -11.070   8.364  1.00  0.00     0.029 A 
ATOM     42  N   UNL     1       0.877 -12.950   9.086  1.00  0.00    -0.354 N 
ATOM     43  C   UNL     1       4.414 -12.818  11.551  1.00  0.00     0.074 A 
ATOM     44  C   UNL     1       4.856 -11.457  11.758  1.00  0.00     0.031 C 
ATOM     45  C   UNL     1      -0.848 -12.105   7.944  1.00  0.00     0.029 A 
ATOM     46  C   UNL     1      -0.225 -13.355   8.375  1.00  0.00     0.049 A 
ATOM     47  H   UNL     1       1.494 -13.578   9.528  1.00  0.00     0.167 HD
ATOM     48  C   UNL     1       5.016 -13.904  12.089  1.00  0.00     0.031 A 
ATOM     49  C   UNL     1      -0.675 -14.593   8.096  1.00  0.00     0.031 A 
ATOM     50  C   UNL     1       4.590 -15.259  11.869  1.00  0.00     0.049 A 
ATOM     51  C   UNL     1       0.073 -15.789   8.619  1.00  0.00     0.074 A 
ATOM     52  C   UNL     1       5.141 -16.426  12.370  1.00  0.00     0.029 A 
ATOM     53  N   UNL     1       3.513 -15.629  11.080  1.00  0.00    -0.354 N 
ATOM     54  N   UNL     1       1.129 -15.827   9.396  1.00  0.00    -0.248 NA
ATOM     55  C   UNL     1      -0.433 -17.113   8.228  1.00  0.00     0.031 C 
ATOM     56  C   UNL     1       4.428 -17.506  11.841  1.00  0.00     0.029 A 
ATOM     57  C   UNL     1       3.399 -17.008  11.057  1.00  0.00     0.049 A 
ATOM     58  H   UNL     1       2.918 -15.004  10.606  1.00  0.00     0.167 HD
ATOM     59  C   UNL     1       1.399 -17.174   9.604  1.00  0.00     0.074 A 
ATOM     60  C   UNL     1       0.391 -17.922   8.882  1.00  0.00     0.031 C 
ATOM     61  C   UNL     1       2.393 -17.739  10.332  1.00  0.00     0.031 A 
BRANCH  48  62
ATOM     62  C   UNL     1       6.220 -13.672  12.956  1.00  0.00    -0.014 A 
ATOM     63  C   UNL     1       6.088 -13.152  14.252  1.00  0.00     0.009 A 
ATOM     64  C   UNL     1       7.495 -14.030  12.491  1.00  0.00     0.009 A 
ATOM     65  C   UNL     1       7.214 -12.974  15.059  1.00  0.00     0.001 A 
ATOM     66  C   UNL     1       8.616 -13.873  13.308  1.00  0.00     0.001 A 
ATOM     67  C   UNL     1       8.475 -13.340  14.589  1.00  0.00     0.000 A 
ENDBRANCH  48  62
BRANCH  49  68
ATOM     68  C   UNL     1      -1.901 -14.766   7.274  1.00  0.00    -0.014 A 
ATOM     69  C   UNL     1      -3.089 -15.232   7.855  1.00  0.00     0.009 A 
ATOM     70  C   UNL     1      -1.888 -14.462   5.903  1.00  0.00     0.009 A 
ATOM     71  C   UNL     1      -4.238 -15.400   7.077  1.00  0.00     0.001 A 
ATOM     72  C   UNL     1      -3.044 -14.607   5.134  1.00  0.00     0.001 A 
ATOM     73  C   UNL     1      -4.216 -15.082   5.720  1.00  0.00     0.000 A 
ENDBRANCH  49  68
BRANCH  61  74
ATOM     74  C   UNL     1       2.437 -19.238  10.407  1.00  0.00    -0.014 A 
ATOM     75  C   UNL     1       2.884 -20.005   9.321  1.00  0.00     0.009 A 
ATOM     76  C   UNL     1       2.109 -19.885  11.610  1.00  0.00     0.009 A 
ATOM     77  C   UNL     1       2.986 -21.394   9.433  1.00  0.00     0.001 A 
ATOM     78  C   UNL     1       2.236 -21.270  11.726  1.00  0.00     0.001 A 
ATOM     79  C   UNL     1       2.669 -22.023  10.637  1.00  0.00     0.000 A 
ENDBRANCH  61  74
ENDBRANCH  35  36
ENDBRANCH  28  30
ENDBRANCH  27  28
ENDBRANCH  26  27
ENDBRANCH   1  26
TORSDOF 15
