REMARK SMILES CCOc1cc2nccc(Nc3ccc(C(=O)OCCOCCOC(=O)c4ccc(-c5c6nc(c(-c7ccccc7)c7ccc([nH]7)c(-c7ccccc7)c7nc(c(-c8ccccc8)c8ccc5[nH]8)C=C7)C=C6)cc4)cc3)c2cc1OCC
REMARK SMILES IDX 20 1 19 2 18 3 16 4 17 5 15 6 12 7 13 8 76 9 14 10 75 11
REMARK SMILES IDX 11 12 10 14 4 15 5 16 79 17 6 18 78 19 7 20 77 21 8 22 9 23
REMARK SMILES IDX 3 24 2 25 1 26 80 27 81 28 82 29 21 30 22 31 23 32 24 33
REMARK SMILES IDX 25 34 26 35 27 36 28 37 74 38 29 39 73 40 30 41 31 42 32 43
REMARK SMILES IDX 67 44 33 45 72 46 66 47 68 48 34 49 71 50 65 51 64 52 35 54
REMARK SMILES IDX 57 55 42 56 56 57 43 58 46 59 55 60 69 61 44 62 45 63 54 65
REMARK SMILES IDX 70 66 47 67 36 68 37 69 41 70 38 71 40 72 39 73 58 74 59 75
REMARK SMILES IDX 63 76 60 77 62 78 61 79 48 80 49 81 53 82 50 83 52 84 51 85
REMARK H PARENT 11 13 68 53 46 64
REMARK Flexibility Score: inf
ROOT
ATOM      1  C   UNL     1      15.835  -3.340   0.317  1.00  0.00     0.202 C 
ENDROOT
BRANCH   1   2
ATOM      2  C   UNL     1      14.959  -4.579   0.117  1.00  0.00     0.261 C 
BRANCH   2   3
ATOM      3  O   UNL     1      13.597  -4.238  -0.179  1.00  0.00    -0.460 OA
BRANCH   3   4
ATOM      4  C   UNL     1      12.738  -4.469   0.840  1.00  0.00     0.338 C 
ATOM      5  O   UNL     1      12.995  -5.014   1.907  1.00  0.00    -0.246 OA
BRANCH   4   6
ATOM      6  C   UNL     1      11.423  -3.855   0.571  1.00  0.00     0.060 A 
ATOM      7  C   UNL     1       8.803  -2.933   0.256  1.00  0.00     0.038 A 
ATOM      8  C   UNL     1       9.407  -2.927   1.519  1.00  0.00     0.027 A 
ATOM      9  C   UNL     1       9.555  -3.319  -0.860  1.00  0.00     0.027 A 
ATOM     10  C   UNL     1      10.706  -3.394   1.679  1.00  0.00     0.018 A 
ATOM     11  C   UNL     1      10.870  -3.771  -0.710  1.00  0.00     0.018 A 
BRANCH   7  12
ATOM     12  N   UNL     1       7.424  -2.680   0.185  1.00  0.00    -0.355 N 
ATOM     13  H   UNL     1       7.144  -1.796   0.518  1.00  0.00     0.167 HD
BRANCH  12  14
ATOM     14  C   UNL     1       6.371  -3.504  -0.292  1.00  0.00     0.050 A 
ATOM     15  C   UNL     1       2.328  -2.291   0.081  1.00  0.00     0.163 A 
ATOM     16  C   UNL     1       2.668  -3.529  -0.480  1.00  0.00     0.079 A 
ATOM     17  C   UNL     1       3.341  -1.416   0.465  1.00  0.00     0.161 A 
ATOM     18  C   UNL     1       3.995  -3.926  -0.639  1.00  0.00     0.076 A 
ATOM     19  C   UNL     1       4.668  -1.803   0.319  1.00  0.00     0.063 A 
ATOM     20  N   UNL     1       4.253  -5.133  -1.169  1.00  0.00    -0.256 NA
ATOM     21  C   UNL     1       5.025  -3.059  -0.208  1.00  0.00     0.028 A 
ATOM     22  C   UNL     1       5.542  -5.521  -1.266  1.00  0.00     0.114 A 
ATOM     23  C   UNL     1       6.615  -4.758  -0.851  1.00  0.00     0.047 A 
BRANCH  15  24
ATOM     24  O   UNL     1       1.034  -1.975   0.388  1.00  0.00    -0.490 OA
BRANCH  24  25
ATOM     25  C   UNL     1       0.127  -2.012  -0.717  1.00  0.00     0.226 C 
ATOM     26  C   UNL     1      -0.949  -0.968  -0.448  1.00  0.00     0.049 C 
ENDBRANCH  24  25
ENDBRANCH  15  24
BRANCH  17  27
ATOM     27  O   UNL     1       3.201  -0.175   1.021  1.00  0.00    -0.490 OA
BRANCH  27  28
ATOM     28  C   UNL     1       2.220   0.688   0.448  1.00  0.00     0.226 C 
ATOM     29  C   UNL     1       2.392   0.905  -1.050  1.00  0.00     0.049 C 
ENDBRANCH  27  28
ENDBRANCH  17  27
ENDBRANCH  12  14
ENDBRANCH   7  12
ENDBRANCH   4   6
ENDBRANCH   3   4
ENDBRANCH   2   3
ENDBRANCH   1   2
BRANCH   1  30
ATOM     30  O   UNL     1      15.460  -2.430   1.349  1.00  0.00    -0.374 OA
BRANCH  30  31
ATOM     31  C   UNL     1      14.387  -1.526   1.085  1.00  0.00     0.202 C 
BRANCH  31  32
ATOM     32  C   UNL     1      14.672  -0.352   0.138  1.00  0.00     0.261 C 
BRANCH  32  33
ATOM     33  O   UNL     1      14.918  -0.781  -1.213  1.00  0.00    -0.460 OA
BRANCH  33  34
ATOM     34  C   UNL     1      16.182  -0.589  -1.655  1.00  0.00     0.338 C 
ATOM     35  O   UNL     1      17.107  -0.046  -1.059  1.00  0.00    -0.246 OA
BRANCH  34  36
ATOM     36  C   UNL     1      16.377  -1.298  -2.928  1.00  0.00     0.060 A 
ATOM     37  C   UNL     1      17.384  -2.271  -2.994  1.00  0.00     0.016 A 
ATOM     38  C   UNL     1      15.630  -0.970  -4.061  1.00  0.00     0.016 A 
ATOM     39  C   UNL     1      17.668  -2.902  -4.203  1.00  0.00     0.010 A 
ATOM     40  C   UNL     1      15.926  -1.594  -5.276  1.00  0.00     0.010 A 
ATOM     41  C   UNL     1      16.961  -2.543  -5.358  1.00  0.00    -0.014 A 
BRANCH  41  42
ATOM     42  C   UNL     1      17.371  -3.076  -6.678  1.00  0.00     0.031 A 
ATOM     43  C   UNL     1      18.194  -2.214  -7.592  1.00  0.00     0.074 A 
ATOM     44  C   UNL     1      17.002  -4.311  -7.061  1.00  0.00     0.049 A 
ATOM     45  N   UNL     1      18.581  -2.445  -8.821  1.00  0.00    -0.248 NA
ATOM     46  C   UNL     1      18.638  -0.919  -7.051  1.00  0.00     0.031 C 
ATOM     47  C   UNL     1      16.245  -5.260  -6.245  1.00  0.00     0.029 A 
ATOM     48  N   UNL     1      17.206  -4.971  -8.246  1.00  0.00    -0.354 N 
ATOM     49  C   UNL     1      19.300  -1.320  -9.205  1.00  0.00     0.074 A 
ATOM     50  C   UNL     1      19.279  -0.400  -8.088  1.00  0.00     0.031 C 
ATOM     51  C   UNL     1      16.033  -6.376  -6.962  1.00  0.00     0.029 A 
ATOM     52  C   UNL     1      16.602  -6.203  -8.297  1.00  0.00     0.049 A 
ATOM     53  H   UNL     1      17.734  -4.598  -8.988  1.00  0.00     0.167 HD
ATOM     54  C   UNL     1      19.922  -1.077 -10.383  1.00  0.00     0.031 A 
ATOM     55  C   UNL     1      16.491  -7.076  -9.317  1.00  0.00     0.031 A 
ATOM     56  C   UNL     1      19.930  -1.987 -11.497  1.00  0.00     0.049 A 
ATOM     57  C   UNL     1      17.111  -6.742 -10.647  1.00  0.00     0.074 A 
ATOM     58  C   UNL     1      20.554  -1.842 -12.724  1.00  0.00     0.029 A 
ATOM     59  N   UNL     1      19.274  -3.208 -11.522  1.00  0.00    -0.354 N 
ATOM     60  N   UNL     1      17.813  -5.689 -10.990  1.00  0.00    -0.248 NA
ATOM     61  C   UNL     1      16.922  -7.718 -11.730  1.00  0.00     0.031 C 
ATOM     62  C   UNL     1      20.223  -2.947 -13.514  1.00  0.00     0.029 A 
ATOM     63  C   UNL     1      19.445  -3.809 -12.758  1.00  0.00     0.049 A 
ATOM     64  H   UNL     1      18.763  -3.590 -10.773  1.00  0.00     0.167 HD
ATOM     65  C   UNL     1      18.169  -5.887 -12.319  1.00  0.00     0.074 A 
ATOM     66  C   UNL     1      17.618  -7.167 -12.715  1.00  0.00     0.031 C 
ATOM     67  C   UNL     1      18.889  -5.081 -13.137  1.00  0.00     0.031 A 
BRANCH  54  68
ATOM     68  C   UNL     1      20.612   0.249 -10.543  1.00  0.00    -0.014 A 
ATOM     69  C   UNL     1      21.807   0.538  -9.866  1.00  0.00     0.009 A 
ATOM     70  C   UNL     1      20.076   1.208 -11.416  1.00  0.00     0.009 A 
ATOM     71  C   UNL     1      22.434   1.774 -10.038  1.00  0.00     0.001 A 
ATOM     72  C   UNL     1      20.720   2.432 -11.607  1.00  0.00     0.001 A 
ATOM     73  C   UNL     1      21.893   2.717 -10.911  1.00  0.00     0.000 A 
ENDBRANCH  54  68
BRANCH  55  74
ATOM     74  C   UNL     1      15.726  -8.338  -9.134  1.00  0.00    -0.014 A 
ATOM     75  C   UNL     1      16.382  -9.578  -9.128  1.00  0.00     0.009 A 
ATOM     76  C   UNL     1      14.331  -8.307  -8.982  1.00  0.00     0.009 A 
ATOM     77  C   UNL     1      15.653 -10.762  -8.996  1.00  0.00     0.001 A 
ATOM     78  C   UNL     1      13.608  -9.491  -8.821  1.00  0.00     0.001 A 
ATOM     79  C   UNL     1      14.268 -10.718  -8.837  1.00  0.00     0.000 A 
ENDBRANCH  55  74
BRANCH  67  80
ATOM     80  C   UNL     1      19.150  -5.569 -14.535  1.00  0.00    -0.014 A 
ATOM     81  C   UNL     1      18.134  -5.584 -15.502  1.00  0.00     0.009 A 
ATOM     82  C   UNL     1      20.446  -5.964 -14.902  1.00  0.00     0.009 A 
ATOM     83  C   UNL     1      18.406  -6.009 -16.804  1.00  0.00     0.001 A 
ATOM     84  C   UNL     1      20.722  -6.361 -16.212  1.00  0.00     0.001 A 
ATOM     85  C   UNL     1      19.700  -6.390 -17.159  1.00  0.00     0.000 A 
ENDBRANCH  67  80
ENDBRANCH  41  42
ENDBRANCH  34  36
ENDBRANCH  33  34
ENDBRANCH  32  33
ENDBRANCH  31  32
ENDBRANCH  30  31
ENDBRANCH   1  30
TORSDOF 20
