REMARK SMILES Cc1ccc(CN2/C(=[NH+]/C(=O)CCC(=O)OCCOCCOC(=O)c3ccc(-c4c5nc(c(-c6ccccc6)c6ccc([nH]6)c(-c6ccccc6)c6nc(c(-c7ccccc7)c7ccc4[nH]7)C=C6)C=C5)cc3)S[C@H]3CS(=O)(=O)C[C@@H]32)cc1
REMARK SMILES IDX 18 1 17 2 16 3 14 4 15 5 13 6 12 7 10 8 7 9 8 10 80 11 9 12
REMARK SMILES IDX 73 13 74 14 79 15 75 17 76 18 11 19 77 20 78 21 6 22 5 23
REMARK SMILES IDX 1 24 2 25 3 26 82 27 4 28 81 29 19 30 20 31 21 32 22 33
REMARK SMILES IDX 23 34 24 35 25 36 26 37 72 38 27 39 71 40 28 41 29 42 30 43
REMARK SMILES IDX 65 44 31 45 70 46 64 47 66 48 32 49 69 50 63 51 62 52 33 54
REMARK SMILES IDX 55 55 40 56 54 57 41 58 44 59 53 60 67 61 42 62 43 63 52 65
REMARK SMILES IDX 68 66 45 67 34 68 35 69 39 70 36 71 38 72 37 73 56 74 57 75
REMARK SMILES IDX 61 76 58 77 60 78 59 79 46 80 47 81 51 82 48 83 50 84 49 85
REMARK H PARENT 9 16 66 53 44 64
REMARK Flexibility Score: inf
ROOT
ATOM      1  C   UNL     1      -2.232  -4.263   0.598  1.00  0.00     0.202 C 
ENDROOT
BRANCH   1   2
ATOM      2  C   UNL     1      -1.192  -3.896  -0.448  1.00  0.00     0.261 C 
BRANCH   2   3
ATOM      3  O   UNL     1      -1.477  -4.396  -1.733  1.00  0.00    -0.463 OA
BRANCH   3   4
ATOM      4  C   UNL     1      -1.240  -5.726  -1.807  1.00  0.00     0.306 C 
ATOM      5  O   UNL     1      -0.299  -6.319  -1.353  1.00  0.00    -0.252 OA
BRANCH   4   6
ATOM      6  C   UNL     1      -2.431  -6.329  -2.494  1.00  0.00     0.135 C 
BRANCH   6   7
ATOM      7  C   UNL     1      -3.766  -5.724  -1.978  1.00  0.00     0.139 C 
BRANCH   7   8
ATOM      8  C   UNL     1      -4.074  -4.274  -2.450  1.00  0.00     0.308 C 
ATOM      9  N   UNL     1      -4.877  -0.795  -1.287  1.00  0.00    -0.247 N 
ATOM     10  C   UNL     1      -4.880  -2.157  -1.764  1.00  0.00     0.314 C 
ATOM     11  C   UNL     1      -5.745   0.087  -2.117  1.00  0.00     0.206 C 
ATOM     12  N   UNL     1      -4.119  -3.189  -1.528  1.00  0.00    -0.205 N 
ATOM     13  S   UNL     1      -6.224  -2.257  -2.999  1.00  0.00    -0.030 SA
ATOM     14  C   UNL     1      -5.827  -0.587  -3.491  1.00  0.00     0.120 C 
ATOM     15  C   UNL     1      -5.276   1.497  -2.410  1.00  0.00     0.187 C 
ATOM     16  H   UNL     1      -3.573  -3.219  -0.709  1.00  0.00     0.316 HD
ATOM     17  C   UNL     1      -6.649   0.261  -4.411  1.00  0.00     0.156 C 
ATOM     18  S   UNL     1      -6.152   1.919  -3.921  1.00  0.00     0.155 S 
ATOM     19  O   UNL     1      -4.146  -4.129  -3.674  1.00  0.00    -0.247 OA
ATOM     20  O   UNL     1      -5.188   2.430  -4.871  1.00  0.00    -0.229 OA
ATOM     21  O   UNL     1      -7.345   2.653  -3.557  1.00  0.00    -0.229 OA
BRANCH   9  22
ATOM     22  C   UNL     1      -4.355  -0.193  -0.025  1.00  0.00     0.273 C 
BRANCH  22  23
ATOM     23  C   UNL     1      -3.022   0.565  -0.137  1.00  0.00    -0.007 A 
ATOM     24  C   UNL     1       1.105   2.066  -0.299  1.00  0.00     0.044 C 
ATOM     25  C   UNL     1      -0.348   1.669  -0.278  1.00  0.00    -0.051 A 
ATOM     26  C   UNL     1      -0.626   0.334  -0.486  1.00  0.00     0.004 A 
ATOM     27  C   UNL     1      -1.436   2.479   0.026  1.00  0.00     0.004 A 
ATOM     28  C   UNL     1      -1.911  -0.206  -0.398  1.00  0.00     0.008 A 
ATOM     29  C   UNL     1      -2.762   1.935   0.090  1.00  0.00     0.008 A 
ENDBRANCH  22  23
ENDBRANCH   9  22
ENDBRANCH   7   8
ENDBRANCH   6   7
ENDBRANCH   4   6
ENDBRANCH   3   4
ENDBRANCH   2   3
ENDBRANCH   1   2
BRANCH   1  30
ATOM     30  O   UNL     1      -1.748  -5.368   1.343  1.00  0.00    -0.374 OA
BRANCH  30  31
ATOM     31  C   UNL     1      -2.686  -6.031   2.183  1.00  0.00     0.202 C 
BRANCH  31  32
ATOM     32  C   UNL     1      -3.628  -5.135   3.009  1.00  0.00     0.261 C 
BRANCH  32  33
ATOM     33  O   UNL     1      -2.862  -4.376   3.969  1.00  0.00    -0.460 OA
BRANCH  33  34
ATOM     34  C   UNL     1      -2.806  -3.034   3.756  1.00  0.00     0.338 C 
ATOM     35  O   UNL     1      -3.766  -2.309   3.544  1.00  0.00    -0.246 OA
BRANCH  34  36
ATOM     36  C   UNL     1      -1.392  -2.642   3.455  1.00  0.00     0.060 A 
ATOM     37  C   UNL     1      -1.125  -1.363   2.959  1.00  0.00     0.016 A 
ATOM     38  C   UNL     1      -0.452  -3.647   3.249  1.00  0.00     0.016 A 
ATOM     39  C   UNL     1      -0.042  -1.168   2.085  1.00  0.00     0.010 A 
ATOM     40  C   UNL     1       0.484  -3.482   2.233  1.00  0.00     0.010 A 
ATOM     41  C   UNL     1       0.633  -2.261   1.549  1.00  0.00    -0.014 A 
BRANCH  41  42
ATOM     42  C   UNL     1       1.689  -2.249   0.502  1.00  0.00     0.031 A 
ATOM     43  C   UNL     1       3.066  -2.158   1.079  1.00  0.00     0.074 A 
ATOM     44  C   UNL     1       1.641  -2.449  -0.861  1.00  0.00     0.049 A 
ATOM     45  N   UNL     1       4.118  -1.778   0.429  1.00  0.00    -0.248 NA
ATOM     46  C   UNL     1       3.335  -2.412   2.498  1.00  0.00     0.031 C 
ATOM     47  C   UNL     1       2.734  -3.152  -1.554  1.00  0.00     0.029 A 
ATOM     48  N   UNL     1       0.759  -2.215  -1.938  1.00  0.00    -0.354 N 
ATOM     49  C   UNL     1       5.187  -2.181   1.194  1.00  0.00     0.074 A 
ATOM     50  C   UNL     1       4.663  -2.341   2.526  1.00  0.00     0.031 C 
ATOM     51  C   UNL     1       2.592  -3.054  -2.879  1.00  0.00     0.029 A 
ATOM     52  C   UNL     1       1.452  -2.220  -3.162  1.00  0.00     0.049 A 
ATOM     53  H   UNL     1      -0.210  -2.067  -1.845  1.00  0.00     0.167 HD
ATOM     54  C   UNL     1       6.340  -2.588   0.597  1.00  0.00     0.031 A 
ATOM     55  C   UNL     1       1.324  -1.427  -4.271  1.00  0.00     0.031 A 
ATOM     56  C   UNL     1       6.304  -2.465  -0.860  1.00  0.00     0.049 A 
ATOM     57  C   UNL     1       2.588  -0.704  -4.604  1.00  0.00     0.074 A 
ATOM     58  C   UNL     1       6.230  -3.380  -1.898  1.00  0.00     0.029 A 
ATOM     59  N   UNL     1       6.085  -1.226  -1.435  1.00  0.00    -0.354 N 
ATOM     60  N   UNL     1       3.751  -1.117  -4.223  1.00  0.00    -0.248 NA
ATOM     61  C   UNL     1       2.618   0.648  -5.176  1.00  0.00     0.031 C 
ATOM     62  C   UNL     1       6.068  -2.663  -3.111  1.00  0.00     0.029 A 
ATOM     63  C   UNL     1       6.031  -1.313  -2.812  1.00  0.00     0.049 A 
ATOM     64  H   UNL     1       5.980  -0.390  -0.927  1.00  0.00     0.167 HD
ATOM     65  C   UNL     1       4.591  -0.046  -4.216  1.00  0.00     0.074 A 
ATOM     66  C   UNL     1       3.859   1.032  -4.850  1.00  0.00     0.031 C 
ATOM     67  C   UNL     1       5.792  -0.106  -3.586  1.00  0.00     0.031 A 
BRANCH  54  68
ATOM     68  C   UNL     1       7.413  -3.378   1.310  1.00  0.00    -0.014 A 
ATOM     69  C   UNL     1       8.310  -4.155   0.554  1.00  0.00     0.009 A 
ATOM     70  C   UNL     1       7.592  -3.427   2.702  1.00  0.00     0.009 A 
ATOM     71  C   UNL     1       9.262  -4.989   1.149  1.00  0.00     0.001 A 
ATOM     72  C   UNL     1       8.517  -4.285   3.310  1.00  0.00     0.001 A 
ATOM     73  C   UNL     1       9.350  -5.072   2.531  1.00  0.00     0.000 A 
ENDBRANCH  54  68
BRANCH  55  74
ATOM     74  C   UNL     1       0.020  -0.832  -4.538  1.00  0.00    -0.014 A 
ATOM     75  C   UNL     1      -0.958  -1.736  -4.959  1.00  0.00     0.009 A 
ATOM     76  C   UNL     1      -0.312   0.409  -3.985  1.00  0.00     0.009 A 
ATOM     77  C   UNL     1      -2.213  -1.587  -4.433  1.00  0.00     0.001 A 
ATOM     78  C   UNL     1      -1.593   0.594  -3.543  1.00  0.00     0.001 A 
ATOM     79  C   UNL     1      -2.454  -0.481  -3.634  1.00  0.00     0.000 A 
ENDBRANCH  55  74
BRANCH  67  80
ATOM     80  C   UNL     1       6.794   0.999  -3.653  1.00  0.00    -0.014 A 
ATOM     81  C   UNL     1       6.909   1.824  -4.782  1.00  0.00     0.009 A 
ATOM     82  C   UNL     1       7.758   1.156  -2.643  1.00  0.00     0.009 A 
ATOM     83  C   UNL     1       7.888   2.814  -4.863  1.00  0.00     0.001 A 
ATOM     84  C   UNL     1       8.761   2.120  -2.735  1.00  0.00     0.001 A 
ATOM     85  C   UNL     1       8.816   2.959  -3.839  1.00  0.00     0.000 A 
ENDBRANCH  67  80
ENDBRANCH  41  42
ENDBRANCH  34  36
ENDBRANCH  33  34
ENDBRANCH  32  33
ENDBRANCH  31  32
ENDBRANCH  30  31
ENDBRANCH   1  30
TORSDOF 18
