REMARK SMILES Cc1ccc(N2CCC[C@@H](Cn3cc(C(=O)OCCOCCOC(=O)c4ccc(-c5c6nc(c(-c7ccccc7)c7ccc([nH]7)c(-c7ccccc7)c7nc(c(-c8ccccc8)c8ccc5[nH]8)C=C7)C=C6)cc4)nn3)C2)nn1
REMARK SMILES IDX 19 1 18 2 17 3 15 4 16 5 14 6 12 7 13 8 75 9 74 10 11 11
REMARK SMILES IDX 10 12 6 13 7 14 76 15 8 16 9 17 5 18 1 19 2 20 3 21 78 22
REMARK SMILES IDX 4 23 77 24 20 25 21 26 22 27 23 28 24 29 25 30 26 31 27 32
REMARK SMILES IDX 73 33 28 34 72 35 29 36 30 37 31 38 66 39 32 40 71 41 65 42
REMARK SMILES IDX 67 43 33 44 70 45 64 46 63 47 34 49 56 50 41 51 55 52 42 53
REMARK SMILES IDX 45 54 54 55 68 56 43 57 44 58 53 60 69 61 46 62 35 63 36 64
REMARK SMILES IDX 40 65 37 66 39 67 38 68 57 69 58 70 62 71 59 72 61 73 60 74
REMARK SMILES IDX 47 75 48 76 52 77 49 78 51 79 50 80
REMARK H PARENT 67 48 45 59
REMARK Flexibility Score: inf
ROOT
ATOM      1  C   UNL     1       0.018   9.928  -6.090  1.00  0.00     0.202 C 
ENDROOT
BRANCH   1   2
ATOM      2  C   UNL     1      -0.819   8.736  -5.629  1.00  0.00     0.261 C 
BRANCH   2   3
ATOM      3  O   UNL     1      -0.344   7.512  -6.202  1.00  0.00    -0.458 OA
BRANCH   3   4
ATOM      4  C   UNL     1      -1.147   6.983  -7.167  1.00  0.00     0.360 C 
ATOM      5  O   UNL     1      -2.286   7.381  -7.423  1.00  0.00    -0.244 OA
BRANCH   4   6
ATOM      6  C   UNL     1      -0.484   5.949  -7.933  1.00  0.00     0.190 A 
ATOM      7  N   UNL     1       0.595   4.183  -8.491  1.00  0.00    -0.251 N 
ATOM      8  C   UNL     1       0.651   5.224  -7.608  1.00  0.00     0.146 A 
ATOM      9  N   UNL     1      -0.216   4.473  -9.522  1.00  0.00    -0.067 NA
ATOM     10  N   UNL     1      -0.941   5.519  -9.155  1.00  0.00    -0.123 NA
BRANCH   7  11
ATOM     11  C   UNL     1       0.908   2.796  -8.209  1.00  0.00     0.151 C 
BRANCH  11  12
ATOM     12  C   UNL     1      -0.079   2.133  -7.221  1.00  0.00     0.030 C 
ATOM     13  N   UNL     1      -0.854   1.976  -4.943  1.00  0.00    -0.355 N 
ATOM     14  C   UNL     1      -2.252   2.247  -5.229  1.00  0.00     0.118 C 
ATOM     15  C   UNL     1       0.124   2.640  -5.778  1.00  0.00     0.123 C 
ATOM     16  C   UNL     1      -2.545   1.694  -6.620  1.00  0.00     0.022 C 
ATOM     17  C   UNL     1      -1.563   2.252  -7.656  1.00  0.00     0.009 C 
BRANCH  13  18
ATOM     18  C   UNL     1      -0.470   1.528  -3.699  1.00  0.00     0.151 A 
ATOM     19  C   UNL     1       1.007   0.010  -0.036  1.00  0.00     0.069 C 
ATOM     20  C   UNL     1       0.455   0.510  -1.331  1.00  0.00     0.060 A 
ATOM     21  C   UNL     1      -0.428  -0.245  -2.079  1.00  0.00     0.029 A 
ATOM     22  N   UNL     1       0.857   1.729  -1.747  1.00  0.00    -0.154 NA
ATOM     23  C   UNL     1      -0.906   0.282  -3.271  1.00  0.00     0.051 A 
ATOM     24  N   UNL     1       0.407   2.226  -2.948  1.00  0.00    -0.133 NA
ENDBRANCH  13  18
ENDBRANCH  11  12
ENDBRANCH   7  11
ENDBRANCH   4   6
ENDBRANCH   3   4
ENDBRANCH   2   3
ENDBRANCH   1   2
BRANCH   1  25
ATOM     25  O   UNL     1       0.029  10.270  -7.475  1.00  0.00    -0.374 OA
BRANCH  25  26
ATOM     26  C   UNL     1       0.597   9.408  -8.455  1.00  0.00     0.202 C 
BRANCH  26  27
ATOM     27  C   UNL     1       2.103   9.179  -8.482  1.00  0.00     0.261 C 
BRANCH  27  28
ATOM     28  O   UNL     1       2.624   8.815  -7.215  1.00  0.00    -0.460 OA
BRANCH  28  29
ATOM     29  C   UNL     1       3.091   9.883  -6.530  1.00  0.00     0.338 C 
ATOM     30  O   UNL     1       2.931  11.063  -6.798  1.00  0.00    -0.246 OA
BRANCH  29  31
ATOM     31  C   UNL     1       3.977   9.424  -5.459  1.00  0.00     0.060 A 
ATOM     32  C   UNL     1       4.514  10.442  -4.671  1.00  0.00     0.016 A 
ATOM     33  C   UNL     1       4.601   8.180  -5.620  1.00  0.00     0.016 A 
ATOM     34  C   UNL     1       5.838  10.341  -4.328  1.00  0.00     0.010 A 
ATOM     35  C   UNL     1       5.930   8.094  -5.303  1.00  0.00     0.010 A 
ATOM     36  C   UNL     1       6.548   9.218  -4.764  1.00  0.00    -0.014 A 
BRANCH  36  37
ATOM     37  C   UNL     1       7.972   9.205  -4.550  1.00  0.00     0.031 A 
ATOM     38  C   UNL     1       8.308   8.836  -3.164  1.00  0.00     0.074 A 
ATOM     39  C   UNL     1       8.867   9.444  -5.524  1.00  0.00     0.049 A 
ATOM     40  N   UNL     1       8.723   9.623  -2.231  1.00  0.00    -0.248 NA
ATOM     41  C   UNL     1       7.935   7.486  -2.712  1.00  0.00     0.031 C 
ATOM     42  C   UNL     1       8.663   9.556  -6.970  1.00  0.00     0.029 A 
ATOM     43  N   UNL     1      10.212   9.551  -5.399  1.00  0.00    -0.354 N 
ATOM     44  C   UNL     1       8.835   8.820  -1.107  1.00  0.00     0.074 A 
ATOM     45  C   UNL     1       8.148   7.589  -1.402  1.00  0.00     0.031 C 
ATOM     46  C   UNL     1       9.865   9.475  -7.594  1.00  0.00     0.029 A 
ATOM     47  C   UNL     1      10.917   9.454  -6.590  1.00  0.00     0.049 A 
ATOM     48  H   UNL     1      10.654   9.687  -4.530  1.00  0.00     0.167 HD
ATOM     49  C   UNL     1       9.720   9.104  -0.117  1.00  0.00     0.031 A 
ATOM     50  C   UNL     1      12.261   9.296  -6.692  1.00  0.00     0.031 A 
ATOM     51  C   UNL     1      10.207  10.454  -0.193  1.00  0.00     0.049 A 
ATOM     52  C   UNL     1      12.844   9.742  -5.401  1.00  0.00     0.074 A 
ATOM     53  C   UNL     1       9.628  11.701  -0.075  1.00  0.00     0.029 A 
ATOM     54  N   UNL     1      11.399  10.644  -0.849  1.00  0.00    -0.354 N 
ATOM     55  N   UNL     1      12.811  10.975  -4.985  1.00  0.00    -0.248 NA
ATOM     56  C   UNL     1      13.063   8.739  -4.370  1.00  0.00     0.031 C 
ATOM     57  C   UNL     1      10.280  12.507  -1.054  1.00  0.00     0.029 A 
ATOM     58  C   UNL     1      11.258  11.729  -1.676  1.00  0.00     0.049 A 
ATOM     59  H   UNL     1      12.211  10.098  -0.744  1.00  0.00     0.167 HD
ATOM     60  C   UNL     1      12.578  10.883  -3.621  1.00  0.00     0.074 A 
ATOM     61  C   UNL     1      12.835   9.483  -3.284  1.00  0.00     0.031 C 
ATOM     62  C   UNL     1      11.925  11.876  -2.952  1.00  0.00     0.031 A 
BRANCH  49  63
ATOM     63  C   UNL     1      10.428   8.020   0.639  1.00  0.00    -0.014 A 
ATOM     64  C   UNL     1      11.146   8.341   1.797  1.00  0.00     0.009 A 
ATOM     65  C   UNL     1      10.610   6.724   0.108  1.00  0.00     0.009 A 
ATOM     66  C   UNL     1      12.008   7.410   2.388  1.00  0.00     0.001 A 
ATOM     67  C   UNL     1      11.433   5.780   0.718  1.00  0.00     0.001 A 
ATOM     68  C   UNL     1      12.147   6.130   1.852  1.00  0.00     0.000 A 
ENDBRANCH  49  63
BRANCH  50  69
ATOM     69  C   UNL     1      13.031   8.432  -7.622  1.00  0.00    -0.014 A 
ATOM     70  C   UNL     1      14.437   8.493  -7.631  1.00  0.00     0.009 A 
ATOM     71  C   UNL     1      12.425   7.332  -8.252  1.00  0.00     0.009 A 
ATOM     72  C   UNL     1      15.205   7.457  -8.180  1.00  0.00     0.001 A 
ATOM     73  C   UNL     1      13.192   6.301  -8.808  1.00  0.00     0.001 A 
ATOM     74  C   UNL     1      14.581   6.351  -8.750  1.00  0.00     0.000 A 
ENDBRANCH  50  69
BRANCH  62  75
ATOM     75  C   UNL     1      11.659  13.164  -3.694  1.00  0.00    -0.014 A 
ATOM     76  C   UNL     1      10.743  13.260  -4.758  1.00  0.00     0.009 A 
ATOM     77  C   UNL     1      12.209  14.345  -3.177  1.00  0.00     0.009 A 
ATOM     78  C   UNL     1      10.389  14.509  -5.284  1.00  0.00     0.001 A 
ATOM     79  C   UNL     1      11.842  15.590  -3.691  1.00  0.00     0.001 A 
ATOM     80  C   UNL     1      10.930  15.673  -4.742  1.00  0.00     0.000 A 
ENDBRANCH  62  75
ENDBRANCH  36  37
ENDBRANCH  29  31
ENDBRANCH  28  29
ENDBRANCH  27  28
ENDBRANCH  26  27
ENDBRANCH  25  26
ENDBRANCH   1  25
TORSDOF 17
