REMARK SMILES C[C@@](O)(CN1CCOCC1=O)C(=O)OCCOCCOC(=O)c1ccc(-c2c3nc(c(-c4ccccc4)c4ccc([nH]4)c(-c4ccccc4)c4nc(c(-c5ccccc5)c5ccc2[nH]5)C=C4)C=C3)cc1
REMARK SMILES IDX 17 1 16 2 15 3 14 4 12 5 13 6 2 7 1 8 3 9 4 11 5 12 6 13
REMARK SMILES IDX 10 14 7 15 9 16 11 17 8 18 18 19 19 20 20 21 21 22 22 23
REMARK SMILES IDX 23 24 24 25 70 26 25 27 69 28 26 29 27 30 28 31 63 32 29 33
REMARK SMILES IDX 68 34 62 35 64 36 30 37 67 38 61 39 60 40 31 42 53 43 38 44
REMARK SMILES IDX 52 45 39 46 42 47 51 48 65 49 40 50 41 51 50 53 66 54 43 55
REMARK SMILES IDX 32 56 33 57 37 58 34 59 36 60 35 61 54 62 55 63 59 64 56 65
REMARK SMILES IDX 58 66 57 67 44 68 45 69 49 70 46 71 48 72 47 73
REMARK H PARENT 3 10 64 41 42 52
REMARK Flexibility Score: inf
ROOT
ATOM      1  O   UNL     1       2.215   0.510   4.760  1.00  0.00    -0.374 OA
ENDROOT
BRANCH   1   2
ATOM      2  C   UNL     1       1.952   1.915   4.798  1.00  0.00     0.202 C 
BRANCH   2   3
ATOM      3  C   UNL     1       1.902   2.621   3.437  1.00  0.00     0.261 C 
BRANCH   3   4
ATOM      4  O   UNL     1       0.909   2.065   2.556  1.00  0.00    -0.461 OA
BRANCH   4   5
ATOM      5  C   UNL     1       1.059   2.434   1.259  1.00  0.00     0.339 C 
ATOM      6  O   UNL     1       1.845   3.297   0.869  1.00  0.00    -0.249 OA
BRANCH   5   7
ATOM      7  C   UNL     1       0.265   1.561   0.267  1.00  0.00     0.176 C 
ATOM      8  C   UNL     1       1.049   0.276   0.022  1.00  0.00     0.057 C 
BRANCH   7   9
ATOM      9  O   UNL     1       0.320   2.262  -1.010  1.00  0.00    -0.377 OA
ATOM     10  H   UNL     1      -0.167   1.755  -1.679  1.00  0.00     0.212 HD
ENDBRANCH   7   9
BRANCH   7  11
ATOM     11  C   UNL     1      -1.244   1.444   0.612  1.00  0.00     0.166 C 
BRANCH  11  12
ATOM     12  N   UNL     1      -1.806   0.238   1.253  1.00  0.00    -0.335 N 
ATOM     13  C   UNL     1      -1.645  -1.076   0.623  1.00  0.00     0.148 C 
ATOM     14  C   UNL     1      -2.687   0.392   2.326  1.00  0.00     0.248 C 
ATOM     15  C   UNL     1      -2.727  -2.090   0.986  1.00  0.00     0.182 C 
ATOM     16  C   UNL     1      -3.357  -0.890   2.865  1.00  0.00     0.260 C 
ATOM     17  O   UNL     1      -2.978   1.492   2.795  1.00  0.00    -0.272 OA
ATOM     18  O   UNL     1      -2.857  -2.136   2.404  1.00  0.00    -0.370 OA
ENDBRANCH  11  12
ENDBRANCH   7  11
ENDBRANCH   5   7
ENDBRANCH   4   5
ENDBRANCH   3   4
ENDBRANCH   2   3
ENDBRANCH   1   2
BRANCH   1  19
ATOM     19  C   UNL     1       1.209  -0.330   4.186  1.00  0.00     0.202 C 
BRANCH  19  20
ATOM     20  C   UNL     1      -0.132  -0.369   4.925  1.00  0.00     0.261 C 
BRANCH  20  21
ATOM     21  O   UNL     1      -0.740   0.930   4.966  1.00  0.00    -0.460 OA
BRANCH  21  22
ATOM     22  C   UNL     1      -1.829   1.010   5.763  1.00  0.00     0.338 C 
ATOM     23  O   UNL     1      -2.466   0.083   6.231  1.00  0.00    -0.246 OA
BRANCH  22  24
ATOM     24  C   UNL     1      -2.043   2.415   6.148  1.00  0.00     0.060 A 
ATOM     25  C   UNL     1      -1.268   2.939   7.188  1.00  0.00     0.016 A 
ATOM     26  C   UNL     1      -3.082   3.163   5.593  1.00  0.00     0.016 A 
ATOM     27  C   UNL     1      -1.565   4.201   7.704  1.00  0.00     0.010 A 
ATOM     28  C   UNL     1      -3.361   4.440   6.094  1.00  0.00     0.010 A 
ATOM     29  C   UNL     1      -2.632   4.950   7.180  1.00  0.00    -0.014 A 
BRANCH  29  30
ATOM     30  C   UNL     1      -3.020   6.221   7.843  1.00  0.00     0.031 A 
ATOM     31  C   UNL     1      -4.202   6.257   8.774  1.00  0.00     0.074 A 
ATOM     32  C   UNL     1      -2.289   7.334   7.658  1.00  0.00     0.049 A 
ATOM     33  N   UNL     1      -4.602   7.225   9.562  1.00  0.00    -0.248 NA
ATOM     34  C   UNL     1      -5.042   5.051   8.828  1.00  0.00     0.031 C 
ATOM     35  C   UNL     1      -1.133   7.450   6.770  1.00  0.00     0.029 A 
ATOM     36  N   UNL     1      -2.407   8.579   8.226  1.00  0.00    -0.354 N 
ATOM     37  C   UNL     1      -5.731   6.742  10.211  1.00  0.00     0.074 A 
ATOM     38  C   UNL     1      -5.977   5.412   9.696  1.00  0.00     0.031 C 
ATOM     39  C   UNL     1      -0.635   8.695   6.867  1.00  0.00     0.029 A 
ATOM     40  C   UNL     1      -1.437   9.461   7.818  1.00  0.00     0.049 A 
ATOM     41  H   UNL     1      -3.118   8.816   8.863  1.00  0.00     0.167 HD
ATOM     42  C   UNL     1      -6.488   7.341  11.161  1.00  0.00     0.031 A 
ATOM     43  C   UNL     1      -1.208  10.737   8.181  1.00  0.00     0.031 A 
ATOM     44  C   UNL     1      -6.264   8.667  11.673  1.00  0.00     0.049 A 
ATOM     45  C   UNL     1      -2.071  11.387   9.227  1.00  0.00     0.074 A 
ATOM     46  C   UNL     1      -6.955   9.334  12.672  1.00  0.00     0.029 A 
ATOM     47  N   UNL     1      -5.285   9.534  11.218  1.00  0.00    -0.354 N 
ATOM     48  N   UNL     1      -3.079  10.885   9.897  1.00  0.00    -0.248 NA
ATOM     49  C   UNL     1      -1.743  12.776   9.582  1.00  0.00     0.031 C 
ATOM     50  C   UNL     1      -6.420  10.622  12.790  1.00  0.00     0.029 A 
ATOM     51  C   UNL     1      -5.369  10.739  11.896  1.00  0.00     0.049 A 
ATOM     52  H   UNL     1      -4.627   9.324  10.516  1.00  0.00     0.167 HD
ATOM     53  C   UNL     1      -3.490  11.886  10.768  1.00  0.00     0.074 A 
ATOM     54  C   UNL     1      -2.615  13.019  10.552  1.00  0.00     0.031 C 
ATOM     55  C   UNL     1      -4.502  11.865  11.669  1.00  0.00     0.031 A 
BRANCH  42  56
ATOM     56  C   UNL     1      -7.647   6.560  11.710  1.00  0.00    -0.014 A 
ATOM     57  C   UNL     1      -7.442   5.498  12.605  1.00  0.00     0.009 A 
ATOM     58  C   UNL     1      -8.959   6.916  11.362  1.00  0.00     0.009 A 
ATOM     59  C   UNL     1      -8.530   4.790  13.120  1.00  0.00     0.001 A 
ATOM     60  C   UNL     1     -10.044   6.219  11.895  1.00  0.00     0.001 A 
ATOM     61  C   UNL     1      -9.829   5.153  12.768  1.00  0.00     0.000 A 
ENDBRANCH  42  56
BRANCH  43  62
ATOM     62  C   UNL     1      -0.083  11.485   7.569  1.00  0.00    -0.014 A 
ATOM     63  C   UNL     1       1.086  11.739   8.302  1.00  0.00     0.009 A 
ATOM     64  C   UNL     1      -0.178  11.951   6.250  1.00  0.00     0.009 A 
ATOM     65  C   UNL     1       2.132  12.467   7.730  1.00  0.00     0.001 A 
ATOM     66  C   UNL     1       0.878  12.660   5.674  1.00  0.00     0.001 A 
ATOM     67  C   UNL     1       2.028  12.923   6.416  1.00  0.00     0.000 A 
ENDBRANCH  43  62
BRANCH  55  68
ATOM     68  C   UNL     1      -4.703  13.098  12.503  1.00  0.00    -0.014 A 
ATOM     69  C   UNL     1      -5.263  14.263  11.955  1.00  0.00     0.009 A 
ATOM     70  C   UNL     1      -4.346  13.088  13.861  1.00  0.00     0.009 A 
ATOM     71  C   UNL     1      -5.427  15.405  12.742  1.00  0.00     0.001 A 
ATOM     72  C   UNL     1      -4.532  14.224  14.650  1.00  0.00     0.001 A 
ATOM     73  C   UNL     1      -5.063  15.384  14.088  1.00  0.00     0.000 A 
ENDBRANCH  55  68
ENDBRANCH  29  30
ENDBRANCH  22  24
ENDBRANCH  21  22
ENDBRANCH  20  21
ENDBRANCH  19  20
ENDBRANCH   1  19
TORSDOF 17
