REMARK SMILES Cc1c(Cl)cc2c(c1C)O[C@H](C(F)(F)F)C(C(=O)OCCOCCOC(=O)c1ccc(-c3c4nc(c(-c5ccccc5)c5ccc([nH]5)c(-c5ccccc5)c5nc(c(-c6ccccc6)c6ccc3[nH]6)C=C5)C=C4)cc1)=C2
REMARK SMILES IDX 23 1 22 2 21 3 20 4 19 5 17 6 18 7 16 8 1 9 2 10 3 11 8 12
REMARK SMILES IDX 4 13 5 14 7 15 9 16 6 17 10 18 76 19 11 20 12 21 13 22 14 23
REMARK SMILES IDX 15 24 24 25 25 26 26 27 27 28 28 29 29 30 75 31 30 32 74 33
REMARK SMILES IDX 31 34 32 35 33 36 68 37 34 38 73 39 67 40 69 41 35 42 72 43
REMARK SMILES IDX 66 44 65 45 36 47 58 48 43 49 57 50 44 51 47 52 56 53 70 54
REMARK SMILES IDX 45 55 46 56 55 58 71 59 48 60 37 61 38 62 42 63 39 64 41 65
REMARK SMILES IDX 40 66 59 67 60 68 64 69 61 70 63 71 62 72 49 73 50 74 54 75
REMARK SMILES IDX 51 76 53 77 52 78
REMARK H PARENT 69 46 47 57
REMARK Flexibility Score: inf
ROOT
ATOM      1  C   UNL     1       0.010  -0.707   8.984  1.00  0.00     0.202 C 
ENDROOT
BRANCH   1   2
ATOM      2  O   UNL     1      -1.096  -0.690   9.890  1.00  0.00    -0.374 OA
BRANCH   2   3
ATOM      3  C   UNL     1      -1.789  -1.915  10.115  1.00  0.00     0.202 C 
BRANCH   3   4
ATOM      4  C   UNL     1      -2.798  -2.333   9.042  1.00  0.00     0.261 C 
BRANCH   4   5
ATOM      5  O   UNL     1      -2.176  -2.453   7.753  1.00  0.00    -0.460 OA
BRANCH   5   6
ATOM      6  C   UNL     1      -2.600  -1.550   6.839  1.00  0.00     0.338 C 
ATOM      7  O   UNL     1      -3.528  -0.762   6.963  1.00  0.00    -0.246 OA
BRANCH   6   8
ATOM      8  C   UNL     1      -1.700  -1.553   5.673  1.00  0.00     0.087 C 
ATOM      9  C   UNL     1       1.157  -0.102   0.018  1.00  0.00     0.046 C 
ATOM     10  C   UNL     1       0.598  -0.170   1.417  1.00  0.00    -0.026 A 
ATOM     11  C   UNL     1       0.261   1.005   2.117  1.00  0.00     0.045 A 
ATOM     12  C   UNL     1       0.417  -1.421   2.064  1.00  0.00    -0.004 A 
ATOM     13  Cl  UNL     1       0.552   2.586   1.475  1.00  0.00    -0.084 Cl
ATOM     14  C   UNL     1      -0.343   0.944   3.373  1.00  0.00     0.032 A 
ATOM     15  C   UNL     1      -0.204  -1.465   3.332  1.00  0.00     0.131 A 
ATOM     16  C   UNL     1       0.816  -2.727   1.419  1.00  0.00     0.049 C 
ATOM     17  C   UNL     1      -0.613  -0.290   3.962  1.00  0.00     0.019 A 
ATOM     18  O   UNL     1      -0.376  -2.701   3.900  1.00  0.00    -0.475 OA
ATOM     19  C   UNL     1      -1.377  -0.346   5.193  1.00  0.00     0.027 C 
ATOM     20  C   UNL     1      -1.228  -2.845   5.070  1.00  0.00     0.316 C 
BRANCH  20  21
ATOM     21  C   UNL     1      -2.382  -3.792   4.711  1.00  0.00     0.430 C 
ATOM     22  F   UNL     1      -1.919  -4.929   4.136  1.00  0.00    -0.167 F 
ATOM     23  F   UNL     1      -3.080  -4.173   5.806  1.00  0.00    -0.167 F 
ATOM     24  F   UNL     1      -3.256  -3.227   3.848  1.00  0.00    -0.167 F 
ENDBRANCH  20  21
ENDBRANCH   6   8
ENDBRANCH   5   6
ENDBRANCH   4   5
ENDBRANCH   3   4
ENDBRANCH   2   3
ENDBRANCH   1   2
BRANCH   1  25
ATOM     25  C   UNL     1       1.294  -1.388   9.474  1.00  0.00     0.261 C 
BRANCH  25  26
ATOM     26  O   UNL     1       1.138  -2.817   9.568  1.00  0.00    -0.460 OA
BRANCH  26  27
ATOM     27  C   UNL     1       1.283  -3.325  10.813  1.00  0.00     0.338 C 
ATOM     28  O   UNL     1       1.605  -2.723  11.831  1.00  0.00    -0.246 OA
BRANCH  27  29
ATOM     29  C   UNL     1       0.811  -4.718  10.847  1.00  0.00     0.060 A 
ATOM     30  C   UNL     1      -0.231  -5.029  11.730  1.00  0.00     0.016 A 
ATOM     31  C   UNL     1       1.437  -5.720  10.102  1.00  0.00     0.016 A 
ATOM     32  C   UNL     1      -0.621  -6.353  11.908  1.00  0.00     0.010 A 
ATOM     33  C   UNL     1       1.052  -7.052  10.292  1.00  0.00     0.010 A 
ATOM     34  C   UNL     1       0.049  -7.376  11.223  1.00  0.00    -0.014 A 
BRANCH  34  35
ATOM     35  C   UNL     1      -0.200  -8.784  11.614  1.00  0.00     0.031 A 
ATOM     36  C   UNL     1       0.727  -9.438  12.602  1.00  0.00     0.074 A 
ATOM     37  C   UNL     1      -1.274  -9.448  11.153  1.00  0.00     0.049 A 
ATOM     38  N   UNL     1       0.668 -10.638  13.120  1.00  0.00    -0.248 NA
ATOM     39  C   UNL     1       1.864  -8.631  13.075  1.00  0.00     0.031 C 
ATOM     40  C   UNL     1      -2.275  -8.904  10.237  1.00  0.00     0.029 A 
ATOM     41  N   UNL     1      -1.707 -10.724  11.409  1.00  0.00    -0.354 N 
ATOM     42  C   UNL     1       1.751 -10.726  13.986  1.00  0.00     0.074 A 
ATOM     43  C   UNL     1       2.471  -9.475  13.896  1.00  0.00     0.031 C 
ATOM     44  C   UNL     1      -3.215  -9.839  10.017  1.00  0.00     0.029 A 
ATOM     45  C   UNL     1      -2.868 -11.053  10.754  1.00  0.00     0.049 A 
ATOM     46  H   UNL     1      -1.231 -11.345  12.007  1.00  0.00     0.167 HD
ATOM     47  C   UNL     1       2.106 -11.750  14.796  1.00  0.00     0.031 A 
ATOM     48  C   UNL     1      -3.567 -12.205  10.745  1.00  0.00     0.031 A 
ATOM     49  C   UNL     1       1.402 -13.000  14.877  1.00  0.00     0.049 A 
ATOM     50  C   UNL     1      -3.088 -13.369  11.569  1.00  0.00     0.074 A 
ATOM     51  C   UNL     1       1.683 -14.095  15.675  1.00  0.00     0.029 A 
ATOM     52  N   UNL     1       0.283 -13.324  14.128  1.00  0.00    -0.354 N 
ATOM     53  N   UNL     1      -2.075 -13.431  12.400  1.00  0.00    -0.248 NA
ATOM     54  C   UNL     1      -3.848 -14.624  11.453  1.00  0.00     0.031 C 
ATOM     55  C   UNL     1       0.765 -15.103  15.368  1.00  0.00     0.029 A 
ATOM     56  C   UNL     1      -0.118 -14.616  14.418  1.00  0.00     0.049 A 
ATOM     57  H   UNL     1      -0.161 -12.725  13.485  1.00  0.00     0.167 HD
ATOM     58  C   UNL     1      -2.086 -14.721  12.917  1.00  0.00     0.074 A 
ATOM     59  C   UNL     1      -3.213 -15.405  12.318  1.00  0.00     0.031 C 
ATOM     60  C   UNL     1      -1.237 -15.286  13.808  1.00  0.00     0.031 A 
BRANCH  47  61
ATOM     61  C   UNL     1       3.327 -11.568  15.650  1.00  0.00    -0.014 A 
ATOM     62  C   UNL     1       3.299 -10.737  16.781  1.00  0.00     0.009 A 
ATOM     63  C   UNL     1       4.501 -12.275  15.352  1.00  0.00     0.009 A 
ATOM     64  C   UNL     1       4.434 -10.600  17.584  1.00  0.00     0.001 A 
ATOM     65  C   UNL     1       5.626 -12.155  16.170  1.00  0.00     0.001 A 
ATOM     66  C   UNL     1       5.593 -11.313  17.281  1.00  0.00     0.000 A 
ENDBRANCH  47  61
BRANCH  48  67
ATOM     67  C   UNL     1      -4.797 -12.317   9.919  1.00  0.00    -0.014 A 
ATOM     68  C   UNL     1      -6.060 -12.383  10.526  1.00  0.00     0.009 A 
ATOM     69  C   UNL     1      -4.713 -12.358   8.518  1.00  0.00     0.009 A 
ATOM     70  C   UNL     1      -7.213 -12.499   9.747  1.00  0.00     0.001 A 
ATOM     71  C   UNL     1      -5.870 -12.450   7.742  1.00  0.00     0.001 A 
ATOM     72  C   UNL     1      -7.118 -12.526   8.356  1.00  0.00     0.000 A 
ENDBRANCH  48  67
BRANCH  60  73
ATOM     73  C   UNL     1      -1.484 -16.714  14.202  1.00  0.00    -0.014 A 
ATOM     74  C   UNL     1      -1.154 -17.767  13.334  1.00  0.00     0.009 A 
ATOM     75  C   UNL     1      -1.959 -17.013  15.488  1.00  0.00     0.009 A 
ATOM     76  C   UNL     1      -1.307 -19.092  13.745  1.00  0.00     0.001 A 
ATOM     77  C   UNL     1      -2.087 -18.339  15.905  1.00  0.00     0.001 A 
ATOM     78  C   UNL     1      -1.764 -19.377  15.032  1.00  0.00     0.000 A 
ENDBRANCH  60  73
ENDBRANCH  34  35
ENDBRANCH  27  29
ENDBRANCH  26  27
ENDBRANCH  25  26
ENDBRANCH   1  25
TORSDOF 15
