REMARK SMILES C[C@H](C(=O)OCCOCCOC(=O)c1ccc(-c2c3nc(c(-c4ccccc4)c4ccc([nH]4)c(-c4ccccc4)c4nc(c(-c5ccccc5)c5ccc2[nH]5)C=C4)C=C3)cc1)[C@@H](C(=O)c1ccccc1)c1ccc(F)cc1
REMARK SMILES IDX 7 1 6 2 5 3 3 4 4 5 2 6 1 7 62 8 63 9 64 10 65 11 66 12
REMARK SMILES IDX 70 13 67 14 69 15 68 16 71 17 72 18 77 19 73 20 76 21 74 22
REMARK SMILES IDX 75 23 8 24 9 25 10 26 11 27 12 28 13 29 14 30 15 31 61 32
REMARK SMILES IDX 16 33 60 34 17 35 18 36 19 37 54 38 20 39 59 40 53 41 55 42
REMARK SMILES IDX 21 43 58 44 52 45 51 46 22 48 44 49 29 50 43 51 30 52 33 53
REMARK SMILES IDX 42 54 56 55 31 56 32 57 41 59 57 60 34 61 23 62 24 63 28 64
REMARK SMILES IDX 25 65 27 66 26 67 45 68 46 69 50 70 47 71 49 72 48 73 35 74
REMARK SMILES IDX 36 75 40 76 37 77 39 78 38 79
REMARK H PARENT 55 47 33 58
REMARK Flexibility Score: inf
ROOT
ATOM      1  C   UNL     1       1.181  -1.260   2.668  1.00  0.00     0.202 C 
ENDROOT
BRANCH   1   2
ATOM      2  C   UNL     1       2.033  -0.308   1.837  1.00  0.00     0.261 C 
BRANCH   2   3
ATOM      3  O   UNL     1       1.228   0.161   0.734  1.00  0.00    -0.463 OA
BRANCH   3   4
ATOM      4  C   UNL     1       1.867   0.319  -0.440  1.00  0.00     0.309 C 
ATOM      5  O   UNL     1       3.082   0.206  -0.568  1.00  0.00    -0.252 OA
BRANCH   4   6
ATOM      6  C   UNL     1       0.951   0.674  -1.613  1.00  0.00     0.111 C 
ATOM      7  C   UNL     1       1.302  -0.389  -2.692  1.00  0.00     0.021 C 
BRANCH   6   8
ATOM      8  C   UNL     1      -0.601   0.747  -1.450  1.00  0.00     0.105 C 
BRANCH   8   9
ATOM      9  C   UNL     1      -1.372   1.763  -0.551  1.00  0.00     0.171 C 
ATOM     10  O   UNL     1      -2.556   2.042  -0.789  1.00  0.00    -0.293 OA
BRANCH   9  11
ATOM     11  C   UNL     1      -0.864   2.319   0.712  1.00  0.00     0.018 A 
ATOM     12  C   UNL     1      -1.781   2.388   1.767  1.00  0.00     0.012 A 
ATOM     13  C   UNL     1       0.422   2.822   0.881  1.00  0.00     0.012 A 
ATOM     14  C   UNL     1      -1.374   2.855   3.007  1.00  0.00     0.001 A 
ATOM     15  C   UNL     1       0.846   3.212   2.150  1.00  0.00     0.001 A 
ATOM     16  C   UNL     1      -0.046   3.206   3.216  1.00  0.00     0.000 A 
ENDBRANCH   9  11
ENDBRANCH   8   9
BRANCH   8  17
ATOM     17  C   UNL     1      -1.220   0.941  -2.858  1.00  0.00    -0.036 A 
ATOM     18  C   UNL     1      -1.125   2.195  -3.495  1.00  0.00     0.007 A 
ATOM     19  C   UNL     1      -1.939  -0.092  -3.480  1.00  0.00     0.007 A 
ATOM     20  C   UNL     1      -1.758   2.417  -4.715  1.00  0.00     0.039 A 
ATOM     21  C   UNL     1      -2.553   0.131  -4.714  1.00  0.00     0.039 A 
ATOM     22  C   UNL     1      -2.465   1.383  -5.313  1.00  0.00     0.123 A 
ATOM     23  F   UNL     1      -3.081   1.600  -6.483  1.00  0.00    -0.207 F 
ENDBRANCH   8  17
ENDBRANCH   6   8
ENDBRANCH   4   6
ENDBRANCH   3   4
ENDBRANCH   2   3
ENDBRANCH   1   2
BRANCH   1  24
ATOM     24  O   UNL     1       0.924  -2.506   2.013  1.00  0.00    -0.374 OA
BRANCH  24  25
ATOM     25  C   UNL     1      -0.037  -2.489   0.960  1.00  0.00     0.202 C 
BRANCH  25  26
ATOM     26  C   UNL     1      -1.489  -2.691   1.397  1.00  0.00     0.261 C 
BRANCH  26  27
ATOM     27  O   UNL     1      -1.970  -1.621   2.232  1.00  0.00    -0.460 OA
BRANCH  27  28
ATOM     28  C   UNL     1      -1.917  -1.873   3.562  1.00  0.00     0.338 C 
ATOM     29  O   UNL     1      -1.515  -2.894   4.104  1.00  0.00    -0.246 OA
BRANCH  28  30
ATOM     30  C   UNL     1      -2.294  -0.668   4.327  1.00  0.00     0.060 A 
ATOM     31  C   UNL     1      -1.480  -0.281   5.400  1.00  0.00     0.016 A 
ATOM     32  C   UNL     1      -3.466   0.034   4.045  1.00  0.00     0.016 A 
ATOM     33  C   UNL     1      -1.851   0.790   6.218  1.00  0.00     0.010 A 
ATOM     34  C   UNL     1      -3.833   1.111   4.862  1.00  0.00     0.010 A 
ATOM     35  C   UNL     1      -3.043   1.483   5.973  1.00  0.00    -0.014 A 
BRANCH  35  36
ATOM     36  C   UNL     1      -3.547   2.509   6.930  1.00  0.00     0.031 A 
ATOM     37  C   UNL     1      -4.751   2.177   7.764  1.00  0.00     0.074 A 
ATOM     38  C   UNL     1      -2.977   3.724   7.059  1.00  0.00     0.049 A 
ATOM     39  N   UNL     1      -5.389   2.925   8.627  1.00  0.00    -0.248 NA
ATOM     40  C   UNL     1      -5.308   0.824   7.607  1.00  0.00     0.031 C 
ATOM     41  C   UNL     1      -1.772   4.163   6.370  1.00  0.00     0.029 A 
ATOM     42  N   UNL     1      -3.342   4.823   7.800  1.00  0.00    -0.354 N 
ATOM     43  C   UNL     1      -6.420   2.134   9.112  1.00  0.00     0.074 A 
ATOM     44  C   UNL     1      -6.363   0.875   8.403  1.00  0.00     0.031 C 
ATOM     45  C   UNL     1      -1.524   5.451   6.661  1.00  0.00     0.029 A 
ATOM     46  C   UNL     1      -2.543   5.925   7.589  1.00  0.00     0.049 A 
ATOM     47  H   UNL     1      -4.104   4.822   8.423  1.00  0.00     0.167 HD
ATOM     48  C   UNL     1      -7.318   2.417  10.084  1.00  0.00     0.031 A 
ATOM     49  C   UNL     1      -2.611   7.172   8.093  1.00  0.00     0.031 A 
ATOM     50  C   UNL     1      -7.384   3.668  10.787  1.00  0.00     0.049 A 
ATOM     51  C   UNL     1      -3.675   7.492   9.107  1.00  0.00     0.074 A 
ATOM     52  C   UNL     1      -8.238   4.033  11.812  1.00  0.00     0.029 A 
ATOM     53  N   UNL     1      -6.574   4.763  10.529  1.00  0.00    -0.354 N 
ATOM     54  N   UNL     1      -4.597   6.707   9.608  1.00  0.00    -0.248 NA
ATOM     55  C   UNL     1      -3.686   8.858   9.650  1.00  0.00     0.031 C 
ATOM     56  C   UNL     1      -7.990   5.371  12.130  1.00  0.00     0.029 A 
ATOM     57  C   UNL     1      -6.933   5.817  11.352  1.00  0.00     0.049 A 
ATOM     58  H   UNL     1      -5.852   4.787   9.861  1.00  0.00     0.167 HD
ATOM     59  C   UNL     1      -5.266   7.468  10.558  1.00  0.00     0.074 A 
ATOM     60  C   UNL     1      -4.639   8.774  10.568  1.00  0.00     0.031 C 
ATOM     61  C   UNL     1      -6.301   7.112  11.356  1.00  0.00     0.031 A 
BRANCH  48  62
ATOM     62  C   UNL     1      -8.316   1.345  10.415  1.00  0.00    -0.014 A 
ATOM     63  C   UNL     1      -7.924   0.152  11.044  1.00  0.00     0.009 A 
ATOM     64  C   UNL     1      -9.668   1.530  10.088  1.00  0.00     0.009 A 
ATOM     65  C   UNL     1      -8.858  -0.854  11.296  1.00  0.00     0.001 A 
ATOM     66  C   UNL     1     -10.605   0.537  10.373  1.00  0.00     0.001 A 
ATOM     67  C   UNL     1     -10.198  -0.659  10.964  1.00  0.00     0.000 A 
ENDBRANCH  48  62
BRANCH  49  68
ATOM     68  C   UNL     1      -1.626   8.212   7.686  1.00  0.00    -0.014 A 
ATOM     69  C   UNL     1      -0.668   8.685   8.597  1.00  0.00     0.009 A 
ATOM     70  C   UNL     1      -1.663   8.768   6.397  1.00  0.00     0.009 A 
ATOM     71  C   UNL     1       0.203   9.718   8.242  1.00  0.00     0.001 A 
ATOM     72  C   UNL     1      -0.771   9.782   6.035  1.00  0.00     0.001 A 
ATOM     73  C   UNL     1       0.152  10.264   6.961  1.00  0.00     0.000 A 
ENDBRANCH  49  68
BRANCH  61  74
ATOM     74  C   UNL     1      -6.797   8.131  12.344  1.00  0.00    -0.014 A 
ATOM     75  C   UNL     1      -7.494   9.277  11.930  1.00  0.00     0.009 A 
ATOM     76  C   UNL     1      -6.603   7.912  13.717  1.00  0.00     0.009 A 
ATOM     77  C   UNL     1      -7.958  10.198  12.871  1.00  0.00     0.001 A 
ATOM     78  C   UNL     1      -7.099   8.816  14.657  1.00  0.00     0.001 A 
ATOM     79  C   UNL     1      -7.767   9.963  14.233  1.00  0.00     0.000 A 
ENDBRANCH  61  74
ENDBRANCH  35  36
ENDBRANCH  28  30
ENDBRANCH  27  28
ENDBRANCH  26  27
ENDBRANCH  25  26
ENDBRANCH  24  25
ENDBRANCH   1  24
TORSDOF 18
