REMARK SMILES CN1C(=O)C(=Cc2ccc(OCc3cccc(C(=O)OCCOCCOC(=O)c4ccc(-c5c6nc(c(-c7ccccc7)c7ccc([nH]7)c(-c7ccccc7)c7nc(c(-c8ccccc8)c8ccc5[nH]8)C=C7)C=C6)cc4)c3)c(Cl)c2)C(=O)N(C)C1=S
REMARK SMILES IDX 22 1 21 2 20 3 18 4 19 5 17 6 13 7 14 8 77 9 15 10 16 11
REMARK SMILES IDX 12 12 11 13 10 14 7 15 8 16 80 17 9 18 78 19 79 20 6 21 1 22
REMARK SMILES IDX 2 23 3 24 85 25 4 26 5 27 83 28 86 29 81 30 84 31 82 32
REMARK SMILES IDX 23 33 24 34 25 35 26 36 27 37 28 38 29 39 30 40 76 41 31 42
REMARK SMILES IDX 75 43 32 44 33 45 34 46 69 47 35 48 74 49 68 50 70 51 36 52
REMARK SMILES IDX 73 53 67 54 66 55 37 57 59 58 44 59 58 60 45 61 48 62 57 63
REMARK SMILES IDX 71 64 46 65 47 66 56 68 72 69 49 70 38 71 39 72 43 73 40 74
REMARK SMILES IDX 42 75 41 76 60 77 61 78 65 79 62 80 64 81 63 82 50 83 51 84
REMARK SMILES IDX 55 85 52 86 54 87 53 88
REMARK H PARENT 70 56 48 67
REMARK Flexibility Score: inf
ROOT
ATOM      1  C   UNL     1       0.435   8.717   6.357  1.00  0.00     0.202 C 
ENDROOT
BRANCH   1   2
ATOM      2  C   UNL     1       1.402   8.208   5.283  1.00  0.00     0.261 C 
BRANCH   2   3
ATOM      3  O   UNL     1       2.067   7.011   5.717  1.00  0.00    -0.460 OA
BRANCH   3   4
ATOM      4  C   UNL     1       3.375   7.148   6.056  1.00  0.00     0.338 C 
ATOM      5  O   UNL     1       4.072   8.132   5.882  1.00  0.00    -0.246 OA
BRANCH   4   6
ATOM      6  C   UNL     1       3.829   5.949   6.813  1.00  0.00     0.060 A 
ATOM      7  C   UNL     1       3.591   3.593   7.442  1.00  0.00    -0.010 A 
ATOM      8  C   UNL     1       4.696   3.743   8.293  1.00  0.00     0.007 A 
ATOM      9  C   UNL     1       3.155   4.724   6.733  1.00  0.00     0.023 A 
ATOM     10  C   UNL     1       5.347   4.975   8.417  1.00  0.00     0.001 A 
ATOM     11  C   UNL     1       4.922   6.074   7.670  1.00  0.00     0.016 A 
BRANCH   7  12
ATOM     12  C   UNL     1       2.847   2.268   7.378  1.00  0.00     0.265 C 
BRANCH  12  13
ATOM     13  O   UNL     1       2.862   1.562   6.128  1.00  0.00    -0.487 OA
BRANCH  13  14
ATOM     14  C   UNL     1       2.338   2.173   5.024  1.00  0.00     0.138 A 
ATOM     15  C   UNL     1       1.637   3.494   2.652  1.00  0.00    -0.023 A 
ATOM     16  C   UNL     1       2.826   2.762   2.719  1.00  0.00     0.012 A 
ATOM     17  C   UNL     1       0.774   3.516   3.748  1.00  0.00     0.032 A 
ATOM     18  C   UNL     1       3.172   2.108   3.901  1.00  0.00     0.048 A 
ATOM     19  C   UNL     1       1.095   2.814   4.914  1.00  0.00     0.083 A 
ATOM     20  Cl  UNL     1      -0.114   2.789   6.147  1.00  0.00    -0.080 Cl
BRANCH  15  21
ATOM     21  C   UNL     1       1.239   4.112   1.388  1.00  0.00     0.027 C 
ATOM     22  C   UNL     1       0.535  -0.186  -0.160  1.00  0.00     0.156 C 
ATOM     23  N   UNL     1       0.416   1.239  -0.485  1.00  0.00    -0.288 N 
ATOM     24  C   UNL     1       0.144   2.047   0.607  1.00  0.00     0.265 C 
ATOM     25  C   UNL     1       0.556   1.716  -1.806  1.00  0.00     0.185 C 
ATOM     26  O   UNL     1      -0.406   1.663   1.635  1.00  0.00    -0.268 OA
ATOM     27  C   UNL     1       0.577   3.435   0.430  1.00  0.00     0.106 C 
ATOM     28  N   UNL     1       0.570   3.124  -1.948  1.00  0.00    -0.288 N 
ATOM     29  S   UNL     1       0.677   0.657  -3.124  1.00  0.00    -0.040 S 
ATOM     30  C   UNL     1       0.485   4.042  -0.897  1.00  0.00     0.265 C 
ATOM     31  C   UNL     1       0.755   3.785  -3.242  1.00  0.00     0.156 C 
ATOM     32  O   UNL     1       0.416   5.260  -1.038  1.00  0.00    -0.268 OA
ENDBRANCH  15  21
ENDBRANCH  13  14
ENDBRANCH  12  13
ENDBRANCH   7  12
ENDBRANCH   4   6
ENDBRANCH   3   4
ENDBRANCH   2   3
ENDBRANCH   1   2
BRANCH   1  33
ATOM     33  O   UNL     1       1.033   9.154   7.578  1.00  0.00    -0.374 OA
BRANCH  33  34
ATOM     34  C   UNL     1       1.350   8.143   8.536  1.00  0.00     0.202 C 
BRANCH  34  35
ATOM     35  C   UNL     1       0.202   7.689   9.444  1.00  0.00     0.261 C 
BRANCH  35  36
ATOM     36  O   UNL     1      -0.830   7.012   8.707  1.00  0.00    -0.460 OA
BRANCH  36  37
ATOM     37  C   UNL     1      -1.947   7.748   8.497  1.00  0.00     0.338 C 
ATOM     38  O   UNL     1      -2.189   8.865   8.916  1.00  0.00    -0.246 OA
BRANCH  37  39
ATOM     39  C   UNL     1      -2.818   7.063   7.523  1.00  0.00     0.060 A 
ATOM     40  C   UNL     1      -3.285   7.812   6.435  1.00  0.00     0.016 A 
ATOM     41  C   UNL     1      -3.233   5.743   7.709  1.00  0.00     0.016 A 
ATOM     42  C   UNL     1      -4.215   7.260   5.557  1.00  0.00     0.010 A 
ATOM     43  C   UNL     1      -4.169   5.193   6.830  1.00  0.00     0.010 A 
ATOM     44  C   UNL     1      -4.693   5.961   5.774  1.00  0.00    -0.014 A 
BRANCH  44  45
ATOM     45  C   UNL     1      -5.840   5.454   4.985  1.00  0.00     0.031 A 
ATOM     46  C   UNL     1      -7.208   5.434   5.611  1.00  0.00     0.074 A 
ATOM     47  C   UNL     1      -5.670   5.024   3.723  1.00  0.00     0.049 A 
ATOM     48  N   UNL     1      -8.335   4.975   5.130  1.00  0.00    -0.248 NA
ATOM     49  C   UNL     1      -7.317   6.005   6.964  1.00  0.00     0.031 C 
ATOM     50  C   UNL     1      -4.406   5.035   2.988  1.00  0.00     0.029 A 
ATOM     51  N   UNL     1      -6.571   4.484   2.840  1.00  0.00    -0.354 N 
ATOM     52  C   UNL     1      -9.282   5.187   6.124  1.00  0.00     0.074 A 
ATOM     53  C   UNL     1      -8.593   5.789   7.245  1.00  0.00     0.031 C 
ATOM     54  C   UNL     1      -4.610   4.514   1.766  1.00  0.00     0.029 A 
ATOM     55  C   UNL     1      -6.006   4.098   1.649  1.00  0.00     0.049 A 
ATOM     56  H   UNL     1      -7.529   4.383   3.041  1.00  0.00     0.167 HD
ATOM     57  C   UNL     1     -10.608   4.908   6.105  1.00  0.00     0.031 A 
ATOM     58  C   UNL     1      -6.549   3.456   0.597  1.00  0.00     0.031 A 
ATOM     59  C   UNL     1     -11.289   4.294   4.996  1.00  0.00     0.049 A 
ATOM     60  C   UNL     1      -8.006   3.079   0.632  1.00  0.00     0.074 A 
ATOM     61  C   UNL     1     -12.632   3.986   4.872  1.00  0.00     0.029 A 
ATOM     62  N   UNL     1     -10.674   3.886   3.822  1.00  0.00    -0.354 N 
ATOM     63  N   UNL     1      -8.899   3.304   1.567  1.00  0.00    -0.248 NA
ATOM     64  C   UNL     1      -8.533   2.363  -0.539  1.00  0.00     0.031 C 
ATOM     65  C   UNL     1     -12.819   3.333   3.650  1.00  0.00     0.029 A 
ATOM     66  C   UNL     1     -11.606   3.300   2.981  1.00  0.00     0.049 A 
ATOM     67  H   UNL     1      -9.718   3.996   3.617  1.00  0.00     0.167 HD
ATOM     68  C   UNL     1     -10.095   2.787   1.084  1.00  0.00     0.074 A 
ATOM     69  C   UNL     1      -9.817   2.247  -0.231  1.00  0.00     0.031 C 
ATOM     70  C   UNL     1     -11.316   2.767   1.674  1.00  0.00     0.031 A 
BRANCH  57  71
ATOM     71  C   UNL     1     -11.400   5.228   7.343  1.00  0.00    -0.014 A 
ATOM     72  C   UNL     1     -11.660   6.554   7.726  1.00  0.00     0.009 A 
ATOM     73  C   UNL     1     -11.917   4.184   8.126  1.00  0.00     0.009 A 
ATOM     74  C   UNL     1     -12.387   6.825   8.887  1.00  0.00     0.001 A 
ATOM     75  C   UNL     1     -12.670   4.458   9.269  1.00  0.00     0.001 A 
ATOM     76  C   UNL     1     -12.895   5.778   9.655  1.00  0.00     0.000 A 
ENDBRANCH  57  71
BRANCH  58  77
ATOM     77  C   UNL     1      -5.702   3.108  -0.575  1.00  0.00    -0.014 A 
ATOM     78  C   UNL     1      -5.894   3.745  -1.810  1.00  0.00     0.009 A 
ATOM     79  C   UNL     1      -4.704   2.126  -0.466  1.00  0.00     0.009 A 
ATOM     80  C   UNL     1      -5.121   3.387  -2.918  1.00  0.00     0.001 A 
ATOM     81  C   UNL     1      -3.913   1.790  -1.568  1.00  0.00     0.001 A 
ATOM     82  C   UNL     1      -4.129   2.414  -2.795  1.00  0.00     0.000 A 
ENDBRANCH  58  77
BRANCH  70  83
ATOM     83  C   UNL     1     -12.459   2.185   0.887  1.00  0.00    -0.014 A 
ATOM     84  C   UNL     1     -12.564   0.805   0.656  1.00  0.00     0.009 A 
ATOM     85  C   UNL     1     -13.476   3.031   0.417  1.00  0.00     0.009 A 
ATOM     86  C   UNL     1     -13.648   0.289  -0.059  1.00  0.00     0.001 A 
ATOM     87  C   UNL     1     -14.574   2.510  -0.269  1.00  0.00     0.001 A 
ATOM     88  C   UNL     1     -14.655   1.141  -0.514  1.00  0.00     0.000 A 
ENDBRANCH  70  83
ENDBRANCH  44  45
ENDBRANCH  37  39
ENDBRANCH  36  37
ENDBRANCH  35  36
ENDBRANCH  34  35
ENDBRANCH  33  34
ENDBRANCH   1  33
TORSDOF 18
