REMARK SMILES O=C(OCCOCCOC(=O)c1ccc(S(=O)(=O)N[C@@H]2CC[N@H+]3CCC[C@H]23)cc1)c1ccc(-c2c3nc(c(-c4ccccc4)c4ccc([nH]4)c(-c4ccccc4)c4nc(c(-c5ccccc5)c5ccc2[nH]5)C=C4)C=C3)cc1
REMARK SMILES IDX 7 1 6 2 5 3 4 4 3 5 2 6 1 7 30 8 31 9 77 10 32 11 76 12
REMARK SMILES IDX 33 13 34 14 35 15 70 16 36 17 75 18 69 19 71 20 37 21 74 22
REMARK SMILES IDX 68 23 67 24 38 26 60 27 45 28 59 29 46 30 49 31 58 32 72 33
REMARK SMILES IDX 47 34 48 35 57 37 73 38 50 39 39 40 40 41 44 42 41 43 43 44
REMARK SMILES IDX 42 45 61 46 62 47 66 48 63 49 65 50 64 51 51 52 52 53 56 54
REMARK SMILES IDX 53 55 55 56 54 57 8 58 9 59 10 60 11 61 12 62 13 63 29 64
REMARK SMILES IDX 14 65 28 66 15 67 16 68 17 69 18 70 19 71 20 73 21 74 27 75
REMARK SMILES IDX 22 76 23 77 26 78 24 79 25 81
REMARK H PARENT 71 25 49 36 19 72 23 80
REMARK Flexibility Score: inf
ROOT
ATOM      1  C   UNL     1       2.634   1.177  -1.772  1.00  0.00     0.202 C 
ENDROOT
BRANCH   1   2
ATOM      2  O   UNL     1       3.931   0.631  -1.488  1.00  0.00    -0.374 OA
BRANCH   2   3
ATOM      3  C   UNL     1       4.037  -0.792  -1.591  1.00  0.00     0.202 C 
BRANCH   3   4
ATOM      4  C   UNL     1       3.717  -1.527  -0.288  1.00  0.00     0.261 C 
BRANCH   4   5
ATOM      5  O   UNL     1       2.361  -1.256   0.108  1.00  0.00    -0.460 OA
BRANCH   5   6
ATOM      6  C   UNL     1       1.902  -0.376   1.026  1.00  0.00     0.338 C 
ATOM      7  O   UNL     1       0.686  -0.265   1.173  1.00  0.00    -0.246 OA
BRANCH   6   8
ATOM      8  C   UNL     1       2.783   0.455   1.902  1.00  0.00     0.060 A 
ATOM      9  C   UNL     1       4.056   0.918   1.566  1.00  0.00     0.016 A 
ATOM     10  C   UNL     1       2.238   0.868   3.131  1.00  0.00     0.016 A 
ATOM     11  C   UNL     1       4.804   1.688   2.449  1.00  0.00     0.010 A 
ATOM     12  C   UNL     1       2.965   1.679   4.008  1.00  0.00     0.010 A 
ATOM     13  C   UNL     1       4.267   2.064   3.678  1.00  0.00    -0.014 A 
BRANCH  13  14
ATOM     14  C   UNL     1       5.143   2.770   4.630  1.00  0.00     0.031 A 
ATOM     15  C   UNL     1       5.759   1.990   5.751  1.00  0.00     0.074 A 
ATOM     16  C   UNL     1       5.485   4.050   4.398  1.00  0.00     0.049 A 
ATOM     17  N   UNL     1       6.615   2.383   6.657  1.00  0.00    -0.248 NA
ATOM     18  C   UNL     1       5.375   0.572   5.855  1.00  0.00     0.031 C 
ATOM     19  C   UNL     1       5.011   4.859   3.273  1.00  0.00     0.029 A 
ATOM     20  N   UNL     1       6.349   4.875   5.066  1.00  0.00    -0.354 N 
ATOM     21  C   UNL     1       6.858   1.267   7.446  1.00  0.00     0.074 A 
ATOM     22  C   UNL     1       6.057   0.184   6.921  1.00  0.00     0.031 C 
ATOM     23  C   UNL     1       5.630   6.051   3.303  1.00  0.00     0.029 A 
ATOM     24  C   UNL     1       6.503   6.103   4.471  1.00  0.00     0.049 A 
ATOM     25  H   UNL     1       6.816   4.613   5.893  1.00  0.00     0.167 HD
ATOM     26  C   UNL     1       7.675   1.158   8.519  1.00  0.00     0.031 A 
ATOM     27  C   UNL     1       7.267   7.149   4.835  1.00  0.00     0.031 A 
ATOM     28  C   UNL     1       8.454   2.244   9.042  1.00  0.00     0.049 A 
ATOM     29  C   UNL     1       8.111   7.024   6.072  1.00  0.00     0.074 A 
ATOM     30  C   UNL     1       9.259   2.273  10.165  1.00  0.00     0.029 A 
ATOM     31  N   UNL     1       8.521   3.503   8.463  1.00  0.00    -0.354 N 
ATOM     32  N   UNL     1       8.292   5.979   6.846  1.00  0.00    -0.248 NA
ATOM     33  C   UNL     1       8.848   8.223   6.493  1.00  0.00     0.031 C 
ATOM     34  C   UNL     1       9.790   3.564  10.284  1.00  0.00     0.029 A 
ATOM     35  C   UNL     1       9.345   4.323   9.212  1.00  0.00     0.049 A 
ATOM     36  H   UNL     1       8.052   3.773   7.640  1.00  0.00     0.167 HD
ATOM     37  C   UNL     1       9.168   6.390   7.839  1.00  0.00     0.074 A 
ATOM     38  C   UNL     1       9.501   7.773   7.556  1.00  0.00     0.031 C 
ATOM     39  C   UNL     1       9.651   5.694   8.897  1.00  0.00     0.031 A 
BRANCH  26  40
ATOM     40  C   UNL     1       7.692  -0.169   9.217  1.00  0.00    -0.014 A 
ATOM     41  C   UNL     1       8.373  -1.271   8.676  1.00  0.00     0.009 A 
ATOM     42  C   UNL     1       6.973  -0.330  10.411  1.00  0.00     0.009 A 
ATOM     43  C   UNL     1       8.301  -2.519   9.300  1.00  0.00     0.001 A 
ATOM     44  C   UNL     1       6.920  -1.573  11.042  1.00  0.00     0.001 A 
ATOM     45  C   UNL     1       7.574  -2.669  10.481  1.00  0.00     0.000 A 
ENDBRANCH  26  40
BRANCH  27  46
ATOM     46  C   UNL     1       7.254   8.402   4.037  1.00  0.00    -0.014 A 
ATOM     47  C   UNL     1       8.384   8.799   3.307  1.00  0.00     0.009 A 
ATOM     48  C   UNL     1       6.107   9.212   4.003  1.00  0.00     0.009 A 
ATOM     49  C   UNL     1       8.371   9.990   2.574  1.00  0.00     0.001 A 
ATOM     50  C   UNL     1       6.088  10.388   3.250  1.00  0.00     0.001 A 
ATOM     51  C   UNL     1       7.223  10.780   2.542  1.00  0.00     0.000 A 
ENDBRANCH  27  46
BRANCH  39  52
ATOM     52  C   UNL     1      10.598   6.419   9.805  1.00  0.00    -0.014 A 
ATOM     53  C   UNL     1      10.128   7.358  10.734  1.00  0.00     0.009 A 
ATOM     54  C   UNL     1      11.970   6.129   9.753  1.00  0.00     0.009 A 
ATOM     55  C   UNL     1      11.022   8.017  11.579  1.00  0.00     0.001 A 
ATOM     56  C   UNL     1      12.858   6.775  10.613  1.00  0.00     0.001 A 
ATOM     57  C   UNL     1      12.384   7.723  11.520  1.00  0.00     0.000 A 
ENDBRANCH  39  52
ENDBRANCH  13  14
ENDBRANCH   6   8
ENDBRANCH   5   6
ENDBRANCH   4   5
ENDBRANCH   3   4
ENDBRANCH   2   3
ENDBRANCH   1   2
BRANCH   1  58
ATOM     58  C   UNL     1       2.757   2.259  -2.847  1.00  0.00     0.261 C 
BRANCH  58  59
ATOM     59  O   UNL     1       3.227   1.627  -4.044  1.00  0.00    -0.460 OA
BRANCH  59  60
ATOM     60  C   UNL     1       4.578   1.556  -4.133  1.00  0.00     0.338 C 
ATOM     61  O   UNL     1       5.382   2.360  -3.691  1.00  0.00    -0.246 OA
BRANCH  60  62
ATOM     62  C   UNL     1       4.954   0.243  -4.710  1.00  0.00     0.060 A 
ATOM     63  C   UNL     1       6.278  -0.192  -4.556  1.00  0.00     0.017 A 
ATOM     64  C   UNL     1       4.014  -0.579  -5.350  1.00  0.00     0.017 A 
ATOM     65  C   UNL     1       6.687  -1.399  -5.119  1.00  0.00     0.022 A 
ATOM     66  C   UNL     1       4.416  -1.789  -5.905  1.00  0.00     0.022 A 
ATOM     67  C   UNL     1       5.762  -2.157  -5.841  1.00  0.00     0.082 A 
BRANCH  67  68
ATOM     68  S   UNL     1       6.331  -3.457  -6.902  1.00  0.00     0.241 S 
ATOM     69  O   UNL     1       7.767  -3.342  -7.069  1.00  0.00    -0.207 OA
ATOM     70  O   UNL     1       5.717  -4.677  -6.441  1.00  0.00    -0.207 OA
BRANCH  68  71
ATOM     71  N   UNL     1       5.614  -3.087  -8.357  1.00  0.00    -0.202 NA
ATOM     72  H   UNL     1       4.625  -2.967  -8.134  1.00  0.00     0.141 HD
BRANCH  71  73
ATOM     73  C   UNL     1       5.929  -1.970  -9.268  1.00  0.00     0.133 C 
ATOM     74  C   UNL     1       6.748  -0.780  -8.706  1.00  0.00     0.087 C 
ATOM     75  C   UNL     1       4.657  -1.248  -9.729  1.00  0.00     0.202 C 
ATOM     76  C   UNL     1       5.781   0.417  -8.584  1.00  0.00     0.264 C 
ATOM     77  N   UNL     1       4.498  -0.236  -8.686  1.00  0.00    -0.331 N 
ATOM     78  C   UNL     1       3.267  -1.847  -9.726  1.00  0.00     0.072 C 
ATOM     79  C   UNL     1       3.309   0.511  -9.024  1.00  0.00     0.262 C 
ATOM     80  H   UNL     1       4.308  -0.538  -7.731  1.00  0.00     0.348 HD
ATOM     81  C   UNL     1       2.364  -0.632  -9.421  1.00  0.00     0.068 C 
ENDBRANCH  71  73
ENDBRANCH  68  71
ENDBRANCH  67  68
ENDBRANCH  60  62
ENDBRANCH  59  60
ENDBRANCH  58  59
ENDBRANCH   1  58
TORSDOF 17
