REMARK SMILES C[C@@H](Sc1nc(-c2ccc3c(c2)OCO3)ccc1C#N)C(=O)OCCOCCOC(=O)c1ccc(-c2c3nc(c(-c4ccccc4)c4ccc([nH]4)c(-c4ccccc4)c4nc(c(-c5ccccc5)c5ccc2[nH]5)C=C4)C=C3)cc1
REMARK SMILES IDX 25 1 24 2 23 3 21 4 22 5 2 6 1 7 3 8 4 9 5 10 18 11 6 12
REMARK SMILES IDX 17 13 16 14 19 15 20 16 7 17 8 18 12 19 9 20 11 21 10 22
REMARK SMILES IDX 13 23 15 24 14 25 26 26 27 27 28 28 29 29 30 30 31 31 32 32
REMARK SMILES IDX 33 33 79 34 34 35 78 36 35 37 36 38 37 39 72 40 38 41 77 42
REMARK SMILES IDX 71 43 73 44 39 45 76 46 70 47 69 48 40 50 62 51 47 52 61 53
REMARK SMILES IDX 48 54 51 55 60 56 74 57 49 58 50 59 59 61 75 62 52 63 41 64
REMARK SMILES IDX 42 65 46 66 43 67 45 68 44 69 63 70 64 71 68 72 65 73 67 74
REMARK SMILES IDX 66 75 53 76 54 77 58 78 55 79 57 80 56 81
REMARK H PARENT 73 49 51 60
REMARK Flexibility Score: inf
ROOT
ATOM      1  C   UNL     1      -3.767   0.802  -0.429  1.00  0.00     0.202 C 
ENDROOT
BRANCH   1   2
ATOM      2  C   UNL     1      -3.019   0.994  -1.751  1.00  0.00     0.261 C 
BRANCH   2   3
ATOM      3  O   UNL     1      -1.619   0.698  -1.646  1.00  0.00    -0.462 OA
BRANCH   3   4
ATOM      4  C   UNL     1      -0.791   1.783  -1.637  1.00  0.00     0.319 C 
ATOM      5  O   UNL     1      -1.167   2.946  -1.728  1.00  0.00    -0.251 OA
BRANCH   4   6
ATOM      6  C   UNL     1       0.674   1.391  -1.499  1.00  0.00     0.160 C 
ATOM      7  C   UNL     1       0.906   0.190  -0.579  1.00  0.00     0.032 C 
BRANCH   6   8
ATOM      8  S   UNL     1       1.315   1.090  -3.184  1.00  0.00    -0.090 SA
BRANCH   8   9
ATOM      9  C   UNL     1       3.058   1.042  -2.817  1.00  0.00     0.115 A 
ATOM     10  N   UNL     1       3.654   2.257  -2.702  1.00  0.00    -0.240 NA
ATOM     11  C   UNL     1       3.757  -0.159  -2.704  1.00  0.00     0.084 A 
ATOM     12  C   UNL     1       4.995   2.295  -2.517  1.00  0.00     0.072 A 
ATOM     13  C   UNL     1       5.129  -0.102  -2.465  1.00  0.00     0.024 A 
ATOM     14  C   UNL     1       5.758   1.137  -2.383  1.00  0.00     0.030 A 
BRANCH  11  15
ATOM     15  C   UNL     1       3.110  -1.434  -2.792  1.00  0.00     0.102 C 
ATOM     16  N   UNL     1       2.596  -2.472  -2.822  1.00  0.00    -0.192 NA
ENDBRANCH  11  15
BRANCH  12  17
ATOM     17  C   UNL     1       5.625   3.620  -2.549  1.00  0.00     0.004 A 
ATOM     18  C   UNL     1       6.548   3.932  -3.582  1.00  0.00     0.014 A 
ATOM     19  C   UNL     1       5.354   4.590  -1.568  1.00  0.00     0.061 A 
ATOM     20  C   UNL     1       7.204   5.165  -3.633  1.00  0.00     0.051 A 
ATOM     21  C   UNL     1       6.029   5.795  -1.634  1.00  0.00     0.166 A 
ATOM     22  C   UNL     1       6.928   6.072  -2.637  1.00  0.00     0.165 A 
ATOM     23  O   UNL     1       5.913   6.824  -0.750  1.00  0.00    -0.454 OA
ATOM     24  O   UNL     1       7.486   7.305  -2.514  1.00  0.00    -0.454 OA
ATOM     25  C   UNL     1       6.862   7.764  -1.298  1.00  0.00     0.468 C 
ENDBRANCH  12  17
ENDBRANCH   8   9
ENDBRANCH   6   8
ENDBRANCH   4   6
ENDBRANCH   3   4
ENDBRANCH   2   3
ENDBRANCH   1   2
BRANCH   1  26
ATOM     26  O   UNL     1      -3.369   1.569   0.703  1.00  0.00    -0.374 OA
BRANCH  26  27
ATOM     27  C   UNL     1      -2.150   1.232   1.358  1.00  0.00     0.202 C 
BRANCH  27  28
ATOM     28  C   UNL     1      -2.081  -0.072   2.168  1.00  0.00     0.261 C 
BRANCH  28  29
ATOM     29  O   UNL     1      -2.274  -1.254   1.373  1.00  0.00    -0.460 OA
BRANCH  29  30
ATOM     30  C   UNL     1      -3.481  -1.849   1.540  1.00  0.00     0.338 C 
ATOM     31  O   UNL     1      -4.381  -1.506   2.287  1.00  0.00    -0.246 OA
BRANCH  30  32
ATOM     32  C   UNL     1      -3.657  -2.911   0.534  1.00  0.00     0.060 A 
ATOM     33  C   UNL     1      -4.765  -2.834  -0.323  1.00  0.00     0.016 A 
ATOM     34  C   UNL     1      -2.804  -4.012   0.502  1.00  0.00     0.016 A 
ATOM     35  C   UNL     1      -5.055  -3.889  -1.184  1.00  0.00     0.010 A 
ATOM     36  C   UNL     1      -3.101  -5.072  -0.355  1.00  0.00     0.010 A 
ATOM     37  C   UNL     1      -4.249  -5.032  -1.171  1.00  0.00    -0.014 A 
BRANCH  37  38
ATOM     38  C   UNL     1      -4.668  -6.262  -1.882  1.00  0.00     0.031 A 
ATOM     39  C   UNL     1      -5.198  -7.415  -1.079  1.00  0.00     0.074 A 
ATOM     40  C   UNL     1      -4.535  -6.369  -3.214  1.00  0.00     0.049 A 
ATOM     41  N   UNL     1      -5.465  -8.639  -1.457  1.00  0.00    -0.248 NA
ATOM     42  C   UNL     1      -5.443  -7.154   0.348  1.00  0.00     0.031 C 
ATOM     43  C   UNL     1      -4.083  -5.306  -4.108  1.00  0.00     0.029 A 
ATOM     44  N   UNL     1      -4.741  -7.446  -4.040  1.00  0.00    -0.354 N 
ATOM     45  C   UNL     1      -5.876  -9.303  -0.308  1.00  0.00     0.074 A 
ATOM     46  C   UNL     1      -5.798  -8.354   0.782  1.00  0.00     0.031 C 
ATOM     47  C   UNL     1      -4.022  -5.790  -5.359  1.00  0.00     0.029 A 
ATOM     48  C   UNL     1      -4.376  -7.208  -5.341  1.00  0.00     0.049 A 
ATOM     49  H   UNL     1      -5.114  -8.302  -3.729  1.00  0.00     0.167 HD
ATOM     50  C   UNL     1      -6.275 -10.591  -0.173  1.00  0.00     0.031 A 
ATOM     51  C   UNL     1      -4.292  -8.050  -6.389  1.00  0.00     0.031 A 
ATOM     52  C   UNL     1      -6.324 -11.533  -1.260  1.00  0.00     0.049 A 
ATOM     53  C   UNL     1      -4.657  -9.499  -6.205  1.00  0.00     0.074 A 
ATOM     54  C   UNL     1      -6.736 -12.853  -1.238  1.00  0.00     0.029 A 
ATOM     55  N   UNL     1      -5.931 -11.257  -2.562  1.00  0.00    -0.354 N 
ATOM     56  N   UNL     1      -5.061 -10.119  -5.123  1.00  0.00    -0.248 NA
ATOM     57  C   UNL     1      -4.561 -10.363  -7.391  1.00  0.00     0.031 C 
ATOM     58  C   UNL     1      -6.514 -13.399  -2.506  1.00  0.00     0.029 A 
ATOM     59  C   UNL     1      -6.056 -12.393  -3.343  1.00  0.00     0.049 A 
ATOM     60  H   UNL     1      -5.611 -10.383  -2.883  1.00  0.00     0.167 HD
ATOM     61  C   UNL     1      -5.307 -11.433  -5.504  1.00  0.00     0.074 A 
ATOM     62  C   UNL     1      -5.006 -11.520  -6.919  1.00  0.00     0.031 C 
ATOM     63  C   UNL     1      -5.755 -12.469  -4.752  1.00  0.00     0.031 A 
BRANCH  50  64
ATOM     64  C   UNL     1      -6.623 -11.065   1.213  1.00  0.00    -0.014 A 
ATOM     65  C   UNL     1      -7.730 -10.559   1.914  1.00  0.00     0.009 A 
ATOM     66  C   UNL     1      -5.821 -12.038   1.831  1.00  0.00     0.009 A 
ATOM     67  C   UNL     1      -7.990 -10.974   3.223  1.00  0.00     0.001 A 
ATOM     68  C   UNL     1      -6.107 -12.482   3.123  1.00  0.00     0.001 A 
ATOM     69  C   UNL     1      -7.181 -11.937   3.824  1.00  0.00     0.000 A 
ENDBRANCH  50  64
BRANCH  51  70
ATOM     70  C   UNL     1      -3.819  -7.538  -7.702  1.00  0.00    -0.014 A 
ATOM     71  C   UNL     1      -4.702  -7.426  -8.786  1.00  0.00     0.009 A 
ATOM     72  C   UNL     1      -2.486  -7.128  -7.868  1.00  0.00     0.009 A 
ATOM     73  C   UNL     1      -4.256  -6.929 -10.012  1.00  0.00     0.001 A 
ATOM     74  C   UNL     1      -2.051  -6.601  -9.085  1.00  0.00     0.001 A 
ATOM     75  C   UNL     1      -2.934  -6.508 -10.159  1.00  0.00     0.000 A 
ENDBRANCH  51  70
BRANCH  63  76
ATOM     76  C   UNL     1      -6.017 -13.779  -5.447  1.00  0.00    -0.014 A 
ATOM     77  C   UNL     1      -4.976 -14.590  -5.921  1.00  0.00     0.009 A 
ATOM     78  C   UNL     1      -7.340 -14.242  -5.556  1.00  0.00     0.009 A 
ATOM     79  C   UNL     1      -5.257 -15.825  -6.513  1.00  0.00     0.001 A 
ATOM     80  C   UNL     1      -7.615 -15.490  -6.115  1.00  0.00     0.001 A 
ATOM     81  C   UNL     1      -6.573 -16.277  -6.600  1.00  0.00     0.000 A 
ENDBRANCH  63  76
ENDBRANCH  37  38
ENDBRANCH  30  32
ENDBRANCH  29  30
ENDBRANCH  28  29
ENDBRANCH  27  28
ENDBRANCH  26  27
ENDBRANCH   1  26
TORSDOF 18
