REMARK SMILES NS(=O)(=O)c1ccc(-c2coc(=O)n2-c2ccc(C(=O)OCCOCCOC(=O)c3ccc(-c4c5nc(c(-c6ccccc6)c6ccc([nH]6)c(-c6ccccc6)c6nc(c(-c7ccccc7)c7ccc4[nH]7)C=C6)C=C5)cc3)cc2)cc1
REMARK SMILES IDX 23 1 22 2 21 3 19 4 20 5 18 6 15 7 16 8 79 9 17 10 78 11
REMARK SMILES IDX 14 12 9 13 10 14 11 15 12 16 13 17 8 18 5 19 6 20 81 21 7 22
REMARK SMILES IDX 80 23 2 24 3 25 4 26 1 27 24 30 25 31 26 32 27 33 28 34
REMARK SMILES IDX 29 35 30 36 31 37 77 38 32 39 76 40 33 41 34 42 35 43 70 44
REMARK SMILES IDX 36 45 75 46 69 47 71 48 37 49 74 50 68 51 67 52 38 54 60 55
REMARK SMILES IDX 45 56 59 57 46 58 49 59 58 60 72 61 47 62 48 63 57 65 73 66
REMARK SMILES IDX 50 67 39 68 40 69 44 70 41 71 43 72 42 73 61 74 62 75 66 76
REMARK SMILES IDX 63 77 65 78 64 79 51 80 52 81 56 82 53 83 55 84 54 85
REMARK H PARENT 1 28 1 29 71 53 49 64
REMARK Flexibility Score: inf
ROOT
ATOM      1  C   UNL     1       9.920   1.330   4.126  1.00  0.00     0.202 C 
ENDROOT
BRANCH   1   2
ATOM      2  C   UNL     1       8.694   1.028   3.262  1.00  0.00     0.261 C 
BRANCH   2   3
ATOM      3  O   UNL     1       7.700   2.062   3.325  1.00  0.00    -0.460 OA
BRANCH   3   4
ATOM      4  C   UNL     1       6.582   1.717   4.010  1.00  0.00     0.338 C 
ATOM      5  O   UNL     1       6.328   0.635   4.512  1.00  0.00    -0.246 OA
BRANCH   4   6
ATOM      6  C   UNL     1       5.730   2.902   4.226  1.00  0.00     0.060 A 
ATOM      7  C   UNL     1       3.815   4.880   4.644  1.00  0.00     0.053 A 
ATOM      8  C   UNL     1       4.225   4.083   5.716  1.00  0.00     0.028 A 
ATOM      9  C   UNL     1       4.451   4.756   3.397  1.00  0.00     0.028 A 
ATOM     10  C   UNL     1       5.155   3.069   5.495  1.00  0.00     0.018 A 
ATOM     11  C   UNL     1       5.429   3.784   3.190  1.00  0.00     0.018 A 
BRANCH   7  12
ATOM     12  N   UNL     1       2.662   5.678   4.769  1.00  0.00    -0.242 N 
ATOM     13  C   UNL     1       1.559   5.673   3.961  1.00  0.00     0.095 A 
ATOM     14  C   UNL     1       0.728   6.574   4.470  1.00  0.00     0.228 A 
ATOM     15  O   UNL     1       1.200   7.208   5.618  1.00  0.00    -0.415 OA
ATOM     16  C   UNL     1       2.430   6.576   5.808  1.00  0.00     0.424 A 
ATOM     17  O   UNL     1       3.164   6.834   6.753  1.00  0.00    -0.223 OA
BRANCH  13  18
ATOM     18  C   UNL     1       1.275   4.706   2.900  1.00  0.00     0.002 A 
ATOM     19  C   UNL     1       0.744   2.819   0.894  1.00  0.00     0.082 A 
ATOM     20  C   UNL     1       1.073   2.382   2.176  1.00  0.00     0.022 A 
ATOM     21  C   UNL     1       0.680   4.187   0.605  1.00  0.00     0.022 A 
ATOM     22  C   UNL     1       1.331   3.326   3.173  1.00  0.00     0.012 A 
ATOM     23  C   UNL     1       0.938   5.127   1.609  1.00  0.00     0.012 A 
BRANCH  19  24
ATOM     24  S   UNL     1       0.426   1.667  -0.409  1.00  0.00     0.238 S 
ATOM     25  O   UNL     1       1.181   2.085  -1.574  1.00  0.00    -0.207 OA
ATOM     26  O   UNL     1      -0.987   1.403  -0.446  1.00  0.00    -0.207 OA
BRANCH  24  27
ATOM     27  N   UNL     1       1.158   0.240   0.094  1.00  0.00    -0.225 NA
ATOM     28  H   UNL     1       1.018  -0.482  -0.613  1.00  0.00     0.137 HD
ATOM     29  H   UNL     1       0.744  -0.062   0.975  1.00  0.00     0.137 HD
ENDBRANCH  24  27
ENDBRANCH  19  24
ENDBRANCH  13  18
ENDBRANCH   7  12
ENDBRANCH   4   6
ENDBRANCH   3   4
ENDBRANCH   2   3
ENDBRANCH   1   2
BRANCH   1  30
ATOM     30  O   UNL     1       9.747   1.450   5.537  1.00  0.00    -0.374 OA
BRANCH  30  31
ATOM     31  C   UNL     1       9.032   2.555   6.076  1.00  0.00     0.202 C 
BRANCH  31  32
ATOM     32  C   UNL     1       9.656   3.939   5.993  1.00  0.00     0.261 C 
BRANCH  32  33
ATOM     33  O   UNL     1       9.934   4.336   4.659  1.00  0.00    -0.460 OA
BRANCH  33  34
ATOM     34  C   UNL     1      11.242   4.245   4.331  1.00  0.00     0.338 C 
ATOM     35  O   UNL     1      12.104   3.591   4.894  1.00  0.00    -0.246 OA
BRANCH  34  36
ATOM     36  C   UNL     1      11.526   5.225   3.280  1.00  0.00     0.060 A 
ATOM     37  C   UNL     1      12.861   5.340   2.891  1.00  0.00     0.016 A 
ATOM     38  C   UNL     1      10.568   6.200   2.963  1.00  0.00     0.016 A 
ATOM     39  C   UNL     1      13.286   6.548   2.392  1.00  0.00     0.010 A 
ATOM     40  C   UNL     1      10.997   7.411   2.478  1.00  0.00     0.010 A 
ATOM     41  C   UNL     1      12.361   7.595   2.288  1.00  0.00    -0.014 A 
BRANCH  41  42
ATOM     42  C   UNL     1      12.846   8.877   1.836  1.00  0.00     0.031 A 
ATOM     43  C   UNL     1      13.171   8.861   0.397  1.00  0.00     0.074 A 
ATOM     44  C   UNL     1      12.920   9.965   2.623  1.00  0.00     0.049 A 
ATOM     45  N   UNL     1      14.348   8.843  -0.128  1.00  0.00    -0.248 NA
ATOM     46  C   UNL     1      12.075   8.617  -0.555  1.00  0.00     0.031 C 
ATOM     47  C   UNL     1      12.384  10.163   3.972  1.00  0.00     0.029 A 
ATOM     48  N   UNL     1      13.429  11.186   2.319  1.00  0.00    -0.354 N 
ATOM     49  C   UNL     1      14.139   8.799  -1.498  1.00  0.00     0.074 A 
ATOM     50  C   UNL     1      12.754   8.453  -1.690  1.00  0.00     0.031 C 
ATOM     51  C   UNL     1      12.383  11.488   4.259  1.00  0.00     0.029 A 
ATOM     52  C   UNL     1      13.044  12.205   3.180  1.00  0.00     0.049 A 
ATOM     53  H   UNL     1      14.024  11.337   1.549  1.00  0.00     0.167 HD
ATOM     54  C   UNL     1      15.044   9.342  -2.355  1.00  0.00     0.031 A 
ATOM     55  C   UNL     1      13.212  13.536   2.968  1.00  0.00     0.031 A 
ATOM     56  C   UNL     1      16.310   9.578  -1.709  1.00  0.00     0.049 A 
ATOM     57  C   UNL     1      14.265  13.691   1.935  1.00  0.00     0.074 A 
ATOM     58  C   UNL     1      17.255   8.781  -1.094  1.00  0.00     0.029 A 
ATOM     59  N   UNL     1      16.549  10.861  -1.275  1.00  0.00    -0.354 N 
ATOM     60  N   UNL     1      15.515  13.392   2.141  1.00  0.00    -0.248 NA
ATOM     61  C   UNL     1      13.853  13.726   0.540  1.00  0.00     0.031 C 
ATOM     62  C   UNL     1      17.716   9.546   0.018  1.00  0.00     0.029 A 
ATOM     63  C   UNL     1      17.088  10.792  -0.018  1.00  0.00     0.049 A 
ATOM     64  H   UNL     1      16.366  11.685  -1.781  1.00  0.00     0.167 HD
ATOM     65  C   UNL     1      15.921  12.761   0.974  1.00  0.00     0.074 A 
ATOM     66  C   UNL     1      14.887  13.082  -0.010  1.00  0.00     0.031 C 
ATOM     67  C   UNL     1      16.895  11.803   0.999  1.00  0.00     0.031 A 
BRANCH  54  68
ATOM     68  C   UNL     1      14.634  10.082  -3.600  1.00  0.00    -0.014 A 
ATOM     69  C   UNL     1      15.641  10.588  -4.438  1.00  0.00     0.009 A 
ATOM     70  C   UNL     1      13.325  10.554  -3.824  1.00  0.00     0.009 A 
ATOM     71  C   UNL     1      15.361  11.570  -5.394  1.00  0.00     0.001 A 
ATOM     72  C   UNL     1      13.035  11.502  -4.805  1.00  0.00     0.001 A 
ATOM     73  C   UNL     1      14.061  12.033  -5.571  1.00  0.00     0.000 A 
ENDBRANCH  54  68
BRANCH  55  74
ATOM     74  C   UNL     1      12.325  14.661   3.342  1.00  0.00    -0.014 A 
ATOM     75  C   UNL     1      12.785  15.988   3.280  1.00  0.00     0.009 A 
ATOM     76  C   UNL     1      10.940  14.458   3.473  1.00  0.00     0.009 A 
ATOM     77  C   UNL     1      11.888  17.067   3.303  1.00  0.00     0.001 A 
ATOM     78  C   UNL     1      10.045  15.534   3.497  1.00  0.00     0.001 A 
ATOM     79  C   UNL     1      10.518  16.838   3.395  1.00  0.00     0.000 A 
ENDBRANCH  55  74
BRANCH  67  80
ATOM     80  C   UNL     1      17.686  11.635   2.273  1.00  0.00    -0.014 A 
ATOM     81  C   UNL     1      17.113  11.262   3.503  1.00  0.00     0.009 A 
ATOM     82  C   UNL     1      19.084  11.716   2.190  1.00  0.00     0.009 A 
ATOM     83  C   UNL     1      17.918  11.008   4.620  1.00  0.00     0.001 A 
ATOM     84  C   UNL     1      19.887  11.442   3.297  1.00  0.00     0.001 A 
ATOM     85  C   UNL     1      19.305  11.094   4.514  1.00  0.00     0.000 A 
ENDBRANCH  67  80
ENDBRANCH  41  42
ENDBRANCH  34  36
ENDBRANCH  33  34
ENDBRANCH  32  33
ENDBRANCH  31  32
ENDBRANCH  30  31
ENDBRANCH   1  30
TORSDOF 18
