REMARK SMILES O=C(CN1C(=O)/C(=C\c2cccs2)SC1=S)Nc1ccccc1C(=O)OCCOCCOC(=O)c1ccc(-c2c3nc(c(-c4ccccc4)c4ccc([nH]4)c(-c4ccccc4)c4nc(c(-c5ccccc5)c5ccc2[nH]5)C=C4)C=C3)cc1
REMARK SMILES IDX 28 1 27 2 26 3 24 4 25 5 23 6 18 7 19 8 20 9 22 10 21 11
REMARK SMILES IDX 17 12 1 13 2 14 3 16 4 17 5 18 15 19 6 20 7 21 14 22 16 23
REMARK SMILES IDX 8 24 9 25 10 26 13 27 11 28 12 29 29 30 30 31 31 32 32 33
REMARK SMILES IDX 33 34 34 35 35 36 36 37 82 38 37 39 81 40 38 41 39 42 40 43
REMARK SMILES IDX 75 44 41 45 80 46 74 47 76 48 42 49 79 50 73 51 72 52 43 54
REMARK SMILES IDX 65 55 50 56 64 57 51 58 54 59 63 60 77 61 52 62 53 63 62 65
REMARK SMILES IDX 78 66 55 67 44 68 45 69 49 70 46 71 48 72 47 73 66 74 67 75
REMARK SMILES IDX 71 76 68 77 70 78 69 79 56 80 57 81 61 82 58 83 60 84 59 85
REMARK H PARENT 17 15 76 53 54 64
REMARK Flexibility Score: inf
ROOT
ATOM      1  C   UNL     1       0.126   3.834  -0.088  1.00  0.00     0.202 C 
ENDROOT
BRANCH   1   2
ATOM      2  C   UNL     1      -0.331   2.375  -0.024  1.00  0.00     0.261 C 
BRANCH   2   3
ATOM      3  O   UNL     1       0.503   1.538  -0.841  1.00  0.00    -0.460 OA
BRANCH   3   4
ATOM      4  C   UNL     1      -0.163   0.669  -1.649  1.00  0.00     0.340 C 
ATOM      5  O   UNL     1      -1.376   0.550  -1.736  1.00  0.00    -0.246 OA
BRANCH   4   6
ATOM      6  C   UNL     1       0.777   0.033  -2.608  1.00  0.00     0.083 A 
ATOM      7  C   UNL     1       2.089  -0.401  -2.327  1.00  0.00     0.055 A 
ATOM      8  C   UNL     1       2.898  -0.818  -3.400  1.00  0.00     0.027 A 
ATOM      9  C   UNL     1       2.404  -0.862  -4.709  1.00  0.00     0.002 A 
ATOM     10  C   UNL     1       0.297  -0.008  -3.934  1.00  0.00     0.018 A 
ATOM     11  C   UNL     1       1.102  -0.460  -4.977  1.00  0.00     0.001 A 
BRANCH   7  12
ATOM     12  N   UNL     1       2.692  -0.465  -1.044  1.00  0.00    -0.324 N 
ATOM     13  O   UNL     1       0.842  -1.085   0.191  1.00  0.00    -0.273 OA
ATOM     14  C   UNL     1       2.007  -0.702   0.133  1.00  0.00     0.244 C 
ATOM     15  H   UNL     1       3.666  -0.331  -0.988  1.00  0.00     0.170 HD
BRANCH  14  16
ATOM     16  C   UNL     1       2.812  -0.475   1.409  1.00  0.00     0.227 C 
BRANCH  16  17
ATOM     17  N   UNL     1       3.845  -1.491   1.608  1.00  0.00    -0.283 N 
ATOM     18  C   UNL     1       5.175  -1.125   1.495  1.00  0.00     0.266 C 
ATOM     19  C   UNL     1       3.593  -2.795   1.981  1.00  0.00     0.148 C 
ATOM     20  O   UNL     1       5.569  -0.055   1.056  1.00  0.00    -0.268 OA
ATOM     21  C   UNL     1       6.053  -2.248   1.931  1.00  0.00     0.081 C 
ATOM     22  S   UNL     1       5.108  -3.687   2.048  1.00  0.00    -0.054 SA
ATOM     23  S   UNL     1       2.138  -3.515   2.347  1.00  0.00    -0.052 S 
ATOM     24  C   UNL     1       7.345  -2.221   2.283  1.00  0.00     0.040 C 
BRANCH  24  25
ATOM     25  C   UNL     1       8.092  -1.027   2.453  1.00  0.00     0.028 A 
ATOM     26  C   UNL     1       7.932  -0.038   3.409  1.00  0.00     0.020 A 
ATOM     27  S   UNL     1       9.470  -0.717   1.478  1.00  0.00    -0.144 S 
ATOM     28  C   UNL     1       8.936   0.970   3.338  1.00  0.00     0.012 A 
ATOM     29  C   UNL     1       9.832   0.726   2.323  1.00  0.00     0.065 A 
ENDBRANCH  24  25
ENDBRANCH  16  17
ENDBRANCH  14  16
ENDBRANCH   7  12
ENDBRANCH   4   6
ENDBRANCH   3   4
ENDBRANCH   2   3
ENDBRANCH   1   2
BRANCH   1  30
ATOM     30  O   UNL     1      -0.001   4.488  -1.349  1.00  0.00    -0.374 OA
BRANCH  30  31
ATOM     31  C   UNL     1       0.844   4.055  -2.413  1.00  0.00     0.202 C 
BRANCH  31  32
ATOM     32  C   UNL     1       2.315   4.487  -2.352  1.00  0.00     0.261 C 
BRANCH  32  33
ATOM     33  O   UNL     1       3.012   4.022  -1.181  1.00  0.00    -0.460 OA
BRANCH  33  34
ATOM     34  C   UNL     1       3.340   4.996  -0.300  1.00  0.00     0.338 C 
ATOM     35  O   UNL     1       3.116   6.196  -0.397  1.00  0.00    -0.246 OA
BRANCH  34  36
ATOM     36  C   UNL     1       3.929   4.419   0.919  1.00  0.00     0.060 A 
ATOM     37  C   UNL     1       3.306   4.694   2.143  1.00  0.00     0.016 A 
ATOM     38  C   UNL     1       5.148   3.739   0.880  1.00  0.00     0.016 A 
ATOM     39  C   UNL     1       3.926   4.334   3.337  1.00  0.00     0.010 A 
ATOM     40  C   UNL     1       5.772   3.385   2.081  1.00  0.00     0.010 A 
ATOM     41  C   UNL     1       5.183   3.714   3.314  1.00  0.00    -0.014 A 
BRANCH  41  42
ATOM     42  C   UNL     1       5.930   3.523   4.580  1.00  0.00     0.031 A 
ATOM     43  C   UNL     1       6.989   4.518   4.973  1.00  0.00     0.074 A 
ATOM     44  C   UNL     1       5.651   2.485   5.387  1.00  0.00     0.049 A 
ATOM     45  N   UNL     1       7.763   4.527   6.029  1.00  0.00    -0.248 NA
ATOM     46  C   UNL     1       7.204   5.649   4.057  1.00  0.00     0.031 C 
ATOM     47  C   UNL     1       4.621   1.476   5.142  1.00  0.00     0.029 A 
ATOM     48  N   UNL     1       6.217   2.109   6.579  1.00  0.00    -0.354 N 
ATOM     49  C   UNL     1       8.554   5.664   5.907  1.00  0.00     0.074 A 
ATOM     50  C   UNL     1       8.189   6.300   4.659  1.00  0.00     0.031 C 
ATOM     51  C   UNL     1       4.633   0.590   6.153  1.00  0.00     0.029 A 
ATOM     52  C   UNL     1       5.686   0.956   7.099  1.00  0.00     0.049 A 
ATOM     53  H   UNL     1       6.936   2.618   7.018  1.00  0.00     0.167 HD
ATOM     54  C   UNL     1       9.494   6.141   6.758  1.00  0.00     0.031 A 
ATOM     55  C   UNL     1       6.020   0.267   8.207  1.00  0.00     0.031 A 
ATOM     56  C   UNL     1       9.865   5.511   7.997  1.00  0.00     0.049 A 
ATOM     57  C   UNL     1       7.117   0.779   9.101  1.00  0.00     0.074 A 
ATOM     58  C   UNL     1      10.794   5.931   8.934  1.00  0.00     0.029 A 
ATOM     59  N   UNL     1       9.330   4.324   8.469  1.00  0.00    -0.354 N 
ATOM     60  N   UNL     1       7.838   1.867   8.984  1.00  0.00    -0.248 NA
ATOM     61  C   UNL     1       7.438  -0.032  10.285  1.00  0.00     0.031 C 
ATOM     62  C   UNL     1      10.859   4.969   9.947  1.00  0.00     0.029 A 
ATOM     63  C   UNL     1       9.932   3.978   9.667  1.00  0.00     0.049 A 
ATOM     64  H   UNL     1       8.626   3.802   8.019  1.00  0.00     0.167 HD
ATOM     65  C   UNL     1       8.678   1.886  10.091  1.00  0.00     0.074 A 
ATOM     66  C   UNL     1       8.369   0.707  10.873  1.00  0.00     0.031 C 
ATOM     67  C   UNL     1       9.619   2.799  10.432  1.00  0.00     0.031 A 
BRANCH  54  68
ATOM     68  C   UNL     1      10.216   7.397   6.359  1.00  0.00    -0.014 A 
ATOM     69  C   UNL     1       9.586   8.650   6.414  1.00  0.00     0.009 A 
ATOM     70  C   UNL     1      11.561   7.329   5.964  1.00  0.00     0.009 A 
ATOM     71  C   UNL     1      10.281   9.806   6.051  1.00  0.00     0.001 A 
ATOM     72  C   UNL     1      12.260   8.489   5.626  1.00  0.00     0.001 A 
ATOM     73  C   UNL     1      11.618   9.725   5.662  1.00  0.00     0.000 A 
ENDBRANCH  54  68
BRANCH  55  74
ATOM     74  C   UNL     1       5.316  -1.000   8.528  1.00  0.00    -0.014 A 
ATOM     75  C   UNL     1       4.434  -1.075   9.616  1.00  0.00     0.009 A 
ATOM     76  C   UNL     1       5.538  -2.149   7.751  1.00  0.00     0.009 A 
ATOM     77  C   UNL     1       3.805  -2.281   9.933  1.00  0.00     0.001 A 
ATOM     78  C   UNL     1       4.886  -3.345   8.053  1.00  0.00     0.001 A 
ATOM     79  C   UNL     1       4.028  -3.413   9.149  1.00  0.00     0.000 A 
ENDBRANCH  55  74
BRANCH  67  80
ATOM     80  C   UNL     1      10.366   2.575  11.717  1.00  0.00    -0.014 A 
ATOM     81  C   UNL     1      11.344   1.575  11.825  1.00  0.00     0.009 A 
ATOM     82  C   UNL     1      10.114   3.403  12.822  1.00  0.00     0.009 A 
ATOM     83  C   UNL     1      12.033   1.389  13.025  1.00  0.00     0.001 A 
ATOM     84  C   UNL     1      10.823   3.232  14.012  1.00  0.00     0.001 A 
ATOM     85  C   UNL     1      11.775   2.219  14.116  1.00  0.00     0.000 A 
ENDBRANCH  67  80
ENDBRANCH  41  42
ENDBRANCH  34  36
ENDBRANCH  33  34
ENDBRANCH  32  33
ENDBRANCH  31  32
ENDBRANCH  30  31
ENDBRANCH   1  30
TORSDOF 18
