REMARK SMILES [NH3+][C@H](CO)c1ccc(Cl)c(C(=O)OCCOCCOC(=O)c2ccc(-c3c4nc(c(-c5ccccc5)c5ccc([nH]5)c(-c5ccccc5)c5nc(c(-c6ccccc6)c6ccc3[nH]6)C=C5)C=C4)cc2)c1
REMARK SMILES IDX 15 1 14 2 13 3 11 4 12 5 10 6 5 7 6 8 70 9 7 10 8 11 9 12
REMARK SMILES IDX 2 13 1 14 3 18 4 19 16 21 17 22 18 23 19 24 20 25 21 26
REMARK SMILES IDX 22 27 23 28 69 29 24 30 68 31 25 32 26 33 27 34 62 35 28 36
REMARK SMILES IDX 67 37 61 38 63 39 29 40 66 41 60 42 59 43 30 45 52 46 37 47
REMARK SMILES IDX 51 48 38 49 41 50 50 51 64 52 39 53 40 54 49 56 65 57 42 58
REMARK SMILES IDX 31 59 32 60 36 61 33 62 35 63 34 64 53 65 54 66 58 67 55 68
REMARK SMILES IDX 57 69 56 70 43 71 44 72 48 73 45 74 47 75 46 76
REMARK H PARENT 1 15 1 16 1 17 4 20 63 44 41 55
REMARK Flexibility Score: inf
ROOT
ATOM      1  C   UNL     1      -5.286  -5.635   0.304  1.00  0.00     0.202 C 
ENDROOT
BRANCH   1   2
ATOM      2  C   UNL     1      -5.145  -4.981   1.680  1.00  0.00     0.261 C 
BRANCH   2   3
ATOM      3  O   UNL     1      -4.723  -3.615   1.531  1.00  0.00    -0.460 OA
BRANCH   3   4
ATOM      4  C   UNL     1      -3.672  -3.238   2.292  1.00  0.00     0.339 C 
ATOM      5  O   UNL     1      -3.136  -3.894   3.174  1.00  0.00    -0.246 OA
BRANCH   4   6
ATOM      6  C   UNL     1      -3.090  -1.986   1.769  1.00  0.00     0.079 A 
ATOM      7  C   UNL     1      -1.014  -0.853   1.094  1.00  0.00     0.012 A 
ATOM      8  C   UNL     1      -1.764   0.304   0.848  1.00  0.00     0.011 A 
ATOM      9  C   UNL     1      -1.698  -1.987   1.572  1.00  0.00     0.027 A 
ATOM     10  C   UNL     1      -3.154   0.307   1.027  1.00  0.00     0.022 A 
ATOM     11  C   UNL     1      -3.824  -0.834   1.485  1.00  0.00     0.055 A 
ATOM     12  Cl  UNL     1      -5.529  -0.712   1.726  1.00  0.00    -0.083 Cl
BRANCH   7  13
ATOM     13  C   UNL     1       0.500  -0.926   0.961  1.00  0.00     0.237 C 
BRANCH  13  14
ATOM     14  N   UNL     1       1.107  -0.727   2.285  1.00  0.00    -0.349 N 
ATOM     15  H   UNL     1       0.648  -1.334   2.964  1.00  0.00     0.345 HD
ATOM     16  H   UNL     1       0.992   0.247   2.568  1.00  0.00     0.345 HD
ATOM     17  H   UNL     1       2.100  -0.954   2.241  1.00  0.00     0.345 HD
ENDBRANCH  13  14
BRANCH  13  18
ATOM     18  C   UNL     1       1.148  -0.030  -0.135  1.00  0.00     0.226 C 
BRANCH  18  19
ATOM     19  O   UNL     1       2.166   0.825   0.399  1.00  0.00    -0.390 OA
ATOM     20  H   UNL     1       1.775   1.419   1.059  1.00  0.00     0.210 HD
ENDBRANCH  18  19
ENDBRANCH  13  18
ENDBRANCH   7  13
ENDBRANCH   4   6
ENDBRANCH   3   4
ENDBRANCH   2   3
ENDBRANCH   1   2
BRANCH   1  21
ATOM     21  O   UNL     1      -4.061  -5.833  -0.406  1.00  0.00    -0.374 OA
BRANCH  21  22
ATOM     22  C   UNL     1      -3.487  -4.691  -1.042  1.00  0.00     0.202 C 
BRANCH  22  23
ATOM     23  C   UNL     1      -4.088  -4.309  -2.399  1.00  0.00     0.261 C 
BRANCH  23  24
ATOM     24  O   UNL     1      -5.451  -3.861  -2.285  1.00  0.00    -0.460 OA
BRANCH  24  25
ATOM     25  C   UNL     1      -6.374  -4.714  -2.786  1.00  0.00     0.338 C 
ATOM     26  O   UNL     1      -6.170  -5.764  -3.378  1.00  0.00    -0.246 OA
BRANCH  25  27
ATOM     27  C   UNL     1      -7.728  -4.292  -2.383  1.00  0.00     0.060 A 
ATOM     28  C   UNL     1      -8.549  -5.248  -1.771  1.00  0.00     0.016 A 
ATOM     29  C   UNL     1      -8.216  -3.015  -2.667  1.00  0.00     0.016 A 
ATOM     30  C   UNL     1      -9.878  -4.945  -1.483  1.00  0.00     0.010 A 
ATOM     31  C   UNL     1      -9.554  -2.716  -2.385  1.00  0.00     0.010 A 
ATOM     32  C   UNL     1     -10.399  -3.689  -1.822  1.00  0.00    -0.014 A 
BRANCH  32  33
ATOM     33  C   UNL     1     -11.858  -3.446  -1.710  1.00  0.00     0.031 A 
ATOM     34  C   UNL     1     -12.716  -3.555  -2.940  1.00  0.00     0.074 A 
ATOM     35  C   UNL     1     -12.418  -3.157  -0.522  1.00  0.00     0.049 A 
ATOM     36  N   UNL     1     -14.004  -3.362  -3.072  1.00  0.00    -0.248 NA
ATOM     37  C   UNL     1     -12.033  -3.932  -4.188  1.00  0.00     0.031 C 
ATOM     38  C   UNL     1     -11.704  -3.065   0.751  1.00  0.00     0.029 A 
ATOM     39  N   UNL     1     -13.724  -2.886  -0.198  1.00  0.00    -0.354 N 
ATOM     40  C   UNL     1     -14.284  -3.586  -4.414  1.00  0.00     0.074 A 
ATOM     41  C   UNL     1     -13.029  -3.905  -5.061  1.00  0.00     0.031 C 
ATOM     42  C   UNL     1     -12.583  -2.753   1.720  1.00  0.00     0.029 A 
ATOM     43  C   UNL     1     -13.910  -2.593   1.131  1.00  0.00     0.049 A 
ATOM     44  H   UNL     1     -14.456  -2.901  -0.855  1.00  0.00     0.167 HD
ATOM     45  C   UNL     1     -15.478  -3.536  -5.051  1.00  0.00     0.031 A 
ATOM     46  C   UNL     1     -15.023  -2.220   1.792  1.00  0.00     0.031 A 
ATOM     47  C   UNL     1     -16.726  -3.212  -4.414  1.00  0.00     0.049 A 
ATOM     48  C   UNL     1     -16.324  -2.097   1.044  1.00  0.00     0.074 A 
ATOM     49  C   UNL     1     -17.990  -3.156  -4.974  1.00  0.00     0.029 A 
ATOM     50  N   UNL     1     -16.865  -2.884  -3.075  1.00  0.00    -0.354 N 
ATOM     51  N   UNL     1     -16.579  -2.340  -0.219  1.00  0.00    -0.248 NA
ATOM     52  C   UNL     1     -17.493  -1.653   1.818  1.00  0.00     0.031 C 
ATOM     53  C   UNL     1     -18.888  -2.742  -3.985  1.00  0.00     0.029 A 
ATOM     54  C   UNL     1     -18.191  -2.596  -2.797  1.00  0.00     0.049 A 
ATOM     55  H   UNL     1     -16.131  -2.859  -2.420  1.00  0.00     0.167 HD
ATOM     56  C   UNL     1     -17.939  -2.109  -0.382  1.00  0.00     0.074 A 
ATOM     57  C   UNL     1     -18.458  -1.718   0.912  1.00  0.00     0.031 C 
ATOM     58  C   UNL     1     -18.693  -2.213  -1.504  1.00  0.00     0.031 A 
BRANCH  45  59
ATOM     59  C   UNL     1     -15.487  -3.809  -6.529  1.00  0.00    -0.014 A 
ATOM     60  C   UNL     1     -15.313  -5.107  -7.031  1.00  0.00     0.009 A 
ATOM     61  C   UNL     1     -15.721  -2.756  -7.428  1.00  0.00     0.009 A 
ATOM     62  C   UNL     1     -15.347  -5.342  -8.408  1.00  0.00     0.001 A 
ATOM     63  C   UNL     1     -15.779  -2.998  -8.801  1.00  0.00     0.001 A 
ATOM     64  C   UNL     1     -15.585  -4.288  -9.290  1.00  0.00     0.000 A 
ENDBRANCH  45  59
BRANCH  46  65
ATOM     65  C   UNL     1     -14.961  -1.909   3.244  1.00  0.00    -0.014 A 
ATOM     66  C   UNL     1     -15.585  -2.744   4.183  1.00  0.00     0.009 A 
ATOM     67  C   UNL     1     -14.305  -0.752   3.694  1.00  0.00     0.009 A 
ATOM     68  C   UNL     1     -15.578  -2.412   5.540  1.00  0.00     0.001 A 
ATOM     69  C   UNL     1     -14.275  -0.438   5.054  1.00  0.00     0.001 A 
ATOM     70  C   UNL     1     -14.921  -1.262   5.974  1.00  0.00     0.000 A 
ENDBRANCH  46  65
BRANCH  58  71
ATOM     71  C   UNL     1     -20.165  -1.940  -1.375  1.00  0.00    -0.014 A 
ATOM     72  C   UNL     1     -20.654  -0.636  -1.205  1.00  0.00     0.009 A 
ATOM     73  C   UNL     1     -21.078  -3.003  -1.467  1.00  0.00     0.009 A 
ATOM     74  C   UNL     1     -22.027  -0.406  -1.099  1.00  0.00     0.001 A 
ATOM     75  C   UNL     1     -22.451  -2.767  -1.388  1.00  0.00     0.001 A 
ATOM     76  C   UNL     1     -22.924  -1.470  -1.195  1.00  0.00     0.000 A 
ENDBRANCH  58  71
ENDBRANCH  32  33
ENDBRANCH  25  27
ENDBRANCH  24  25
ENDBRANCH  23  24
ENDBRANCH  22  23
ENDBRANCH  21  22
ENDBRANCH   1  21
TORSDOF 18
