REMARK SMILES CO[C@H]1C[C@H](C(=O)OCCOCCOC(=O)c2ccc(-c3c4nc(c(-c5ccccc5)c5ccc([nH]5)c(-c5ccccc5)c5nc(c(-c6ccccc6)c6ccc3[nH]6)C=C5)C=C4)cc2)N(C(=O)c2cc(Cl)c(Cl)n2C)C1
REMARK SMILES IDX 11 1 10 2 9 3 8 4 6 5 7 6 5 7 3 8 4 9 76 10 65 11 2 12 1 13
REMARK SMILES IDX 66 14 67 15 68 16 69 17 74 18 70 19 72 20 75 21 71 22 73 23
REMARK SMILES IDX 12 24 13 25 14 26 15 27 16 28 17 29 18 30 64 31 19 32 63 33
REMARK SMILES IDX 20 34 21 35 22 36 57 37 23 38 62 39 56 40 58 41 24 42 61 43
REMARK SMILES IDX 55 44 54 45 25 47 47 48 32 49 46 50 33 51 36 52 45 53 59 54
REMARK SMILES IDX 34 55 35 56 44 58 60 59 37 60 26 61 27 62 31 63 28 64 30 65
REMARK SMILES IDX 29 66 48 67 49 68 53 69 50 70 52 71 51 72 38 73 39 74 43 75
REMARK SMILES IDX 40 76 42 77 41 78
REMARK H PARENT 58 46 36 57
REMARK Flexibility Score: inf
ROOT
ATOM      1  O   UNL     1       0.545   1.180   3.514  1.00  0.00    -0.374 OA
ENDROOT
BRANCH   1   2
ATOM      2  C   UNL     1      -0.691   0.699   2.993  1.00  0.00     0.202 C 
BRANCH   2   3
ATOM      3  C   UNL     1      -1.316   1.522   1.866  1.00  0.00     0.261 C 
BRANCH   3   4
ATOM      4  O   UNL     1      -0.398   1.716   0.778  1.00  0.00    -0.462 OA
BRANCH   4   5
ATOM      5  C   UNL     1      -0.149   3.017   0.472  1.00  0.00     0.329 C 
ATOM      6  O   UNL     1      -0.764   3.965   0.950  1.00  0.00    -0.250 OA
BRANCH   5   7
ATOM      7  C   UNL     1       0.983   3.195  -0.555  1.00  0.00     0.198 C 
ATOM      8  C   UNL     1       0.752   1.618  -2.393  1.00  0.00     0.140 C 
ATOM      9  C   UNL     1       1.607   1.948  -1.163  1.00  0.00     0.071 C 
ATOM     10  C   UNL     1      -0.010   2.918  -2.707  1.00  0.00     0.153 C 
ATOM     11  N   UNL     1       0.423   3.881  -1.711  1.00  0.00    -0.321 N 
BRANCH   8  12
ATOM     12  O   UNL     1       1.535   1.255  -3.532  1.00  0.00    -0.380 OA
ATOM     13  C   UNL     1       2.429   0.171  -3.325  1.00  0.00     0.195 C 
ENDBRANCH   8  12
BRANCH  11  14
ATOM     14  C   UNL     1       0.105   5.222  -1.812  1.00  0.00     0.271 C 
ATOM     15  O   UNL     1      -0.631   5.639  -2.702  1.00  0.00    -0.267 OA
BRANCH  14  16
ATOM     16  C   UNL     1       0.659   6.102  -0.803  1.00  0.00     0.109 A 
ATOM     17  C   UNL     1       1.997   6.342  -0.510  1.00  0.00     0.055 A 
ATOM     18  N   UNL     1      -0.088   6.902   0.048  1.00  0.00    -0.329 N 
ATOM     19  C   UNL     1       2.058   7.270   0.553  1.00  0.00     0.078 A 
ATOM     20  C   UNL     1       0.765   7.599   0.864  1.00  0.00     0.128 A 
ATOM     21  C   UNL     1      -1.536   6.934   0.107  1.00  0.00     0.151 C 
ATOM     22  Cl  UNL     1       3.493   7.830   1.263  1.00  0.00    -0.081 Cl
ATOM     23  Cl  UNL     1       0.158   8.679   2.039  1.00  0.00    -0.063 Cl
ENDBRANCH  14  16
ENDBRANCH  11  14
ENDBRANCH   5   7
ENDBRANCH   4   5
ENDBRANCH   3   4
ENDBRANCH   2   3
ENDBRANCH   1   2
BRANCH   1  24
ATOM     24  C   UNL     1       1.728   0.990   2.735  1.00  0.00     0.202 C 
BRANCH  24  25
ATOM     25  C   UNL     1       2.196  -0.455   2.522  1.00  0.00     0.261 C 
BRANCH  25  26
ATOM     26  O   UNL     1       1.314  -1.192   1.651  1.00  0.00    -0.460 OA
BRANCH  26  27
ATOM     27  C   UNL     1       0.787  -2.313   2.202  1.00  0.00     0.338 C 
ATOM     28  O   UNL     1       1.031  -2.781   3.305  1.00  0.00    -0.246 OA
BRANCH  27  29
ATOM     29  C   UNL     1      -0.294  -2.848   1.357  1.00  0.00     0.060 A 
ATOM     30  C   UNL     1      -1.552  -3.030   1.948  1.00  0.00     0.016 A 
ATOM     31  C   UNL     1      -0.051  -3.289   0.055  1.00  0.00     0.016 A 
ATOM     32  C   UNL     1      -2.555  -3.711   1.261  1.00  0.00     0.010 A 
ATOM     33  C   UNL     1      -1.055  -3.983  -0.628  1.00  0.00     0.010 A 
ATOM     34  C   UNL     1      -2.294  -4.235  -0.011  1.00  0.00    -0.014 A 
BRANCH  34  35
ATOM     35  C   UNL     1      -3.240  -5.207  -0.609  1.00  0.00     0.031 A 
ATOM     36  C   UNL     1      -2.976  -6.678  -0.427  1.00  0.00     0.074 A 
ATOM     37  C   UNL     1      -4.335  -4.799  -1.272  1.00  0.00     0.049 A 
ATOM     38  N   UNL     1      -3.639  -7.705  -0.895  1.00  0.00    -0.248 NA
ATOM     39  C   UNL     1      -1.810  -7.037   0.398  1.00  0.00     0.031 C 
ATOM     40  C   UNL     1      -4.744  -3.408  -1.459  1.00  0.00     0.029 A 
ATOM     41  N   UNL     1      -5.304  -5.527  -1.914  1.00  0.00    -0.354 N 
ATOM     42  C   UNL     1      -2.969  -8.829  -0.427  1.00  0.00     0.074 A 
ATOM     43  C   UNL     1      -1.836  -8.360   0.341  1.00  0.00     0.031 C 
ATOM     44  C   UNL     1      -5.883  -3.384  -2.173  1.00  0.00     0.029 A 
ATOM     45  C   UNL     1      -6.261  -4.752  -2.522  1.00  0.00     0.049 A 
ATOM     46  H   UNL     1      -5.313  -6.511  -1.937  1.00  0.00     0.167 HD
ATOM     47  C   UNL     1      -3.269 -10.136  -0.616  1.00  0.00     0.031 A 
ATOM     48  C   UNL     1      -7.310  -5.108  -3.288  1.00  0.00     0.031 A 
ATOM     49  C   UNL     1      -4.381 -10.609  -1.392  1.00  0.00     0.049 A 
ATOM     50  C   UNL     1      -7.564  -6.564  -3.570  1.00  0.00     0.074 A 
ATOM     51  C   UNL     1      -4.761 -11.914  -1.651  1.00  0.00     0.029 A 
ATOM     52  N   UNL     1      -5.292  -9.789  -2.040  1.00  0.00    -0.354 N 
ATOM     53  N   UNL     1      -6.920  -7.617  -3.129  1.00  0.00    -0.248 NA
ATOM     54  C   UNL     1      -8.693  -6.879  -4.459  1.00  0.00     0.031 C 
ATOM     55  C   UNL     1      -5.879 -11.884  -2.492  1.00  0.00     0.029 A 
ATOM     56  C   UNL     1      -6.221 -10.560  -2.715  1.00  0.00     0.049 A 
ATOM     57  H   UNL     1      -5.279  -8.805  -2.022  1.00  0.00     0.167 HD
ATOM     58  C   UNL     1      -7.584  -8.718  -3.658  1.00  0.00     0.074 A 
ATOM     59  C   UNL     1      -8.681  -8.205  -4.452  1.00  0.00     0.031 C 
ATOM     60  C   UNL     1      -7.312 -10.035  -3.494  1.00  0.00     0.031 A 
BRANCH  47  61
ATOM     61  C   UNL     1      -2.347 -11.145   0.005  1.00  0.00    -0.014 A 
ATOM     62  C   UNL     1      -2.352 -11.380   1.389  1.00  0.00     0.009 A 
ATOM     63  C   UNL     1      -1.468 -11.877  -0.807  1.00  0.00     0.009 A 
ATOM     64  C   UNL     1      -1.470 -12.305   1.951  1.00  0.00     0.001 A 
ATOM     65  C   UNL     1      -0.604 -12.818  -0.245  1.00  0.00     0.001 A 
ATOM     66  C   UNL     1      -0.598 -13.024   1.133  1.00  0.00     0.000 A 
ENDBRANCH  47  61
BRANCH  48  67
ATOM     67  C   UNL     1      -8.198  -4.065  -3.861  1.00  0.00    -0.014 A 
ATOM     68  C   UNL     1      -9.504  -3.898  -3.378  1.00  0.00     0.009 A 
ATOM     69  C   UNL     1      -7.748  -3.242  -4.905  1.00  0.00     0.009 A 
ATOM     70  C   UNL     1     -10.348  -2.938  -3.942  1.00  0.00     0.001 A 
ATOM     71  C   UNL     1      -8.586  -2.268  -5.450  1.00  0.00     0.001 A 
ATOM     72  C   UNL     1      -9.887  -2.122  -4.974  1.00  0.00     0.000 A 
ENDBRANCH  48  67
BRANCH  60  73
ATOM     73  C   UNL     1      -8.241 -11.019  -4.144  1.00  0.00    -0.014 A 
ATOM     74  C   UNL     1      -8.191 -11.268  -5.523  1.00  0.00     0.009 A 
ATOM     75  C   UNL     1      -9.141 -11.748  -3.350  1.00  0.00     0.009 A 
ATOM     76  C   UNL     1      -9.041 -12.215  -6.099  1.00  0.00     0.001 A 
ATOM     77  C   UNL     1      -9.974 -12.709  -3.925  1.00  0.00     0.001 A 
ATOM     78  C   UNL     1      -9.927 -12.937  -5.299  1.00  0.00     0.000 A 
ENDBRANCH  60  73
ENDBRANCH  34  35
ENDBRANCH  27  29
ENDBRANCH  26  27
ENDBRANCH  25  26
ENDBRANCH  24  25
ENDBRANCH   1  24
TORSDOF 17
