REMARK SMILES Cc1cc(CNS(=O)(=O)c2ccc(C(=O)OCCOCCOC(=O)c3ccc(-c4c5nc(c(-c6ccccc6)c6ccc([nH]6)c(-c6ccccc6)c6nc(c(-c7ccccc7)c7ccc4[nH]7)C=C6)C=C5)cc3)cc2F)no1
REMARK SMILES IDX 18 1 17 2 16 3 14 4 15 5 13 6 10 7 11 8 74 9 12 10 73 11
REMARK SMILES IDX 75 12 7 13 8 14 9 15 6 16 5 18 4 19 1 20 2 21 3 22 77 23
REMARK SMILES IDX 76 24 19 25 20 26 21 27 22 28 23 29 24 30 25 31 26 32 72 33
REMARK SMILES IDX 27 34 71 35 28 36 29 37 30 38 65 39 31 40 70 41 64 42 66 43
REMARK SMILES IDX 32 44 69 45 63 46 62 47 33 49 55 50 40 51 54 52 41 53 44 54
REMARK SMILES IDX 53 55 67 56 42 57 43 58 52 60 68 61 45 62 34 63 35 64 39 65
REMARK SMILES IDX 36 66 38 67 37 68 56 69 57 70 61 71 58 72 60 73 59 74 46 75
REMARK SMILES IDX 47 76 51 77 48 78 50 79 49 80
REMARK H PARENT 6 17 66 48 44 59
REMARK Flexibility Score: inf
ROOT
ATOM      1  C   UNL     1      -8.961  -0.087  -5.942  1.00  0.00     0.202 C 
ENDROOT
BRANCH   1   2
ATOM      2  C   UNL     1      -9.717   0.152  -4.632  1.00  0.00     0.261 C 
BRANCH   2   3
ATOM      3  O   UNL     1      -8.829   0.041  -3.502  1.00  0.00    -0.460 OA
BRANCH   3   4
ATOM      4  C   UNL     1      -9.073  -1.015  -2.691  1.00  0.00     0.338 C 
ATOM      5  O   UNL     1     -10.025  -1.775  -2.741  1.00  0.00    -0.246 OA
BRANCH   4   6
ATOM      6  C   UNL     1      -7.925  -1.248  -1.782  1.00  0.00     0.063 A 
ATOM      7  C   UNL     1      -5.888  -1.841   0.032  1.00  0.00     0.118 A 
ATOM      8  C   UNL     1      -6.605  -2.883  -0.565  1.00  0.00     0.026 A 
ATOM      9  C   UNL     1      -6.159  -0.520  -0.307  1.00  0.00     0.144 A 
ATOM     10  C   UNL     1      -7.628  -2.582  -1.465  1.00  0.00     0.017 A 
ATOM     11  C   UNL     1      -7.168  -0.212  -1.224  1.00  0.00     0.056 A 
ATOM     12  F   UNL     1      -5.471   0.486   0.250  1.00  0.00    -0.205 F 
BRANCH   7  13
ATOM     13  S   UNL     1      -4.743  -2.218   1.321  1.00  0.00     0.243 S 
ATOM     14  O   UNL     1      -4.391  -3.607   1.190  1.00  0.00    -0.207 OA
ATOM     15  O   UNL     1      -5.318  -1.691   2.549  1.00  0.00    -0.207 OA
BRANCH  13  16
ATOM     16  N   UNL     1      -3.373  -1.336   0.999  1.00  0.00    -0.205 NA
ATOM     17  H   UNL     1      -3.663  -0.363   0.904  1.00  0.00     0.141 HD
BRANCH  16  18
ATOM     18  C   UNL     1      -2.571  -1.657  -0.176  1.00  0.00     0.158 C 
BRANCH  18  19
ATOM     19  C   UNL     1      -1.308  -0.860  -0.115  1.00  0.00     0.099 A 
ATOM     20  C   UNL     1       2.228   0.104   0.062  1.00  0.00     0.091 C 
ATOM     21  C   UNL     1       0.783  -0.178  -0.004  1.00  0.00     0.133 A 
ATOM     22  C   UNL     1       0.026  -1.323  -0.028  1.00  0.00     0.073 A 
ATOM     23  O   UNL     1      -0.039   0.903  -0.061  1.00  0.00    -0.361 OA
ATOM     24  N   UNL     1      -1.355   0.481  -0.135  1.00  0.00    -0.083 NA
ENDBRANCH  18  19
ENDBRANCH  16  18
ENDBRANCH  13  16
ENDBRANCH   7  13
ENDBRANCH   4   6
ENDBRANCH   3   4
ENDBRANCH   2   3
ENDBRANCH   1   2
BRANCH   1  25
ATOM     25  O   UNL     1      -8.451  -1.411  -6.110  1.00  0.00    -0.374 OA
BRANCH  25  26
ATOM     26  C   UNL     1      -7.179  -1.683  -5.519  1.00  0.00     0.202 C 
BRANCH  26  27
ATOM     27  C   UNL     1      -5.969  -1.248  -6.353  1.00  0.00     0.261 C 
BRANCH  27  28
ATOM     28  O   UNL     1      -5.852   0.187  -6.385  1.00  0.00    -0.460 OA
BRANCH  28  29
ATOM     29  C   UNL     1      -6.097   0.753  -7.591  1.00  0.00     0.338 C 
ATOM     30  O   UNL     1      -6.289   0.183  -8.651  1.00  0.00    -0.246 OA
BRANCH  29  31
ATOM     31  C   UNL     1      -6.279   2.211  -7.432  1.00  0.00     0.060 A 
ATOM     32  C   UNL     1      -7.394   2.791  -8.051  1.00  0.00     0.016 A 
ATOM     33  C   UNL     1      -5.356   3.005  -6.747  1.00  0.00     0.016 A 
ATOM     34  C   UNL     1      -7.562   4.173  -8.033  1.00  0.00     0.010 A 
ATOM     35  C   UNL     1      -5.522   4.394  -6.737  1.00  0.00     0.010 A 
ATOM     36  C   UNL     1      -6.606   4.986  -7.411  1.00  0.00    -0.014 A 
BRANCH  36  37
ATOM     37  C   UNL     1      -6.662   6.455  -7.596  1.00  0.00     0.031 A 
ATOM     38  C   UNL     1      -5.809   7.089  -8.660  1.00  0.00     0.074 A 
ATOM     39  C   UNL     1      -7.482   7.215  -6.849  1.00  0.00     0.049 A 
ATOM     40  N   UNL     1      -5.685   8.352  -8.980  1.00  0.00    -0.248 NA
ATOM     41  C   UNL     1      -4.987   6.177  -9.472  1.00  0.00     0.031 C 
ATOM     42  C   UNL     1      -8.392   6.720  -5.817  1.00  0.00     0.029 A 
ATOM     43  N   UNL     1      -7.675   8.574  -6.846  1.00  0.00    -0.354 N 
ATOM     44  C   UNL     1      -4.770   8.387 -10.024  1.00  0.00     0.074 A 
ATOM     45  C   UNL     1      -4.351   7.023 -10.268  1.00  0.00     0.031 C 
ATOM     46  C   UNL     1      -9.043   7.764  -5.275  1.00  0.00     0.029 A 
ATOM     47  C   UNL     1      -8.574   8.999  -5.900  1.00  0.00     0.049 A 
ATOM     48  H   UNL     1      -7.212   9.185  -7.464  1.00  0.00     0.167 HD
ATOM     49  C   UNL     1      -4.321   9.456 -10.723  1.00  0.00     0.031 A 
ATOM     50  C   UNL     1      -8.961  10.245  -5.565  1.00  0.00     0.031 A 
ATOM     51  C   UNL     1      -4.722  10.814 -10.476  1.00  0.00     0.049 A 
ATOM     52  C   UNL     1      -8.387  11.424  -6.303  1.00  0.00     0.074 A 
ATOM     53  C   UNL     1      -4.329  11.964 -11.139  1.00  0.00     0.029 A 
ATOM     54  N   UNL     1      -5.604  11.206  -9.482  1.00  0.00    -0.354 N 
ATOM     55  N   UNL     1      -7.539  11.441  -7.303  1.00  0.00    -0.248 NA
ATOM     56  C   UNL     1      -8.831  12.757  -5.868  1.00  0.00     0.031 C 
ATOM     57  C   UNL     1      -4.938  13.058 -10.514  1.00  0.00     0.029 A 
ATOM     58  C   UNL     1      -5.749  12.582  -9.496  1.00  0.00     0.049 A 
ATOM     59  H   UNL     1      -6.060  10.595  -8.858  1.00  0.00     0.167 HD
ATOM     60  C   UNL     1      -7.369  12.780  -7.633  1.00  0.00     0.074 A 
ATOM     61  C   UNL     1      -8.209  13.545  -6.734  1.00  0.00     0.031 C 
ATOM     62  C   UNL     1      -6.589  13.328  -8.596  1.00  0.00     0.031 A 
BRANCH  49  63
ATOM     63  C   UNL     1      -3.312   9.196 -11.804  1.00  0.00    -0.014 A 
ATOM     64  C   UNL     1      -3.686   8.605 -13.021  1.00  0.00     0.009 A 
ATOM     65  C   UNL     1      -1.974   9.575 -11.614  1.00  0.00     0.009 A 
ATOM     66  C   UNL     1      -2.733   8.370 -14.014  1.00  0.00     0.001 A 
ATOM     67  C   UNL     1      -1.028   9.360 -12.617  1.00  0.00     0.001 A 
ATOM     68  C   UNL     1      -1.406   8.751 -13.813  1.00  0.00     0.000 A 
ENDBRANCH  49  63
BRANCH  50  69
ATOM     69  C   UNL     1      -9.930  10.450  -4.459  1.00  0.00    -0.014 A 
ATOM     70  C   UNL     1     -11.237  10.886  -4.724  1.00  0.00     0.009 A 
ATOM     71  C   UNL     1      -9.544  10.230  -3.127  1.00  0.00     0.009 A 
ATOM     72  C   UNL     1     -12.130  11.119  -3.675  1.00  0.00     0.001 A 
ATOM     73  C   UNL     1     -10.447  10.439  -2.083  1.00  0.00     0.001 A 
ATOM     74  C   UNL     1     -11.736  10.892  -2.357  1.00  0.00     0.000 A 
ENDBRANCH  50  69
BRANCH  62  75
ATOM     75  C   UNL     1      -6.633  14.821  -8.753  1.00  0.00    -0.014 A 
ATOM     76  C   UNL     1      -6.001  15.669  -7.830  1.00  0.00     0.009 A 
ATOM     77  C   UNL     1      -7.280  15.383  -9.864  1.00  0.00     0.009 A 
ATOM     78  C   UNL     1      -6.042  17.054  -8.005  1.00  0.00     0.001 A 
ATOM     79  C   UNL     1      -7.297  16.767 -10.049  1.00  0.00     0.001 A 
ATOM     80  C   UNL     1      -6.685  17.601  -9.115  1.00  0.00     0.000 A 
ENDBRANCH  62  75
ENDBRANCH  36  37
ENDBRANCH  29  31
ENDBRANCH  28  29
ENDBRANCH  27  28
ENDBRANCH  26  27
ENDBRANCH  25  26
ENDBRANCH   1  25
TORSDOF 18
