REMARK SMILES O=C(OCCOCCOC(=O)c1ccc(-c2c3nc(c(-c4ccccc4)c4ccc([nH]4)c(-c4ccccc4)c4nc(c(-c5ccccc5)c5ccc2[nH]5)C=C4)C=C3)cc1)C1=Cc2c(ccc(Cl)c2Cl)O[C@H]1C(F)(F)F
REMARK SMILES IDX 7 1 6 2 5 3 4 4 3 5 2 6 1 7 60 8 61 9 71 10 62 11 70 12
REMARK SMILES IDX 63 13 68 14 64 15 66 16 69 17 65 18 67 19 72 20 73 21 74 22
REMARK SMILES IDX 75 23 8 24 9 25 10 26 11 27 12 28 13 29 59 30 14 31 58 32
REMARK SMILES IDX 15 33 16 34 17 35 52 36 18 37 57 38 51 39 53 40 19 41 56 42
REMARK SMILES IDX 50 43 49 44 20 46 42 47 27 48 41 49 28 50 31 51 40 52 54 53
REMARK SMILES IDX 29 54 30 55 39 57 55 58 32 59 21 60 22 61 26 62 23 63 25 64
REMARK SMILES IDX 24 65 43 66 44 67 48 68 45 69 47 70 46 71 33 72 34 73 38 74
REMARK SMILES IDX 35 75 37 76 36 77
REMARK H PARENT 53 45 31 56
REMARK Flexibility Score: inf
ROOT
ATOM      1  C   UNL     1       1.480  -1.038   3.138  1.00  0.00     0.202 C 
ENDROOT
BRANCH   1   2
ATOM      2  O   UNL     1       2.200  -0.639   1.975  1.00  0.00    -0.374 OA
BRANCH   2   3
ATOM      3  C   UNL     1       2.185   0.772   1.753  1.00  0.00     0.202 C 
BRANCH   3   4
ATOM      4  C   UNL     1       1.850   1.106   0.298  1.00  0.00     0.261 C 
BRANCH   4   5
ATOM      5  O   UNL     1       1.454  -0.051  -0.464  1.00  0.00    -0.460 OA
BRANCH   5   6
ATOM      6  C   UNL     1       2.264  -0.992  -1.007  1.00  0.00     0.338 C 
ATOM      7  O   UNL     1       1.773  -1.867  -1.717  1.00  0.00    -0.246 OA
BRANCH   6   8
ATOM      8  C   UNL     1       3.740  -0.853  -0.985  1.00  0.00     0.087 C 
ATOM      9  C   UNL     1       4.474  -0.136  -0.130  1.00  0.00     0.029 C 
ATOM     10  C   UNL     1       4.480  -1.722  -1.985  1.00  0.00     0.316 C 
ATOM     11  C   UNL     1       5.651   0.511  -0.674  1.00  0.00     0.037 A 
ATOM     12  O   UNL     1       5.900  -1.390  -2.149  1.00  0.00    -0.475 OA
ATOM     13  C   UNL     1       6.318  -0.172  -1.687  1.00  0.00     0.129 A 
ATOM     14  C   UNL     1       6.043   1.822  -0.326  1.00  0.00     0.070 A 
ATOM     15  C   UNL     1       7.446   0.389  -2.274  1.00  0.00     0.049 A 
ATOM     16  C   UNL     1       7.160   2.394  -0.942  1.00  0.00     0.060 A 
ATOM     17  Cl  UNL     1       5.086   2.777   0.762  1.00  0.00    -0.082 Cl
ATOM     18  C   UNL     1       7.867   1.669  -1.903  1.00  0.00     0.026 A 
ATOM     19  Cl  UNL     1       7.701   3.998  -0.581  1.00  0.00    -0.083 Cl
BRANCH  10  20
ATOM     20  C   UNL     1       4.355  -3.230  -1.599  1.00  0.00     0.430 C 
ATOM     21  F   UNL     1       3.620  -3.445  -0.480  1.00  0.00    -0.167 F 
ATOM     22  F   UNL     1       3.793  -3.950  -2.599  1.00  0.00    -0.167 F 
ATOM     23  F   UNL     1       5.568  -3.789  -1.353  1.00  0.00    -0.167 F 
ENDBRANCH  10  20
ENDBRANCH   6   8
ENDBRANCH   5   6
ENDBRANCH   4   5
ENDBRANCH   3   4
ENDBRANCH   2   3
ENDBRANCH   1   2
BRANCH   1  24
ATOM     24  C   UNL     1       2.323  -0.965   4.413  1.00  0.00     0.261 C 
BRANCH  24  25
ATOM     25  O   UNL     1       2.921   0.336   4.580  1.00  0.00    -0.460 OA
BRANCH  25  26
ATOM     26  C   UNL     1       4.258   0.409   4.357  1.00  0.00     0.338 C 
ATOM     27  O   UNL     1       5.003  -0.529   4.103  1.00  0.00    -0.246 OA
BRANCH  26  28
ATOM     28  C   UNL     1       4.727   1.822   4.381  1.00  0.00     0.060 A 
ATOM     29  C   UNL     1       6.040   2.095   3.965  1.00  0.00     0.016 A 
ATOM     30  C   UNL     1       3.906   2.880   4.792  1.00  0.00     0.016 A 
ATOM     31  C   UNL     1       6.539   3.403   3.988  1.00  0.00     0.010 A 
ATOM     32  C   UNL     1       4.404   4.189   4.814  1.00  0.00     0.010 A 
ATOM     33  C   UNL     1       5.734   4.454   4.444  1.00  0.00    -0.014 A 
BRANCH  33  34
ATOM     34  C   UNL     1       6.339   5.767   4.785  1.00  0.00     0.031 A 
ATOM     35  C   UNL     1       6.816   5.968   6.199  1.00  0.00     0.074 A 
ATOM     36  C   UNL     1       6.455   6.770   3.896  1.00  0.00     0.049 A 
ATOM     37  N   UNL     1       7.380   7.013   6.751  1.00  0.00    -0.248 NA
ATOM     38  C   UNL     1       6.619   4.833   7.115  1.00  0.00     0.031 C 
ATOM     39  C   UNL     1       6.061   6.716   2.492  1.00  0.00     0.029 A 
ATOM     40  N   UNL     1       6.946   8.044   4.061  1.00  0.00    -0.354 N 
ATOM     41  C   UNL     1       7.605   6.658   8.075  1.00  0.00     0.074 A 
ATOM     42  C   UNL     1       7.077   5.323   8.254  1.00  0.00     0.031 C 
ATOM     43  C   UNL     1       6.330   7.905   1.919  1.00  0.00     0.029 A 
ATOM     44  C   UNL     1       6.894   8.810   2.922  1.00  0.00     0.049 A 
ATOM     45  H   UNL     1       7.301   8.377   4.917  1.00  0.00     0.167 HD
ATOM     46  C   UNL     1       8.200   7.370   9.061  1.00  0.00     0.031 A 
ATOM     47  C   UNL     1       7.258  10.092   2.716  1.00  0.00     0.031 A 
ATOM     48  C   UNL     1       8.680   8.716   8.913  1.00  0.00     0.049 A 
ATOM     49  C   UNL     1       7.840  10.900   3.852  1.00  0.00     0.074 A 
ATOM     50  C   UNL     1       9.300   9.519   9.854  1.00  0.00     0.029 A 
ATOM     51  N   UNL     1       8.571   9.467   7.754  1.00  0.00    -0.354 N 
ATOM     52  N   UNL     1       8.102  10.536   5.084  1.00  0.00    -0.248 NA
ATOM     53  C   UNL     1       8.188  12.300   3.558  1.00  0.00     0.031 C 
ATOM     54  C   UNL     1       9.505  10.780   9.284  1.00  0.00     0.029 A 
ATOM     55  C   UNL     1       9.084  10.736   7.964  1.00  0.00     0.049 A 
ATOM     56  H   UNL     1       8.186   9.146   6.906  1.00  0.00     0.167 HD
ATOM     57  C   UNL     1       8.686  11.642   5.695  1.00  0.00     0.074 A 
ATOM     58  C   UNL     1       8.743  12.689   4.697  1.00  0.00     0.031 C 
ATOM     59  C   UNL     1       9.143  11.773   6.965  1.00  0.00     0.031 A 
BRANCH  46  60
ATOM     60  C   UNL     1       8.305   6.702  10.404  1.00  0.00    -0.014 A 
ATOM     61  C   UNL     1       9.144   5.593  10.606  1.00  0.00     0.009 A 
ATOM     62  C   UNL     1       7.526   7.168  11.474  1.00  0.00     0.009 A 
ATOM     63  C   UNL     1       9.154   4.929  11.834  1.00  0.00     0.001 A 
ATOM     64  C   UNL     1       7.565   6.524  12.711  1.00  0.00     0.001 A 
ATOM     65  C   UNL     1       8.366   5.396  12.885  1.00  0.00     0.000 A 
ENDBRANCH  46  60
BRANCH  47  66
ATOM     66  C   UNL     1       7.107  10.711   1.370  1.00  0.00    -0.014 A 
ATOM     67  C   UNL     1       8.239  11.052   0.612  1.00  0.00     0.009 A 
ATOM     68  C   UNL     1       5.836  11.007   0.854  1.00  0.00     0.009 A 
ATOM     69  C   UNL     1       8.103  11.699  -0.619  1.00  0.00     0.001 A 
ATOM     70  C   UNL     1       5.702  11.628  -0.391  1.00  0.00     0.001 A 
ATOM     71  C   UNL     1       6.835  11.983  -1.121  1.00  0.00     0.000 A 
ENDBRANCH  47  66
BRANCH  59  72
ATOM     72  C   UNL     1       9.805  13.073   7.343  1.00  0.00    -0.014 A 
ATOM     73  C   UNL     1       9.078  14.266   7.476  1.00  0.00     0.009 A 
ATOM     74  C   UNL     1      11.182  13.087   7.621  1.00  0.00     0.009 A 
ATOM     75  C   UNL     1       9.723  15.451   7.843  1.00  0.00     0.001 A 
ATOM     76  C   UNL     1      11.818  14.264   8.020  1.00  0.00     0.001 A 
ATOM     77  C   UNL     1      11.090  15.447   8.120  1.00  0.00     0.000 A 
ENDBRANCH  59  72
ENDBRANCH  33  34
ENDBRANCH  26  28
ENDBRANCH  25  26
ENDBRANCH  24  25
ENDBRANCH   1  24
TORSDOF 15
