REMARK SMILES CCCC[C@@H](Sc1nc(OCCC2CCCCC2)cc(OCCC2CCCCC2)n1)C(=O)OCCOCCOC(=O)c1ccc(-c2c3nc(c(-c4ccccc4)c4ccc([nH]4)c(-c4ccccc4)c4nc(c(-c5ccccc5)c5ccc2[nH]5)C=C4)C=C3)cc1
REMARK SMILES IDX 34 1 33 2 31 3 32 4 5 5 4 6 3 7 2 8 1 9 6 10 7 11 8 12 30 13
REMARK SMILES IDX 9 14 20 15 19 16 10 17 11 18 12 19 13 20 14 21 18 22 15 23
REMARK SMILES IDX 17 24 16 25 21 26 22 27 23 28 24 29 25 30 29 31 26 32 28 33
REMARK SMILES IDX 27 34 35 35 36 36 37 37 38 38 39 39 40 40 41 41 42 42 43 43
REMARK SMILES IDX 89 44 44 45 88 46 45 47 46 48 47 49 82 50 48 51 87 52 81 53
REMARK SMILES IDX 83 54 49 55 86 56 80 57 79 58 50 60 72 61 57 62 71 63 58 64
REMARK SMILES IDX 61 65 70 66 84 67 59 68 60 69 69 71 85 72 62 73 51 74 52 75
REMARK SMILES IDX 56 76 53 77 55 78 54 79 73 80 74 81 78 82 75 83 77 84 76 85
REMARK SMILES IDX 63 86 64 87 68 88 65 89 67 90 66 91
REMARK H PARENT 83 59 61 70
REMARK Flexibility Score: inf
ROOT
ATOM      1  C   UNL     1      -2.711  -5.736  -1.785  1.00  0.00     0.261 C 
ENDROOT
BRANCH   1   2
ATOM      2  O   UNL     1      -1.933  -4.625  -2.254  1.00  0.00    -0.462 OA
BRANCH   2   3
ATOM      3  C   UNL     1      -2.514  -3.404  -2.090  1.00  0.00     0.319 C 
ATOM      4  O   UNL     1      -3.629  -3.222  -1.611  1.00  0.00    -0.251 OA
BRANCH   3   5
ATOM      5  C   UNL     1      -1.635  -2.263  -2.577  1.00  0.00     0.164 C 
BRANCH   5   6
ATOM      6  C   UNL     1      -0.117  -2.498  -2.404  1.00  0.00     0.027 C 
BRANCH   6   7
ATOM      7  C   UNL     1       0.734  -1.249  -2.116  1.00  0.00     0.001 C 
BRANCH   7   8
ATOM      8  C   UNL     1       0.369  -0.463  -0.852  1.00  0.00    -0.003 C 
ATOM      9  C   UNL     1       0.822  -1.098   0.447  1.00  0.00     0.004 C 
ENDBRANCH   7   8
ENDBRANCH   6   7
ENDBRANCH   5   6
BRANCH   5  10
ATOM     10  S   UNL     1      -2.119  -1.947  -4.314  1.00  0.00    -0.071 SA
BRANCH  10  11
ATOM     11  C   UNL     1      -1.565  -0.278  -4.428  1.00  0.00     0.195 A 
ATOM     12  N   UNL     1      -1.817   0.547  -3.401  1.00  0.00    -0.187 NA
ATOM     13  N   UNL     1      -0.801   0.013  -5.481  1.00  0.00    -0.187 NA
ATOM     14  C   UNL     1      -1.298   1.776  -3.472  1.00  0.00     0.221 A 
ATOM     15  C   UNL     1      -0.299   1.248  -5.531  1.00  0.00     0.221 A 
ATOM     16  C   UNL     1      -0.578   2.185  -4.566  1.00  0.00     0.136 A 
BRANCH  14  17
ATOM     17  O   UNL     1      -1.361   2.454  -2.281  1.00  0.00    -0.477 OA
BRANCH  17  18
ATOM     18  C   UNL     1      -1.352   3.876  -2.232  1.00  0.00     0.231 C 
BRANCH  18  19
ATOM     19  C   UNL     1      -0.013   4.621  -1.973  1.00  0.00     0.045 C 
BRANCH  19  20
ATOM     20  C   UNL     1       1.285   4.094  -2.608  1.00  0.00    -0.008 C 
ATOM     21  C   UNL     1       2.485   5.045  -2.474  1.00  0.00     0.004 C 
ATOM     22  C   UNL     1       1.690   2.741  -2.031  1.00  0.00     0.004 C 
ATOM     23  C   UNL     1       3.702   4.467  -3.218  1.00  0.00     0.000 C 
ATOM     24  C   UNL     1       2.844   2.124  -2.801  1.00  0.00     0.000 C 
ATOM     25  C   UNL     1       4.053   3.044  -2.778  1.00  0.00     0.000 C 
ENDBRANCH  19  20
ENDBRANCH  18  19
ENDBRANCH  17  18
ENDBRANCH  14  17
BRANCH  15  26
ATOM     26  O   UNL     1       0.470   1.439  -6.638  1.00  0.00    -0.477 OA
BRANCH  26  27
ATOM     27  C   UNL     1       1.228   2.629  -6.818  1.00  0.00     0.231 C 
BRANCH  27  28
ATOM     28  C   UNL     1       0.713   3.441  -8.017  1.00  0.00     0.045 C 
BRANCH  28  29
ATOM     29  C   UNL     1      -0.597   4.255  -7.835  1.00  0.00    -0.008 C 
ATOM     30  C   UNL     1      -1.849   3.367  -7.682  1.00  0.00     0.004 C 
ATOM     31  C   UNL     1      -0.410   5.391  -6.817  1.00  0.00     0.004 C 
ATOM     32  C   UNL     1      -2.969   3.836  -6.755  1.00  0.00     0.000 C 
ATOM     33  C   UNL     1      -1.720   5.970  -6.311  1.00  0.00     0.000 C 
ATOM     34  C   UNL     1      -2.564   4.864  -5.721  1.00  0.00     0.000 C 
ENDBRANCH  28  29
ENDBRANCH  27  28
ENDBRANCH  26  27
ENDBRANCH  15  26
ENDBRANCH  10  11
ENDBRANCH   5  10
ENDBRANCH   3   5
ENDBRANCH   2   3
ENDBRANCH   1   2
BRANCH   1  35
ATOM     35  C   UNL     1      -2.094  -6.400  -0.551  1.00  0.00     0.202 C 
BRANCH  35  36
ATOM     36  O   UNL     1      -1.995  -5.620   0.636  1.00  0.00    -0.374 OA
BRANCH  36  37
ATOM     37  C   UNL     1      -0.978  -4.623   0.699  1.00  0.00     0.202 C 
BRANCH  37  38
ATOM     38  C   UNL     1       0.480  -5.109   0.740  1.00  0.00     0.261 C 
BRANCH  38  39
ATOM     39  O   UNL     1       0.895  -5.730  -0.493  1.00  0.00    -0.460 OA
BRANCH  39  40
ATOM     40  C   UNL     1       1.347  -6.999  -0.369  1.00  0.00     0.338 C 
ATOM     41  O   UNL     1       1.502  -7.641   0.665  1.00  0.00    -0.246 OA
BRANCH  40  42
ATOM     42  C   UNL     1       1.493  -7.614  -1.695  1.00  0.00     0.060 A 
ATOM     43  C   UNL     1       0.599  -8.632  -2.055  1.00  0.00     0.016 A 
ATOM     44  C   UNL     1       2.560  -7.276  -2.528  1.00  0.00     0.016 A 
ATOM     45  C   UNL     1       0.776  -9.325  -3.250  1.00  0.00     0.010 A 
ATOM     46  C   UNL     1       2.745  -7.985  -3.719  1.00  0.00     0.010 A 
ATOM     47  C   UNL     1       1.867  -9.025  -4.075  1.00  0.00    -0.014 A 
BRANCH  47  48
ATOM     48  C   UNL     1       2.152  -9.863  -5.263  1.00  0.00     0.031 A 
ATOM     49  C   UNL     1       3.183 -10.950  -5.169  1.00  0.00     0.074 A 
ATOM     50  C   UNL     1       1.488  -9.659  -6.413  1.00  0.00     0.049 A 
ATOM     51  N   UNL     1       3.637 -11.743  -6.106  1.00  0.00    -0.248 NA
ATOM     52  C   UNL     1       3.780 -11.176  -3.843  1.00  0.00     0.031 C 
ATOM     53  C   UNL     1       0.418  -8.683  -6.611  1.00  0.00     0.029 A 
ATOM     54  N   UNL     1       1.627 -10.262  -7.638  1.00  0.00    -0.354 N 
ATOM     55  C   UNL     1       4.575 -12.559  -5.486  1.00  0.00     0.074 A 
ATOM     56  C   UNL     1       4.642 -12.149  -4.099  1.00  0.00     0.031 C 
ATOM     57  C   UNL     1       0.002  -8.747  -7.887  1.00  0.00     0.029 A 
ATOM     58  C   UNL     1       0.807  -9.734  -8.603  1.00  0.00     0.049 A 
ATOM     59  H   UNL     1       2.253 -11.003  -7.807  1.00  0.00     0.167 HD
ATOM     60  C   UNL     1       5.314 -13.559  -6.024  1.00  0.00     0.031 A 
ATOM     61  C   UNL     1       0.739  -9.992  -9.923  1.00  0.00     0.031 A 
ATOM     62  C   UNL     1       5.266 -13.946  -7.409  1.00  0.00     0.049 A 
ATOM     63  C   UNL     1       1.666 -11.013 -10.525  1.00  0.00     0.074 A 
ATOM     64  C   UNL     1       5.969 -14.953  -8.049  1.00  0.00     0.029 A 
ATOM     65  N   UNL     1       4.482 -13.331  -8.372  1.00  0.00    -0.354 N 
ATOM     66  N   UNL     1       2.541 -11.787  -9.930  1.00  0.00    -0.248 NA
ATOM     67  C   UNL     1       1.603 -11.187 -11.983  1.00  0.00     0.031 C 
ATOM     68  C   UNL     1       5.655 -14.905  -9.412  1.00  0.00     0.029 A 
ATOM     69  C   UNL     1       4.715 -13.907  -9.610  1.00  0.00     0.049 A 
ATOM     70  H   UNL     1       3.852 -12.594  -8.201  1.00  0.00     0.167 HD
ATOM     71  C   UNL     1       3.119 -12.551 -10.936  1.00  0.00     0.074 A 
ATOM     72  C   UNL     1       2.485 -12.158 -12.178  1.00  0.00     0.031 C 
ATOM     73  C   UNL     1       4.086 -13.496 -10.839  1.00  0.00     0.031 A 
BRANCH  60  74
ATOM     74  C   UNL     1       6.274 -14.271  -5.113  1.00  0.00    -0.014 A 
ATOM     75  C   UNL     1       5.820 -15.150  -4.117  1.00  0.00     0.009 A 
ATOM     76  C   UNL     1       7.655 -14.074  -5.268  1.00  0.00     0.009 A 
ATOM     77  C   UNL     1       6.729 -15.788  -3.270  1.00  0.00     0.001 A 
ATOM     78  C   UNL     1       8.562 -14.734  -4.437  1.00  0.00     0.001 A 
ATOM     79  C   UNL     1       8.098 -15.582  -3.432  1.00  0.00     0.000 A 
ENDBRANCH  60  74
BRANCH  61  80
ATOM     80  C   UNL     1      -0.219  -9.243 -10.776  1.00  0.00    -0.014 A 
ATOM     81  C   UNL     1      -1.331  -9.888 -11.336  1.00  0.00     0.009 A 
ATOM     82  C   UNL     1      -0.023  -7.877 -11.037  1.00  0.00     0.009 A 
ATOM     83  C   UNL     1      -2.220  -9.183 -12.151  1.00  0.00     0.001 A 
ATOM     84  C   UNL     1      -0.927  -7.169 -11.831  1.00  0.00     0.001 A 
ATOM     85  C   UNL     1      -2.022  -7.824 -12.392  1.00  0.00     0.000 A 
ENDBRANCH  61  80
BRANCH  73  86
ATOM     86  C   UNL     1       4.510 -14.183 -12.106  1.00  0.00    -0.014 A 
ATOM     87  C   UNL     1       5.313 -13.527 -13.051  1.00  0.00     0.009 A 
ATOM     88  C   UNL     1       4.147 -15.520 -12.330  1.00  0.00     0.009 A 
ATOM     89  C   UNL     1       5.728 -14.192 -14.207  1.00  0.00     0.001 A 
ATOM     90  C   UNL     1       4.585 -16.190 -13.474  1.00  0.00     0.001 A 
ATOM     91  C   UNL     1       5.369 -15.524 -14.414  1.00  0.00     0.000 A 
ENDBRANCH  73  86
ENDBRANCH  47  48
ENDBRANCH  40  42
ENDBRANCH  39  40
ENDBRANCH  38  39
ENDBRANCH  37  38
ENDBRANCH  36  37
ENDBRANCH  35  36
ENDBRANCH   1  35
TORSDOF 27
