REMARK SMILES CCN(CC(C)(C)O)C(=O)Nc1ccc(C(=O)OCCOCCOC(=O)c2ccc(-c3c4nc(c(-c5ccccc5)c5ccc([nH]5)c(-c5ccccc5)c5nc(c(-c6ccccc6)c6ccc3[nH]6)C=C5)C=C4)cc2)c(O)c1
REMARK SMILES IDX 19 1 18 2 16 3 17 4 15 5 12 6 13 7 77 8 14 9 75 10 11 11
REMARK SMILES IDX 9 12 10 13 3 15 2 16 1 17 4 18 5 19 6 20 7 21 8 22 76 24
REMARK SMILES IDX 20 26 21 27 22 28 23 29 24 30 25 31 26 32 27 33 28 34 74 35
REMARK SMILES IDX 29 36 73 37 30 38 31 39 32 40 67 41 33 42 72 43 66 44 68 45
REMARK SMILES IDX 34 46 71 47 65 48 64 49 35 51 57 52 42 53 56 54 43 55 46 56
REMARK SMILES IDX 55 57 69 58 44 59 45 60 54 62 70 63 47 64 36 65 37 66 41 67
REMARK SMILES IDX 38 68 40 69 39 70 58 71 59 72 63 73 60 74 62 75 61 76 48 77
REMARK SMILES IDX 49 78 53 79 50 80 52 81 51 82
REMARK H PARENT 11 14 8 23 76 25 68 50 46 61
REMARK Flexibility Score: inf
ROOT
ATOM      1  C   UNL     1      -1.566 -10.544  -1.603  1.00  0.00     0.261 C 
ENDROOT
BRANCH   1   2
ATOM      2  O   UNL     1      -0.547  -9.685  -1.059  1.00  0.00    -0.460 OA
BRANCH   2   3
ATOM      3  C   UNL     1       0.400  -9.315  -1.956  1.00  0.00     0.341 C 
ATOM      4  O   UNL     1       0.607  -9.809  -3.056  1.00  0.00    -0.246 OA
BRANCH   3   5
ATOM      5  C   UNL     1       0.977  -8.028  -1.542  1.00  0.00     0.101 A 
ATOM      6  C   UNL     1       1.882  -5.413  -0.945  1.00  0.00     0.046 A 
ATOM      7  C   UNL     1       1.256  -5.710  -2.143  1.00  0.00     0.027 A 
ATOM      8  C   UNL     1       2.121  -6.483  -0.067  1.00  0.00     0.073 A 
ATOM      9  C   UNL     1       0.798  -6.988  -2.449  1.00  0.00     0.022 A 
ATOM     10  C   UNL     1       1.642  -7.776  -0.345  1.00  0.00     0.132 A 
BRANCH   6  11
ATOM     11  N   UNL     1       2.396  -4.148  -0.611  1.00  0.00    -0.308 N 
ATOM     12  C   UNL     1       2.274  -2.839  -0.941  1.00  0.00     0.321 C 
ATOM     13  O   UNL     1       3.264  -2.157  -0.641  1.00  0.00    -0.248 OA
ATOM     14  H   UNL     1       3.070  -4.245   0.100  1.00  0.00     0.171 HD
BRANCH  12  15
ATOM     15  N   UNL     1       1.139  -2.233  -1.420  1.00  0.00    -0.322 N 
BRANCH  15  16
ATOM     16  C   UNL     1       1.129  -0.757  -1.454  1.00  0.00     0.118 C 
ATOM     17  C   UNL     1       1.201  -0.109  -0.072  1.00  0.00     0.027 C 
ENDBRANCH  15  16
BRANCH  15  18
ATOM     18  C   UNL     1      -0.096  -2.842  -1.916  1.00  0.00     0.155 C 
BRANCH  18  19
ATOM     19  C   UNL     1      -0.223  -2.845  -3.483  1.00  0.00     0.077 C 
ATOM     20  C   UNL     1       1.121  -2.895  -4.246  1.00  0.00     0.043 C 
ATOM     21  C   UNL     1      -1.204  -3.954  -3.910  1.00  0.00     0.043 C 
BRANCH  19  22
ATOM     22  O   UNL     1      -0.839  -1.608  -3.897  1.00  0.00    -0.389 OA
ATOM     23  H   UNL     1      -0.266  -0.864  -3.654  1.00  0.00     0.211 HD
ENDBRANCH  19  22
ENDBRANCH  18  19
ENDBRANCH  15  18
ENDBRANCH  12  15
ENDBRANCH   6  11
BRANCH  10  24
ATOM     24  O   UNL     1       1.875  -8.731   0.604  1.00  0.00    -0.507 OA
ATOM     25  H   UNL     1       1.576  -9.609   0.468  1.00  0.00     0.293 HD
ENDBRANCH  10  24
ENDBRANCH   3   5
ENDBRANCH   2   3
ENDBRANCH   1   2
BRANCH   1  26
ATOM     26  C   UNL     1      -2.981 -10.039  -1.290  1.00  0.00     0.202 C 
BRANCH  26  27
ATOM     27  O   UNL     1      -3.349  -8.755  -1.787  1.00  0.00    -0.374 OA
BRANCH  27  28
ATOM     28  C   UNL     1      -2.723  -7.604  -1.224  1.00  0.00     0.202 C 
BRANCH  28  29
ATOM     29  C   UNL     1      -2.992  -7.277   0.252  1.00  0.00     0.261 C 
BRANCH  29  30
ATOM     30  O   UNL     1      -2.463  -8.272   1.148  1.00  0.00    -0.460 OA
BRANCH  30  31
ATOM     31  C   UNL     1      -3.393  -8.910   1.898  1.00  0.00     0.338 C 
ATOM     32  O   UNL     1      -4.597  -8.697   1.931  1.00  0.00    -0.246 OA
BRANCH  31  33
ATOM     33  C   UNL     1      -2.792 -10.083   2.551  1.00  0.00     0.060 A 
ATOM     34  C   UNL     1      -3.301 -11.344   2.214  1.00  0.00     0.016 A 
ATOM     35  C   UNL     1      -1.828  -9.947   3.551  1.00  0.00     0.016 A 
ATOM     36  C   UNL     1      -2.878 -12.472   2.907  1.00  0.00     0.010 A 
ATOM     37  C   UNL     1      -1.411 -11.083   4.254  1.00  0.00     0.010 A 
ATOM     38  C   UNL     1      -1.964 -12.343   3.961  1.00  0.00    -0.014 A 
BRANCH  38  39
ATOM     39  C   UNL     1      -1.713 -13.517   4.830  1.00  0.00     0.031 A 
ATOM     40  C   UNL     1      -2.403 -13.606   6.164  1.00  0.00     0.074 A 
ATOM     41  C   UNL     1      -0.947 -14.533   4.397  1.00  0.00     0.049 A 
ATOM     42  N   UNL     1      -2.392 -14.579   7.039  1.00  0.00    -0.248 NA
ATOM     43  C   UNL     1      -3.217 -12.447   6.561  1.00  0.00     0.031 C 
ATOM     44  C   UNL     1      -0.265 -14.585   3.105  1.00  0.00     0.029 A 
ATOM     45  N   UNL     1      -0.632 -15.727   4.994  1.00  0.00    -0.354 N 
ATOM     46  C   UNL     1      -3.193 -14.150   8.090  1.00  0.00     0.074 A 
ATOM     47  C   UNL     1      -3.639 -12.813   7.762  1.00  0.00     0.031 C 
ATOM     48  C   UNL     1       0.373 -15.762   2.997  1.00  0.00     0.029 A 
ATOM     49  C   UNL     1       0.170 -16.531   4.223  1.00  0.00     0.049 A 
ATOM     50  H   UNL     1      -0.951 -15.983   5.890  1.00  0.00     0.167 HD
ATOM     51  C   UNL     1      -3.537 -14.812   9.222  1.00  0.00     0.031 A 
ATOM     52  C   UNL     1       0.684 -17.749   4.478  1.00  0.00     0.031 A 
ATOM     53  C   UNL     1      -3.073 -16.132   9.558  1.00  0.00     0.049 A 
ATOM     54  C   UNL     1       0.355 -18.431   5.778  1.00  0.00     0.074 A 
ATOM     55  C   UNL     1      -3.367 -16.892  10.677  1.00  0.00     0.029 A 
ATOM     56  N   UNL     1      -2.205 -16.885   8.781  1.00  0.00    -0.354 N 
ATOM     57  N   UNL     1      -0.425 -18.026   6.752  1.00  0.00    -0.248 NA
ATOM     58  C   UNL     1       0.968 -19.747   6.005  1.00  0.00     0.031 C 
ATOM     59  C   UNL     1      -2.626 -18.077  10.608  1.00  0.00     0.029 A 
ATOM     60  C   UNL     1      -1.930 -18.089   9.409  1.00  0.00     0.049 A 
ATOM     61  H   UNL     1      -1.839 -16.606   7.911  1.00  0.00     0.167 HD
ATOM     62  C   UNL     1      -0.427 -19.052   7.689  1.00  0.00     0.074 A 
ATOM     63  C   UNL     1       0.421 -20.101   7.160  1.00  0.00     0.031 C 
ATOM     64  C   UNL     1      -1.080 -19.123   8.876  1.00  0.00     0.031 A 
BRANCH  51  65
ATOM     65  C   UNL     1      -4.428 -14.090  10.197  1.00  0.00    -0.014 A 
ATOM     66  C   UNL     1      -5.771 -13.806   9.894  1.00  0.00     0.009 A 
ATOM     67  C   UNL     1      -3.919 -13.694  11.443  1.00  0.00     0.009 A 
ATOM     68  C   UNL     1      -6.568 -13.101  10.799  1.00  0.00     0.001 A 
ATOM     69  C   UNL     1      -4.728 -13.019  12.360  1.00  0.00     0.001 A 
ATOM     70  C   UNL     1      -6.047 -12.712  12.032  1.00  0.00     0.000 A 
ENDBRANCH  51  65
BRANCH  52  71
ATOM     71  C   UNL     1       1.556 -18.410   3.471  1.00  0.00    -0.014 A 
ATOM     72  C   UNL     1       1.118 -19.552   2.784  1.00  0.00     0.009 A 
ATOM     73  C   UNL     1       2.834 -17.899   3.193  1.00  0.00     0.009 A 
ATOM     74  C   UNL     1       1.950 -20.180   1.854  1.00  0.00     0.001 A 
ATOM     75  C   UNL     1       3.651 -18.512   2.241  1.00  0.00     0.001 A 
ATOM     76  C   UNL     1       3.212 -19.656   1.579  1.00  0.00     0.000 A 
ENDBRANCH  52  71
BRANCH  64  77
ATOM     77  C   UNL     1      -0.942 -20.400   9.662  1.00  0.00    -0.014 A 
ATOM     78  C   UNL     1       0.266 -20.762  10.278  1.00  0.00     0.009 A 
ATOM     79  C   UNL     1      -2.057 -21.241   9.811  1.00  0.00     0.009 A 
ATOM     80  C   UNL     1       0.366 -21.961  10.987  1.00  0.00     0.001 A 
ATOM     81  C   UNL     1      -1.964 -22.422  10.550  1.00  0.00     0.001 A 
ATOM     82  C   UNL     1      -0.749 -22.787  11.126  1.00  0.00     0.000 A 
ENDBRANCH  64  77
ENDBRANCH  38  39
ENDBRANCH  31  33
ENDBRANCH  30  31
ENDBRANCH  29  30
ENDBRANCH  28  29
ENDBRANCH  27  28
ENDBRANCH  26  27
ENDBRANCH   1  26
TORSDOF 21
