REMARK SMILES C[N@H+]1CCO[C@@H](CNC(=O)c2cccn2CC(=O)OCCOCCOC(=O)c2ccc(-c3c4nc(c(-c5ccccc5)c5ccc([nH]5)c(-c5ccccc5)c5nc(c(-c6ccccc6)c6ccc3[nH]6)C=C5)C=C4)cc2)C1
REMARK SMILES IDX 21 1 20 2 19 3 17 4 18 5 16 6 15 7 11 8 12 9 13 10 14 11
REMARK SMILES IDX 9 12 8 13 10 15 7 16 6 17 1 18 2 19 3 20 76 21 4 23 5 24
REMARK SMILES IDX 22 25 23 26 24 27 25 28 26 29 27 30 28 31 29 32 75 33 30 34
REMARK SMILES IDX 74 35 31 36 32 37 33 38 68 39 34 40 73 41 67 42 69 43 35 44
REMARK SMILES IDX 72 45 66 46 65 47 36 49 58 50 43 51 57 52 44 53 47 54 56 55
REMARK SMILES IDX 70 56 45 57 46 58 55 60 71 61 48 62 37 63 38 64 42 65 39 66
REMARK SMILES IDX 41 67 40 68 59 69 60 70 64 71 61 72 63 73 62 74 49 75 50 76
REMARK SMILES IDX 54 77 51 78 53 79 52 80
REMARK H PARENT 8 14 2 22 69 48 47 59
REMARK Flexibility Score: inf
ROOT
ATOM      1  C   UNL     1      -8.054   0.358  -0.268  1.00  0.00     0.202 C 
ENDROOT
BRANCH   1   2
ATOM      2  C   UNL     1      -6.996  -0.733  -0.095  1.00  0.00     0.261 C 
BRANCH   2   3
ATOM      3  O   UNL     1      -6.081  -0.789  -1.206  1.00  0.00    -0.462 OA
BRANCH   3   4
ATOM      4  C   UNL     1      -6.029  -1.983  -1.857  1.00  0.00     0.326 C 
ATOM      5  O   UNL     1      -6.635  -2.989  -1.496  1.00  0.00    -0.250 OA
BRANCH   4   6
ATOM      6  C   UNL     1      -5.254  -1.967  -3.148  1.00  0.00     0.244 C 
BRANCH   6   7
ATOM      7  N   UNL     1      -4.468  -0.771  -3.446  1.00  0.00    -0.332 N 
ATOM      8  C   UNL     1      -3.177  -0.515  -3.020  1.00  0.00     0.107 A 
ATOM      9  C   UNL     1      -2.757   0.622  -3.701  1.00  0.00     0.033 A 
ATOM     10  C   UNL     1      -3.819   1.080  -4.509  1.00  0.00     0.020 A 
ATOM     11  C   UNL     1      -4.860   0.200  -4.338  1.00  0.00     0.087 A 
BRANCH   8  12
ATOM     12  C   UNL     1      -2.430  -1.355  -2.113  1.00  0.00     0.268 C 
ATOM     13  N   UNL     1      -1.687  -0.776  -1.124  1.00  0.00    -0.348 N 
ATOM     14  H   UNL     1      -1.120  -1.392  -0.606  1.00  0.00     0.163 HD
ATOM     15  O   UNL     1      -2.442  -2.585  -2.172  1.00  0.00    -0.268 OA
BRANCH  13  16
ATOM     16  C   UNL     1      -1.612   0.620  -0.729  1.00  0.00     0.154 C 
BRANCH  16  17
ATOM     17  C   UNL     1      -1.669   0.852   0.792  1.00  0.00     0.192 C 
ATOM     18  C   UNL     1       1.446  -0.057   0.509  1.00  0.00     0.332 C 
ATOM     19  N   UNL     1       0.695   0.384   1.675  1.00  0.00    -0.333 N 
ATOM     20  C   UNL     1       0.792   1.835   1.905  1.00  0.00     0.290 C 
ATOM     21  C   UNL     1      -0.723  -0.009   1.662  1.00  0.00     0.296 C 
ATOM     22  H   UNL     1       1.145  -0.106   2.447  1.00  0.00     0.348 HD
ATOM     23  C   UNL     1      -0.133   2.678   1.011  1.00  0.00     0.222 C 
ATOM     24  O   UNL     1      -1.502   2.255   1.091  1.00  0.00    -0.365 OA
ENDBRANCH  16  17
ENDBRANCH  13  16
ENDBRANCH   8  12
ENDBRANCH   6   7
ENDBRANCH   4   6
ENDBRANCH   3   4
ENDBRANCH   2   3
ENDBRANCH   1   2
BRANCH   1  25
ATOM     25  O   UNL     1      -8.927   0.251  -1.391  1.00  0.00    -0.374 OA
BRANCH  25  26
ATOM     26  C   UNL     1      -8.407   0.455  -2.700  1.00  0.00     0.202 C 
BRANCH  26  27
ATOM     27  C   UNL     1      -8.041   1.879  -3.100  1.00  0.00     0.261 C 
BRANCH  27  28
ATOM     28  O   UNL     1      -6.972   2.409  -2.325  1.00  0.00    -0.460 OA
BRANCH  28  29
ATOM     29  C   UNL     1      -7.371   3.285  -1.384  1.00  0.00     0.338 C 
ATOM     30  O   UNL     1      -8.515   3.444  -0.959  1.00  0.00    -0.246 OA
BRANCH  29  31
ATOM     31  C   UNL     1      -6.269   4.178  -1.033  1.00  0.00     0.060 A 
ATOM     32  C   UNL     1      -6.574   5.182  -0.110  1.00  0.00     0.016 A 
ATOM     33  C   UNL     1      -5.117   4.226  -1.833  1.00  0.00     0.016 A 
ATOM     34  C   UNL     1      -5.847   6.347  -0.146  1.00  0.00     0.010 A 
ATOM     35  C   UNL     1      -4.405   5.405  -1.890  1.00  0.00     0.010 A 
ATOM     36  C   UNL     1      -4.827   6.474  -1.095  1.00  0.00    -0.014 A 
BRANCH  36  37
ATOM     37  C   UNL     1      -4.184   7.784  -1.199  1.00  0.00     0.031 A 
ATOM     38  C   UNL     1      -3.063   7.928  -0.192  1.00  0.00     0.074 A 
ATOM     39  C   UNL     1      -4.763   8.658  -2.072  1.00  0.00     0.049 A 
ATOM     40  N   UNL     1      -2.624   8.996   0.390  1.00  0.00    -0.248 NA
ATOM     41  C   UNL     1      -2.385   6.702   0.309  1.00  0.00     0.031 C 
ATOM     42  C   UNL     1      -5.888   8.322  -2.976  1.00  0.00     0.029 A 
ATOM     43  N   UNL     1      -4.560   9.987  -2.367  1.00  0.00    -0.354 N 
ATOM     44  C   UNL     1      -1.540   8.610   1.192  1.00  0.00     0.074 A 
ATOM     45  C   UNL     1      -1.503   7.179   1.186  1.00  0.00     0.031 C 
ATOM     46  C   UNL     1      -6.304   9.414  -3.650  1.00  0.00     0.029 A 
ATOM     47  C   UNL     1      -5.497  10.554  -3.262  1.00  0.00     0.049 A 
ATOM     48  H   UNL     1      -3.817  10.505  -1.983  1.00  0.00     0.167 HD
ATOM     49  C   UNL     1      -0.652   9.494   1.720  1.00  0.00     0.031 A 
ATOM     50  C   UNL     1      -5.648  11.861  -3.631  1.00  0.00     0.031 A 
ATOM     51  C   UNL     1      -1.043  10.839   1.466  1.00  0.00     0.049 A 
ATOM     52  C   UNL     1      -4.561  12.610  -2.975  1.00  0.00     0.074 A 
ATOM     53  C   UNL     1      -2.040  11.637   1.967  1.00  0.00     0.029 A 
ATOM     54  N   UNL     1      -0.557  11.418   0.319  1.00  0.00    -0.354 N 
ATOM     55  N   UNL     1      -3.307  12.544  -3.300  1.00  0.00    -0.248 NA
ATOM     56  C   UNL     1      -4.877  13.450  -1.814  1.00  0.00     0.031 C 
ATOM     57  C   UNL     1      -2.419  12.452   0.873  1.00  0.00     0.029 A 
ATOM     58  C   UNL     1      -1.573  12.183  -0.207  1.00  0.00     0.049 A 
ATOM     59  H   UNL     1       0.347  11.306  -0.056  1.00  0.00     0.167 HD
ATOM     60  C   UNL     1      -2.676  13.008  -2.170  1.00  0.00     0.074 A 
ATOM     61  C   UNL     1      -3.646  13.809  -1.458  1.00  0.00     0.031 C 
ATOM     62  C   UNL     1      -1.632  12.315  -1.646  1.00  0.00     0.031 A 
BRANCH  49  63
ATOM     63  C   UNL     1       0.711   9.229   2.275  1.00  0.00    -0.014 A 
ATOM     64  C   UNL     1       1.304  10.233   3.068  1.00  0.00     0.009 A 
ATOM     65  C   UNL     1       1.534   8.188   1.823  1.00  0.00     0.009 A 
ATOM     66  C   UNL     1       2.675  10.242   3.329  1.00  0.00     0.001 A 
ATOM     67  C   UNL     1       2.903   8.178   2.114  1.00  0.00     0.001 A 
ATOM     68  C   UNL     1       3.477   9.219   2.841  1.00  0.00     0.000 A 
ENDBRANCH  49  63
BRANCH  50  69
ATOM     69  C   UNL     1      -6.649  12.674  -4.408  1.00  0.00    -0.014 A 
ATOM     70  C   UNL     1      -7.764  12.172  -5.085  1.00  0.00     0.009 A 
ATOM     71  C   UNL     1      -6.515  14.089  -4.419  1.00  0.00     0.009 A 
ATOM     72  C   UNL     1      -8.722  13.032  -5.660  1.00  0.00     0.001 A 
ATOM     73  C   UNL     1      -7.480  14.949  -4.951  1.00  0.00     0.001 A 
ATOM     74  C   UNL     1      -8.597  14.416  -5.565  1.00  0.00     0.000 A 
ENDBRANCH  50  69
BRANCH  62  75
ATOM     75  C   UNL     1      -0.949  11.370  -2.624  1.00  0.00    -0.014 A 
ATOM     76  C   UNL     1      -0.313  11.861  -3.772  1.00  0.00     0.009 A 
ATOM     77  C   UNL     1      -1.034   9.973  -2.489  1.00  0.00     0.009 A 
ATOM     78  C   UNL     1       0.197  10.990  -4.747  1.00  0.00     0.001 A 
ATOM     79  C   UNL     1      -0.526   9.098  -3.455  1.00  0.00     0.001 A 
ATOM     80  C   UNL     1       0.088   9.609  -4.590  1.00  0.00     0.000 A 
ENDBRANCH  62  75
ENDBRANCH  36  37
ENDBRANCH  29  31
ENDBRANCH  28  29
ENDBRANCH  27  28
ENDBRANCH  26  27
ENDBRANCH  25  26
ENDBRANCH   1  25
TORSDOF 18
