REMARK SMILES O=C(OCCOCCOC(=O)c1ccc(-c2c3nc(c(-c4ccccc4)c4ccc([nH]4)c(-c4ccccc4)c4nc(c(-c5ccccc5)c5ccc2[nH]5)C=C4)C=C3)cc1)C1=Cc2cc(Cl)cc(-c3ccc(Cl)cc3)c2O[C@@H]1C(F)(F)F
REMARK SMILES IDX 7 1 6 2 5 3 4 4 3 5 2 6 1 7 60 8 61 9 77 10 62 11 76 12
REMARK SMILES IDX 63 13 75 14 64 15 67 16 65 17 66 18 78 19 79 20 80 21 81 22
REMARK SMILES IDX 68 23 69 24 74 25 70 26 73 27 71 28 72 29 8 30 9 31 10 32
REMARK SMILES IDX 11 33 12 34 13 35 59 36 14 37 58 38 15 39 16 40 17 41 52 42
REMARK SMILES IDX 18 43 57 44 51 45 53 46 19 47 56 48 50 49 49 50 20 52 42 53
REMARK SMILES IDX 27 54 41 55 28 56 31 57 40 58 54 59 29 60 30 61 39 63 55 64
REMARK SMILES IDX 32 65 21 66 22 67 26 68 23 69 25 70 24 71 43 72 44 73 48 74
REMARK SMILES IDX 45 75 47 76 46 77 33 78 34 79 38 80 35 81 37 82 36 83
REMARK H PARENT 53 51 31 62
REMARK Flexibility Score: inf
ROOT
ATOM      1  C   UNL     1       2.775   3.111  -0.986  1.00  0.00     0.202 C 
ENDROOT
BRANCH   1   2
ATOM      2  O   UNL     1       3.817   2.598  -0.137  1.00  0.00    -0.374 OA
BRANCH   2   3
ATOM      3  C   UNL     1       4.296   1.153   0.338  1.00  0.00     0.202 C 
BRANCH   3   4
ATOM      4  C   UNL     1       3.328  -0.795   0.319  1.00  0.00     0.261 C 
BRANCH   4   5
ATOM      5  O   UNL     1       2.392  -1.368   1.452  1.00  0.00    -0.460 OA
BRANCH   5   6
ATOM      6  C   UNL     1       2.583  -0.799   2.648  1.00  0.00     0.338 C 
ATOM      7  O   UNL     1       2.060  -0.983   3.715  1.00  0.00    -0.246 OA
BRANCH   6   8
ATOM      8  C   UNL     1       3.461   0.221   2.147  1.00  0.00     0.087 C 
ATOM      9  C   UNL     1       4.801  -0.369   1.962  1.00  0.00     0.027 C 
ATOM     10  C   UNL     1       2.345   0.902   0.717  1.00  0.00     0.316 C 
ATOM     11  C   UNL     1       5.532  -0.669   0.332  1.00  0.00     0.019 A 
ATOM     12  O   UNL     1       3.127   0.585  -1.037  1.00  0.00    -0.475 OA
ATOM     13  C   UNL     1       6.651  -1.458   0.366  1.00  0.00     0.032 A 
ATOM     14  C   UNL     1       4.712  -0.310  -1.188  1.00  0.00     0.135 A 
ATOM     15  C   UNL     1       7.009  -1.989  -0.860  1.00  0.00     0.042 A 
ATOM     16  C   UNL     1       5.228  -0.814  -2.401  1.00  0.00     0.026 A 
ATOM     17  Cl  UNL     1       8.358  -3.074  -0.903  1.00  0.00    -0.084 Cl
ATOM     18  C   UNL     1       6.330  -1.712  -2.106  1.00  0.00     0.033 A 
BRANCH  10  19
ATOM     19  C   UNL     1       1.801   2.196   1.458  1.00  0.00     0.430 C 
ATOM     20  F   UNL     1       0.841   2.856   0.780  1.00  0.00    -0.167 F 
ATOM     21  F   UNL     1       1.184   1.779   2.607  1.00  0.00    -0.167 F 
ATOM     22  F   UNL     1       2.737   3.068   1.889  1.00  0.00    -0.167 F 
ENDBRANCH  10  19
BRANCH  16  23
ATOM     23  C   UNL     1       4.954  -0.659  -3.992  1.00  0.00    -0.015 A 
ATOM     24  C   UNL     1       4.046  -2.145  -4.508  1.00  0.00     0.010 A 
ATOM     25  C   UNL     1       5.499   0.599  -5.490  1.00  0.00     0.010 A 
ATOM     26  C   UNL     1       3.713  -2.408  -6.233  1.00  0.00     0.021 A 
ATOM     27  C   UNL     1       5.062   0.219  -7.192  1.00  0.00     0.021 A 
ATOM     28  C   UNL     1       4.203  -1.269  -7.505  1.00  0.00     0.041 A 
ATOM     29  Cl  UNL     1       3.770  -1.613  -9.138  1.00  0.00    -0.084 Cl
ENDBRANCH  16  23
ENDBRANCH   6   8
ENDBRANCH   5   6
ENDBRANCH   4   5
ENDBRANCH   3   4
ENDBRANCH   2   3
ENDBRANCH   1   2
BRANCH   1  30
ATOM     30  C   UNL     1       3.175   4.032  -2.134  1.00  0.00     0.261 C 
BRANCH  30  31
ATOM     31  O   UNL     1       3.826   3.303  -3.148  1.00  0.00    -0.460 OA
BRANCH  31  32
ATOM     32  C   UNL     1       5.053   2.853  -2.835  1.00  0.00     0.338 C 
ATOM     33  O   UNL     1       5.880   3.320  -2.082  1.00  0.00    -0.246 OA
BRANCH  32  34
ATOM     34  C   UNL     1       5.161   1.607  -3.584  1.00  0.00     0.060 A 
ATOM     35  C   UNL     1       6.749   0.815  -3.696  1.00  0.00     0.016 A 
ATOM     36  C   UNL     1       3.724   1.066  -4.450  1.00  0.00     0.016 A 
ATOM     37  C   UNL     1       7.042  -0.600  -4.717  1.00  0.00     0.010 A 
ATOM     38  C   UNL     1       3.889  -0.344  -5.532  1.00  0.00     0.010 A 
ATOM     39  C   UNL     1       5.680  -1.284  -5.693  1.00  0.00    -0.014 A 
BRANCH  39  40
ATOM     40  C   UNL     1       6.377  -2.484  -6.572  1.00  0.00     0.031 A 
ATOM     41  C   UNL     1       7.088  -2.180  -7.893  1.00  0.00     0.074 A 
ATOM     42  C   UNL     1       6.345  -3.797  -6.233  1.00  0.00     0.049 A 
ATOM     43  N   UNL     1       7.236  -2.944  -8.954  1.00  0.00    -0.248 NA
ATOM     44  C   UNL     1       7.688  -0.848  -8.047  1.00  0.00     0.031 C 
ATOM     45  C   UNL     1       5.960  -4.362  -4.947  1.00  0.00     0.029 A 
ATOM     46  N   UNL     1       6.505  -4.919  -7.032  1.00  0.00    -0.354 N 
ATOM     47  C   UNL     1       7.827  -2.143  -9.932  1.00  0.00     0.074 A 
ATOM     48  C   UNL     1       8.015  -0.839  -9.334  1.00  0.00     0.031 C 
ATOM     49  C   UNL     1       5.705  -5.671  -5.085  1.00  0.00     0.029 A 
ATOM     50  C   UNL     1       5.956  -6.054  -6.468  1.00  0.00     0.049 A 
ATOM     51  H   UNL     1       6.960  -4.908  -7.905  1.00  0.00     0.167 HD
ATOM     52  C   UNL     1       8.189  -2.458 -11.203  1.00  0.00     0.031 A 
ATOM     53  C   UNL     1       5.628  -7.254  -6.989  1.00  0.00     0.031 A 
ATOM     54  C   UNL     1       8.149  -3.788 -11.762  1.00  0.00     0.049 A 
ATOM     55  C   UNL     1       5.978  -7.585  -8.411  1.00  0.00     0.074 A 
ATOM     56  C   UNL     1       8.641  -4.220 -12.986  1.00  0.00     0.029 A 
ATOM     57  N   UNL     1       7.616  -4.898 -11.136  1.00  0.00    -0.354 N 
ATOM     58  N   UNL     1       6.526  -6.824  -9.322  1.00  0.00    -0.248 NA
ATOM     59  C   UNL     1       5.710  -8.961  -8.861  1.00  0.00     0.031 C 
ATOM     60  C   UNL     1       8.356  -5.581 -13.122  1.00  0.00     0.029 A 
ATOM     61  C   UNL     1       7.741  -6.008 -11.959  1.00  0.00     0.049 A 
ATOM     62  H   UNL     1       7.208  -4.901 -10.240  1.00  0.00     0.167 HD
ATOM     63  C   UNL     1       6.727  -7.644 -10.426  1.00  0.00     0.074 A 
ATOM     64  C   UNL     1       6.242  -8.959 -10.074  1.00  0.00     0.031 C 
ATOM     65  C   UNL     1       7.281  -7.327 -11.619  1.00  0.00     0.031 A 
BRANCH  52  66
ATOM     66  C   UNL     1       8.677  -1.360 -12.118  1.00  0.00    -0.014 A 
ATOM     67  C   UNL     1       9.915  -0.728 -11.930  1.00  0.00     0.009 A 
ATOM     68  C   UNL     1       7.930  -1.045 -13.269  1.00  0.00     0.009 A 
ATOM     69  C   UNL     1      10.377   0.216 -12.852  1.00  0.00     0.001 A 
ATOM     70  C   UNL     1       8.412  -0.131 -14.208  1.00  0.00     0.001 A 
ATOM     71  C   UNL     1       9.631   0.506 -13.994  1.00  0.00     0.000 A 
ENDBRANCH  52  66
BRANCH  53  72
ATOM     72  C   UNL     1       4.902  -8.259  -6.162  1.00  0.00    -0.014 A 
ATOM     73  C   UNL     1       5.553  -9.418  -5.714  1.00  0.00     0.009 A 
ATOM     74  C   UNL     1       3.537  -8.093  -5.874  1.00  0.00     0.009 A 
ATOM     75  C   UNL     1       4.842 -10.413  -5.040  1.00  0.00     0.001 A 
ATOM     76  C   UNL     1       2.836  -9.077  -5.172  1.00  0.00     0.001 A 
ATOM     77  C   UNL     1       3.486 -10.243  -4.769  1.00  0.00     0.000 A 
ENDBRANCH  53  72
BRANCH  65  78
ATOM     78  C   UNL     1       7.459  -8.428 -12.626  1.00  0.00    -0.014 A 
ATOM     79  C   UNL     1       6.363  -8.991 -13.297  1.00  0.00     0.009 A 
ATOM     80  C   UNL     1       8.752  -8.877 -12.944  1.00  0.00     0.009 A 
ATOM     81  C   UNL     1       6.556  -9.998 -14.246  1.00  0.00     0.001 A 
ATOM     82  C   UNL     1       8.944  -9.860 -13.916  1.00  0.00     0.001 A 
ATOM     83  C   UNL     1       7.845 -10.425 -14.561  1.00  0.00     0.000 A 
ENDBRANCH  65  78
ENDBRANCH  39  40
ENDBRANCH  32  34
ENDBRANCH  31  32
ENDBRANCH  30  31
ENDBRANCH   1  30
TORSDOF 16
