REMARK SMILES Cn1cc(S(=O)(=O)NC[C@H]2CC[C@@H](C(=O)OCCOCCOC(=O)c3ccc(-c4c5nc(c(-c6ccccc6)c6ccc([nH]6)c(-c6ccccc6)c6nc(c(-c7ccccc7)c7ccc4[nH]7)C=C6)C=C5)cc3)CC2)cn1
REMARK SMILES IDX 18 1 17 2 16 3 14 4 15 5 13 6 10 7 11 8 74 9 12 10 73 11
REMARK SMILES IDX 9 12 8 13 5 15 6 16 7 17 4 18 1 19 2 20 3 21 76 22 75 23
REMARK SMILES IDX 19 24 20 25 21 26 22 27 23 28 24 29 25 30 26 31 72 32 27 33
REMARK SMILES IDX 71 34 28 35 29 36 30 37 65 38 31 39 70 40 64 41 66 42 32 43
REMARK SMILES IDX 69 44 63 45 62 46 33 48 55 49 40 50 54 51 41 52 44 53 53 54
REMARK SMILES IDX 67 55 42 56 43 57 52 59 68 60 45 61 34 62 35 63 39 64 36 65
REMARK SMILES IDX 38 66 37 67 56 68 57 69 61 70 58 71 60 72 59 73 46 74 47 75
REMARK SMILES IDX 51 76 48 77 50 78 49 79
REMARK H PARENT 8 14 66 47 44 58
REMARK Flexibility Score: inf
ROOT
ATOM      1  C   UNL     1       7.803  -2.377  -0.670  1.00  0.00     0.202 C 
ENDROOT
BRANCH   1   2
ATOM      2  C   UNL     1       6.607  -1.481  -1.005  1.00  0.00     0.261 C 
BRANCH   2   3
ATOM      3  O   UNL     1       5.723  -2.084  -1.966  1.00  0.00    -0.463 OA
BRANCH   3   4
ATOM      4  C   UNL     1       5.505  -1.381  -3.108  1.00  0.00     0.309 C 
ATOM      5  O   UNL     1       5.961  -0.269  -3.346  1.00  0.00    -0.252 OA
BRANCH   4   6
ATOM      6  C   UNL     1       4.608  -2.115  -4.107  1.00  0.00     0.099 C 
ATOM      7  C   UNL     1       2.314  -3.213  -2.560  1.00  0.00     0.004 C 
ATOM      8  C   UNL     1       2.423  -1.724  -2.915  1.00  0.00     0.006 C 
ATOM      9  C   UNL     1       3.613  -4.017  -2.706  1.00  0.00     0.006 C 
ATOM     10  C   UNL     1       3.237  -1.448  -4.172  1.00  0.00     0.015 C 
ATOM     11  C   UNL     1       4.436  -3.627  -3.929  1.00  0.00     0.015 C 
BRANCH   7  12
ATOM     12  C   UNL     1       1.641  -3.443  -1.198  1.00  0.00     0.102 C 
BRANCH  12  13
ATOM     13  N   UNL     1       2.445  -3.132  -0.005  1.00  0.00    -0.211 NA
ATOM     14  H   UNL     1       2.107  -3.759   0.725  1.00  0.00     0.141 HD
BRANCH  13  15
ATOM     15  S   UNL     1       2.534  -1.614   0.706  1.00  0.00     0.243 S 
ATOM     16  O   UNL     1       3.590  -0.878   0.056  1.00  0.00    -0.207 OA
ATOM     17  O   UNL     1       2.560  -1.819   2.137  1.00  0.00    -0.207 OA
BRANCH  15  18
ATOM     18  C   UNL     1       1.126  -0.695   0.438  1.00  0.00     0.120 A 
ATOM     19  C   UNL     1      -2.351   0.067  -0.002  1.00  0.00     0.173 C 
ATOM     20  N   UNL     1      -0.919  -0.003   0.158  1.00  0.00    -0.274 N 
ATOM     21  C   UNL     1      -0.188  -1.099   0.509  1.00  0.00     0.130 A 
ATOM     22  N   UNL     1      -0.171   1.090  -0.086  1.00  0.00    -0.180 NA
ATOM     23  C   UNL     1       1.083   0.664   0.100  1.00  0.00     0.156 A 
ENDBRANCH  15  18
ENDBRANCH  13  15
ENDBRANCH  12  13
ENDBRANCH   7  12
ENDBRANCH   4   6
ENDBRANCH   3   4
ENDBRANCH   2   3
ENDBRANCH   1   2
BRANCH   1  24
ATOM     24  O   UNL     1       8.649  -2.777  -1.744  1.00  0.00    -0.374 OA
BRANCH  24  25
ATOM     25  C   UNL     1       8.119  -3.675  -2.714  1.00  0.00     0.202 C 
BRANCH  25  26
ATOM     26  C   UNL     1       7.840  -5.120  -2.272  1.00  0.00     0.261 C 
BRANCH  26  27
ATOM     27  O   UNL     1       6.866  -5.235  -1.216  1.00  0.00    -0.460 OA
BRANCH  27  28
ATOM     28  C   UNL     1       7.362  -5.733  -0.056  1.00  0.00     0.338 C 
ATOM     29  O   UNL     1       8.504  -6.103   0.162  1.00  0.00    -0.246 OA
BRANCH  28  30
ATOM     30  C   UNL     1       6.362  -5.667   1.024  1.00  0.00     0.060 A 
ATOM     31  C   UNL     1       6.692  -4.925   2.165  1.00  0.00     0.016 A 
ATOM     32  C   UNL     1       5.214  -6.461   1.002  1.00  0.00     0.016 A 
ATOM     33  C   UNL     1       5.911  -5.028   3.314  1.00  0.00     0.010 A 
ATOM     34  C   UNL     1       4.430  -6.562   2.160  1.00  0.00     0.010 A 
ATOM     35  C   UNL     1       4.803  -5.886   3.337  1.00  0.00    -0.014 A 
BRANCH  35  36
ATOM     36  C   UNL     1       4.136  -6.178   4.633  1.00  0.00     0.031 A 
ATOM     37  C   UNL     1       4.416  -7.478   5.338  1.00  0.00     0.074 A 
ATOM     38  C   UNL     1       3.329  -5.271   5.212  1.00  0.00     0.049 A 
ATOM     39  N   UNL     1       3.945  -7.923   6.476  1.00  0.00    -0.248 NA
ATOM     40  C   UNL     1       5.351  -8.400   4.673  1.00  0.00     0.031 C 
ATOM     41  C   UNL     1       3.017  -3.956   4.664  1.00  0.00     0.029 A 
ATOM     42  N   UNL     1       2.628  -5.318   6.392  1.00  0.00    -0.354 N 
ATOM     43  C   UNL     1       4.519  -9.175   6.660  1.00  0.00     0.074 A 
ATOM     44  C   UNL     1       5.346  -9.435   5.501  1.00  0.00     0.031 C 
ATOM     45  C   UNL     1       2.184  -3.317   5.501  1.00  0.00     0.029 A 
ATOM     46  C   UNL     1       1.883  -4.189   6.632  1.00  0.00     0.049 A 
ATOM     47  H   UNL     1       2.658  -6.087   7.007  1.00  0.00     0.167 HD
ATOM     48  C   UNL     1       4.378 -10.029   7.702  1.00  0.00     0.031 A 
ATOM     49  C   UNL     1       1.042  -3.896   7.643  1.00  0.00     0.031 A 
ATOM     50  C   UNL     1       3.554  -9.776   8.856  1.00  0.00     0.049 A 
ATOM     51  C   UNL     1       0.848  -4.892   8.754  1.00  0.00     0.074 A 
ATOM     52  C   UNL     1       3.363 -10.575   9.970  1.00  0.00     0.029 A 
ATOM     53  N   UNL     1       2.780  -8.641   9.041  1.00  0.00    -0.354 N 
ATOM     54  N   UNL     1       1.412  -6.063   8.924  1.00  0.00    -0.248 NA
ATOM     55  C   UNL     1      -0.091  -4.516   9.821  1.00  0.00     0.031 C 
ATOM     56  C   UNL     1       2.427  -9.951  10.801  1.00  0.00     0.029 A 
ATOM     57  C   UNL     1       2.087  -8.732  10.237  1.00  0.00     0.049 A 
ATOM     58  H   UNL     1       2.731  -7.883   8.415  1.00  0.00     0.167 HD
ATOM     59  C   UNL     1       0.922  -6.549  10.130  1.00  0.00     0.074 A 
ATOM     60  C   UNL     1       0.027  -5.539  10.656  1.00  0.00     0.031 C 
ATOM     61  C   UNL     1       1.194  -7.724  10.749  1.00  0.00     0.031 A 
BRANCH  48  62
ATOM     62  C   UNL     1       5.109 -11.342   7.626  1.00  0.00    -0.014 A 
ATOM     63  C   UNL     1       6.505 -11.413   7.752  1.00  0.00     0.009 A 
ATOM     64  C   UNL     1       4.381 -12.532   7.461  1.00  0.00     0.009 A 
ATOM     65  C   UNL     1       7.159 -12.646   7.681  1.00  0.00     0.001 A 
ATOM     66  C   UNL     1       5.035 -13.764   7.420  1.00  0.00     0.001 A 
ATOM     67  C   UNL     1       6.424 -13.819   7.520  1.00  0.00     0.000 A 
ENDBRANCH  48  62
BRANCH  49  68
ATOM     68  C   UNL     1       0.304  -2.606   7.646  1.00  0.00    -0.014 A 
ATOM     69  C   UNL     1       0.589  -1.616   8.599  1.00  0.00     0.009 A 
ATOM     70  C   UNL     1      -0.708  -2.366   6.703  1.00  0.00     0.009 A 
ATOM     71  C   UNL     1      -0.142  -0.426   8.625  1.00  0.00     0.001 A 
ATOM     72  C   UNL     1      -1.417  -1.163   6.711  1.00  0.00     0.001 A 
ATOM     73  C   UNL     1      -1.141  -0.199   7.678  1.00  0.00     0.000 A 
ENDBRANCH  49  68
BRANCH  61  74
ATOM     74  C   UNL     1       0.545  -7.966  12.084  1.00  0.00    -0.014 A 
ATOM     75  C   UNL     1      -0.831  -8.215  12.197  1.00  0.00     0.009 A 
ATOM     76  C   UNL     1       1.334  -7.972  13.246  1.00  0.00     0.009 A 
ATOM     77  C   UNL     1      -1.411  -8.424  13.451  1.00  0.00     0.001 A 
ATOM     78  C   UNL     1       0.757  -8.214  14.494  1.00  0.00     0.001 A 
ATOM     79  C   UNL     1      -0.616  -8.428  14.597  1.00  0.00     0.000 A 
ENDBRANCH  61  74
ENDBRANCH  35  36
ENDBRANCH  28  30
ENDBRANCH  27  28
ENDBRANCH  26  27
ENDBRANCH  25  26
ENDBRANCH  24  25
ENDBRANCH   1  24
TORSDOF 18
