REMARK SMILES CC(C)[C@@H](NC(=O)/C(=C\c1ccccc1F)NC(=O)c1ccccc1)C(=O)OCCOCCOC(=O)c1ccc(-c2c3nc(c(-c4ccccc4)c4ccc([nH]4)c(-c4ccccc4)c4nc(c(-c5ccccc5)c5ccc2[nH]5)C=C4)C=C3)cc1
REMARK SMILES IDX 30 1 29 2 28 3 26 4 27 5 4 6 2 7 1 8 3 9 5 10 6 11 7 13 8 14
REMARK SMILES IDX 9 15 17 16 18 17 19 19 20 20 21 21 25 22 22 23 24 24 23 25
REMARK SMILES IDX 10 26 11 27 15 28 12 29 14 30 16 31 13 32 31 33 32 34 33 35
REMARK SMILES IDX 34 36 35 37 36 38 37 39 38 40 84 41 39 42 83 43 40 44 41 45
REMARK SMILES IDX 42 46 77 47 43 48 82 49 76 50 78 51 44 52 81 53 75 54 74 55
REMARK SMILES IDX 45 57 67 58 52 59 66 60 53 61 56 62 65 63 79 64 54 65 55 66
REMARK SMILES IDX 64 68 80 69 57 70 46 71 47 72 51 73 48 74 50 75 49 76 68 77
REMARK SMILES IDX 69 78 73 79 70 80 72 81 71 82 58 83 59 84 63 85 60 86 62 87
REMARK SMILES IDX 61 88
REMARK H PARENT 5 12 17 18 78 56 56 67
REMARK Flexibility Score: inf
ROOT
ATOM      1  C   UNL     1      -1.423   4.755  -3.808  1.00  0.00     0.202 C 
ENDROOT
BRANCH   1   2
ATOM      2  C   UNL     1      -1.702   4.861  -2.299  1.00  0.00     0.261 C 
BRANCH   2   3
ATOM      3  O   UNL     1      -1.085   3.949  -1.342  1.00  0.00    -0.462 OA
BRANCH   3   4
ATOM      4  C   UNL     1      -0.762   2.688  -1.688  1.00  0.00     0.328 C 
ATOM      5  O   UNL     1      -0.589   2.289  -2.827  1.00  0.00    -0.250 OA
BRANCH   4   6
ATOM      6  C   UNL     1      -0.516   1.709  -0.549  1.00  0.00     0.195 C 
BRANCH   6   7
ATOM      7  C   UNL     1       0.995   1.641  -0.203  1.00  0.00     0.017 C 
ATOM      8  C   UNL     1       1.271   0.467   0.748  1.00  0.00     0.010 C 
ATOM      9  C   UNL     1       1.864   1.437  -1.459  1.00  0.00     0.010 C 
ENDBRANCH   6   7
BRANCH   6  10
ATOM     10  N   UNL     1      -1.380   1.860   0.616  1.00  0.00    -0.337 N 
ATOM     11  C   UNL     1      -2.724   1.564   0.634  1.00  0.00     0.268 C 
ATOM     12  H   UNL     1      -0.974   2.197   1.447  1.00  0.00     0.164 HD
ATOM     13  O   UNL     1      -3.226   1.066   1.637  1.00  0.00    -0.268 OA
BRANCH  11  14
ATOM     14  C   UNL     1      -3.574   2.010  -0.521  1.00  0.00     0.107 C 
ATOM     15  C   UNL     1      -3.765   1.227  -1.607  1.00  0.00     0.043 C 
BRANCH  14  16
ATOM     16  N   UNL     1      -4.126   3.281  -0.518  1.00  0.00    -0.317 N 
ATOM     17  C   UNL     1      -4.134   4.312   0.399  1.00  0.00     0.255 C 
ATOM     18  H   UNL     1      -4.617   3.494  -1.345  1.00  0.00     0.170 HD
ATOM     19  O   UNL     1      -4.569   5.415   0.066  1.00  0.00    -0.269 OA
BRANCH  17  20
ATOM     20  C   UNL     1      -3.700   4.135   1.792  1.00  0.00     0.040 A 
ATOM     21  C   UNL     1      -4.668   3.849   2.757  1.00  0.00     0.014 A 
ATOM     22  C   UNL     1      -2.360   4.298   2.154  1.00  0.00     0.014 A 
ATOM     23  C   UNL     1      -4.279   3.638   4.080  1.00  0.00     0.001 A 
ATOM     24  C   UNL     1      -1.972   4.054   3.473  1.00  0.00     0.001 A 
ATOM     25  C   UNL     1      -2.930   3.716   4.431  1.00  0.00     0.000 A 
ENDBRANCH  17  20
ENDBRANCH  14  16
BRANCH  15  26
ATOM     26  C   UNL     1      -3.164  -0.090  -1.872  1.00  0.00     0.012 A 
ATOM     27  C   UNL     1      -2.315  -0.225  -2.982  1.00  0.00     0.011 A 
ATOM     28  C   UNL     1      -3.347  -1.197  -1.042  1.00  0.00     0.130 A 
ATOM     29  C   UNL     1      -1.561  -1.387  -3.167  1.00  0.00     0.001 A 
ATOM     30  C   UNL     1      -2.620  -2.370  -1.238  1.00  0.00     0.040 A 
ATOM     31  F   UNL     1      -4.225  -1.147  -0.031  1.00  0.00    -0.206 F 
ATOM     32  C   UNL     1      -1.700  -2.454  -2.283  1.00  0.00     0.003 A 
ENDBRANCH  15  26
ENDBRANCH  11  14
ENDBRANCH   6  10
ENDBRANCH   4   6
ENDBRANCH   3   4
ENDBRANCH   2   3
ENDBRANCH   1   2
BRANCH   1  33
ATOM     33  O   UNL     1      -1.905   3.555  -4.410  1.00  0.00    -0.374 OA
BRANCH  33  34
ATOM     34  C   UNL     1      -1.179   3.110  -5.575  1.00  0.00     0.202 C 
BRANCH  34  35
ATOM     35  C   UNL     1       0.273   2.573  -5.390  1.00  0.00     0.261 C 
BRANCH  35  36
ATOM     36  O   UNL     1       1.184   3.540  -4.840  1.00  0.00    -0.460 OA
BRANCH  36  37
ATOM     37  C   UNL     1       1.512   4.539  -5.688  1.00  0.00     0.338 C 
ATOM     38  O   UNL     1       1.348   4.554  -6.898  1.00  0.00    -0.246 OA
BRANCH  37  39
ATOM     39  C   UNL     1       1.797   5.747  -4.885  1.00  0.00     0.060 A 
ATOM     40  C   UNL     1       1.074   6.900  -5.220  1.00  0.00     0.016 A 
ATOM     41  C   UNL     1       2.669   5.744  -3.791  1.00  0.00     0.016 A 
ATOM     42  C   UNL     1       1.269   8.074  -4.506  1.00  0.00     0.010 A 
ATOM     43  C   UNL     1       2.885   6.934  -3.086  1.00  0.00     0.010 A 
ATOM     44  C   UNL     1       2.222   8.111  -3.479  1.00  0.00    -0.014 A 
BRANCH  44  45
ATOM     45  C   UNL     1       2.727   9.440  -3.072  1.00  0.00     0.031 A 
ATOM     46  C   UNL     1       3.895   9.990  -3.846  1.00  0.00     0.074 A 
ATOM     47  C   UNL     1       2.103  10.182  -2.142  1.00  0.00     0.049 A 
ATOM     48  N   UNL     1       4.464  11.164  -3.774  1.00  0.00    -0.248 NA
ATOM     49  C   UNL     1       4.491   9.094  -4.855  1.00  0.00     0.031 C 
ATOM     50  C   UNL     1       0.922   9.776  -1.381  1.00  0.00     0.029 A 
ATOM     51  N   UNL     1       2.370  11.453  -1.700  1.00  0.00    -0.354 N 
ATOM     52  C   UNL     1       5.472  11.148  -4.731  1.00  0.00     0.074 A 
ATOM     53  C   UNL     1       5.464   9.841  -5.346  1.00  0.00     0.031 C 
ATOM     54  C   UNL     1       0.562  10.785  -0.567  1.00  0.00     0.029 A 
ATOM     55  C   UNL     1       1.497  11.896  -0.737  1.00  0.00     0.049 A 
ATOM     56  H   UNL     1       3.117  11.996  -2.040  1.00  0.00     0.167 HD
ATOM     57  C   UNL     1       6.325  12.138  -5.078  1.00  0.00     0.031 A 
ATOM     58  C   UNL     1       1.467  13.067  -0.070  1.00  0.00     0.031 A 
ATOM     59  C   UNL     1       6.348  13.425  -4.444  1.00  0.00     0.049 A 
ATOM     60  C   UNL     1       2.491  14.121  -0.406  1.00  0.00     0.074 A 
ATOM     61  C   UNL     1       7.183  14.497  -4.696  1.00  0.00     0.029 A 
ATOM     62  N   UNL     1       5.495  13.806  -3.420  1.00  0.00    -0.354 N 
ATOM     63  N   UNL     1       3.432  14.100  -1.321  1.00  0.00    -0.248 NA
ATOM     64  C   UNL     1       2.442  15.365   0.375  1.00  0.00     0.031 C 
ATOM     65  C   UNL     1       6.870  15.509  -3.784  1.00  0.00     0.029 A 
ATOM     66  C   UNL     1       5.800  15.089  -3.009  1.00  0.00     0.049 A 
ATOM     67  H   UNL     1       4.779  13.246  -3.042  1.00  0.00     0.167 HD
ATOM     68  C   UNL     1       4.067  15.333  -1.245  1.00  0.00     0.074 A 
ATOM     69  C   UNL     1       3.394  16.084  -0.204  1.00  0.00     0.031 C 
ATOM     70  C   UNL     1       5.111  15.808  -1.969  1.00  0.00     0.031 A 
BRANCH  57  71
ATOM     71  C   UNL     1       7.327  11.833  -6.155  1.00  0.00    -0.014 A 
ATOM     72  C   UNL     1       6.938  11.697  -7.498  1.00  0.00     0.009 A 
ATOM     73  C   UNL     1       8.679  11.673  -5.819  1.00  0.00     0.009 A 
ATOM     74  C   UNL     1       7.881  11.372  -8.476  1.00  0.00     0.001 A 
ATOM     75  C   UNL     1       9.623  11.377  -6.803  1.00  0.00     0.001 A 
ATOM     76  C   UNL     1       9.223  11.217  -8.128  1.00  0.00     0.000 A 
ENDBRANCH  57  71
BRANCH  58  77
ATOM     77  C   UNL     1       0.451  13.303   0.991  1.00  0.00    -0.014 A 
ATOM     78  C   UNL     1      -0.559  14.263   0.827  1.00  0.00     0.009 A 
ATOM     79  C   UNL     1       0.504  12.578   2.192  1.00  0.00     0.009 A 
ATOM     80  C   UNL     1      -1.478  14.508   1.853  1.00  0.00     0.001 A 
ATOM     81  C   UNL     1      -0.433  12.804   3.204  1.00  0.00     0.001 A 
ATOM     82  C   UNL     1      -1.417  13.775   3.037  1.00  0.00     0.000 A 
ENDBRANCH  58  77
BRANCH  70  83
ATOM     83  C   UNL     1       5.564  17.212  -1.683  1.00  0.00    -0.014 A 
ATOM     84  C   UNL     1       6.264  17.528  -0.510  1.00  0.00     0.009 A 
ATOM     85  C   UNL     1       5.334  18.218  -2.634  1.00  0.00     0.009 A 
ATOM     86  C   UNL     1       6.695  18.835  -0.279  1.00  0.00     0.001 A 
ATOM     87  C   UNL     1       5.793  19.517  -2.415  1.00  0.00     0.001 A 
ATOM     88  C   UNL     1       6.465  19.826  -1.233  1.00  0.00     0.000 A 
ENDBRANCH  70  83
ENDBRANCH  44  45
ENDBRANCH  37  39
ENDBRANCH  36  37
ENDBRANCH  35  36
ENDBRANCH  34  35
ENDBRANCH  33  34
ENDBRANCH   1  33
TORSDOF 20
