REMARK SMILES NC(=O)c1cc(NC(=O)/C=C\C(=O)OCCOCCOC(=O)c2ccc(-c3c4nc(c(-c5ccccc5)c5ccc([nH]5)c(-c5ccccc5)c5nc(c(-c6ccccc6)c6ccc3[nH]6)C=C5)C=C4)cc2)ccc1N1CCOCC1
REMARK SMILES IDX 16 1 15 2 14 3 12 4 13 5 11 6 10 7 8 8 7 9 9 11 6 12 4 13
REMARK SMILES IDX 5 14 73 15 72 16 71 17 2 18 1 19 3 22 74 23 75 24 79 25
REMARK SMILES IDX 76 26 78 27 77 28 17 29 18 30 19 31 20 32 21 33 22 34 23 35
REMARK SMILES IDX 24 36 70 37 25 38 69 39 26 40 27 41 28 42 63 43 29 44 68 45
REMARK SMILES IDX 62 46 64 47 30 48 67 49 61 50 60 51 31 53 53 54 38 55 52 56
REMARK SMILES IDX 39 57 42 58 51 59 65 60 40 61 41 62 50 64 66 65 43 66 32 67
REMARK SMILES IDX 33 68 37 69 34 70 36 71 35 72 54 73 55 74 59 75 56 76 58 77
REMARK SMILES IDX 57 78 44 79 45 80 49 81 46 82 48 83 47 84
REMARK H PARENT 7 10 1 20 1 21 64 52 42 63
REMARK Flexibility Score: inf
ROOT
ATOM      1  C   UNL     1       3.751  -3.901  -0.266  1.00  0.00     0.202 C 
ENDROOT
BRANCH   1   2
ATOM      2  C   UNL     1       2.566  -4.857  -0.481  1.00  0.00     0.261 C 
BRANCH   2   3
ATOM      3  O   UNL     1       1.484  -4.764  -1.415  1.00  0.00    -0.460 OA
BRANCH   3   4
ATOM      4  C   UNL     1       0.651  -3.719  -1.486  1.00  0.00     0.331 C 
ATOM      5  O   UNL     1       0.917  -2.553  -1.282  1.00  0.00    -0.247 OA
BRANCH   4   6
ATOM      6  C   UNL     1      -0.700  -4.149  -1.898  1.00  0.00     0.099 C 
ATOM      7  C   UNL     1      -1.409  -5.161  -1.373  1.00  0.00     0.079 C 
BRANCH   7   8
ATOM      8  C   UNL     1      -1.014  -6.161  -0.352  1.00  0.00     0.248 C 
ATOM      9  N   UNL     1      -0.546  -5.848   0.893  1.00  0.00    -0.322 N 
ATOM     10  H   UNL     1      -0.357  -6.636   1.452  1.00  0.00     0.170 HD
ATOM     11  O   UNL     1      -1.127  -7.351  -0.658  1.00  0.00    -0.270 OA
BRANCH   9  12
ATOM     12  C   UNL     1      -0.279  -4.625   1.537  1.00  0.00     0.042 A 
ATOM     13  C   UNL     1      -0.200  -2.210   1.474  1.00  0.00     0.064 A 
ATOM     14  C   UNL     1      -0.859  -3.420   1.180  1.00  0.00     0.042 A 
ATOM     15  C   UNL     1       1.020  -2.189   2.192  1.00  0.00     0.050 A 
ATOM     16  C   UNL     1       1.433  -3.406   2.752  1.00  0.00     0.029 A 
ATOM     17  C   UNL     1       0.767  -4.610   2.464  1.00  0.00     0.028 A 
BRANCH  13  18
ATOM     18  C   UNL     1      -0.779  -1.022   0.791  1.00  0.00     0.250 C 
ATOM     19  N   UNL     1       0.089  -0.231   0.098  1.00  0.00    -0.366 N 
ATOM     20  H   UNL     1      -0.242   0.568  -0.372  1.00  0.00     0.159 HD
ATOM     21  H   UNL     1       1.046  -0.460   0.068  1.00  0.00     0.159 HD
ATOM     22  O   UNL     1      -1.988  -0.824   0.772  1.00  0.00    -0.269 OA
ENDBRANCH  13  18
BRANCH  15  23
ATOM     23  N   UNL     1       1.783  -1.043   2.326  1.00  0.00    -0.366 N 
ATOM     24  C   UNL     1       1.298   0.029   3.202  1.00  0.00     0.145 C 
ATOM     25  C   UNL     1       3.226  -0.986   2.057  1.00  0.00     0.145 C 
ATOM     26  C   UNL     1       1.767   1.386   2.650  1.00  0.00     0.181 C 
ATOM     27  C   UNL     1       3.618   0.415   1.564  1.00  0.00     0.181 C 
ATOM     28  O   UNL     1       3.196   1.431   2.483  1.00  0.00    -0.378 OA
ENDBRANCH  15  23
ENDBRANCH   9  12
ENDBRANCH   7   8
ENDBRANCH   4   6
ENDBRANCH   3   4
ENDBRANCH   2   3
ENDBRANCH   1   2
BRANCH   1  29
ATOM     29  O   UNL     1       4.436  -3.100  -1.203  1.00  0.00    -0.374 OA
BRANCH  29  30
ATOM     30  C   UNL     1       3.774  -2.632  -2.352  1.00  0.00     0.202 C 
BRANCH  30  31
ATOM     31  C   UNL     1       3.695  -3.658  -3.488  1.00  0.00     0.261 C 
BRANCH  31  32
ATOM     32  O   UNL     1       3.727  -5.035  -3.066  1.00  0.00    -0.460 OA
BRANCH  32  33
ATOM     33  C   UNL     1       4.955  -5.529  -2.766  1.00  0.00     0.338 C 
ATOM     34  O   UNL     1       6.028  -4.968  -2.899  1.00  0.00    -0.246 OA
BRANCH  33  35
ATOM     35  C   UNL     1       4.816  -6.848  -2.102  1.00  0.00     0.060 A 
ATOM     36  C   UNL     1       5.430  -7.040  -0.854  1.00  0.00     0.016 A 
ATOM     37  C   UNL     1       4.113  -7.894  -2.703  1.00  0.00     0.016 A 
ATOM     38  C   UNL     1       5.382  -8.285  -0.225  1.00  0.00     0.010 A 
ATOM     39  C   UNL     1       4.107  -9.156  -2.097  1.00  0.00     0.010 A 
ATOM     40  C   UNL     1       4.780  -9.367  -0.878  1.00  0.00    -0.014 A 
BRANCH  40  41
ATOM     41  C   UNL     1       5.103 -10.746  -0.436  1.00  0.00     0.031 A 
ATOM     42  C   UNL     1       6.263 -11.440  -1.103  1.00  0.00     0.074 A 
ATOM     43  C   UNL     1       4.429 -11.363   0.550  1.00  0.00     0.049 A 
ATOM     44  N   UNL     1       6.713 -12.658  -0.942  1.00  0.00    -0.248 NA
ATOM     45  C   UNL     1       7.017 -10.645  -2.087  1.00  0.00     0.031 C 
ATOM     46  C   UNL     1       3.342 -10.780   1.331  1.00  0.00     0.029 A 
ATOM     47  N   UNL     1       4.567 -12.633   1.056  1.00  0.00    -0.354 N 
ATOM     48  C   UNL     1       7.790 -12.777  -1.813  1.00  0.00     0.074 A 
ATOM     49  C   UNL     1       7.912 -11.520  -2.516  1.00  0.00     0.031 C 
ATOM     50  C   UNL     1       2.900 -11.696   2.211  1.00  0.00     0.029 A 
ATOM     51  C   UNL     1       3.644 -12.941   2.026  1.00  0.00     0.049 A 
ATOM     52  H   UNL     1       5.261 -13.261   0.754  1.00  0.00     0.167 HD
ATOM     53  C   UNL     1       8.606 -13.839  -2.013  1.00  0.00     0.031 A 
ATOM     54  C   UNL     1       3.410 -14.105   2.666  1.00  0.00     0.031 A 
ATOM     55  C   UNL     1       8.469 -15.098  -1.334  1.00  0.00     0.049 A 
ATOM     56  C   UNL     1       4.260 -15.309   2.347  1.00  0.00     0.074 A 
ATOM     57  C   UNL     1       9.242 -16.238  -1.467  1.00  0.00     0.029 A 
ATOM     58  N   UNL     1       7.484 -15.387  -0.402  1.00  0.00    -0.354 N 
ATOM     59  N   UNL     1       5.280 -15.411   1.528  1.00  0.00    -0.248 NA
ATOM     60  C   UNL     1       3.927 -16.559   3.047  1.00  0.00     0.031 C 
ATOM     61  C   UNL     1       8.684 -17.238  -0.665  1.00  0.00     0.029 A 
ATOM     62  C   UNL     1       7.610 -16.698   0.024  1.00  0.00     0.049 A 
ATOM     63  H   UNL     1       6.798 -14.754  -0.090  1.00  0.00     0.167 HD
ATOM     64  C   UNL     1       5.729 -16.723   1.640  1.00  0.00     0.074 A 
ATOM     65  C   UNL     1       4.880 -17.374   2.615  1.00  0.00     0.031 C 
ATOM     66  C   UNL     1       6.756 -17.332   0.997  1.00  0.00     0.031 A 
BRANCH  53  67
ATOM     67  C   UNL     1       9.682 -13.693  -3.054  1.00  0.00    -0.014 A 
ATOM     68  C   UNL     1      10.783 -12.842  -2.861  1.00  0.00     0.009 A 
ATOM     69  C   UNL     1       9.595 -14.427  -4.247  1.00  0.00     0.009 A 
ATOM     70  C   UNL     1      11.751 -12.700  -3.859  1.00  0.00     0.001 A 
ATOM     71  C   UNL     1      10.581 -14.309  -5.228  1.00  0.00     0.001 A 
ATOM     72  C   UNL     1      11.651 -13.436  -5.038  1.00  0.00     0.000 A 
ENDBRANCH  53  67
BRANCH  54  73
ATOM     73  C   UNL     1       2.301 -14.205   3.653  1.00  0.00    -0.014 A 
ATOM     74  C   UNL     1       2.568 -14.406   5.016  1.00  0.00     0.009 A 
ATOM     75  C   UNL     1       0.964 -14.124   3.232  1.00  0.00     0.009 A 
ATOM     76  C   UNL     1       1.521 -14.544   5.932  1.00  0.00     0.001 A 
ATOM     77  C   UNL     1      -0.080 -14.231   4.154  1.00  0.00     0.001 A 
ATOM     78  C   UNL     1       0.199 -14.450   5.501  1.00  0.00     0.000 A 
ENDBRANCH  54  73
BRANCH  66  79
ATOM     79  C   UNL     1       7.052 -18.763   1.358  1.00  0.00    -0.014 A 
ATOM     80  C   UNL     1       6.197 -19.810   0.982  1.00  0.00     0.009 A 
ATOM     81  C   UNL     1       8.239 -19.071   2.043  1.00  0.00     0.009 A 
ATOM     82  C   UNL     1       6.507 -21.130   1.316  1.00  0.00     0.001 A 
ATOM     83  C   UNL     1       8.563 -20.394   2.346  1.00  0.00     0.001 A 
ATOM     84  C   UNL     1       7.692 -21.422   1.992  1.00  0.00     0.000 A 
ENDBRANCH  66  79
ENDBRANCH  40  41
ENDBRANCH  33  35
ENDBRANCH  32  33
ENDBRANCH  31  32
ENDBRANCH  30  31
ENDBRANCH  29  30
ENDBRANCH   1  29
TORSDOF 18
