REMARK SMILES Cc1nc(-c2ccc(S(=O)(=O)N3CC[NH2+][C@H](C(=O)OCCOCCOC(=O)c4ccc(-c5c6nc(c(-c7ccccc7)c7ccc([nH]7)c(-c7ccccc7)c7nc(c(-c8ccccc8)c8ccc5[nH]8)C=C7)C=C6)cc4)C3)s2)cs1
REMARK SMILES IDX 21 1 20 2 19 3 17 4 18 5 16 6 12 7 13 8 76 9 14 10 15 11
REMARK SMILES IDX 9 14 10 15 11 16 8 17 5 18 6 19 77 20 7 21 4 22 1 23 2 24
REMARK SMILES IDX 3 25 79 26 78 27 22 28 23 29 24 30 25 31 26 32 27 33 28 34
REMARK SMILES IDX 29 35 75 36 30 37 74 38 31 39 32 40 33 41 68 42 34 43 73 44
REMARK SMILES IDX 67 45 69 46 35 47 72 48 66 49 65 50 36 52 58 53 43 54 57 55
REMARK SMILES IDX 44 56 47 57 56 58 70 59 45 60 46 61 55 63 71 64 48 65 37 66
REMARK SMILES IDX 38 67 42 68 39 69 41 70 40 71 59 72 60 73 64 74 61 75 63 76
REMARK SMILES IDX 62 77 49 78 50 79 54 80 51 81 53 82 52 83
REMARK H PARENT 15 12 15 13 69 51 47 62
REMARK Flexibility Score: inf
ROOT
ATOM      1  C   UNL     1       5.781  -4.687  -6.487  1.00  0.00     0.202 C 
ENDROOT
BRANCH   1   2
ATOM      2  C   UNL     1       6.107  -4.017  -5.151  1.00  0.00     0.261 C 
BRANCH   2   3
ATOM      3  O   UNL     1       5.871  -4.881  -4.023  1.00  0.00    -0.459 OA
BRANCH   3   4
ATOM      4  C   UNL     1       4.979  -4.378  -3.130  1.00  0.00     0.366 C 
ATOM      5  O   UNL     1       4.490  -3.254  -3.188  1.00  0.00    -0.245 OA
BRANCH   4   6
ATOM      6  C   UNL     1       4.609  -5.338  -2.020  1.00  0.00     0.308 C 
ATOM      7  N   UNL     1       5.145  -6.078   0.227  1.00  0.00    -0.185 NA
ATOM      8  C   UNL     1       4.362  -7.332   0.036  1.00  0.00     0.164 C 
ATOM      9  C   UNL     1       5.745  -5.571  -1.035  1.00  0.00     0.180 C 
ATOM     10  C   UNL     1       3.475  -7.333  -1.239  1.00  0.00     0.278 C 
ATOM     11  N   UNL     1       3.995  -6.632  -2.440  1.00  0.00    -0.332 N 
ATOM     12  H   UNL     1       3.229  -6.452  -3.089  1.00  0.00     0.347 HD
ATOM     13  H   UNL     1       4.695  -7.212  -2.902  1.00  0.00     0.347 HD
BRANCH   7  14
ATOM     14  S   UNL     1       4.697  -4.928   1.399  1.00  0.00     0.253 S 
ATOM     15  O   UNL     1       5.811  -4.016   1.518  1.00  0.00    -0.206 OA
ATOM     16  O   UNL     1       4.175  -5.649   2.544  1.00  0.00    -0.206 OA
BRANCH  14  17
ATOM     17  C   UNL     1       3.309  -3.928   0.847  1.00  0.00     0.135 A 
ATOM     18  C   UNL     1       1.818  -1.972   0.521  1.00  0.00     0.055 A 
ATOM     19  C   UNL     1       1.331  -3.105  -0.087  1.00  0.00     0.023 A 
ATOM     20  S   UNL     1       3.332  -2.250   1.254  1.00  0.00    -0.121 S 
ATOM     21  C   UNL     1       2.147  -4.235   0.164  1.00  0.00     0.034 A 
BRANCH  18  22
ATOM     22  C   UNL     1       1.010  -0.712   0.525  1.00  0.00     0.091 A 
ATOM     23  C   UNL     1      -2.346   0.618   0.019  1.00  0.00     0.079 C 
ATOM     24  C   UNL     1      -0.899   0.388   0.278  1.00  0.00     0.090 A 
ATOM     25  N   UNL     1      -0.314  -0.774   0.115  1.00  0.00    -0.241 NA
ATOM     26  S   UNL     1       0.125   1.650   0.831  1.00  0.00    -0.127 S 
ATOM     27  C   UNL     1       1.431   0.532   0.939  1.00  0.00     0.096 A 
ENDBRANCH  18  22
ENDBRANCH  14  17
ENDBRANCH   7  14
ENDBRANCH   4   6
ENDBRANCH   3   4
ENDBRANCH   2   3
ENDBRANCH   1   2
BRANCH   1  28
ATOM     28  O   UNL     1       4.455  -5.154  -6.713  1.00  0.00    -0.374 OA
BRANCH  28  29
ATOM     29  C   UNL     1       3.926  -6.155  -5.849  1.00  0.00     0.202 C 
BRANCH  29  30
ATOM     30  C   UNL     1       4.559  -7.556  -5.886  1.00  0.00     0.261 C 
BRANCH  30  31
ATOM     31  O   UNL     1       5.985  -7.562  -5.684  1.00  0.00    -0.460 OA
BRANCH  31  32
ATOM     32  C   UNL     1       6.692  -7.965  -6.772  1.00  0.00     0.338 C 
ATOM     33  O   UNL     1       6.250  -8.398  -7.824  1.00  0.00    -0.246 OA
BRANCH  32  34
ATOM     34  C   UNL     1       8.124  -7.654  -6.617  1.00  0.00     0.060 A 
ATOM     35  C   UNL     1       8.698  -6.807  -7.575  1.00  0.00     0.016 A 
ATOM     36  C   UNL     1       8.919  -8.284  -5.658  1.00  0.00     0.016 A 
ATOM     37  C   UNL     1      10.077  -6.636  -7.619  1.00  0.00     0.010 A 
ATOM     38  C   UNL     1      10.310  -8.122  -5.713  1.00  0.00     0.010 A 
ATOM     39  C   UNL     1      10.894  -7.338  -6.725  1.00  0.00    -0.014 A 
BRANCH  39  40
ATOM     40  C   UNL     1      12.350  -7.394  -7.002  1.00  0.00     0.031 A 
ATOM     41  C   UNL     1      12.895  -8.569  -7.769  1.00  0.00     0.074 A 
ATOM     42  C   UNL     1      13.157  -6.373  -6.666  1.00  0.00     0.049 A 
ATOM     43  N   UNL     1      14.112  -8.787  -8.199  1.00  0.00    -0.248 NA
ATOM     44  C   UNL     1      11.938  -9.637  -8.104  1.00  0.00     0.031 C 
ATOM     45  C   UNL     1      12.740  -5.159  -5.968  1.00  0.00     0.029 A 
ATOM     46  N   UNL     1      14.499  -6.194  -6.887  1.00  0.00    -0.354 N 
ATOM     47  C   UNL     1      14.066 -10.012  -8.854  1.00  0.00     0.074 A 
ATOM     48  C   UNL     1      12.712 -10.506  -8.737  1.00  0.00     0.031 C 
ATOM     49  C   UNL     1      13.806  -4.353  -5.824  1.00  0.00     0.029 A 
ATOM     50  C   UNL     1      14.980  -5.004  -6.401  1.00  0.00     0.049 A 
ATOM     51  H   UNL     1      15.062  -6.855  -7.350  1.00  0.00     0.167 HD
ATOM     52  C   UNL     1      15.058 -10.665  -9.505  1.00  0.00     0.031 A 
ATOM     53  C   UNL     1      16.229  -4.499  -6.420  1.00  0.00     0.031 A 
ATOM     54  C   UNL     1      16.408 -10.183  -9.613  1.00  0.00     0.049 A 
ATOM     55  C   UNL     1      17.330  -5.275  -7.091  1.00  0.00     0.074 A 
ATOM     56  C   UNL     1      17.485 -10.769 -10.255  1.00  0.00     0.029 A 
ATOM     57  N   UNL     1      16.867  -8.999  -9.059  1.00  0.00    -0.354 N 
ATOM     58  N   UNL     1      17.267  -6.420  -7.726  1.00  0.00    -0.248 NA
ATOM     59  C   UNL     1      18.674  -4.679  -7.057  1.00  0.00     0.031 C 
ATOM     60  C   UNL     1      18.608  -9.962 -10.048  1.00  0.00     0.029 A 
ATOM     61  C   UNL     1      18.218  -8.847  -9.323  1.00  0.00     0.049 A 
ATOM     62  H   UNL     1      16.315  -8.361  -8.552  1.00  0.00     0.167 HD
ATOM     63  C   UNL     1      18.553  -6.668  -8.191  1.00  0.00     0.074 A 
ATOM     64  C   UNL     1      19.371  -5.546  -7.777  1.00  0.00     0.031 C 
ATOM     65  C   UNL     1      19.016  -7.727  -8.899  1.00  0.00     0.031 A 
BRANCH  52  66
ATOM     66  C   UNL     1      14.719 -11.993 -10.121  1.00  0.00    -0.014 A 
ATOM     67  C   UNL     1      13.929 -12.079 -11.279  1.00  0.00     0.009 A 
ATOM     68  C   UNL     1      15.213 -13.173  -9.546  1.00  0.00     0.009 A 
ATOM     69  C   UNL     1      13.614 -13.324 -11.828  1.00  0.00     0.001 A 
ATOM     70  C   UNL     1      14.918 -14.415 -10.112  1.00  0.00     0.001 A 
ATOM     71  C   UNL     1      14.112 -14.490 -11.247  1.00  0.00     0.000 A 
ENDBRANCH  52  66
BRANCH  53  72
ATOM     72  C   UNL     1      16.511  -3.190  -5.777  1.00  0.00    -0.014 A 
ATOM     73  C   UNL     1      16.826  -2.062  -6.549  1.00  0.00     0.009 A 
ATOM     74  C   UNL     1      16.483  -3.068  -4.378  1.00  0.00     0.009 A 
ATOM     75  C   UNL     1      17.130  -0.845  -5.933  1.00  0.00     0.001 A 
ATOM     76  C   UNL     1      16.762  -1.845  -3.766  1.00  0.00     0.001 A 
ATOM     77  C   UNL     1      17.094  -0.737  -4.543  1.00  0.00     0.000 A 
ENDBRANCH  53  72
BRANCH  65  78
ATOM     78  C   UNL     1      20.465  -7.706  -9.297  1.00  0.00    -0.014 A 
ATOM     79  C   UNL     1      21.483  -7.918  -8.354  1.00  0.00     0.009 A 
ATOM     80  C   UNL     1      20.813  -7.502 -10.641  1.00  0.00     0.009 A 
ATOM     81  C   UNL     1      22.823  -7.890  -8.745  1.00  0.00     0.001 A 
ATOM     82  C   UNL     1      22.152  -7.503 -11.034  1.00  0.00     0.001 A 
ATOM     83  C   UNL     1      23.156  -7.686 -10.084  1.00  0.00     0.000 A 
ENDBRANCH  65  78
ENDBRANCH  39  40
ENDBRANCH  32  34
ENDBRANCH  31  32
ENDBRANCH  30  31
ENDBRANCH  29  30
ENDBRANCH  28  29
ENDBRANCH   1  28
TORSDOF 17
