REMARK SMILES O=C(C[C@H]1C[C@H]2CC[C@@H](C1)N2C(=O)c1c[nH]c(=O)[nH]1)OCCOCCOC(=O)c1ccc(-c2c3nc(c(-c4ccccc4)c4ccc([nH]4)c(-c4ccccc4)c4nc(c(-c5ccccc5)c5ccc2[nH]5)C=C4)C=C3)cc1
REMARK SMILES IDX 22 1 21 2 20 3 2 4 1 5 3 6 4 7 5 8 10 9 6 10 9 11 7 12 11 13
REMARK SMILES IDX 8 14 12 15 13 16 14 17 15 18 19 19 16 20 17 21 18 24 23 25
REMARK SMILES IDX 24 26 25 27 26 28 27 29 28 30 29 31 30 32 76 33 31 34 75 35
REMARK SMILES IDX 32 36 33 37 34 38 69 39 35 40 74 41 68 42 70 43 36 44 73 45
REMARK SMILES IDX 67 46 66 47 37 49 59 50 44 51 58 52 45 53 48 54 57 55 71 56
REMARK SMILES IDX 46 57 47 58 56 60 72 61 49 62 38 63 39 64 43 65 40 66 42 67
REMARK SMILES IDX 41 68 60 69 61 70 65 71 62 72 64 73 63 74 50 75 51 76 55 77
REMARK SMILES IDX 52 78 54 79 53 80
REMARK H PARENT 19 22 16 23 70 48 48 59
REMARK Flexibility Score: inf
ROOT
ATOM      1  C   UNL     1       3.541   1.049   1.468  1.00  0.00     0.202 C 
ENDROOT
BRANCH   1   2
ATOM      2  C   UNL     1       3.461   1.924   0.202  1.00  0.00     0.261 C 
BRANCH   2   3
ATOM      3  O   UNL     1       2.809   1.468  -0.999  1.00  0.00    -0.463 OA
BRANCH   3   4
ATOM      4  C   UNL     1       2.156   0.295  -1.034  1.00  0.00     0.306 C 
ATOM      5  O   UNL     1       0.954   0.213  -0.792  1.00  0.00    -0.252 OA
BRANCH   4   6
ATOM      6  C   UNL     1       2.965  -0.910  -1.493  1.00  0.00     0.126 C 
BRANCH   6   7
ATOM      7  C   UNL     1       4.320  -0.739  -2.210  1.00  0.00     0.004 C 
ATOM      8  C   UNL     1       5.510  -0.245  -1.340  1.00  0.00     0.029 C 
ATOM      9  C   UNL     1       4.674  -2.058  -2.967  1.00  0.00     0.029 C 
ATOM     10  C   UNL     1       6.493  -1.307  -0.831  1.00  0.00     0.086 C 
ATOM     11  C   UNL     1       5.715  -2.948  -2.259  1.00  0.00     0.086 C 
ATOM     12  C   UNL     1       5.863  -2.345   0.093  1.00  0.00     0.027 C 
ATOM     13  N   UNL     1       6.866  -2.113  -1.964  1.00  0.00    -0.331 N 
ATOM     14  C   UNL     1       5.254  -3.384  -0.858  1.00  0.00     0.027 C 
BRANCH  13  15
ATOM     15  C   UNL     1       8.128  -2.091  -2.492  1.00  0.00     0.272 C 
ATOM     16  O   UNL     1       9.044  -1.419  -2.020  1.00  0.00    -0.267 OA
BRANCH  15  17
ATOM     17  C   UNL     1       8.405  -2.979  -3.638  1.00  0.00     0.125 A 
ATOM     18  C   UNL     1       7.764  -3.076  -4.811  1.00  0.00     0.119 A 
ATOM     19  N   UNL     1       9.492  -3.820  -3.659  1.00  0.00    -0.302 N 
ATOM     20  N   UNL     1       8.414  -4.007  -5.582  1.00  0.00    -0.312 N 
ATOM     21  C   UNL     1       9.523  -4.499  -4.877  1.00  0.00     0.323 A 
ATOM     22  H   UNL     1      10.145  -3.927  -2.930  1.00  0.00     0.172 HD
ATOM     23  H   UNL     1       8.144  -4.286  -6.487  1.00  0.00     0.171 HD
ATOM     24  O   UNL     1      10.327  -5.330  -5.251  1.00  0.00    -0.248 OA
ENDBRANCH  15  17
ENDBRANCH  13  15
ENDBRANCH   6   7
ENDBRANCH   4   6
ENDBRANCH   3   4
ENDBRANCH   2   3
ENDBRANCH   1   2
BRANCH   1  25
ATOM     25  O   UNL     1       3.380  -0.348   1.272  1.00  0.00    -0.374 OA
BRANCH  25  26
ATOM     26  C   UNL     1       2.262  -0.926   1.962  1.00  0.00     0.202 C 
BRANCH  26  27
ATOM     27  C   UNL     1       2.642  -1.497   3.329  1.00  0.00     0.261 C 
BRANCH  27  28
ATOM     28  O   UNL     1       3.205  -0.462   4.143  1.00  0.00    -0.460 OA
BRANCH  28  29
ATOM     29  C   UNL     1       4.564  -0.437   4.164  1.00  0.00     0.338 C 
ATOM     30  O   UNL     1       5.321  -1.294   3.772  1.00  0.00    -0.246 OA
BRANCH  29  31
ATOM     31  C   UNL     1       5.006   0.913   4.596  1.00  0.00     0.060 A 
ATOM     32  C   UNL     1       6.274   1.341   4.181  1.00  0.00     0.016 A 
ATOM     33  C   UNL     1       4.190   1.759   5.357  1.00  0.00     0.016 A 
ATOM     34  C   UNL     1       6.761   2.578   4.592  1.00  0.00     0.010 A 
ATOM     35  C   UNL     1       4.671   3.004   5.758  1.00  0.00     0.010 A 
ATOM     36  C   UNL     1       5.980   3.388   5.426  1.00  0.00    -0.014 A 
BRANCH  36  37
ATOM     37  C   UNL     1       6.622   4.503   6.156  1.00  0.00     0.031 A 
ATOM     38  C   UNL     1       7.051   4.253   7.576  1.00  0.00     0.074 A 
ATOM     39  C   UNL     1       6.853   5.686   5.565  1.00  0.00     0.049 A 
ATOM     40  N   UNL     1       7.656   5.053   8.415  1.00  0.00    -0.248 NA
ATOM     41  C   UNL     1       6.751   2.919   8.127  1.00  0.00     0.031 C 
ATOM     42  C   UNL     1       6.511   6.030   4.186  1.00  0.00     0.029 A 
ATOM     43  N   UNL     1       7.443   6.820   6.061  1.00  0.00    -0.354 N 
ATOM     44  C   UNL     1       7.795   4.324   9.591  1.00  0.00     0.074 A 
ATOM     45  C   UNL     1       7.176   3.037   9.373  1.00  0.00     0.031 C 
ATOM     46  C   UNL     1       6.910   7.291   3.941  1.00  0.00     0.029 A 
ATOM     47  C   UNL     1       7.511   7.846   5.152  1.00  0.00     0.049 A 
ATOM     48  H   UNL     1       7.785   6.891   6.981  1.00  0.00     0.167 HD
ATOM     49  C   UNL     1       8.396   4.688  10.746  1.00  0.00     0.031 A 
ATOM     50  C   UNL     1       8.005   9.091   5.290  1.00  0.00     0.031 A 
ATOM     51  C   UNL     1       9.004   5.971  10.960  1.00  0.00     0.049 A 
ATOM     52  C   UNL     1       8.623   9.491   6.604  1.00  0.00     0.074 A 
ATOM     53  C   UNL     1       9.660   6.439  12.084  1.00  0.00     0.029 A 
ATOM     54  N   UNL     1       9.024   6.995  10.025  1.00  0.00    -0.354 N 
ATOM     55  N   UNL     1       8.785   8.782   7.696  1.00  0.00    -0.248 NA
ATOM     56  C   UNL     1       9.146  10.862   6.695  1.00  0.00     0.031 C 
ATOM     57  C   UNL     1      10.027   7.769  11.849  1.00  0.00     0.029 A 
ATOM     58  C   UNL     1       9.660   8.103  10.554  1.00  0.00     0.049 A 
ATOM     59  H   UNL     1       8.641   6.941   9.120  1.00  0.00     0.167 HD
ATOM     60  C   UNL     1       9.467   9.604   8.586  1.00  0.00     0.074 A 
ATOM     61  C   UNL     1       9.692  10.861   7.903  1.00  0.00     0.031 C 
ATOM     62  C   UNL     1       9.878   9.342   9.852  1.00  0.00     0.031 A 
BRANCH  49  63
ATOM     63  C   UNL     1       8.381   3.692  11.873  1.00  0.00    -0.014 A 
ATOM     64  C   UNL     1       9.129   2.504  11.814  1.00  0.00     0.009 A 
ATOM     65  C   UNL     1       7.601   3.946  13.011  1.00  0.00     0.009 A 
ATOM     66  C   UNL     1       9.062   1.574  12.854  1.00  0.00     0.001 A 
ATOM     67  C   UNL     1       7.562   3.030  14.063  1.00  0.00     0.001 A 
ATOM     68  C   UNL     1       8.282   1.839  13.979  1.00  0.00     0.000 A 
ENDBRANCH  49  63
BRANCH  50  69
ATOM     69  C   UNL     1       7.959  10.046   4.152  1.00  0.00    -0.014 A 
ATOM     70  C   UNL     1       9.140  10.445   3.506  1.00  0.00     0.009 A 
ATOM     71  C   UNL     1       6.737  10.582   3.719  1.00  0.00     0.009 A 
ATOM     72  C   UNL     1       9.100  11.383   2.471  1.00  0.00     0.001 A 
ATOM     73  C   UNL     1       6.697  11.498   2.665  1.00  0.00     0.001 A 
ATOM     74  C   UNL     1       7.879  11.905   2.049  1.00  0.00     0.000 A 
ENDBRANCH  50  69
BRANCH  62  75
ATOM     75  C   UNL     1      10.668  10.412  10.554  1.00  0.00    -0.014 A 
ATOM     76  C   UNL     1      10.072  11.606  10.986  1.00  0.00     0.009 A 
ATOM     77  C   UNL     1      12.032  10.199  10.814  1.00  0.00     0.009 A 
ATOM     78  C   UNL     1      10.837  12.585  11.625  1.00  0.00     0.001 A 
ATOM     79  C   UNL     1      12.786  11.163  11.483  1.00  0.00     0.001 A 
ATOM     80  C   UNL     1      12.191  12.361  11.876  1.00  0.00     0.000 A 
ENDBRANCH  62  75
ENDBRANCH  36  37
ENDBRANCH  29  31
ENDBRANCH  28  29
ENDBRANCH  27  28
ENDBRANCH  26  27
ENDBRANCH  25  26
ENDBRANCH   1  25
TORSDOF 17
