REMARK SMILES O=C(OCCOCCOC(=O)c1ccc(-c2c3nc(c(-c4ccccc4)c4ccc([nH]4)c(-c4ccccc4)c4nc(c(-c5ccccc5)c5ccc2[nH]5)C=C4)C=C3)cc1)c1ccc(Nc2ccc(F)cc2[N+](=O)[O-])cc1
REMARK SMILES IDX 5 1 4 2 3 3 2 4 1 5 60 6 61 7 76 8 62 9 75 10 63 11 64 12
REMARK SMILES IDX 65 14 66 15 71 16 67 17 70 18 68 19 69 20 72 21 73 22 74 23
REMARK SMILES IDX 6 24 7 25 8 26 9 27 10 28 11 29 12 30 13 31 59 32 14 33
REMARK SMILES IDX 58 34 15 35 16 36 17 37 52 38 18 39 57 40 51 41 53 42 19 43
REMARK SMILES IDX 56 44 50 45 49 46 20 48 42 49 27 50 41 51 28 52 31 53 40 54
REMARK SMILES IDX 54 55 29 56 30 57 39 59 55 60 32 61 21 62 22 63 26 64 23 65
REMARK SMILES IDX 25 66 24 67 43 68 44 69 48 70 45 71 47 72 46 73 33 74 34 75
REMARK SMILES IDX 38 76 35 77 37 78 36 79
REMARK H PARENT 64 13 53 47 31 58
REMARK Flexibility Score: inf
ROOT
ATOM      1  C   UNL     1       4.296  -1.411   0.269  1.00  0.00     0.202 C 
ENDROOT
BRANCH   1   2
ATOM      2  C   UNL     1       4.080  -0.214   1.199  1.00  0.00     0.261 C 
BRANCH   2   3
ATOM      3  O   UNL     1       2.722   0.250   1.119  1.00  0.00    -0.460 OA
BRANCH   3   4
ATOM      4  C   UNL     1       2.236   1.335   0.473  1.00  0.00     0.338 C 
ATOM      5  O   UNL     1       1.033   1.579   0.568  1.00  0.00    -0.246 OA
BRANCH   4   6
ATOM      6  C   UNL     1       3.067   2.268  -0.353  1.00  0.00     0.060 A 
ATOM      7  C   UNL     1       4.226   1.917  -1.039  1.00  0.00     0.018 A 
ATOM      8  C   UNL     1       2.567   3.565  -0.555  1.00  0.00     0.018 A 
ATOM      9  C   UNL     1       4.868   2.813  -1.891  1.00  0.00     0.027 A 
ATOM     10  C   UNL     1       3.201   4.462  -1.430  1.00  0.00     0.027 A 
ATOM     11  C   UNL     1       4.358   4.090  -2.118  1.00  0.00     0.039 A 
BRANCH  11  12
ATOM     12  N   UNL     1       4.921   4.938  -3.086  1.00  0.00    -0.350 N 
ATOM     13  H   UNL     1       4.613   5.873  -3.081  1.00  0.00     0.167 HD
BRANCH  12  14
ATOM     14  C   UNL     1       5.878   4.600  -4.063  1.00  0.00     0.118 A 
ATOM     15  C   UNL     1       7.131   5.232  -3.986  1.00  0.00     0.036 A 
ATOM     16  C   UNL     1       5.732   3.555  -5.002  1.00  0.00     0.295 A 
ATOM     17  C   UNL     1       8.197   4.816  -4.789  1.00  0.00     0.042 A 
ATOM     18  C   UNL     1       6.796   3.134  -5.813  1.00  0.00     0.127 A 
ATOM     19  C   UNL     1       8.021   3.770  -5.686  1.00  0.00     0.130 A 
ATOM     20  F   UNL     1       9.053   3.366  -6.437  1.00  0.00    -0.207 F 
BRANCH  16  21
ATOM     21  N   UNL     1       4.450   2.886  -5.195  1.00  0.00     0.065 N 
ATOM     22  O   UNL     1       4.474   1.651  -5.306  1.00  0.00    -0.258 OA
ATOM     23  O   UNL     1       3.438   3.591  -5.301  1.00  0.00    -0.258 OA
ENDBRANCH  16  21
ENDBRANCH  12  14
ENDBRANCH  11  12
ENDBRANCH   4   6
ENDBRANCH   3   4
ENDBRANCH   2   3
ENDBRANCH   1   2
BRANCH   1  24
ATOM     24  O   UNL     1       3.985  -1.138  -1.099  1.00  0.00    -0.374 OA
BRANCH  24  25
ATOM     25  C   UNL     1       2.617  -1.364  -1.472  1.00  0.00     0.202 C 
BRANCH  25  26
ATOM     26  C   UNL     1       2.546  -2.403  -2.593  1.00  0.00     0.261 C 
BRANCH  26  27
ATOM     27  O   UNL     1       3.085  -3.636  -2.093  1.00  0.00    -0.460 OA
BRANCH  27  28
ATOM     28  C   UNL     1       4.421  -3.769  -2.270  1.00  0.00     0.338 C 
ATOM     29  O   UNL     1       5.128  -3.187  -3.076  1.00  0.00    -0.246 OA
BRANCH  28  30
ATOM     30  C   UNL     1       4.956  -4.607  -1.177  1.00  0.00     0.060 A 
ATOM     31  C   UNL     1       6.243  -4.319  -0.708  1.00  0.00     0.016 A 
ATOM     32  C   UNL     1       4.205  -5.637  -0.600  1.00  0.00     0.016 A 
ATOM     33  C   UNL     1       6.804  -5.092   0.303  1.00  0.00     0.010 A 
ATOM     34  C   UNL     1       4.764  -6.410   0.415  1.00  0.00     0.010 A 
ATOM     35  C   UNL     1       6.080  -6.165   0.838  1.00  0.00    -0.014 A 
BRANCH  35  36
ATOM     36  C   UNL     1       6.774  -7.144   1.701  1.00  0.00     0.031 A 
ATOM     37  C   UNL     1       7.280  -8.411   1.072  1.00  0.00     0.074 A 
ATOM     38  C   UNL     1       6.981  -6.886   3.003  1.00  0.00     0.049 A 
ATOM     39  N   UNL     1       7.939  -9.400   1.616  1.00  0.00    -0.248 NA
ATOM     40  C   UNL     1       7.005  -8.587  -0.365  1.00  0.00     0.031 C 
ATOM     41  C   UNL     1       6.548  -5.680   3.708  1.00  0.00     0.029 A 
ATOM     42  N   UNL     1       7.615  -7.631   3.962  1.00  0.00    -0.354 N 
ATOM     43  C   UNL     1       8.165 -10.308   0.588  1.00  0.00     0.074 A 
ATOM     44  C   UNL     1       7.533  -9.778  -0.599  1.00  0.00     0.031 C 
ATOM     45  C   UNL     1       6.929  -5.769   4.995  1.00  0.00     0.029 A 
ATOM     46  C   UNL     1       7.612  -7.044   5.203  1.00  0.00     0.049 A 
ATOM     47  H   UNL     1       8.033  -8.504   3.780  1.00  0.00     0.167 HD
ATOM     48  C   UNL     1       8.852 -11.473   0.627  1.00  0.00     0.031 A 
ATOM     49  C   UNL     1       8.099  -7.496   6.374  1.00  0.00     0.031 A 
ATOM     50  C   UNL     1       9.454 -12.008   1.817  1.00  0.00     0.049 A 
ATOM     51  C   UNL     1       8.808  -8.824   6.402  1.00  0.00     0.074 A 
ATOM     52  C   UNL     1      10.166 -13.183   1.973  1.00  0.00     0.029 A 
ATOM     53  N   UNL     1       9.407 -11.397   3.062  1.00  0.00    -0.354 N 
ATOM     54  N   UNL     1       9.042  -9.660   5.418  1.00  0.00    -0.248 NA
ATOM     55  C   UNL     1       9.335  -9.262   7.702  1.00  0.00     0.031 C 
ATOM     56  C   UNL     1      10.509 -13.307   3.324  1.00  0.00     0.029 A 
ATOM     57  C   UNL     1      10.062 -12.180   3.996  1.00  0.00     0.049 A 
ATOM     58  H   UNL     1       8.972 -10.535   3.252  1.00  0.00     0.167 HD
ATOM     59  C   UNL     1       9.760 -10.711   5.974  1.00  0.00     0.074 A 
ATOM     60  C   UNL     1       9.948 -10.391   7.375  1.00  0.00     0.031 C 
ATOM     61  C   UNL     1      10.222 -11.842   5.386  1.00  0.00     0.031 A 
BRANCH  48  62
ATOM     62  C   UNL     1       8.966 -12.248  -0.655  1.00  0.00    -0.014 A 
ATOM     63  C   UNL     1       9.775 -11.792  -1.708  1.00  0.00     0.009 A 
ATOM     64  C   UNL     1       8.274 -13.460  -0.806  1.00  0.00     0.009 A 
ATOM     65  C   UNL     1       9.867 -12.520  -2.897  1.00  0.00     0.001 A 
ATOM     66  C   UNL     1       8.389 -14.198  -1.985  1.00  0.00     0.001 A 
ATOM     67  C   UNL     1       9.179 -13.725  -3.032  1.00  0.00     0.000 A 
ENDBRANCH  48  62
BRANCH  49  68
ATOM     68  C   UNL     1       7.926  -6.699   7.616  1.00  0.00    -0.014 A 
ATOM     69  C   UNL     1       9.027  -6.114   8.259  1.00  0.00     0.009 A 
ATOM     70  C   UNL     1       6.651  -6.542   8.183  1.00  0.00     0.009 A 
ATOM     71  C   UNL     1       8.860  -5.418   9.459  1.00  0.00     0.001 A 
ATOM     72  C   UNL     1       6.482  -5.820   9.366  1.00  0.00     0.001 A 
ATOM     73  C   UNL     1       7.588  -5.268  10.009  1.00  0.00     0.000 A 
ENDBRANCH  49  68
BRANCH  61  74
ATOM     74  C   UNL     1      10.990 -12.795   6.258  1.00  0.00    -0.014 A 
ATOM     75  C   UNL     1      10.348 -13.549   7.254  1.00  0.00     0.009 A 
ATOM     76  C   UNL     1      12.372 -12.949   6.072  1.00  0.00     0.009 A 
ATOM     77  C   UNL     1      11.086 -14.402   8.077  1.00  0.00     0.001 A 
ATOM     78  C   UNL     1      13.101 -13.827   6.874  1.00  0.00     0.001 A 
ATOM     79  C   UNL     1      12.460 -14.541   7.885  1.00  0.00     0.000 A 
ENDBRANCH  61  74
ENDBRANCH  35  36
ENDBRANCH  28  30
ENDBRANCH  27  28
ENDBRANCH  26  27
ENDBRANCH  25  26
ENDBRANCH  24  25
ENDBRANCH   1  24
TORSDOF 17
