REMARK SMILES C[C@H]1CC[C@H](C(=O)OCCOCCOC(=O)c2ccc(-c3c4nc(c(-c5ccccc5)c5ccc([nH]5)c(-c5ccccc5)c5nc(c(-c6ccccc6)c6ccc3[nH]6)C=C5)C=C4)cc2)[C@H]([N@@H+]2CC[N@@H+]3CCC[C@@H]3C2)C1
REMARK SMILES IDX 12 1 11 2 10 3 9 4 8 5 6 6 7 7 5 8 1 9 2 10 3 11 75 12 4 13
REMARK SMILES IDX 65 14 66 15 67 16 74 17 68 19 73 20 69 21 72 22 70 23 71 25
REMARK SMILES IDX 13 26 14 27 15 28 16 29 17 30 18 31 64 32 19 33 63 34 20 35
REMARK SMILES IDX 21 36 22 37 57 38 23 39 62 40 56 41 58 42 24 43 61 44 55 45
REMARK SMILES IDX 54 46 25 48 47 49 32 50 46 51 33 52 36 53 45 54 59 55 34 56
REMARK SMILES IDX 35 57 44 59 60 60 37 61 26 62 27 63 31 64 28 65 30 66 29 67
REMARK SMILES IDX 48 68 49 69 53 70 50 71 52 72 51 73 38 74 39 75 43 76 40 77
REMARK SMILES IDX 42 78 41 79
REMARK H PARENT 66 18 69 24 58 47 36 58
REMARK Flexibility Score: inf
ROOT
ATOM      1  C   UNL     1      -4.842   2.400  -0.612  1.00  0.00     0.202 C 
ENDROOT
BRANCH   1   2
ATOM      2  O   UNL     1      -6.055   1.750  -0.244  1.00  0.00    -0.374 OA
BRANCH   2   3
ATOM      3  C   UNL     1      -6.006   0.871   0.881  1.00  0.00     0.202 C 
BRANCH   3   4
ATOM      4  C   UNL     1      -5.207  -0.417   0.680  1.00  0.00     0.261 C 
BRANCH   4   5
ATOM      5  O   UNL     1      -3.793  -0.144   0.608  1.00  0.00    -0.463 OA
BRANCH   5   6
ATOM      6  C   UNL     1      -3.099  -0.959  -0.227  1.00  0.00     0.315 C 
ATOM      7  O   UNL     1      -3.588  -1.911  -0.827  1.00  0.00    -0.252 OA
BRANCH   6   8
ATOM      8  C   UNL     1      -1.630  -0.614  -0.334  1.00  0.00     0.157 C 
ATOM      9  C   UNL     1       2.557   0.162  -0.811  1.00  0.00     0.008 C 
ATOM     10  C   UNL     1       1.215   0.113  -0.076  1.00  0.00    -0.008 C 
ATOM     11  C   UNL     1       0.201   1.070  -0.723  1.00  0.00     0.005 C 
ATOM     12  C   UNL     1       0.716  -1.345   0.006  1.00  0.00     0.069 C 
ATOM     13  C   UNL     1      -1.252   0.865  -0.272  1.00  0.00     0.022 C 
ATOM     14  C   UNL     1      -0.731  -1.524   0.535  1.00  0.00     0.199 C 
BRANCH  14  15
ATOM     15  N   UNL     1      -0.809  -1.450   2.002  1.00  0.00    -0.322 N 
ATOM     16  C   UNL     1      -2.006  -1.980   2.657  1.00  0.00     0.324 C 
ATOM     17  C   UNL     1      -0.124  -0.395   2.737  1.00  0.00     0.328 C 
ATOM     18  H   UNL     1      -0.113  -2.187   2.110  1.00  0.00     0.348 HD
ATOM     19  C   UNL     1      -2.652  -0.997   3.658  1.00  0.00     0.324 C 
ATOM     20  C   UNL     1      -0.377  -0.323   4.261  1.00  0.00     0.240 C 
ATOM     21  N   UNL     1      -1.730  -0.646   4.740  1.00  0.00    -0.323 N 
ATOM     22  C   UNL     1      -0.058   1.071   4.810  1.00  0.00     0.077 C 
ATOM     23  C   UNL     1      -2.206   0.459   5.566  1.00  0.00     0.263 C 
ATOM     24  H   UNL     1      -1.689  -1.490   5.311  1.00  0.00     0.348 HD
ATOM     25  C   UNL     1      -0.956   1.186   6.021  1.00  0.00     0.068 C 
ENDBRANCH  14  15
ENDBRANCH   6   8
ENDBRANCH   5   6
ENDBRANCH   4   5
ENDBRANCH   3   4
ENDBRANCH   2   3
ENDBRANCH   1   2
BRANCH   1  26
ATOM     26  C   UNL     1      -4.451   3.626   0.224  1.00  0.00     0.261 C 
BRANCH  26  27
ATOM     27  O   UNL     1      -4.301   3.349   1.627  1.00  0.00    -0.460 OA
BRANCH  27  28
ATOM     28  C   UNL     1      -5.292   3.840   2.408  1.00  0.00     0.338 C 
ATOM     29  O   UNL     1      -6.268   4.495   2.046  1.00  0.00    -0.246 OA
BRANCH  28  30
ATOM     30  C   UNL     1      -5.138   3.397   3.802  1.00  0.00     0.060 A 
ATOM     31  C   UNL     1      -6.201   2.702   4.393  1.00  0.00     0.016 A 
ATOM     32  C   UNL     1      -4.033   3.776   4.563  1.00  0.00     0.016 A 
ATOM     33  C   UNL     1      -6.182   2.417   5.760  1.00  0.00     0.010 A 
ATOM     34  C   UNL     1      -4.019   3.495   5.935  1.00  0.00     0.010 A 
ATOM     35  C   UNL     1      -5.105   2.840   6.550  1.00  0.00    -0.014 A 
BRANCH  35  36
ATOM     36  C   UNL     1      -5.169   2.731   8.032  1.00  0.00     0.031 A 
ATOM     37  C   UNL     1      -5.386   3.978   8.848  1.00  0.00     0.074 A 
ATOM     38  C   UNL     1      -5.034   1.548   8.659  1.00  0.00     0.049 A 
ATOM     39  N   UNL     1      -5.408   4.123  10.149  1.00  0.00    -0.248 NA
ATOM     40  C   UNL     1      -5.617   5.223   8.098  1.00  0.00     0.031 C 
ATOM     41  C   UNL     1      -4.886   0.251   8.006  1.00  0.00     0.029 A 
ATOM     42  N   UNL     1      -4.969   1.254  10.000  1.00  0.00    -0.354 N 
ATOM     43  C   UNL     1      -5.660   5.471  10.372  1.00  0.00     0.074 A 
ATOM     44  C   UNL     1      -5.733   6.109   9.076  1.00  0.00     0.031 C 
ATOM     45  C   UNL     1      -4.669  -0.691   8.940  1.00  0.00     0.029 A 
ATOM     46  C   UNL     1      -4.684  -0.065  10.259  1.00  0.00     0.049 A 
ATOM     47  H   UNL     1      -5.113   1.924  10.707  1.00  0.00     0.167 HD
ATOM     48  C   UNL     1      -5.842   6.118  11.547  1.00  0.00     0.031 A 
ATOM     49  C   UNL     1      -4.447  -0.698  11.424  1.00  0.00     0.031 A 
ATOM     50  C   UNL     1      -5.778   5.494  12.840  1.00  0.00     0.049 A 
ATOM     51  C   UNL     1      -4.557   0.059  12.718  1.00  0.00     0.074 A 
ATOM     52  C   UNL     1      -5.995   6.064  14.083  1.00  0.00     0.029 A 
ATOM     53  N   UNL     1      -5.468   4.162  13.058  1.00  0.00    -0.354 N 
ATOM     54  N   UNL     1      -4.846   1.322  12.913  1.00  0.00    -0.248 NA
ATOM     55  C   UNL     1      -4.339  -0.707  13.955  1.00  0.00     0.031 C 
ATOM     56  C   UNL     1      -5.769   5.086  15.057  1.00  0.00     0.029 A 
ATOM     57  C   UNL     1      -5.458   3.897  14.417  1.00  0.00     0.049 A 
ATOM     58  H   UNL     1      -5.281   3.502  12.352  1.00  0.00     0.167 HD
ATOM     59  C   UNL     1      -4.889   1.492  14.291  1.00  0.00     0.074 A 
ATOM     60  C   UNL     1      -4.592   0.205  14.884  1.00  0.00     0.031 C 
ATOM     61  C   UNL     1      -5.165   2.614  14.998  1.00  0.00     0.031 A 
BRANCH  48  62
ATOM     62  C   UNL     1      -6.121   7.592  11.481  1.00  0.00    -0.014 A 
ATOM     63  C   UNL     1      -7.365   8.074  11.045  1.00  0.00     0.009 A 
ATOM     64  C   UNL     1      -5.138   8.507  11.884  1.00  0.00     0.009 A 
ATOM     65  C   UNL     1      -7.607   9.448  10.983  1.00  0.00     0.001 A 
ATOM     66  C   UNL     1      -5.391   9.879  11.844  1.00  0.00     0.001 A 
ATOM     67  C   UNL     1      -6.621  10.348  11.386  1.00  0.00     0.000 A 
ENDBRANCH  48  62
BRANCH  49  68
ATOM     68  C   UNL     1      -4.083  -2.138  11.425  1.00  0.00    -0.014 A 
ATOM     69  C   UNL     1      -5.005  -3.110  11.843  1.00  0.00     0.009 A 
ATOM     70  C   UNL     1      -2.802  -2.544  11.021  1.00  0.00     0.009 A 
ATOM     71  C   UNL     1      -4.641  -4.458  11.880  1.00  0.00     0.001 A 
ATOM     72  C   UNL     1      -2.448  -3.895  11.039  1.00  0.00     0.001 A 
ATOM     73  C   UNL     1      -3.365  -4.850  11.476  1.00  0.00     0.000 A 
ENDBRANCH  49  68
BRANCH  61  74
ATOM     74  C   UNL     1      -5.203   2.494  16.495  1.00  0.00    -0.014 A 
ATOM     75  C   UNL     1      -4.026   2.373  17.248  1.00  0.00     0.009 A 
ATOM     76  C   UNL     1      -6.438   2.546  17.162  1.00  0.00     0.009 A 
ATOM     77  C   UNL     1      -4.087   2.280  18.640  1.00  0.00     0.001 A 
ATOM     78  C   UNL     1      -6.493   2.478  18.555  1.00  0.00     0.001 A 
ATOM     79  C   UNL     1      -5.319   2.337  19.292  1.00  0.00     0.000 A 
ENDBRANCH  61  74
ENDBRANCH  35  36
ENDBRANCH  28  30
ENDBRANCH  27  28
ENDBRANCH  26  27
ENDBRANCH   1  26
TORSDOF 15
