REMARK SMILES C[C@H]1SCCC[C@@]1(C(=O)OCCOCCOC(=O)c1ccc(-c2c3nc(c(-c4ccccc4)c4ccc([nH]4)c(-c4ccccc4)c4nc(c(-c5ccccc5)c5ccc2[nH]5)C=C4)C=C3)cc1)[NH+]1CCCC1
REMARK SMILES IDX 14 1 13 2 12 3 11 4 10 5 8 6 9 7 7 8 1 9 2 10 3 11 4 12 6 13
REMARK SMILES IDX 5 14 67 15 68 16 71 17 69 19 70 20 15 21 16 22 17 23 18 24
REMARK SMILES IDX 19 25 20 26 66 27 21 28 65 29 22 30 23 31 24 32 59 33 25 34
REMARK SMILES IDX 64 35 58 36 60 37 26 38 63 39 57 40 56 41 27 43 49 44 34 45
REMARK SMILES IDX 48 46 35 47 38 48 47 49 61 50 36 51 37 52 46 54 62 55 39 56
REMARK SMILES IDX 28 57 29 58 33 59 30 60 32 61 31 62 50 63 51 64 55 65 52 66
REMARK SMILES IDX 54 67 53 68 40 69 41 70 45 71 42 72 44 73 43 74
REMARK H PARENT 67 18 60 42 38 53
REMARK Flexibility Score: inf
ROOT
ATOM      1  C   UNL     1       0.952   4.366   0.311  1.00  0.00     0.202 C 
ENDROOT
BRANCH   1   2
ATOM      2  O   UNL     1      -0.375   4.878   0.378  1.00  0.00    -0.374 OA
BRANCH   2   3
ATOM      3  C   UNL     1      -1.387   4.041   0.918  1.00  0.00     0.202 C 
BRANCH   3   4
ATOM      4  C   UNL     1      -1.810   2.779   0.152  1.00  0.00     0.261 C 
BRANCH   4   5
ATOM      5  O   UNL     1      -0.737   2.025  -0.442  1.00  0.00    -0.459 OA
BRANCH   5   6
ATOM      6  C   UNL     1      -0.677   2.122  -1.808  1.00  0.00     0.369 C 
ATOM      7  O   UNL     1      -1.432   2.860  -2.435  1.00  0.00    -0.245 OA
BRANCH   6   8
ATOM      8  C   UNL     1       0.437   1.175  -2.462  1.00  0.00     0.207 C 
ATOM      9  C   UNL     1      -1.236  -0.825  -2.259  1.00  0.00     0.027 C 
ATOM     10  C   UNL     1       0.130  -0.258  -1.872  1.00  0.00     0.117 C 
ATOM     11  S   UNL     1       1.390  -1.571  -2.167  1.00  0.00    -0.152 SA
ATOM     12  C   UNL     1       2.875  -0.697  -1.610  1.00  0.00     0.070 C 
ATOM     13  C   UNL     1       1.840   1.613  -1.943  1.00  0.00     0.083 C 
ATOM     14  C   UNL     1       3.019   0.682  -2.233  1.00  0.00     0.018 C 
BRANCH   8  15
ATOM     15  N   UNL     1       0.303   1.331  -3.951  1.00  0.00    -0.320 N 
ATOM     16  C   UNL     1       1.010   0.490  -4.903  1.00  0.00     0.263 C 
ATOM     17  C   UNL     1       0.319   2.712  -4.472  1.00  0.00     0.263 C 
ATOM     18  H   UNL     1      -0.633   0.926  -3.924  1.00  0.00     0.349 HD
ATOM     19  C   UNL     1       1.914   1.423  -5.694  1.00  0.00     0.067 C 
ATOM     20  C   UNL     1       1.136   2.714  -5.752  1.00  0.00     0.067 C 
ENDBRANCH   8  15
ENDBRANCH   6   8
ENDBRANCH   5   6
ENDBRANCH   4   5
ENDBRANCH   3   4
ENDBRANCH   2   3
ENDBRANCH   1   2
BRANCH   1  21
ATOM     21  C   UNL     1       1.657   3.969   1.616  1.00  0.00     0.261 C 
BRANCH  21  22
ATOM     22  O   UNL     1       0.994   2.901   2.320  1.00  0.00    -0.460 OA
BRANCH  22  23
ATOM     23  C   UNL     1       0.620   3.202   3.587  1.00  0.00     0.338 C 
ATOM     24  O   UNL     1       0.836   4.242   4.200  1.00  0.00    -0.246 OA
BRANCH  23  25
ATOM     25  C   UNL     1      -0.271   2.159   4.117  1.00  0.00     0.060 A 
ATOM     26  C   UNL     1      -1.598   2.508   4.403  1.00  0.00     0.016 A 
ATOM     27  C   UNL     1       0.212   0.887   4.424  1.00  0.00     0.016 A 
ATOM     28  C   UNL     1      -2.446   1.586   5.014  1.00  0.00     0.010 A 
ATOM     29  C   UNL     1      -0.636  -0.031   5.053  1.00  0.00     0.010 A 
ATOM     30  C   UNL     1      -1.961   0.322   5.370  1.00  0.00    -0.014 A 
BRANCH  30  31
ATOM     31  C   UNL     1      -2.810  -0.597   6.164  1.00  0.00     0.031 A 
ATOM     32  C   UNL     1      -2.635  -0.662   7.654  1.00  0.00     0.074 A 
ATOM     33  C   UNL     1      -3.738  -1.358   5.558  1.00  0.00     0.049 A 
ATOM     34  N   UNL     1      -3.238  -1.431   8.525  1.00  0.00    -0.248 NA
ATOM     35  C   UNL     1      -1.652   0.262   8.242  1.00  0.00     0.031 C 
ATOM     36  C   UNL     1      -4.038  -1.348   4.127  1.00  0.00     0.029 A 
ATOM     37  N   UNL     1      -4.594  -2.297   6.077  1.00  0.00    -0.354 N 
ATOM     38  C   UNL     1      -2.706  -1.089   9.762  1.00  0.00     0.074 A 
ATOM     39  C   UNL     1      -1.717  -0.058   9.527  1.00  0.00     0.031 C 
ATOM     40  C   UNL     1      -5.003  -2.250   3.880  1.00  0.00     0.029 A 
ATOM     41  C   UNL     1      -5.361  -2.923   5.126  1.00  0.00     0.049 A 
ATOM     42  H   UNL     1      -4.653  -2.501   7.038  1.00  0.00     0.167 HD
ATOM     43  C   UNL     1      -3.014  -1.587  10.983  1.00  0.00     0.031 A 
ATOM     44  C   UNL     1      -6.231  -3.944   5.244  1.00  0.00     0.031 A 
ATOM     45  C   UNL     1      -3.983  -2.625  11.214  1.00  0.00     0.049 A 
ATOM     46  C   UNL     1      -6.481  -4.549   6.598  1.00  0.00     0.074 A 
ATOM     47  C   UNL     1      -4.379  -3.183  12.418  1.00  0.00     0.029 A 
ATOM     48  N   UNL     1      -4.698  -3.272  10.219  1.00  0.00    -0.354 N 
ATOM     49  N   UNL     1      -5.992  -4.199   7.763  1.00  0.00    -0.248 NA
ATOM     50  C   UNL     1      -7.404  -5.693   6.652  1.00  0.00     0.031 C 
ATOM     51  C   UNL     1      -5.291  -4.208  12.145  1.00  0.00     0.029 A 
ATOM     52  C   UNL     1      -5.504  -4.250  10.777  1.00  0.00     0.049 A 
ATOM     53  H   UNL     1      -4.641  -3.067   9.258  1.00  0.00     0.167 HD
ATOM     54  C   UNL     1      -6.561  -5.065   8.689  1.00  0.00     0.074 A 
ATOM     55  C   UNL     1      -7.444  -5.946   7.953  1.00  0.00     0.031 C 
ATOM     56  C   UNL     1      -6.369  -5.125  10.030  1.00  0.00     0.031 A 
BRANCH  43  57
ATOM     57  C   UNL     1      -2.264  -1.039  12.163  1.00  0.00    -0.014 A 
ATOM     58  C   UNL     1      -2.521   0.250  12.656  1.00  0.00     0.009 A 
ATOM     59  C   UNL     1      -1.310  -1.839  12.812  1.00  0.00     0.009 A 
ATOM     60  C   UNL     1      -1.815   0.736  13.760  1.00  0.00     0.001 A 
ATOM     61  C   UNL     1      -0.625  -1.359  13.929  1.00  0.00     0.001 A 
ATOM     62  C   UNL     1      -0.872  -0.069  14.397  1.00  0.00     0.000 A 
ENDBRANCH  43  57
BRANCH  44  63
ATOM     63  C   UNL     1      -6.903  -4.489   4.037  1.00  0.00    -0.014 A 
ATOM     64  C   UNL     1      -8.280  -4.305   3.838  1.00  0.00     0.009 A 
ATOM     65  C   UNL     1      -6.170  -5.212   3.082  1.00  0.00     0.009 A 
ATOM     66  C   UNL     1      -8.911  -4.850   2.718  1.00  0.00     0.001 A 
ATOM     67  C   UNL     1      -6.799  -5.733   1.950  1.00  0.00     0.001 A 
ATOM     68  C   UNL     1      -8.170  -5.559   1.773  1.00  0.00     0.000 A 
ENDBRANCH  44  63
BRANCH  56  69
ATOM     69  C   UNL     1      -7.141  -6.167  10.789  1.00  0.00    -0.014 A 
ATOM     70  C   UNL     1      -6.793  -7.525  10.716  1.00  0.00     0.009 A 
ATOM     71  C   UNL     1      -8.201  -5.779  11.623  1.00  0.00     0.009 A 
ATOM     72  C   UNL     1      -7.511  -8.477  11.443  1.00  0.00     0.001 A 
ATOM     73  C   UNL     1      -8.900  -6.730  12.369  1.00  0.00     0.001 A 
ATOM     74  C   UNL     1      -8.559  -8.078  12.272  1.00  0.00     0.000 A 
ENDBRANCH  56  69
ENDBRANCH  30  31
ENDBRANCH  23  25
ENDBRANCH  22  23
ENDBRANCH  21  22
ENDBRANCH   1  21
TORSDOF 15
