REMARK SMILES O=C(OCCOCCOC(=O)c1ccn(Cc2c(Cl)cccc2Cl)c1)c1ccc(-c2c3nc(c(-c4ccccc4)c4ccc([nH]4)c(-c4ccccc4)c4nc(c(-c5ccccc5)c5ccc2[nH]5)C=C4)C=C3)cc1
REMARK SMILES IDX 6 1 5 2 4 3 3 4 2 5 1 6 26 7 27 8 73 9 28 10 72 11 29 12
REMARK SMILES IDX 30 13 31 14 66 15 32 16 71 17 65 18 67 19 33 20 70 21 64 22
REMARK SMILES IDX 63 23 34 25 56 26 41 27 55 28 42 29 45 30 54 31 68 32 43 33
REMARK SMILES IDX 44 34 53 36 69 37 46 38 35 39 36 40 40 41 37 42 39 43 38 44
REMARK SMILES IDX 57 45 58 46 62 47 59 48 61 49 60 50 47 51 48 52 52 53 49 54
REMARK SMILES IDX 51 55 50 56 7 57 8 58 9 59 10 60 11 61 12 62 13 63 25 64
REMARK SMILES IDX 14 65 15 66 16 67 17 68 18 69 23 70 19 71 20 72 22 73 24 74
REMARK SMILES IDX 21 75
REMARK H PARENT 67 24 45 35
REMARK Flexibility Score: inf
ROOT
ATOM      1  O   UNL     1       4.111   1.367   0.329  1.00  0.00    -0.374 OA
ENDROOT
BRANCH   1   2
ATOM      2  C   UNL     1       4.520   1.013  -0.995  1.00  0.00     0.202 C 
BRANCH   2   3
ATOM      3  C   UNL     1       4.056  -0.351  -1.497  1.00  0.00     0.261 C 
BRANCH   3   4
ATOM      4  O   UNL     1       2.614  -0.401  -1.528  1.00  0.00    -0.460 OA
BRANCH   4   5
ATOM      5  C   UNL     1       1.844  -0.573  -0.424  1.00  0.00     0.338 C 
ATOM      6  O   UNL     1       0.735  -0.065  -0.316  1.00  0.00    -0.246 OA
BRANCH   5   7
ATOM      7  C   UNL     1       2.258  -1.638   0.502  1.00  0.00     0.060 A 
ATOM      8  C   UNL     1       3.517  -1.677   1.106  1.00  0.00     0.016 A 
ATOM      9  C   UNL     1       1.334  -2.667   0.713  1.00  0.00     0.016 A 
ATOM     10  C   UNL     1       3.946  -2.835   1.716  1.00  0.00     0.010 A 
ATOM     11  C   UNL     1       1.722  -3.794   1.415  1.00  0.00     0.010 A 
ATOM     12  C   UNL     1       3.045  -3.889   1.865  1.00  0.00    -0.014 A 
BRANCH  12  13
ATOM     13  C   UNL     1       3.468  -5.014   2.705  1.00  0.00     0.031 A 
ATOM     14  C   UNL     1       3.469  -4.645   4.188  1.00  0.00     0.074 A 
ATOM     15  C   UNL     1       3.792  -6.165   2.051  1.00  0.00     0.049 A 
ATOM     16  N   UNL     1       3.993  -5.272   5.194  1.00  0.00    -0.248 NA
ATOM     17  C   UNL     1       2.828  -3.367   4.618  1.00  0.00     0.031 C 
ATOM     18  C   UNL     1       3.802  -6.322   0.580  1.00  0.00     0.029 A 
ATOM     19  N   UNL     1       4.176  -7.418   2.470  1.00  0.00    -0.354 N 
ATOM     20  C   UNL     1       3.591  -4.591   6.358  1.00  0.00     0.074 A 
ATOM     21  C   UNL     1       2.990  -3.363   5.940  1.00  0.00     0.031 C 
ATOM     22  C   UNL     1       4.211  -7.560   0.234  1.00  0.00     0.029 A 
ATOM     23  C   UNL     1       4.466  -8.334   1.434  1.00  0.00     0.049 A 
ATOM     24  H   UNL     1       4.243  -7.658   3.422  1.00  0.00     0.167 HD
ATOM     25  C   UNL     1       3.624  -5.146   7.601  1.00  0.00     0.031 A 
ATOM     26  C   UNL     1       4.887  -9.629   1.527  1.00  0.00     0.031 A 
ATOM     27  C   UNL     1       4.240  -6.427   7.577  1.00  0.00     0.049 A 
ATOM     28  C   UNL     1       4.753 -10.014   2.941  1.00  0.00     0.074 A 
ATOM     29  C   UNL     1       5.538  -6.832   7.406  1.00  0.00     0.029 A 
ATOM     30  N   UNL     1       3.410  -7.507   7.388  1.00  0.00    -0.354 N 
ATOM     31  N   UNL     1       3.620 -10.187   3.552  1.00  0.00    -0.248 NA
ATOM     32  C   UNL     1       5.955 -10.183   3.763  1.00  0.00     0.031 C 
ATOM     33  C   UNL     1       5.425  -8.035   6.675  1.00  0.00     0.029 A 
ATOM     34  C   UNL     1       4.074  -8.378   6.557  1.00  0.00     0.049 A 
ATOM     35  H   UNL     1       2.513  -7.633   7.773  1.00  0.00     0.167 HD
ATOM     36  C   UNL     1       3.974 -10.069   4.873  1.00  0.00     0.074 A 
ATOM     37  C   UNL     1       5.382 -10.393   4.947  1.00  0.00     0.031 C 
ATOM     38  C   UNL     1       3.286  -9.212   5.673  1.00  0.00     0.031 A 
BRANCH  25  39
ATOM     39  C   UNL     1       2.907  -4.722   8.845  1.00  0.00    -0.014 A 
ATOM     40  C   UNL     1       3.362  -5.245  10.075  1.00  0.00     0.009 A 
ATOM     41  C   UNL     1       1.653  -4.097   8.832  1.00  0.00     0.009 A 
ATOM     42  C   UNL     1       2.565  -5.221  11.220  1.00  0.00     0.001 A 
ATOM     43  C   UNL     1       0.867  -4.042   9.989  1.00  0.00     0.001 A 
ATOM     44  C   UNL     1       1.309  -4.630  11.172  1.00  0.00     0.000 A 
ENDBRANCH  25  39
BRANCH  26  45
ATOM     45  C   UNL     1       5.431 -10.680   0.601  1.00  0.00    -0.014 A 
ATOM     46  C   UNL     1       5.707 -10.503  -0.757  1.00  0.00     0.009 A 
ATOM     47  C   UNL     1       5.820 -11.931   1.151  1.00  0.00     0.009 A 
ATOM     48  C   UNL     1       6.398 -11.486  -1.495  1.00  0.00     0.001 A 
ATOM     49  C   UNL     1       6.548 -12.887   0.438  1.00  0.00     0.001 A 
ATOM     50  C   UNL     1       6.848 -12.658  -0.891  1.00  0.00     0.000 A 
ENDBRANCH  26  45
BRANCH  38  51
ATOM     51  C   UNL     1       1.869  -8.892   5.205  1.00  0.00    -0.014 A 
ATOM     52  C   UNL     1       0.933  -9.916   4.994  1.00  0.00     0.009 A 
ATOM     53  C   UNL     1       1.469  -7.591   4.856  1.00  0.00     0.009 A 
ATOM     54  C   UNL     1      -0.327  -9.652   4.436  1.00  0.00     0.001 A 
ATOM     55  C   UNL     1       0.211  -7.317   4.302  1.00  0.00     0.001 A 
ATOM     56  C   UNL     1      -0.687  -8.353   4.086  1.00  0.00     0.000 A 
ENDBRANCH  38  51
ENDBRANCH  12  13
ENDBRANCH   5   7
ENDBRANCH   4   5
ENDBRANCH   3   4
ENDBRANCH   2   3
ENDBRANCH   1   2
BRANCH   1  57
ATOM     57  C   UNL     1       2.992   2.266   0.402  1.00  0.00     0.202 C 
BRANCH  57  58
ATOM     58  C   UNL     1       3.328   3.753   0.209  1.00  0.00     0.261 C 
BRANCH  58  59
ATOM     59  O   UNL     1       3.612   4.049  -1.171  1.00  0.00    -0.460 OA
BRANCH  59  60
ATOM     60  C   UNL     1       4.937   4.005  -1.524  1.00  0.00     0.339 C 
ATOM     61  O   UNL     1       5.863   3.998  -0.743  1.00  0.00    -0.246 OA
BRANCH  60  62
ATOM     62  C   UNL     1       5.086   3.727  -2.956  1.00  0.00     0.077 A 
ATOM     63  C   UNL     1       4.229   4.069  -4.033  1.00  0.00     0.035 A 
ATOM     64  C   UNL     1       6.099   2.950  -3.501  1.00  0.00     0.101 A 
ATOM     65  C   UNL     1       4.755   3.517  -5.182  1.00  0.00     0.087 A 
ATOM     66  N   UNL     1       5.892   2.826  -4.856  1.00  0.00    -0.349 N 
BRANCH  66  67
ATOM     67  C   UNL     1       6.854   2.202  -5.774  1.00  0.00     0.160 C 
BRANCH  67  68
ATOM     68  C   UNL     1       6.253   1.277  -6.810  1.00  0.00     0.009 A 
ATOM     69  C   UNL     1       5.780   1.768  -8.045  1.00  0.00     0.047 A 
ATOM     70  C   UNL     1       6.179  -0.116  -6.607  1.00  0.00     0.047 A 
ATOM     71  Cl  UNL     1       5.938   3.431  -8.505  1.00  0.00    -0.084 Cl
ATOM     72  C   UNL     1       5.205   0.918  -8.999  1.00  0.00     0.021 A 
ATOM     73  C   UNL     1       5.644  -0.970  -7.585  1.00  0.00     0.021 A 
ATOM     74  Cl  UNL     1       6.776  -0.873  -5.169  1.00  0.00    -0.084 Cl
ATOM     75  C   UNL     1       5.139  -0.451  -8.772  1.00  0.00     0.003 A 
ENDBRANCH  67  68
ENDBRANCH  66  67
ENDBRANCH  60  62
ENDBRANCH  59  60
ENDBRANCH  58  59
ENDBRANCH  57  58
ENDBRANCH   1  57
TORSDOF 16
