REMARK SMILES CCCc1cc(OCC(=O)OCCOCCOC(=O)c2ccc(-c3c4nc(c(-c5ccccc5)c5ccc([nH]5)c(-c5ccccc5)c5nc(c(-c6ccccc6)c6ccc3[nH]6)C=C5)C=C4)cc2)nc(Nc2ccc(C#N)cc2)n1
REMARK SMILES IDX 12 1 11 2 9 3 10 4 8 5 7 6 6 7 4 8 5 9 79 10 69 11 68 12
REMARK SMILES IDX 3 13 2 14 1 15 70 16 71 18 72 19 78 20 73 21 77 22 74 23
REMARK SMILES IDX 75 24 76 25 13 26 14 27 15 28 16 29 17 30 18 31 19 32 20 33
REMARK SMILES IDX 21 34 67 35 22 36 66 37 23 38 24 39 25 40 60 41 26 42 65 43
REMARK SMILES IDX 59 44 61 45 27 46 64 47 58 48 57 49 28 51 50 52 35 53 49 54
REMARK SMILES IDX 36 55 39 56 48 57 62 58 37 59 38 60 47 62 63 63 40 64 29 65
REMARK SMILES IDX 30 66 34 67 31 68 33 69 32 70 51 71 52 72 56 73 53 74 55 75
REMARK SMILES IDX 54 76 41 77 42 78 46 79 43 80 45 81 44 82
REMARK H PARENT 70 17 61 50 39 61
REMARK Flexibility Score: inf
ROOT
ATOM      1  C   UNL     1      -3.518  -5.695   2.600  1.00  0.00     0.261 C 
ENDROOT
BRANCH   1   2
ATOM      2  O   UNL     1      -2.567  -5.051   3.482  1.00  0.00    -0.461 OA
BRANCH   2   3
ATOM      3  C   UNL     1      -1.465  -5.790   3.795  1.00  0.00     0.344 C 
ATOM      4  O   UNL     1      -1.256  -6.929   3.384  1.00  0.00    -0.248 OA
BRANCH   3   5
ATOM      5  C   UNL     1      -0.469  -5.089   4.733  1.00  0.00     0.353 C 
BRANCH   5   6
ATOM      6  O   UNL     1      -0.465  -3.695   4.946  1.00  0.00    -0.466 OA
BRANCH   6   7
ATOM      7  C   UNL     1       0.302  -2.850   4.196  1.00  0.00     0.218 A 
ATOM      8  C   UNL     1       1.371  -2.130   2.228  1.00  0.00     0.050 A 
ATOM      9  C   UNL     1       0.998  -3.187   3.048  1.00  0.00     0.092 A 
ATOM     10  N   UNL     1       1.187  -0.859   2.611  1.00  0.00    -0.218 NA
ATOM     11  C   UNL     1       0.595  -0.606   3.787  1.00  0.00     0.230 A 
ATOM     12  N   UNL     1       0.148  -1.571   4.596  1.00  0.00    -0.177 NA
BRANCH   8  13
ATOM     13  C   UNL     1       1.900  -2.340   0.822  1.00  0.00     0.056 C 
BRANCH  13  14
ATOM     14  C   UNL     1       1.231  -1.522  -0.308  1.00  0.00     0.003 C 
ATOM     15  C   UNL     1       1.488  -0.023  -0.294  1.00  0.00     0.004 C 
ENDBRANCH  13  14
ENDBRANCH   8  13
BRANCH  11  16
ATOM     16  N   UNL     1       0.391   0.719   4.168  1.00  0.00    -0.324 N 
ATOM     17  H   UNL     1       0.075   0.876   5.087  1.00  0.00     0.170 HD
BRANCH  16  18
ATOM     18  C   UNL     1       0.595   1.844   3.365  1.00  0.00     0.041 A 
ATOM     19  C   UNL     1       1.685   2.688   3.586  1.00  0.00     0.027 A 
ATOM     20  C   UNL     1      -0.245   2.098   2.271  1.00  0.00     0.027 A 
ATOM     21  C   UNL     1       1.990   3.707   2.674  1.00  0.00     0.021 A 
ATOM     22  C   UNL     1       0.045   3.123   1.365  1.00  0.00     0.021 A 
ATOM     23  C   UNL     1       1.184   3.910   1.549  1.00  0.00     0.052 A 
BRANCH  23  24
ATOM     24  C   UNL     1       1.548   4.887   0.567  1.00  0.00     0.099 C 
ATOM     25  N   UNL     1       1.855   5.667  -0.240  1.00  0.00    -0.192 NA
ENDBRANCH  23  24
ENDBRANCH  16  18
ENDBRANCH  11  16
ENDBRANCH   6   7
ENDBRANCH   5   6
ENDBRANCH   3   5
ENDBRANCH   2   3
ENDBRANCH   1   2
BRANCH   1  26
ATOM     26  C   UNL     1      -3.710  -5.008   1.240  1.00  0.00     0.202 C 
BRANCH  26  27
ATOM     27  O   UNL     1      -2.572  -4.730   0.433  1.00  0.00    -0.374 OA
BRANCH  27  28
ATOM     28  C   UNL     1      -1.536  -3.942   0.992  1.00  0.00     0.202 C 
BRANCH  28  29
ATOM     29  C   UNL     1      -1.834  -2.510   1.443  1.00  0.00     0.261 C 
BRANCH  29  30
ATOM     30  O   UNL     1      -3.126  -2.265   1.940  1.00  0.00    -0.460 OA
BRANCH  30  31
ATOM     31  C   UNL     1      -3.871  -1.544   1.083  1.00  0.00     0.338 C 
ATOM     32  O   UNL     1      -3.615  -1.160  -0.042  1.00  0.00    -0.246 OA
BRANCH  31  33
ATOM     33  C   UNL     1      -5.153  -1.390   1.736  1.00  0.00     0.060 A 
ATOM     34  C   UNL     1      -6.233  -2.064   1.173  1.00  0.00     0.016 A 
ATOM     35  C   UNL     1      -5.257  -0.599   2.883  1.00  0.00     0.016 A 
ATOM     36  C   UNL     1      -7.479  -1.883   1.730  1.00  0.00     0.010 A 
ATOM     37  C   UNL     1      -6.508  -0.428   3.446  1.00  0.00     0.010 A 
ATOM     38  C   UNL     1      -7.618  -1.033   2.837  1.00  0.00    -0.014 A 
BRANCH  38  39
ATOM     39  C   UNL     1      -8.972  -0.665   3.260  1.00  0.00     0.031 A 
ATOM     40  C   UNL     1      -9.496   0.683   2.874  1.00  0.00     0.074 A 
ATOM     41  C   UNL     1      -9.712  -1.570   3.917  1.00  0.00     0.049 A 
ATOM     42  N   UNL     1     -10.668   1.204   3.112  1.00  0.00    -0.248 NA
ATOM     43  C   UNL     1      -8.583   1.565   2.124  1.00  0.00     0.031 C 
ATOM     44  C   UNL     1      -9.272  -2.918   4.284  1.00  0.00     0.029 A 
ATOM     45  N   UNL     1     -10.994  -1.492   4.378  1.00  0.00    -0.354 N 
ATOM     46  C   UNL     1     -10.626   2.478   2.562  1.00  0.00     0.074 A 
ATOM     47  C   UNL     1      -9.309   2.666   2.002  1.00  0.00     0.031 C 
ATOM     48  C   UNL     1     -10.284  -3.551   4.899  1.00  0.00     0.029 A 
ATOM     49  C   UNL     1     -11.412  -2.634   5.011  1.00  0.00     0.049 A 
ATOM     50  H   UNL     1     -11.562  -0.696   4.266  1.00  0.00     0.167 HD
ATOM     51  C   UNL     1     -11.611   3.402   2.533  1.00  0.00     0.031 A 
ATOM     52  C   UNL     1     -12.578  -2.888   5.629  1.00  0.00     0.031 A 
ATOM     53  C   UNL     1     -12.912   3.184   3.103  1.00  0.00     0.049 A 
ATOM     54  C   UNL     1     -13.625  -1.809   5.637  1.00  0.00     0.074 A 
ATOM     55  C   UNL     1     -14.003   4.032   3.106  1.00  0.00     0.029 A 
ATOM     56  N   UNL     1     -13.290   2.035   3.785  1.00  0.00    -0.354 N 
ATOM     57  N   UNL     1     -13.599  -0.624   5.074  1.00  0.00    -0.248 NA
ATOM     58  C   UNL     1     -14.867  -2.107   6.360  1.00  0.00     0.031 C 
ATOM     59  C   UNL     1     -15.013   3.431   3.861  1.00  0.00     0.029 A 
ATOM     60  C   UNL     1     -14.584   2.172   4.252  1.00  0.00     0.049 A 
ATOM     61  H   UNL     1     -12.721   1.242   3.916  1.00  0.00     0.167 HD
ATOM     62  C   UNL     1     -14.834  -0.049   5.343  1.00  0.00     0.074 A 
ATOM     63  C   UNL     1     -15.589  -1.028   6.100  1.00  0.00     0.031 C 
ATOM     64  C   UNL     1     -15.306   1.175   5.000  1.00  0.00     0.031 A 
BRANCH  51  65
ATOM     65  C   UNL     1     -11.307   4.738   1.919  1.00  0.00    -0.014 A 
ATOM     66  C   UNL     1     -11.104   4.892   0.538  1.00  0.00     0.009 A 
ATOM     67  C   UNL     1     -11.272   5.877   2.740  1.00  0.00     0.009 A 
ATOM     68  C   UNL     1     -10.854   6.156  -0.002  1.00  0.00     0.001 A 
ATOM     69  C   UNL     1     -11.054   7.141   2.194  1.00  0.00     0.001 A 
ATOM     70  C   UNL     1     -10.839   7.279   0.824  1.00  0.00     0.000 A 
ENDBRANCH  51  65
BRANCH  52  71
ATOM     71  C   UNL     1     -12.805  -4.191   6.305  1.00  0.00    -0.014 A 
ATOM     72  C   UNL     1     -13.809  -5.064   5.861  1.00  0.00     0.009 A 
ATOM     73  C   UNL     1     -12.040  -4.552   7.426  1.00  0.00     0.009 A 
ATOM     74  C   UNL     1     -14.075  -6.246   6.555  1.00  0.00     0.001 A 
ATOM     75  C   UNL     1     -12.282  -5.753   8.094  1.00  0.00     0.001 A 
ATOM     76  C   UNL     1     -13.311  -6.590   7.669  1.00  0.00     0.000 A 
ENDBRANCH  52  71
BRANCH  64  77
ATOM     77  C   UNL     1     -16.720   1.495   5.397  1.00  0.00    -0.014 A 
ATOM     78  C   UNL     1     -17.082   1.685   6.739  1.00  0.00     0.009 A 
ATOM     79  C   UNL     1     -17.697   1.643   4.399  1.00  0.00     0.009 A 
ATOM     80  C   UNL     1     -18.406   1.971   7.076  1.00  0.00     0.001 A 
ATOM     81  C   UNL     1     -19.009   1.971   4.736  1.00  0.00     0.001 A 
ATOM     82  C   UNL     1     -19.365   2.121   6.075  1.00  0.00     0.000 A 
ENDBRANCH  64  77
ENDBRANCH  38  39
ENDBRANCH  31  33
ENDBRANCH  30  31
ENDBRANCH  29  30
ENDBRANCH  28  29
ENDBRANCH  27  28
ENDBRANCH  26  27
ENDBRANCH   1  26
TORSDOF 21
