REMARK SMILES COc1ccc(CCN2/C(=[NH+]/C(=O)CCC(=O)OCCOCCOC(=O)c3ccc(-c4c5nc(c(-c6ccccc6)c6ccc([nH]6)c(-c6ccccc6)c6nc(c(-c7ccccc7)c7ccc4[nH]7)C=C6)C=C5)cc3)S[C@@H]3CS(=O)(=O)C[C@@H]32)cc1
REMARK SMILES IDX 19 1 18 2 16 3 17 4 15 5 14 6 12 7 9 8 10 9 82 10 11 11
REMARK SMILES IDX 75 12 76 13 81 14 77 16 78 17 13 18 79 19 80 20 8 21 7 22
REMARK SMILES IDX 6 23 3 24 4 25 84 26 5 27 83 28 2 29 1 30 20 31 21 32 22 33
REMARK SMILES IDX 23 34 24 35 25 36 26 37 27 38 28 39 74 40 29 41 73 42 30 43
REMARK SMILES IDX 31 44 32 45 67 46 33 47 72 48 66 49 68 50 34 51 71 52 65 53
REMARK SMILES IDX 64 54 35 56 57 57 42 58 56 59 43 60 46 61 55 62 69 63 44 64
REMARK SMILES IDX 45 65 54 67 70 68 47 69 36 70 37 71 41 72 38 73 40 74 39 75
REMARK SMILES IDX 58 76 59 77 63 78 60 79 62 80 61 81 48 82 49 83 53 84 50 85
REMARK SMILES IDX 52 86 51 87
REMARK H PARENT 11 15 68 55 46 66
REMARK Flexibility Score: inf
ROOT
ATOM      1  C   UNL     1       3.641  -5.662   5.019  1.00  0.00     0.261 C 
ENDROOT
BRANCH   1   2
ATOM      2  O   UNL     1       2.427  -5.369   5.722  1.00  0.00    -0.463 OA
BRANCH   2   3
ATOM      3  C   UNL     1       2.403  -4.242   6.462  1.00  0.00     0.306 C 
ATOM      4  O   UNL     1       3.390  -3.608   6.805  1.00  0.00    -0.252 OA
BRANCH   3   5
ATOM      5  C   UNL     1       0.984  -3.843   6.795  1.00  0.00     0.135 C 
BRANCH   5   6
ATOM      6  C   UNL     1       0.100  -3.503   5.599  1.00  0.00     0.139 C 
BRANCH   6   7
ATOM      7  C   UNL     1      -0.402  -4.745   4.865  1.00  0.00     0.308 C 
ATOM      8  N   UNL     1       0.850  -7.264   2.333  1.00  0.00    -0.251 N 
ATOM      9  C   UNL     1       0.138  -6.319   3.167  1.00  0.00     0.314 C 
ATOM     10  C   UNL     1      -0.011  -8.513   2.177  1.00  0.00     0.206 C 
ATOM     11  N   UNL     1       0.497  -5.434   4.038  1.00  0.00    -0.205 N 
ATOM     12  S   UNL     1      -1.634  -6.555   2.863  1.00  0.00    -0.030 SA
ATOM     13  C   UNL     1      -1.418  -8.301   2.789  1.00  0.00     0.120 C 
ATOM     14  C   UNL     1       0.518  -9.808   2.778  1.00  0.00     0.187 C 
ATOM     15  H   UNL     1       1.457  -5.231   4.126  1.00  0.00     0.316 HD
ATOM     16  C   UNL     1      -1.465  -8.778   4.226  1.00  0.00     0.156 C 
ATOM     17  S   UNL     1      -0.497 -10.239   4.181  1.00  0.00     0.155 S 
ATOM     18  O   UNL     1      -1.540  -5.106   5.172  1.00  0.00    -0.247 OA
ATOM     19  O   UNL     1       0.339 -10.291   5.367  1.00  0.00    -0.229 OA
ATOM     20  O   UNL     1      -1.375 -11.323   3.809  1.00  0.00    -0.229 OA
BRANCH   8  21
ATOM     21  C   UNL     1       2.292  -7.215   1.434  1.00  0.00     0.242 C 
BRANCH  21  22
ATOM     22  C   UNL     1       3.144  -6.041   0.247  1.00  0.00     0.081 C 
BRANCH  22  23
ATOM     23  C   UNL     1       2.840  -4.619  -0.637  1.00  0.00    -0.044 A 
ATOM     24  C   UNL     1       1.831  -1.943  -1.046  1.00  0.00     0.118 A 
ATOM     25  C   UNL     1       1.169  -3.045  -1.558  1.00  0.00     0.046 A 
ATOM     26  C   UNL     1       3.149  -2.141  -0.646  1.00  0.00     0.046 A 
ATOM     27  C   UNL     1       1.742  -4.340  -1.489  1.00  0.00     0.007 A 
ATOM     28  C   UNL     1       3.633  -3.474  -0.410  1.00  0.00     0.007 A 
BRANCH  24  29
ATOM     29  O   UNL     1       1.014  -0.875  -0.806  1.00  0.00    -0.497 OA
ATOM     30  C   UNL     1       1.512   0.440  -0.636  1.00  0.00     0.278 C 
ENDBRANCH  24  29
ENDBRANCH  22  23
ENDBRANCH  21  22
ENDBRANCH   8  21
ENDBRANCH   6   7
ENDBRANCH   5   6
ENDBRANCH   3   5
ENDBRANCH   2   3
ENDBRANCH   1   2
BRANCH   1  31
ATOM     31  C   UNL     1       3.584  -5.259   3.528  1.00  0.00     0.202 C 
BRANCH  31  32
ATOM     32  O   UNL     1       3.566  -3.914   3.029  1.00  0.00    -0.374 OA
BRANCH  32  33
ATOM     33  C   UNL     1       2.364  -3.156   3.260  1.00  0.00     0.202 C 
BRANCH  33  34
ATOM     34  C   UNL     1       1.244  -2.768   2.158  1.00  0.00     0.261 C 
BRANCH  34  35
ATOM     35  O   UNL     1      -0.000  -3.510   1.668  1.00  0.00    -0.460 OA
BRANCH  35  36
ATOM     36  C   UNL     1       0.304  -4.656   1.008  1.00  0.00     0.338 C 
ATOM     37  O   UNL     1       1.425  -5.025   1.309  1.00  0.00    -0.246 OA
BRANCH  36  38
ATOM     38  C   UNL     1      -0.481  -5.662   0.052  1.00  0.00     0.060 A 
ATOM     39  C   UNL     1       0.297  -6.681  -0.580  1.00  0.00     0.016 A 
ATOM     40  C   UNL     1      -1.831  -5.855  -0.174  1.00  0.00     0.016 A 
ATOM     41  C   UNL     1      -0.098  -7.853  -1.211  1.00  0.00     0.010 A 
ATOM     42  C   UNL     1      -2.297  -7.075  -0.811  1.00  0.00     0.010 A 
ATOM     43  C   UNL     1      -1.431  -8.106  -1.270  1.00  0.00    -0.014 A 
BRANCH  43  44
ATOM     44  C   UNL     1      -1.839  -9.362  -1.938  1.00  0.00     0.031 A 
ATOM     45  C   UNL     1      -2.048  -9.317  -3.409  1.00  0.00     0.074 A 
ATOM     46  C   UNL     1      -1.784 -10.585  -1.368  1.00  0.00     0.049 A 
ATOM     47  N   UNL     1      -2.698 -10.145  -4.168  1.00  0.00    -0.248 NA
ATOM     48  C   UNL     1      -1.374  -8.221  -4.127  1.00  0.00     0.031 C 
ATOM     49  C   UNL     1      -1.041 -10.957  -0.174  1.00  0.00     0.029 A 
ATOM     50  N   UNL     1      -2.463 -11.738  -1.669  1.00  0.00    -0.354 N 
ATOM     51  C   UNL     1      -2.549  -9.652  -5.452  1.00  0.00     0.074 A 
ATOM     52  C   UNL     1      -1.736  -8.461  -5.376  1.00  0.00     0.031 C 
ATOM     53  C   UNL     1      -1.517 -12.111   0.325  1.00  0.00     0.029 A 
ATOM     54  C   UNL     1      -2.561 -12.575  -0.569  1.00  0.00     0.049 A 
ATOM     55  H   UNL     1      -2.835 -11.946  -2.557  1.00  0.00     0.167 HD
ATOM     56  C   UNL     1      -3.079 -10.168  -6.581  1.00  0.00     0.031 A 
ATOM     57  C   UNL     1      -3.453 -13.551  -0.317  1.00  0.00     0.031 A 
ATOM     58  C   UNL     1      -3.901 -11.345  -6.558  1.00  0.00     0.049 A 
ATOM     59  C   UNL     1      -4.334 -13.931  -1.471  1.00  0.00     0.074 A 
ATOM     60  C   UNL     1      -4.589 -11.952  -7.588  1.00  0.00     0.029 A 
ATOM     61  N   UNL     1      -4.143 -12.095  -5.409  1.00  0.00    -0.354 N 
ATOM     62  N   UNL     1      -4.366 -13.393  -2.669  1.00  0.00    -0.248 NA
ATOM     63  C   UNL     1      -5.224 -15.080  -1.294  1.00  0.00     0.031 C 
ATOM     64  C   UNL     1      -5.295 -13.033  -7.046  1.00  0.00     0.029 A 
ATOM     65  C   UNL     1      -4.993 -13.142  -5.693  1.00  0.00     0.049 A 
ATOM     66  H   UNL     1      -3.761 -11.904  -4.522  1.00  0.00     0.167 HD
ATOM     67  C   UNL     1      -5.184 -14.206  -3.428  1.00  0.00     0.074 A 
ATOM     68  C   UNL     1      -5.679 -15.239  -2.532  1.00  0.00     0.031 C 
ATOM     69  C   UNL     1      -5.452 -14.140  -4.755  1.00  0.00     0.031 A 
BRANCH  56  70
ATOM     70  C   UNL     1      -2.875  -9.378  -7.837  1.00  0.00    -0.014 A 
ATOM     71  C   UNL     1      -1.616  -9.270  -8.451  1.00  0.00     0.009 A 
ATOM     72  C   UNL     1      -3.950  -8.645  -8.363  1.00  0.00     0.009 A 
ATOM     73  C   UNL     1      -1.431  -8.410  -9.537  1.00  0.00     0.001 A 
ATOM     74  C   UNL     1      -3.768  -7.808  -9.465  1.00  0.00     0.001 A 
ATOM     75  C   UNL     1      -2.506  -7.681 -10.043  1.00  0.00     0.000 A 
ENDBRANCH  56  70
BRANCH  57  76
ATOM     76  C   UNL     1      -3.572 -14.194   1.022  1.00  0.00    -0.014 A 
ATOM     77  C   UNL     1      -3.197 -15.529   1.232  1.00  0.00     0.009 A 
ATOM     78  C   UNL     1      -4.109 -13.477   2.108  1.00  0.00     0.009 A 
ATOM     79  C   UNL     1      -3.383 -16.139   2.480  1.00  0.00     0.001 A 
ATOM     80  C   UNL     1      -4.280 -14.084   3.359  1.00  0.00     0.001 A 
ATOM     81  C   UNL     1      -3.926 -15.418   3.542  1.00  0.00     0.000 A 
ENDBRANCH  57  76
BRANCH  69  82
ATOM     82  C   UNL     1      -6.248 -15.271  -5.323  1.00  0.00    -0.014 A 
ATOM     83  C   UNL     1      -7.623 -15.389  -5.087  1.00  0.00     0.009 A 
ATOM     84  C   UNL     1      -5.604 -16.190  -6.167  1.00  0.00     0.009 A 
ATOM     85  C   UNL     1      -8.340 -16.428  -5.675  1.00  0.00     0.001 A 
ATOM     86  C   UNL     1      -6.331 -17.204  -6.782  1.00  0.00     0.001 A 
ATOM     87  C   UNL     1      -7.697 -17.325  -6.530  1.00  0.00     0.000 A 
ENDBRANCH  69  82
ENDBRANCH  43  44
ENDBRANCH  36  38
ENDBRANCH  35  36
ENDBRANCH  34  35
ENDBRANCH  33  34
ENDBRANCH  32  33
ENDBRANCH  31  32
ENDBRANCH   1  31
TORSDOF 20
