REMARK SMILES COc1cccc(N2C(=O)C[C@@H](SC[C@@H](NC(C)=O)C(=O)OCCOCCOC(=O)c3ccc(-c4c5nc(c(-c6ccccc6)c6ccc([nH]6)c(-c6ccccc6)c6nc(c(-c7ccccc7)c7ccc4[nH]7)C=C6)C=C5)cc3)C2=O)c1
REMARK SMILES IDX 23 1 22 2 20 3 21 4 15 5 14 6 13 7 12 8 8 9 9 10 79 11 10 12
REMARK SMILES IDX 11 13 80 14 7 15 3 16 4 17 81 18 5 19 6 20 2 21 1 22 16 23
REMARK SMILES IDX 17 24 18 26 19 27 24 28 25 29 26 30 27 31 28 32 29 33 30 34
REMARK SMILES IDX 31 35 32 36 78 37 33 38 77 39 34 40 35 41 36 42 71 43 37 44
REMARK SMILES IDX 76 45 70 46 72 47 38 48 75 49 69 50 68 51 39 53 61 54 46 55
REMARK SMILES IDX 60 56 47 57 50 58 59 59 73 60 48 61 49 62 58 64 74 65 51 66
REMARK SMILES IDX 40 67 41 68 45 69 42 70 44 71 43 72 62 73 63 74 67 75 64 76
REMARK SMILES IDX 66 77 65 78 52 79 53 80 57 81 54 82 56 83 55 84
REMARK H PARENT 16 25 72 52 50 63
REMARK Flexibility Score: inf
ROOT
ATOM      1  C   UNL     1       3.655  -5.762   7.730  1.00  0.00     0.261 C 
ENDROOT
BRANCH   1   2
ATOM      2  O   UNL     1       3.901  -5.622   6.321  1.00  0.00    -0.462 OA
BRANCH   2   3
ATOM      3  C   UNL     1       5.172  -5.239   5.995  1.00  0.00     0.329 C 
ATOM      4  O   UNL     1       6.141  -5.320   6.741  1.00  0.00    -0.250 OA
BRANCH   3   5
ATOM      5  C   UNL     1       5.284  -4.842   4.515  1.00  0.00     0.202 C 
BRANCH   5   6
ATOM      6  C   UNL     1       5.190  -6.128   3.667  1.00  0.00     0.107 C 
BRANCH   6   7
ATOM      7  S   UNL     1       6.481  -6.334   2.369  1.00  0.00    -0.145 SA
BRANCH   7   8
ATOM      8  C   UNL     1       5.854  -5.390   0.934  1.00  0.00     0.146 C 
ATOM      9  N   UNL     1       3.923  -4.064   0.883  1.00  0.00    -0.249 N 
ATOM     10  C   UNL     1       4.984  -3.184   0.840  1.00  0.00     0.235 C 
ATOM     11  C   UNL     1       4.356  -5.372   0.822  1.00  0.00     0.247 C 
ATOM     12  O   UNL     1       4.969  -1.961   0.794  1.00  0.00    -0.274 OA
ATOM     13  C   UNL     1       6.271  -3.940   0.957  1.00  0.00     0.125 C 
ATOM     14  O   UNL     1       3.684  -6.387   0.696  1.00  0.00    -0.273 OA
BRANCH   9  15
ATOM     15  C   UNL     1       2.553  -3.675   1.045  1.00  0.00     0.055 A 
ATOM     16  C   UNL     1       0.826  -1.944   1.139  1.00  0.00     0.120 A 
ATOM     17  C   UNL     1      -0.049  -2.839   1.747  1.00  0.00     0.046 A 
ATOM     18  C   UNL     1       2.119  -2.361   0.797  1.00  0.00     0.073 A 
ATOM     19  C   UNL     1       0.339  -4.156   1.961  1.00  0.00     0.006 A 
ATOM     20  C   UNL     1       1.622  -4.572   1.600  1.00  0.00     0.027 A 
BRANCH  16  21
ATOM     21  O   UNL     1       0.332  -0.678   0.982  1.00  0.00    -0.497 OA
ATOM     22  C   UNL     1       0.953   0.121  -0.018  1.00  0.00     0.278 C 
ENDBRANCH  16  21
ENDBRANCH   9  15
ENDBRANCH   7   8
ENDBRANCH   6   7
ENDBRANCH   5   6
BRANCH   5  23
ATOM     23  N   UNL     1       4.253  -3.863   4.148  1.00  0.00    -0.342 N 
ATOM     24  C   UNL     1       4.128  -2.683   4.851  1.00  0.00     0.217 C 
ATOM     25  H   UNL     1       3.648  -4.050   3.394  1.00  0.00     0.164 HD
ATOM     26  C   UNL     1       3.233  -1.669   4.202  1.00  0.00     0.114 C 
ATOM     27  O   UNL     1       4.686  -2.478   5.922  1.00  0.00    -0.275 OA
ENDBRANCH   5  23
ENDBRANCH   3   5
ENDBRANCH   2   3
ENDBRANCH   1   2
BRANCH   1  28
ATOM     28  C   UNL     1       3.662  -7.208   8.238  1.00  0.00     0.202 C 
BRANCH  28  29
ATOM     29  O   UNL     1       4.922  -7.868   8.316  1.00  0.00    -0.374 OA
BRANCH  29  30
ATOM     30  C   UNL     1       5.477  -8.384   7.109  1.00  0.00     0.202 C 
BRANCH  30  31
ATOM     31  C   UNL     1       4.872  -9.692   6.594  1.00  0.00     0.261 C 
BRANCH  31  32
ATOM     32  O   UNL     1       3.521  -9.504   6.128  1.00  0.00    -0.460 OA
BRANCH  32  33
ATOM     33  C   UNL     1       2.590 -10.165   6.843  1.00  0.00     0.338 C 
ATOM     34  O   UNL     1       2.782 -10.952   7.770  1.00  0.00    -0.246 OA
BRANCH  33  35
ATOM     35  C   UNL     1       1.231  -9.733   6.485  1.00  0.00     0.060 A 
ATOM     36  C   UNL     1       0.396  -9.327   7.533  1.00  0.00     0.016 A 
ATOM     37  C   UNL     1       0.727  -9.893   5.191  1.00  0.00     0.016 A 
ATOM     38  C   UNL     1      -0.970  -9.187   7.317  1.00  0.00     0.010 A 
ATOM     39  C   UNL     1      -0.650  -9.756   4.977  1.00  0.00     0.010 A 
ATOM     40  C   UNL     1      -1.508  -9.472   6.056  1.00  0.00    -0.014 A 
BRANCH  40  41
ATOM     41  C   UNL     1      -2.968  -9.714   5.953  1.00  0.00     0.031 A 
ATOM     42  C   UNL     1      -3.467 -11.136   6.020  1.00  0.00     0.074 A 
ATOM     43  C   UNL     1      -3.842  -8.695   5.900  1.00  0.00     0.049 A 
ATOM     44  N   UNL     1      -4.696 -11.586   6.016  1.00  0.00    -0.248 NA
ATOM     45  C   UNL     1      -2.442 -12.190   6.111  1.00  0.00     0.031 C 
ATOM     46  C   UNL     1      -3.491  -7.277   5.889  1.00  0.00     0.029 A 
ATOM     47  N   UNL     1      -5.213  -8.707   5.863  1.00  0.00    -0.354 N 
ATOM     48  C   UNL     1      -4.591 -12.969   6.099  1.00  0.00     0.074 A 
ATOM     49  C   UNL     1      -3.181 -13.289   6.120  1.00  0.00     0.031 C 
ATOM     50  C   UNL     1      -4.622  -6.551   5.853  1.00  0.00     0.029 A 
ATOM     51  C   UNL     1      -5.771  -7.454   5.820  1.00  0.00     0.049 A 
ATOM     52  H   UNL     1      -5.746  -9.534   5.867  1.00  0.00     0.167 HD
ATOM     53  C   UNL     1      -5.577 -13.895   6.166  1.00  0.00     0.031 A 
ATOM     54  C   UNL     1      -7.064  -7.080   5.758  1.00  0.00     0.031 A 
ATOM     55  C   UNL     1      -6.980 -13.587   6.143  1.00  0.00     0.049 A 
ATOM     56  C   UNL     1      -8.142  -8.130   5.771  1.00  0.00     0.074 A 
ATOM     57  C   UNL     1      -8.056 -14.455   6.203  1.00  0.00     0.029 A 
ATOM     58  N   UNL     1      -7.501 -12.306   6.053  1.00  0.00    -0.354 N 
ATOM     59  N   UNL     1      -8.027  -9.433   5.863  1.00  0.00    -0.248 NA
ATOM     60  C   UNL     1      -9.530  -7.653   5.688  1.00  0.00     0.031 C 
ATOM     61  C   UNL     1      -9.230 -13.700   6.106  1.00  0.00     0.029 A 
ATOM     62  C   UNL     1      -8.883 -12.360   6.038  1.00  0.00     0.049 A 
ATOM     63  H   UNL     1      -6.967 -11.480   6.006  1.00  0.00     0.167 HD
ATOM     64  C   UNL     1      -9.326  -9.927   5.882  1.00  0.00     0.074 A 
ATOM     65  C   UNL     1     -10.212  -8.784   5.801  1.00  0.00     0.031 C 
ATOM     66  C   UNL     1      -9.748 -11.213   5.964  1.00  0.00     0.031 A 
BRANCH  53  67
ATOM     67  C   UNL     1      -5.162 -15.337   6.239  1.00  0.00    -0.014 A 
ATOM     68  C   UNL     1      -4.613 -15.879   7.412  1.00  0.00     0.009 A 
ATOM     69  C   UNL     1      -5.341 -16.170   5.124  1.00  0.00     0.009 A 
ATOM     70  C   UNL     1      -4.221 -17.219   7.455  1.00  0.00     0.001 A 
ATOM     71  C   UNL     1      -4.972 -17.515   5.178  1.00  0.00     0.001 A 
ATOM     72  C   UNL     1      -4.404 -18.036   6.340  1.00  0.00     0.000 A 
ENDBRANCH  53  67
BRANCH  54  73
ATOM     73  C   UNL     1      -7.417  -5.639   5.675  1.00  0.00    -0.014 A 
ATOM     74  C   UNL     1      -8.025  -4.986   6.758  1.00  0.00     0.009 A 
ATOM     75  C   UNL     1      -7.164  -4.915   4.499  1.00  0.00     0.009 A 
ATOM     76  C   UNL     1      -8.396  -3.643   6.654  1.00  0.00     0.001 A 
ATOM     77  C   UNL     1      -7.512  -3.567   4.408  1.00  0.00     0.001 A 
ATOM     78  C   UNL     1      -8.136  -2.934   5.482  1.00  0.00     0.000 A 
ENDBRANCH  54  73
BRANCH  66  79
ATOM     79  C   UNL     1     -11.231 -11.448   6.016  1.00  0.00    -0.014 A 
ATOM     80  C   UNL     1     -12.036 -11.298   4.877  1.00  0.00     0.009 A 
ATOM     81  C   UNL     1     -11.823 -11.867   7.219  1.00  0.00     0.009 A 
ATOM     82  C   UNL     1     -13.411 -11.529   4.951  1.00  0.00     0.001 A 
ATOM     83  C   UNL     1     -13.193 -12.123   7.283  1.00  0.00     0.001 A 
ATOM     84  C   UNL     1     -13.987 -11.944   6.152  1.00  0.00     0.000 A 
ENDBRANCH  66  79
ENDBRANCH  40  41
ENDBRANCH  33  35
ENDBRANCH  32  33
ENDBRANCH  31  32
ENDBRANCH  30  31
ENDBRANCH  29  30
ENDBRANCH  28  29
ENDBRANCH   1  28
TORSDOF 20
