REMARK SMILES O=C(OCCOCCOC(=O)c1cccc(Nc2nc(-c3ccc(F)cc3F)cs2)c1)c1ccc(-c2c3nc(c(-c4ccccc4)c4ccc([nH]4)c(-c4ccccc4)c4nc(c(-c5ccccc5)c5ccc2[nH]5)C=C4)C=C3)cc1
REMARK SMILES IDX 7 1 6 2 5 3 4 4 3 5 2 6 1 7 32 8 33 9 79 10 34 11 78 12
REMARK SMILES IDX 35 13 36 14 37 15 72 16 38 17 77 18 71 19 73 20 39 21 76 22
REMARK SMILES IDX 70 23 69 24 40 26 62 27 47 28 61 29 48 30 51 31 60 32 74 33
REMARK SMILES IDX 49 34 50 35 59 37 75 38 52 39 41 40 42 41 46 42 43 43 45 44
REMARK SMILES IDX 44 45 63 46 64 47 68 48 65 49 67 50 66 51 53 52 54 53 58 54
REMARK SMILES IDX 55 55 57 56 56 57 8 58 9 59 10 60 11 61 12 62 13 63 31 64
REMARK SMILES IDX 14 65 16 66 15 67 17 68 18 70 19 71 30 72 20 73 29 74 21 75
REMARK SMILES IDX 22 76 27 77 23 78 26 79 28 80 24 81 25 82
REMARK H PARENT 73 25 51 36 17 69
REMARK Flexibility Score: inf
ROOT
ATOM      1  C   UNL     1       2.730   0.877  -2.054  1.00  0.00     0.202 C 
ENDROOT
BRANCH   1   2
ATOM      2  O   UNL     1       4.035   0.506  -1.596  1.00  0.00    -0.374 OA
BRANCH   2   3
ATOM      3  C   UNL     1       4.268  -0.897  -1.464  1.00  0.00     0.202 C 
BRANCH   3   4
ATOM      4  C   UNL     1       3.925  -1.461  -0.083  1.00  0.00     0.261 C 
BRANCH   4   5
ATOM      5  O   UNL     1       2.552  -1.194   0.243  1.00  0.00    -0.460 OA
BRANCH   5   6
ATOM      6  C   UNL     1       2.045  -0.191   0.996  1.00  0.00     0.338 C 
ATOM      7  O   UNL     1       0.825  -0.125   1.139  1.00  0.00    -0.246 OA
BRANCH   6   8
ATOM      8  C   UNL     1       2.879   0.835   1.696  1.00  0.00     0.060 A 
ATOM      9  C   UNL     1       4.143   1.263   1.287  1.00  0.00     0.016 A 
ATOM     10  C   UNL     1       2.305   1.466   2.814  1.00  0.00     0.016 A 
ATOM     11  C   UNL     1       4.851   2.220   1.992  1.00  0.00     0.010 A 
ATOM     12  C   UNL     1       2.995   2.461   3.514  1.00  0.00     0.010 A 
ATOM     13  C   UNL     1       4.287   2.815   3.115  1.00  0.00    -0.014 A 
BRANCH  13  14
ATOM     14  C   UNL     1       5.160   3.687   3.917  1.00  0.00     0.031 A 
ATOM     15  C   UNL     1       5.781   3.112   5.152  1.00  0.00     0.074 A 
ATOM     16  C   UNL     1       5.525   4.886   3.429  1.00  0.00     0.049 A 
ATOM     17  N   UNL     1       6.630   3.656   5.981  1.00  0.00    -0.248 NA
ATOM     18  C   UNL     1       5.414   1.724   5.486  1.00  0.00     0.031 C 
ATOM     19  C   UNL     1       5.074   5.451   2.154  1.00  0.00     0.029 A 
ATOM     20  N   UNL     1       6.400   5.816   3.917  1.00  0.00    -0.354 N 
ATOM     21  C   UNL     1       6.875   2.689   6.948  1.00  0.00     0.074 A 
ATOM     22  C   UNL     1       6.087   1.527   6.608  1.00  0.00     0.031 C 
ATOM     23  C   UNL     1       5.711   6.613   1.942  1.00  0.00     0.029 A 
ATOM     24  C   UNL     1       6.561   6.902   3.091  1.00  0.00     0.049 A 
ATOM     25  H   UNL     1       6.869   5.718   4.777  1.00  0.00     0.167 HD
ATOM     26  C   UNL     1       7.680   2.776   8.031  1.00  0.00     0.031 A 
ATOM     27  C   UNL     1       7.304   8.010   3.264  1.00  0.00     0.031 A 
ATOM     28  C   UNL     1       8.441   3.951   8.350  1.00  0.00     0.049 A 
ATOM     29  C   UNL     1       8.112   8.121   4.527  1.00  0.00     0.074 A 
ATOM     30  C   UNL     1       9.233   4.200   9.455  1.00  0.00     0.029 A 
ATOM     31  N   UNL     1       8.499   5.083   7.546  1.00  0.00    -0.354 N 
ATOM     32  N   UNL     1       8.280   7.235   5.481  1.00  0.00    -0.248 NA
ATOM     33  C   UNL     1       8.824   9.386   4.745  1.00  0.00     0.031 C 
ATOM     34  C   UNL     1       9.732   5.503   9.341  1.00  0.00     0.029 A 
ATOM     35  C   UNL     1       9.300   6.041   8.137  1.00  0.00     0.049 A 
ATOM     36  H   UNL     1       8.038   5.186   6.683  1.00  0.00     0.167 HD
ATOM     37  C   UNL     1       9.134   7.824   6.402  1.00  0.00     0.074 A 
ATOM     38  C   UNL     1       9.464   9.137   5.879  1.00  0.00     0.031 C 
ATOM     39  C   UNL     1       9.604   7.333   7.575  1.00  0.00     0.031 A 
BRANCH  26  40
ATOM     40  C   UNL     1       7.677   1.606   8.972  1.00  0.00    -0.014 A 
ATOM     41  C   UNL     1       8.285   0.385   8.638  1.00  0.00     0.009 A 
ATOM     42  C   UNL     1       6.999   1.714  10.196  1.00  0.00     0.009 A 
ATOM     43  C   UNL     1       8.173  -0.716   9.492  1.00  0.00     0.001 A 
ATOM     44  C   UNL     1       6.912   0.621  11.059  1.00  0.00     0.001 A 
ATOM     45  C   UNL     1       7.487  -0.597  10.701  1.00  0.00     0.000 A 
ENDBRANCH  26  40
BRANCH  27  46
ATOM     46  C   UNL     1       7.283   9.103   2.255  1.00  0.00    -0.014 A 
ATOM     47  C   UNL     1       8.436   9.447   1.534  1.00  0.00     0.009 A 
ATOM     48  C   UNL     1       6.101   9.826   2.019  1.00  0.00     0.009 A 
ATOM     49  C   UNL     1       8.412  10.506   0.620  1.00  0.00     0.001 A 
ATOM     50  C   UNL     1       6.072  10.862   1.083  1.00  0.00     0.001 A 
ATOM     51  C   UNL     1       7.230  11.209   0.392  1.00  0.00     0.000 A 
ENDBRANCH  27  46
BRANCH  39  52
ATOM     52  C   UNL     1      10.558   8.206   8.336  1.00  0.00    -0.014 A 
ATOM     53  C   UNL     1      10.117   9.351   9.016  1.00  0.00     0.009 A 
ATOM     54  C   UNL     1      11.914   7.849   8.401  1.00  0.00     0.009 A 
ATOM     55  C   UNL     1      11.025  10.143   9.718  1.00  0.00     0.001 A 
ATOM     56  C   UNL     1      12.813   8.626   9.129  1.00  0.00     0.001 A 
ATOM     57  C   UNL     1      12.370   9.777   9.778  1.00  0.00     0.000 A 
ENDBRANCH  39  52
ENDBRANCH  13  14
ENDBRANCH   6   8
ENDBRANCH   5   6
ENDBRANCH   4   5
ENDBRANCH   3   4
ENDBRANCH   2   3
ENDBRANCH   1   2
BRANCH   1  58
ATOM     58  C   UNL     1       2.848   1.705  -3.336  1.00  0.00     0.261 C 
BRANCH  58  59
ATOM     59  O   UNL     1       3.470   0.900  -4.348  1.00  0.00    -0.460 OA
BRANCH  59  60
ATOM     60  C   UNL     1       4.827   0.941  -4.356  1.00  0.00     0.338 C 
ATOM     61  O   UNL     1       5.553   1.786  -3.863  1.00  0.00    -0.246 OA
BRANCH  60  62
ATOM     62  C   UNL     1       5.299  -0.357  -4.876  1.00  0.00     0.062 A 
ATOM     63  C   UNL     1       6.330  -1.013  -4.202  1.00  0.00     0.016 A 
ATOM     64  C   UNL     1       4.676  -0.954  -5.974  1.00  0.00     0.041 A 
ATOM     65  C   UNL     1       6.670  -2.311  -4.568  1.00  0.00     0.003 A 
ATOM     66  C   UNL     1       5.084  -2.216  -6.419  1.00  0.00     0.041 A 
ATOM     67  C   UNL     1       6.037  -2.911  -5.660  1.00  0.00     0.026 A 
BRANCH  66  68
ATOM     68  N   UNL     1       4.518  -2.714  -7.607  1.00  0.00    -0.332 N 
ATOM     69  H   UNL     1       3.802  -2.179  -8.020  1.00  0.00     0.169 HD
BRANCH  68  70
ATOM     70  C   UNL     1       4.868  -3.858  -8.233  1.00  0.00     0.187 A 
ATOM     71  N   UNL     1       4.959  -5.050  -7.687  1.00  0.00    -0.220 NA
ATOM     72  S   UNL     1       5.240  -3.806  -9.919  1.00  0.00    -0.105 S 
ATOM     73  C   UNL     1       5.306  -5.985  -8.639  1.00  0.00     0.086 A 
ATOM     74  C   UNL     1       5.595  -5.480  -9.889  1.00  0.00     0.097 A 
BRANCH  73  75
ATOM     75  C   UNL     1       5.308  -7.399  -8.340  1.00  0.00     0.037 A 
ATOM     76  C   UNL     1       6.482  -8.157  -8.430  1.00  0.00     0.016 A 
ATOM     77  C   UNL     1       4.109  -8.029  -7.981  1.00  0.00     0.135 A 
ATOM     78  C   UNL     1       6.441  -9.530  -8.171  1.00  0.00     0.040 A 
ATOM     79  C   UNL     1       4.064  -9.394  -7.725  1.00  0.00     0.079 A 
ATOM     80  F   UNL     1       2.963  -7.333  -7.915  1.00  0.00    -0.206 F 
ATOM     81  C   UNL     1       5.233 -10.133  -7.824  1.00  0.00     0.126 A 
ATOM     82  F   UNL     1       5.201 -11.451  -7.591  1.00  0.00    -0.207 F 
ENDBRANCH  73  75
ENDBRANCH  68  70
ENDBRANCH  66  68
ENDBRANCH  60  62
ENDBRANCH  59  60
ENDBRANCH  58  59
ENDBRANCH   1  58
TORSDOF 17
