REMARK SMILES CCC[N@@H+](C1CC1)[C@@H]1CC[C@]([NH2+]C2CC2)(C(=O)OCCOCCOC(=O)c2ccc(-c3c4nc(c(-c5ccccc5)c5ccc([nH]5)c(-c5ccccc5)c5nc(c(-c6ccccc6)c6ccc3[nH]6)C=C5)C=C4)cc2)C1
REMARK SMILES IDX 20 1 19 2 18 3 16 4 17 5 11 6 8 7 9 8 75 9 10 10 4 11 3 13
REMARK SMILES IDX 2 14 1 15 5 16 6 17 7 18 12 19 13 22 14 23 15 24 21 25 22 26
REMARK SMILES IDX 23 27 24 28 25 29 26 30 27 31 28 32 74 33 29 34 73 35 30 36
REMARK SMILES IDX 31 37 32 38 67 39 33 40 72 41 66 42 68 43 34 44 71 45 65 46
REMARK SMILES IDX 64 47 35 49 57 50 42 51 56 52 43 53 46 54 55 55 69 56 44 57
REMARK SMILES IDX 45 58 54 60 70 61 47 62 36 63 37 64 41 65 38 66 40 67 39 68
REMARK SMILES IDX 58 69 59 70 63 71 60 72 62 73 61 74 48 75 49 76 53 77 50 78
REMARK SMILES IDX 52 79 51 80
REMARK H PARENT 4 12 12 20 12 21 68 48 46 59
REMARK Flexibility Score: inf
ROOT
ATOM      1  C   UNL     1       1.534   3.228  -2.705  1.00  0.00     0.202 C 
ENDROOT
BRANCH   1   2
ATOM      2  C   UNL     1       2.570   3.610  -1.649  1.00  0.00     0.261 C 
BRANCH   2   3
ATOM      3  O   UNL     1       2.524   2.704  -0.534  1.00  0.00    -0.459 OA
BRANCH   3   4
ATOM      4  C   UNL     1       2.054   3.209   0.643  1.00  0.00     0.368 C 
ATOM      5  O   UNL     1       1.686   4.368   0.806  1.00  0.00    -0.245 OA
BRANCH   4   6
ATOM      6  C   UNL     1       2.160   2.171   1.796  1.00  0.00     0.200 C 
ATOM      7  C   UNL     1       1.330  -0.035   2.446  1.00  0.00     0.191 C 
ATOM      8  C   UNL     1       0.325   0.990   2.988  1.00  0.00     0.072 C 
ATOM      9  C   UNL     1       1.929   0.740   1.281  1.00  0.00     0.146 C 
ATOM     10  C   UNL     1       0.984   2.368   2.787  1.00  0.00     0.087 C 
BRANCH   7  11
ATOM     11  N   UNL     1       0.730  -1.374   2.235  1.00  0.00    -0.330 N 
ATOM     12  H   UNL     1      -0.249  -1.221   1.996  1.00  0.00     0.348 HD
BRANCH  11  13
ATOM     13  C   UNL     1       1.191  -2.127   1.054  1.00  0.00     0.262 C 
BRANCH  13  14
ATOM     14  C   UNL     1       0.717  -1.659  -0.332  1.00  0.00     0.058 C 
ATOM     15  C   UNL     1       1.845  -1.136  -1.214  1.00  0.00     0.010 C 
ENDBRANCH  13  14
ENDBRANCH  11  13
BRANCH  11  16
ATOM     16  C   UNL     1       0.850  -2.152   3.519  1.00  0.00     0.184 C 
ATOM     17  C   UNL     1       0.976  -3.649   3.641  1.00  0.00     0.071 C 
ATOM     18  C   UNL     1       2.175  -2.785   3.892  1.00  0.00     0.071 C 
ENDBRANCH  11  16
ENDBRANCH   7  11
BRANCH   6  19
ATOM     19  N   UNL     1       3.498   2.405   2.399  1.00  0.00    -0.329 N 
ATOM     20  H   UNL     1       3.494   3.349   2.787  1.00  0.00     0.347 HD
ATOM     21  H   UNL     1       4.153   2.242   1.635  1.00  0.00     0.347 HD
BRANCH  19  22
ATOM     22  C   UNL     1       3.940   1.503   3.458  1.00  0.00     0.183 C 
ATOM     23  C   UNL     1       4.707   0.257   3.100  1.00  0.00     0.071 C 
ATOM     24  C   UNL     1       5.412   1.407   3.749  1.00  0.00     0.071 C 
ENDBRANCH  19  22
ENDBRANCH   6  19
ENDBRANCH   4   6
ENDBRANCH   3   4
ENDBRANCH   2   3
ENDBRANCH   1   2
BRANCH   1  25
ATOM     25  O   UNL     1       0.176   3.446  -2.323  1.00  0.00    -0.374 OA
BRANCH  25  26
ATOM     26  C   UNL     1      -0.461   2.359  -1.650  1.00  0.00     0.202 C 
BRANCH  26  27
ATOM     27  C   UNL     1      -1.033   1.271  -2.570  1.00  0.00     0.261 C 
BRANCH  27  28
ATOM     28  O   UNL     1       0.008   0.551  -3.261  1.00  0.00    -0.460 OA
BRANCH  28  29
ATOM     29  C   UNL     1       0.153   0.859  -4.574  1.00  0.00     0.338 C 
ATOM     30  O   UNL     1      -0.575   1.562  -5.247  1.00  0.00    -0.246 OA
BRANCH  29  31
ATOM     31  C   UNL     1       1.462   0.368  -5.068  1.00  0.00     0.060 A 
ATOM     32  C   UNL     1       2.237   1.258  -5.821  1.00  0.00     0.016 A 
ATOM     33  C   UNL     1       1.914  -0.934  -4.850  1.00  0.00     0.016 A 
ATOM     34  C   UNL     1       3.429   0.829  -6.409  1.00  0.00     0.010 A 
ATOM     35  C   UNL     1       3.129  -1.353  -5.408  1.00  0.00     0.010 A 
ATOM     36  C   UNL     1       3.867  -0.491  -6.240  1.00  0.00    -0.014 A 
BRANCH  36  37
ATOM     37  C   UNL     1       4.977  -1.008  -7.087  1.00  0.00     0.031 A 
ATOM     38  C   UNL     1       4.653  -1.943  -8.226  1.00  0.00     0.074 A 
ATOM     39  C   UNL     1       6.250  -0.608  -6.904  1.00  0.00     0.049 A 
ATOM     40  N   UNL     1       5.453  -2.487  -9.110  1.00  0.00    -0.248 NA
ATOM     41  C   UNL     1       3.238  -2.315  -8.392  1.00  0.00     0.031 C 
ATOM     42  C   UNL     1       6.708   0.322  -5.873  1.00  0.00     0.029 A 
ATOM     43  N   UNL     1       7.393  -0.931  -7.597  1.00  0.00    -0.354 N 
ATOM     44  C   UNL     1       4.641  -3.268  -9.925  1.00  0.00     0.074 A 
ATOM     45  C   UNL     1       3.296  -3.165  -9.404  1.00  0.00     0.031 C 
ATOM     46  C   UNL     1       8.034   0.505  -6.010  1.00  0.00     0.029 A 
ATOM     47  C   UNL     1       8.524  -0.321  -7.113  1.00  0.00     0.049 A 
ATOM     48  H   UNL     1       7.399  -1.543  -8.368  1.00  0.00     0.167 HD
ATOM     49  C   UNL     1       4.974  -3.994 -11.019  1.00  0.00     0.031 A 
ATOM     50  C   UNL     1       9.810  -0.422  -7.503  1.00  0.00     0.031 A 
ATOM     51  C   UNL     1       6.307  -4.107 -11.546  1.00  0.00     0.049 A 
ATOM     52  C   UNL     1      10.170  -1.304  -8.672  1.00  0.00     0.074 A 
ATOM     53  C   UNL     1       6.734  -4.803 -12.664  1.00  0.00     0.029 A 
ATOM     54  N   UNL     1       7.430  -3.518 -10.988  1.00  0.00    -0.354 N 
ATOM     55  N   UNL     1       9.386  -2.006  -9.453  1.00  0.00    -0.248 NA
ATOM     56  C   UNL     1      11.597  -1.397  -9.017  1.00  0.00     0.031 C 
ATOM     57  C   UNL     1       8.125  -4.692 -12.743  1.00  0.00     0.029 A 
ATOM     58  C   UNL     1       8.555  -3.865 -11.718  1.00  0.00     0.049 A 
ATOM     59  H   UNL     1       7.429  -2.939 -10.192  1.00  0.00     0.167 HD
ATOM     60  C   UNL     1      10.219  -2.598 -10.397  1.00  0.00     0.074 A 
ATOM     61  C   UNL     1      11.566  -2.158 -10.102  1.00  0.00     0.031 C 
ATOM     62  C   UNL     1       9.894  -3.428 -11.419  1.00  0.00     0.031 A 
BRANCH  49  63
ATOM     63  C   UNL     1       3.872  -4.757 -11.703  1.00  0.00    -0.014 A 
ATOM     64  C   UNL     1       2.856  -4.100 -12.415  1.00  0.00     0.009 A 
ATOM     65  C   UNL     1       3.870  -6.160 -11.658  1.00  0.00     0.009 A 
ATOM     66  C   UNL     1       1.839  -4.831 -13.033  1.00  0.00     0.001 A 
ATOM     67  C   UNL     1       2.872  -6.890 -12.306  1.00  0.00     0.001 A 
ATOM     68  C   UNL     1       1.851  -6.224 -12.983  1.00  0.00     0.000 A 
ENDBRANCH  49  63
BRANCH  50  69
ATOM     69  C   UNL     1      10.874   0.318  -6.771  1.00  0.00    -0.014 A 
ATOM     70  C   UNL     1      11.581   1.362  -7.387  1.00  0.00     0.009 A 
ATOM     71  C   UNL     1      11.209  -0.041  -5.455  1.00  0.00     0.009 A 
ATOM     72  C   UNL     1      12.619   2.011  -6.712  1.00  0.00     0.001 A 
ATOM     73  C   UNL     1      12.224   0.631  -4.771  1.00  0.00     0.001 A 
ATOM     74  C   UNL     1      12.935   1.649  -5.404  1.00  0.00     0.000 A 
ENDBRANCH  50  69
BRANCH  62  75
ATOM     75  C   UNL     1      11.006  -3.890 -12.323  1.00  0.00    -0.014 A 
ATOM     76  C   UNL     1      11.981  -4.798 -11.883  1.00  0.00     0.009 A 
ATOM     77  C   UNL     1      11.047  -3.444 -13.654  1.00  0.00     0.009 A 
ATOM     78  C   UNL     1      12.995  -5.221 -12.747  1.00  0.00     0.001 A 
ATOM     79  C   UNL     1      12.041  -3.894 -14.525  1.00  0.00     0.001 A 
ATOM     80  C   UNL     1      13.021  -4.774 -14.068  1.00  0.00     0.000 A 
ENDBRANCH  62  75
ENDBRANCH  36  37
ENDBRANCH  29  31
ENDBRANCH  28  29
ENDBRANCH  27  28
ENDBRANCH  26  27
ENDBRANCH  25  26
ENDBRANCH   1  25
TORSDOF 20
