REMARK SMILES O=C(OCCOCCOC(=O)[C@H]1CC=CC[C@H]1C(=O)N[C@@H]1CCN(c2cccc(Cl)c2)C1)c1ccc(-c2c3nc(c(-c4ccccc4)c4ccc([nH]4)c(-c4ccccc4)c4nc(c(-c5ccccc5)c5ccc2[nH]5)C=C4)C=C3)cc1
REMARK SMILES IDX 7 1 6 2 5 3 4 4 3 5 2 6 1 7 33 8 34 9 80 10 35 11 79 12
REMARK SMILES IDX 36 13 37 14 38 15 73 16 39 17 78 18 72 19 74 20 40 21 77 22
REMARK SMILES IDX 71 23 70 24 41 26 63 27 48 28 62 29 49 30 52 31 61 32 75 33
REMARK SMILES IDX 50 34 51 35 60 37 76 38 53 39 42 40 43 41 47 42 44 43 46 44
REMARK SMILES IDX 45 45 64 46 65 47 69 48 66 49 68 50 67 51 54 52 55 53 59 54
REMARK SMILES IDX 56 55 58 56 57 57 8 58 9 59 10 60 11 61 12 62 13 63 17 64
REMARK SMILES IDX 14 65 16 66 15 67 18 68 19 69 20 70 21 72 22 73 32 74 23 75
REMARK SMILES IDX 24 76 25 77 26 78 31 79 27 80 29 81 28 82 30 83
REMARK H PARENT 74 25 52 36 20 71
REMARK Flexibility Score: inf
ROOT
ATOM      1  C   UNL     1       5.692  -1.543  -2.383  1.00  0.00     0.202 C 
ENDROOT
BRANCH   1   2
ATOM      2  O   UNL     1       5.548  -0.362  -1.508  1.00  0.00    -0.374 OA
BRANCH   2   3
ATOM      3  C   UNL     1       5.837  -0.435  -0.083  1.00  0.00     0.202 C 
BRANCH   3   4
ATOM      4  C   UNL     1       5.533   0.931   0.761  1.00  0.00     0.261 C 
BRANCH   4   5
ATOM      5  O   UNL     1       4.159   1.293   1.258  1.00  0.00    -0.460 OA
BRANCH   5   6
ATOM      6  C   UNL     1       3.310   2.370   1.134  1.00  0.00     0.338 C 
ATOM      7  O   UNL     1       2.442   2.610   1.970  1.00  0.00    -0.246 OA
BRANCH   6   8
ATOM      8  C   UNL     1       3.258   3.124  -0.134  1.00  0.00     0.060 A 
ATOM      9  C   UNL     1       3.092   2.335  -1.241  1.00  0.00     0.016 A 
ATOM     10  C   UNL     1       2.911   4.458  -0.341  1.00  0.00     0.016 A 
ATOM     11  C   UNL     1       3.601   2.775  -2.427  1.00  0.00     0.010 A 
ATOM     12  C   UNL     1       2.992   4.961  -1.661  1.00  0.00     0.010 A 
ATOM     13  C   UNL     1       3.515   4.123  -2.682  1.00  0.00    -0.014 A 
BRANCH  13  14
ATOM     14  C   UNL     1       4.363   4.631  -3.776  1.00  0.00     0.031 A 
ATOM     15  C   UNL     1       5.430   5.576  -3.343  1.00  0.00     0.074 A 
ATOM     16  C   UNL     1       4.442   4.114  -5.017  1.00  0.00     0.049 A 
ATOM     17  N   UNL     1       5.980   6.556  -3.988  1.00  0.00    -0.248 NA
ATOM     18  C   UNL     1       5.896   5.421  -1.953  1.00  0.00     0.031 C 
ATOM     19  C   UNL     1       3.771   2.910  -5.518  1.00  0.00     0.029 A 
ATOM     20  N   UNL     1       5.187   4.540  -6.086  1.00  0.00    -0.354 N 
ATOM     21  C   UNL     1       6.686   7.258  -3.021  1.00  0.00     0.074 A 
ATOM     22  C   UNL     1       6.558   6.548  -1.774  1.00  0.00     0.031 C 
ATOM     23  C   UNL     1       4.166   2.679  -6.782  1.00  0.00     0.029 A 
ATOM     24  C   UNL     1       4.943   3.824  -7.231  1.00  0.00     0.049 A 
ATOM     25  H   UNL     1       5.830   5.283  -6.037  1.00  0.00     0.167 HD
ATOM     26  C   UNL     1       7.300   8.446  -3.198  1.00  0.00     0.031 A 
ATOM     27  C   UNL     1       5.199   4.148  -8.512  1.00  0.00     0.031 A 
ATOM     28  C   UNL     1       7.449   9.004  -4.512  1.00  0.00     0.049 A 
ATOM     29  C   UNL     1       5.811   5.505  -8.750  1.00  0.00     0.074 A 
ATOM     30  C   UNL     1       7.957  10.223  -4.905  1.00  0.00     0.029 A 
ATOM     31  N   UNL     1       7.105   8.311  -5.671  1.00  0.00    -0.354 N 
ATOM     32  N   UNL     1       6.222   6.387  -7.865  1.00  0.00    -0.248 NA
ATOM     33  C   UNL     1       5.942   5.941 -10.143  1.00  0.00     0.031 C 
ATOM     34  C   UNL     1       7.874  10.282  -6.303  1.00  0.00     0.029 A 
ATOM     35  C   UNL     1       7.382   9.072  -6.782  1.00  0.00     0.049 A 
ATOM     36  H   UNL     1       6.719   7.406  -5.691  1.00  0.00     0.167 HD
ATOM     37  C   UNL     1       6.677   7.478  -8.591  1.00  0.00     0.074 A 
ATOM     38  C   UNL     1       6.495   7.138  -9.992  1.00  0.00     0.031 C 
ATOM     39  C   UNL     1       7.196   8.653  -8.151  1.00  0.00     0.031 A 
BRANCH  26  40
ATOM     40  C   UNL     1       7.614   9.227  -1.955  1.00  0.00    -0.014 A 
ATOM     41  C   UNL     1       8.548   8.809  -0.995  1.00  0.00     0.009 A 
ATOM     42  C   UNL     1       6.825  10.357  -1.676  1.00  0.00     0.009 A 
ATOM     43  C   UNL     1       8.630   9.457   0.242  1.00  0.00     0.001 A 
ATOM     44  C   UNL     1       6.938  11.028  -0.458  1.00  0.00     0.001 A 
ATOM     45  C   UNL     1       7.825  10.564   0.509  1.00  0.00     0.000 A 
ENDBRANCH  26  40
BRANCH  27  46
ATOM     46  C   UNL     1       4.707   3.283  -9.622  1.00  0.00    -0.014 A 
ATOM     47  C   UNL     1       5.594   2.656 -10.509  1.00  0.00     0.009 A 
ATOM     48  C   UNL     1       3.328   3.053  -9.785  1.00  0.00     0.009 A 
ATOM     49  C   UNL     1       5.111   1.824 -11.527  1.00  0.00     0.001 A 
ATOM     50  C   UNL     1       2.850   2.195 -10.778  1.00  0.00     0.001 A 
ATOM     51  C   UNL     1       3.743   1.585 -11.654  1.00  0.00     0.000 A 
ENDBRANCH  27  46
BRANCH  39  52
ATOM     52  C   UNL     1       7.687   9.607  -9.194  1.00  0.00    -0.014 A 
ATOM     53  C   UNL     1       6.804  10.406  -9.931  1.00  0.00     0.009 A 
ATOM     54  C   UNL     1       9.072   9.787  -9.337  1.00  0.00     0.009 A 
ATOM     55  C   UNL     1       7.306  11.370 -10.805  1.00  0.00     0.001 A 
ATOM     56  C   UNL     1       9.568  10.770 -10.187  1.00  0.00     0.001 A 
ATOM     57  C   UNL     1       8.685  11.558 -10.922  1.00  0.00     0.000 A 
ENDBRANCH  39  52
ENDBRANCH  13  14
ENDBRANCH   6   8
ENDBRANCH   5   6
ENDBRANCH   4   5
ENDBRANCH   3   4
ENDBRANCH   2   3
ENDBRANCH   1   2
BRANCH   1  58
ATOM     58  C   UNL     1       4.595  -2.659  -2.473  1.00  0.00     0.261 C 
BRANCH  58  59
ATOM     59  O   UNL     1       4.527  -3.356  -1.224  1.00  0.00    -0.463 OA
BRANCH  59  60
ATOM     60  C   UNL     1       5.316  -4.409  -1.076  1.00  0.00     0.310 C 
ATOM     61  O   UNL     1       6.000  -4.877  -2.011  1.00  0.00    -0.252 OA
BRANCH  60  62
ATOM     62  C   UNL     1       5.253  -4.970   0.329  1.00  0.00     0.115 C 
ATOM     63  C   UNL     1       6.593  -5.769   0.457  1.00  0.00     0.043 C 
ATOM     64  C   UNL     1       5.151  -3.976   1.533  1.00  0.00     0.096 C 
ATOM     65  C   UNL     1       7.752  -4.807   0.365  1.00  0.00    -0.030 C 
ATOM     66  C   UNL     1       6.531  -3.327   1.918  1.00  0.00     0.041 C 
ATOM     67  C   UNL     1       7.685  -3.633   1.004  1.00  0.00    -0.030 C 
BRANCH  64  68
ATOM     68  C   UNL     1       3.972  -3.079   2.094  1.00  0.00     0.224 C 
ATOM     69  O   UNL     1       4.022  -2.875   3.326  1.00  0.00    -0.275 OA
ATOM     70  N   UNL     1       2.918  -2.428   1.530  1.00  0.00    -0.351 N 
ATOM     71  H   UNL     1       2.362  -1.982   2.208  1.00  0.00     0.163 HD
BRANCH  70  72
ATOM     72  C   UNL     1       2.392  -2.218   0.177  1.00  0.00     0.103 C 
ATOM     73  C   UNL     1       2.987  -0.960  -0.373  1.00  0.00     0.048 C 
ATOM     74  C   UNL     1       0.892  -1.952  -0.200  1.00  0.00     0.141 C 
ATOM     75  C   UNL     1       2.015  -0.239  -1.217  1.00  0.00     0.119 C 
ATOM     76  N   UNL     1       1.043  -1.247  -1.512  1.00  0.00    -0.369 N 
BRANCH  76  77
ATOM     77  C   UNL     1       0.181  -0.716  -2.453  1.00  0.00     0.038 A 
ATOM     78  C   UNL     1       0.699  -0.229  -3.691  1.00  0.00     0.026 A 
ATOM     79  C   UNL     1      -1.150  -0.462  -2.174  1.00  0.00     0.046 A 
ATOM     80  C   UNL     1      -0.051   0.562  -4.559  1.00  0.00     0.004 A 
ATOM     81  C   UNL     1      -1.918   0.295  -3.065  1.00  0.00     0.043 A 
ATOM     82  C   UNL     1      -1.374   0.823  -4.240  1.00  0.00     0.020 A 
ATOM     83  Cl  UNL     1      -3.562   0.622  -2.679  1.00  0.00    -0.084 Cl
ENDBRANCH  76  77
ENDBRANCH  70  72
ENDBRANCH  64  68
ENDBRANCH  60  62
ENDBRANCH  59  60
ENDBRANCH  58  59
ENDBRANCH   1  58
TORSDOF 17
