REMARK SMILES CCc1nc(N2CC[N@H+](CC=C(C)C)[C@H](C(=O)OCCOCCOC(=O)c3ccc(-c4c5nc(c(-c6ccccc6)c6ccc([nH]6)c(-c6ccccc6)c6nc(c(-c7ccccc7)c7ccc4[nH]7)C=C6)C=C5)cc3)C2)no1
REMARK SMILES IDX 21 1 20 2 19 3 18 4 16 5 17 6 15 7 6 8 7 9 75 10 8 11 9 12
REMARK SMILES IDX 5 14 3 15 4 16 77 17 76 18 2 19 1 20 10 21 11 22 12 23 13 24
REMARK SMILES IDX 14 25 22 26 23 27 24 28 25 29 26 30 27 31 28 32 74 33 29 34
REMARK SMILES IDX 73 35 30 36 31 37 32 38 67 39 33 40 72 41 66 42 68 43 34 44
REMARK SMILES IDX 71 45 65 46 64 47 35 49 57 50 42 51 56 52 43 53 46 54 55 55
REMARK SMILES IDX 69 56 44 57 45 58 54 60 70 61 47 62 36 63 37 64 41 65 38 66
REMARK SMILES IDX 40 67 39 68 58 69 59 70 63 71 60 72 62 73 61 74 48 75 49 76
REMARK SMILES IDX 53 77 50 78 52 79 51 80
REMARK H PARENT 9 13 68 48 46 59
REMARK Flexibility Score: inf
ROOT
ATOM      1  O   UNL     1       0.803  -8.432  -6.394  1.00  0.00    -0.374 OA
ENDROOT
BRANCH   1   2
ATOM      2  C   UNL     1      -0.072  -7.376  -6.799  1.00  0.00     0.202 C 
BRANCH   2   3
ATOM      3  C   UNL     1      -1.381  -7.269  -6.011  1.00  0.00     0.261 C 
BRANCH   3   4
ATOM      4  O   UNL     1      -1.134  -6.802  -4.669  1.00  0.00    -0.459 OA
BRANCH   4   5
ATOM      5  C   UNL     1      -1.532  -7.633  -3.664  1.00  0.00     0.366 C 
ATOM      6  O   UNL     1      -2.165  -8.668  -3.849  1.00  0.00    -0.245 OA
BRANCH   5   7
ATOM      7  C   UNL     1      -1.121  -7.118  -2.271  1.00  0.00     0.315 C 
ATOM      8  N   UNL     1       0.223  -5.506  -0.901  1.00  0.00    -0.326 N 
ATOM      9  C   UNL     1       0.451  -6.539   0.117  1.00  0.00     0.181 C 
ATOM     10  C   UNL     1      -0.140  -5.924  -2.266  1.00  0.00     0.197 C 
ATOM     11  C   UNL     1      -0.529  -7.723  -0.006  1.00  0.00     0.285 C 
ATOM     12  N   UNL     1      -0.741  -8.241  -1.365  1.00  0.00    -0.317 N 
ATOM     13  H   UNL     1      -1.544  -8.871  -1.375  1.00  0.00     0.349 HD
BRANCH   8  14
ATOM     14  C   UNL     1       0.727  -4.269  -0.677  1.00  0.00     0.266 A 
ATOM     15  C   UNL     1       0.895  -2.193  -0.887  1.00  0.00     0.227 A 
ATOM     16  N   UNL     1       0.338  -3.227  -1.476  1.00  0.00    -0.176 NA
ATOM     17  O   UNL     1       1.679  -2.538   0.172  1.00  0.00    -0.337 OA
ATOM     18  N   UNL     1       1.552  -3.911   0.317  1.00  0.00    -0.038 NA
BRANCH  15  19
ATOM     19  C   UNL     1       0.733  -0.749  -1.188  1.00  0.00     0.097 C 
ATOM     20  C   UNL     1       1.166   0.163  -0.050  1.00  0.00     0.014 C 
ENDBRANCH  15  19
ENDBRANCH   8  14
BRANCH  12  21
ATOM     21  C   UNL     1       0.284  -9.184  -1.819  1.00  0.00     0.291 C 
BRANCH  21  22
ATOM     22  C   UNL     1       1.720  -8.749  -1.689  1.00  0.00     0.032 C 
ATOM     23  C   UNL     1       2.673  -9.304  -0.914  1.00  0.00    -0.075 C 
ATOM     24  C   UNL     1       4.053  -8.708  -0.837  1.00  0.00     0.039 C 
ATOM     25  C   UNL     1       2.438 -10.506  -0.042  1.00  0.00     0.039 C 
ENDBRANCH  21  22
ENDBRANCH  12  21
ENDBRANCH   5   7
ENDBRANCH   4   5
ENDBRANCH   3   4
ENDBRANCH   2   3
ENDBRANCH   1   2
BRANCH   1  26
ATOM     26  C   UNL     1       1.582  -8.199  -5.223  1.00  0.00     0.202 C 
BRANCH  26  27
ATOM     27  C   UNL     1       2.894  -7.439  -5.435  1.00  0.00     0.261 C 
BRANCH  27  28
ATOM     28  O   UNL     1       2.657  -6.118  -5.949  1.00  0.00    -0.460 OA
BRANCH  28  29
ATOM     29  C   UNL     1       2.990  -5.960  -7.250  1.00  0.00     0.338 C 
ATOM     30  O   UNL     1       3.581  -6.758  -7.967  1.00  0.00    -0.246 OA
BRANCH  29  31
ATOM     31  C   UNL     1       2.388  -4.727  -7.785  1.00  0.00     0.060 A 
ATOM     32  C   UNL     1       1.717  -4.829  -9.010  1.00  0.00     0.016 A 
ATOM     33  C   UNL     1       2.528  -3.489  -7.152  1.00  0.00     0.016 A 
ATOM     34  C   UNL     1       1.246  -3.684  -9.644  1.00  0.00     0.010 A 
ATOM     35  C   UNL     1       2.058  -2.337  -7.793  1.00  0.00     0.010 A 
ATOM     36  C   UNL     1       1.458  -2.428  -9.062  1.00  0.00    -0.014 A 
BRANCH  36  37
ATOM     37  C   UNL     1       1.205  -1.215  -9.874  1.00  0.00     0.031 A 
ATOM     38  C   UNL     1       2.361  -0.563 -10.582  1.00  0.00     0.074 A 
ATOM     39  C   UNL     1      -0.043  -0.742 -10.034  1.00  0.00     0.049 A 
ATOM     40  N   UNL     1       2.365   0.473 -11.381  1.00  0.00    -0.248 NA
ATOM     41  C   UNL     1       3.689  -1.159 -10.362  1.00  0.00     0.031 C 
ATOM     42  C   UNL     1      -1.248  -1.312  -9.432  1.00  0.00     0.029 A 
ATOM     43  N   UNL     1      -0.501   0.326 -10.762  1.00  0.00    -0.354 N 
ATOM     44  C   UNL     1       3.692   0.654 -11.755  1.00  0.00     0.074 A 
ATOM     45  C   UNL     1       4.468  -0.358 -11.073  1.00  0.00     0.031 C 
ATOM     46  C   UNL     1      -2.311  -0.585  -9.817  1.00  0.00     0.029 A 
ATOM     47  C   UNL     1      -1.859   0.511 -10.672  1.00  0.00     0.049 A 
ATOM     48  H   UNL     1       0.087   0.905 -11.299  1.00  0.00     0.167 HD
ATOM     49  C   UNL     1       4.216   1.575 -12.597  1.00  0.00     0.031 A 
ATOM     50  C   UNL     1      -2.644   1.463 -11.210  1.00  0.00     0.031 A 
ATOM     51  C   UNL     1       3.446   2.585 -13.270  1.00  0.00     0.049 A 
ATOM     52  C   UNL     1      -2.028   2.513 -12.095  1.00  0.00     0.074 A 
ATOM     53  C   UNL     1       3.881   3.551 -14.160  1.00  0.00     0.029 A 
ATOM     54  N   UNL     1       2.080   2.763 -13.120  1.00  0.00    -0.354 N 
ATOM     55  N   UNL     1      -0.778   2.649 -12.470  1.00  0.00    -0.248 NA
ATOM     56  C   UNL     1      -2.934   3.534 -12.640  1.00  0.00     0.031 C 
ATOM     57  C   UNL     1       2.785   4.348 -14.508  1.00  0.00     0.029 A 
ATOM     58  C   UNL     1       1.660   3.843 -13.877  1.00  0.00     0.049 A 
ATOM     59  H   UNL     1       1.496   2.205 -12.558  1.00  0.00     0.167 HD
ATOM     60  C   UNL     1      -0.753   3.753 -13.312  1.00  0.00     0.074 A 
ATOM     61  C   UNL     1      -2.114   4.241 -13.406  1.00  0.00     0.031 C 
ATOM     62  C   UNL     1       0.301   4.314 -13.954  1.00  0.00     0.031 A 
BRANCH  49  63
ATOM     63  C   UNL     1       5.704   1.552 -12.807  1.00  0.00    -0.014 A 
ATOM     64  C   UNL     1       6.319   0.542 -13.564  1.00  0.00     0.009 A 
ATOM     65  C   UNL     1       6.498   2.573 -12.263  1.00  0.00     0.009 A 
ATOM     66  C   UNL     1       7.704   0.540 -13.746  1.00  0.00     0.001 A 
ATOM     67  C   UNL     1       7.878   2.583 -12.467  1.00  0.00     0.001 A 
ATOM     68  C   UNL     1       8.481   1.562 -13.201  1.00  0.00     0.000 A 
ENDBRANCH  49  63
BRANCH  50  69
ATOM     69  C   UNL     1      -4.100   1.480 -10.915  1.00  0.00    -0.014 A 
ATOM     70  C   UNL     1      -5.041   1.177 -11.911  1.00  0.00     0.009 A 
ATOM     71  C   UNL     1      -4.557   1.817  -9.631  1.00  0.00     0.009 A 
ATOM     72  C   UNL     1      -6.409   1.234 -11.633  1.00  0.00     0.001 A 
ATOM     73  C   UNL     1      -5.924   1.847  -9.349  1.00  0.00     0.001 A 
ATOM     74  C   UNL     1      -6.849   1.565 -10.352  1.00  0.00     0.000 A 
ENDBRANCH  50  69
BRANCH  62  75
ATOM     75  C   UNL     1       0.021   5.497 -14.835  1.00  0.00    -0.014 A 
ATOM     76  C   UNL     1      -0.275   6.756 -14.291  1.00  0.00     0.009 A 
ATOM     77  C   UNL     1       0.100   5.359 -16.230  1.00  0.00     0.009 A 
ATOM     78  C   UNL     1      -0.518   7.847 -15.129  1.00  0.00     0.001 A 
ATOM     79  C   UNL     1      -0.117   6.457 -17.064  1.00  0.00     0.001 A 
ATOM     80  C   UNL     1      -0.434   7.697 -16.513  1.00  0.00     0.000 A 
ENDBRANCH  62  75
ENDBRANCH  36  37
ENDBRANCH  29  31
ENDBRANCH  28  29
ENDBRANCH  27  28
ENDBRANCH  26  27
ENDBRANCH   1  26
TORSDOF 18
