REMARK SMILES Cc1cccc(-c2cc(C(=O)OCCOCCOC(=O)c3ccc(-c4c5nc(c(-c6ccccc6)c6ccc([nH]6)c(-c6ccccc6)c6nc(c(-c7ccccc7)c7ccc4[nH]7)C=C6)C=C5)cc3)ccn2)c1
REMARK SMILES IDX 16 1 15 2 14 3 13 4 12 5 10 6 11 7 9 8 7 9 8 10 71 11 70 12
REMARK SMILES IDX 69 13 6 14 1 15 2 16 3 17 72 18 4 19 5 20 17 21 18 22 19 23
REMARK SMILES IDX 20 24 21 25 22 26 68 27 23 28 67 29 24 30 25 31 26 32 61 33
REMARK SMILES IDX 27 34 66 35 60 36 62 37 28 38 65 39 59 40 58 41 29 43 51 44
REMARK SMILES IDX 36 45 50 46 37 47 40 48 49 49 63 50 38 51 39 52 48 54 64 55
REMARK SMILES IDX 41 56 30 57 31 58 35 59 32 60 34 61 33 62 52 63 53 64 57 65
REMARK SMILES IDX 54 66 56 67 55 68 42 69 43 70 47 71 44 72 46 73 45 74
REMARK H PARENT 62 42 40 53
REMARK Flexibility Score: inf
ROOT
ATOM      1  C   UNL     1      -5.143   5.128  -3.807  1.00  0.00     0.202 C 
ENDROOT
BRANCH   1   2
ATOM      2  O   UNL     1      -3.746   5.293  -3.714  1.00  0.00    -0.374 OA
BRANCH   2   3
ATOM      3  C   UNL     1      -2.964   4.218  -4.192  1.00  0.00     0.202 C 
BRANCH   3   4
ATOM      4  C   UNL     1      -1.570   4.502  -3.731  1.00  0.00     0.261 C 
BRANCH   4   5
ATOM      5  O   UNL     1      -1.460   4.415  -2.294  1.00  0.00    -0.460 OA
BRANCH   5   6
ATOM      6  C   UNL     1      -2.144   5.166  -1.382  1.00  0.00     0.338 C 
ATOM      7  O   UNL     1      -2.633   6.264  -1.489  1.00  0.00    -0.246 OA
BRANCH   6   8
ATOM      8  C   UNL     1      -2.301   4.282  -0.203  1.00  0.00     0.063 A 
ATOM      9  C   UNL     1      -1.884   2.126   0.758  1.00  0.00     0.071 A 
ATOM     10  C   UNL     1      -1.565   3.107  -0.159  1.00  0.00     0.044 A 
ATOM     11  N   UNL     1      -2.872   2.292   1.662  1.00  0.00    -0.256 NA
ATOM     12  C   UNL     1      -3.514   3.491   1.665  1.00  0.00     0.112 A 
ATOM     13  C   UNL     1      -3.270   4.515   0.760  1.00  0.00     0.036 A 
BRANCH   9  14
ATOM     14  C   UNL     1      -1.163   0.855   0.656  1.00  0.00     0.000 A 
ATOM     15  C   UNL     1       2.459  -0.190   0.040  1.00  0.00     0.044 C 
ATOM     16  C   UNL     1       0.971  -0.269   0.202  1.00  0.00    -0.050 A 
ATOM     17  C   UNL     1       0.284  -1.472   0.029  1.00  0.00     0.003 A 
ATOM     18  C   UNL     1       0.243   0.873   0.539  1.00  0.00     0.013 A 
ATOM     19  C   UNL     1      -1.107  -1.519   0.165  1.00  0.00     0.001 A 
ATOM     20  C   UNL     1      -1.829  -0.362   0.473  1.00  0.00     0.010 A 
ENDBRANCH   9  14
ENDBRANCH   6   8
ENDBRANCH   5   6
ENDBRANCH   4   5
ENDBRANCH   3   4
ENDBRANCH   2   3
ENDBRANCH   1   2
BRANCH   1  21
ATOM     21  C   UNL     1      -5.593   5.015  -5.266  1.00  0.00     0.261 C 
BRANCH  21  22
ATOM     22  O   UNL     1      -5.273   6.230  -5.983  1.00  0.00    -0.460 OA
BRANCH  22  23
ATOM     23  C   UNL     1      -4.098   6.229  -6.679  1.00  0.00     0.338 C 
ATOM     24  O   UNL     1      -3.772   5.394  -7.506  1.00  0.00    -0.246 OA
BRANCH  23  25
ATOM     25  C   UNL     1      -3.151   7.222  -6.085  1.00  0.00     0.060 A 
ATOM     26  C   UNL     1      -1.778   7.178  -6.410  1.00  0.00     0.016 A 
ATOM     27  C   UNL     1      -3.571   7.913  -4.956  1.00  0.00     0.016 A 
ATOM     28  C   UNL     1      -0.821   7.669  -5.505  1.00  0.00     0.010 A 
ATOM     29  C   UNL     1      -2.628   8.243  -4.011  1.00  0.00     0.010 A 
ATOM     30  C   UNL     1      -1.250   8.114  -4.259  1.00  0.00    -0.014 A 
BRANCH  30  31
ATOM     31  C   UNL     1      -0.422   8.453  -3.095  1.00  0.00     0.031 A 
ATOM     32  C   UNL     1      -0.569   9.824  -2.552  1.00  0.00     0.074 A 
ATOM     33  C   UNL     1       0.147   7.486  -2.331  1.00  0.00     0.049 A 
ATOM     34  N   UNL     1       0.081  10.270  -1.540  1.00  0.00    -0.248 NA
ATOM     35  C   UNL     1      -1.466  10.834  -3.120  1.00  0.00     0.031 C 
ATOM     36  C   UNL     1       0.414   7.502  -0.890  1.00  0.00     0.029 A 
ATOM     37  N   UNL     1       0.625   6.233  -2.708  1.00  0.00    -0.354 N 
ATOM     38  C   UNL     1      -0.551  11.409  -1.105  1.00  0.00     0.074 A 
ATOM     39  C   UNL     1      -1.437  11.779  -2.178  1.00  0.00     0.031 C 
ATOM     40  C   UNL     1       1.225   6.479  -0.563  1.00  0.00     0.029 A 
ATOM     41  C   UNL     1       1.617   5.831  -1.802  1.00  0.00     0.049 A 
ATOM     42  H   UNL     1       0.317   5.713  -3.485  1.00  0.00     0.167 HD
ATOM     43  C   UNL     1      -0.332  11.806   0.178  1.00  0.00     0.031 A 
ATOM     44  C   UNL     1       2.877   5.567  -2.240  1.00  0.00     0.031 A 
ATOM     45  C   UNL     1       0.718  10.984   0.799  1.00  0.00     0.049 A 
ATOM     46  C   UNL     1       3.779   6.628  -1.676  1.00  0.00     0.074 A 
ATOM     47  C   UNL     1       0.706   9.973   1.745  1.00  0.00     0.029 A 
ATOM     48  N   UNL     1       1.964  10.915   0.172  1.00  0.00    -0.354 N 
ATOM     49  N   UNL     1       3.333   7.804  -1.319  1.00  0.00    -0.248 NA
ATOM     50  C   UNL     1       5.180   6.427  -1.327  1.00  0.00     0.031 C 
ATOM     51  C   UNL     1       1.925   9.241   1.612  1.00  0.00     0.029 A 
ATOM     52  C   UNL     1       2.688   9.824   0.610  1.00  0.00     0.049 A 
ATOM     53  H   UNL     1       2.285  11.562  -0.498  1.00  0.00     0.167 HD
ATOM     54  C   UNL     1       4.282   8.436  -0.580  1.00  0.00     0.074 A 
ATOM     55  C   UNL     1       5.449   7.573  -0.673  1.00  0.00     0.031 C 
ATOM     56  C   UNL     1       4.041   9.585   0.112  1.00  0.00     0.031 A 
BRANCH  43  57
ATOM     57  C   UNL     1      -1.196  12.787   0.939  1.00  0.00    -0.014 A 
ATOM     58  C   UNL     1      -1.045  12.897   2.334  1.00  0.00     0.009 A 
ATOM     59  C   UNL     1      -2.204  13.590   0.375  1.00  0.00     0.009 A 
ATOM     60  C   UNL     1      -1.861  13.734   3.112  1.00  0.00     0.001 A 
ATOM     61  C   UNL     1      -3.026  14.428   1.144  1.00  0.00     0.001 A 
ATOM     62  C   UNL     1      -2.856  14.498   2.516  1.00  0.00     0.000 A 
ENDBRANCH  43  57
BRANCH  44  63
ATOM     63  C   UNL     1       2.869   4.931  -3.596  1.00  0.00    -0.014 A 
ATOM     64  C   UNL     1       2.469   3.574  -3.658  1.00  0.00     0.009 A 
ATOM     65  C   UNL     1       2.717   5.710  -4.755  1.00  0.00     0.009 A 
ATOM     66  C   UNL     1       1.810   3.061  -4.784  1.00  0.00     0.001 A 
ATOM     67  C   UNL     1       2.043   5.193  -5.875  1.00  0.00     0.001 A 
ATOM     68  C   UNL     1       1.559   3.885  -5.876  1.00  0.00     0.000 A 
ENDBRANCH  44  63
BRANCH  56  69
ATOM     69  C   UNL     1       5.117  10.584   0.420  1.00  0.00    -0.014 A 
ATOM     70  C   UNL     1       6.361  10.591  -0.226  1.00  0.00     0.009 A 
ATOM     71  C   UNL     1       4.816  11.690   1.241  1.00  0.00     0.009 A 
ATOM     72  C   UNL     1       7.282  11.618  -0.015  1.00  0.00     0.001 A 
ATOM     73  C   UNL     1       5.704  12.751   1.401  1.00  0.00     0.001 A 
ATOM     74  C   UNL     1       6.947  12.704   0.787  1.00  0.00     0.000 A 
ENDBRANCH  56  69
ENDBRANCH  30  31
ENDBRANCH  23  25
ENDBRANCH  22  23
ENDBRANCH  21  22
ENDBRANCH   1  21
TORSDOF 15
