REMARK SMILES CCCCOc1ccc(-c2nc(C)c(C(=O)OCCOCCOC(=O)c3ccc(-c4c5nc(c(-c6ccccc6)c6ccc([nH]6)c(-c6ccccc6)c6nc(c(-c7ccccc7)c7ccc4[nH]7)C=C6)C=C5)cc3)s2)cc1
REMARK SMILES IDX 18 1 17 2 15 3 16 4 14 5 10 6 11 7 74 8 12 9 13 10 9 11 6 12
REMARK SMILES IDX 7 13 76 14 8 15 75 16 5 17 4 18 3 19 2 20 1 21 19 22 20 23
REMARK SMILES IDX 21 24 22 25 23 26 24 27 25 28 26 29 27 30 73 31 28 32 72 33
REMARK SMILES IDX 29 34 30 35 31 36 66 37 32 38 71 39 65 40 67 41 33 42 70 43
REMARK SMILES IDX 64 44 63 45 34 47 56 48 41 49 55 50 42 51 45 52 54 53 68 54
REMARK SMILES IDX 43 55 44 56 53 58 69 59 46 60 35 61 36 62 40 63 37 64 39 65
REMARK SMILES IDX 38 66 57 67 58 68 62 69 59 70 61 71 60 72 47 73 48 74 52 75
REMARK SMILES IDX 49 76 51 77 50 78
REMARK H PARENT 67 46 45 57
REMARK Flexibility Score: inf
ROOT
ATOM      1  C   UNL     1      -7.292   1.855  -6.548  1.00  0.00     0.261 C 
ENDROOT
BRANCH   1   2
ATOM      2  O   UNL     1      -6.514   2.133  -5.370  1.00  0.00    -0.459 OA
BRANCH   2   3
ATOM      3  C   UNL     1      -6.763   1.329  -4.297  1.00  0.00     0.350 C 
ATOM      4  O   UNL     1      -7.716   0.570  -4.218  1.00  0.00    -0.245 OA
BRANCH   3   5
ATOM      5  C   UNL     1      -5.687   1.432  -3.333  1.00  0.00     0.135 A 
ATOM      6  C   UNL     1      -4.100   0.868  -1.578  1.00  0.00     0.124 A 
ATOM      7  N   UNL     1      -3.832   2.063  -2.057  1.00  0.00    -0.240 NA
ATOM      8  S   UNL     1      -5.468   0.103  -2.263  1.00  0.00    -0.106 S 
ATOM      9  C   UNL     1      -4.715   2.391  -3.083  1.00  0.00     0.064 A 
ATOM     10  C   UNL     1      -4.510   3.716  -3.731  1.00  0.00     0.068 C 
BRANCH   6  11
ATOM     11  C   UNL     1      -3.348   0.197  -0.518  1.00  0.00     0.011 A 
ATOM     12  C   UNL     1      -1.846  -1.038   1.489  1.00  0.00     0.119 A 
ATOM     13  C   UNL     1      -2.357   0.240   1.701  1.00  0.00     0.047 A 
ATOM     14  C   UNL     1      -2.136  -1.732   0.319  1.00  0.00     0.047 A 
ATOM     15  C   UNL     1      -3.098   0.861   0.692  1.00  0.00     0.015 A 
ATOM     16  C   UNL     1      -2.861  -1.108  -0.694  1.00  0.00     0.015 A 
BRANCH  12  17
ATOM     17  O   UNL     1      -1.083  -1.677   2.423  1.00  0.00    -0.494 OA
BRANCH  17  18
ATOM     18  C   UNL     1       0.212  -1.080   2.581  1.00  0.00     0.229 C 
BRANCH  18  19
ATOM     19  C   UNL     1       1.262  -1.773   1.705  1.00  0.00     0.041 C 
BRANCH  19  20
ATOM     20  C   UNL     1       1.345  -1.306   0.246  1.00  0.00     0.000 C 
ATOM     21  C   UNL     1       1.683   0.167   0.084  1.00  0.00     0.004 C 
ENDBRANCH  19  20
ENDBRANCH  18  19
ENDBRANCH  17  18
ENDBRANCH  12  17
ENDBRANCH   6  11
ENDBRANCH   3   5
ENDBRANCH   2   3
ENDBRANCH   1   2
BRANCH   1  22
ATOM     22  C   UNL     1      -6.369   1.465  -7.704  1.00  0.00     0.202 C 
BRANCH  22  23
ATOM     23  O   UNL     1      -5.701   0.214  -7.534  1.00  0.00    -0.374 OA
BRANCH  23  24
ATOM     24  C   UNL     1      -4.480   0.233  -6.790  1.00  0.00     0.202 C 
BRANCH  24  25
ATOM     25  C   UNL     1      -3.240   0.662  -7.583  1.00  0.00     0.261 C 
BRANCH  25  26
ATOM     26  O   UNL     1      -3.280   2.066  -7.902  1.00  0.00    -0.460 OA
BRANCH  26  27
ATOM     27  C   UNL     1      -3.443   2.352  -9.216  1.00  0.00     0.338 C 
ATOM     28  O   UNL     1      -3.469   1.569 -10.149  1.00  0.00    -0.246 OA
BRANCH  27  29
ATOM     29  C   UNL     1      -3.774   3.782  -9.373  1.00  0.00     0.060 A 
ATOM     30  C   UNL     1      -4.907   4.104 -10.132  1.00  0.00     0.016 A 
ATOM     31  C   UNL     1      -2.969   4.790  -8.837  1.00  0.00     0.016 A 
ATOM     32  C   UNL     1      -5.219   5.438 -10.390  1.00  0.00     0.010 A 
ATOM     33  C   UNL     1      -3.278   6.128  -9.106  1.00  0.00     0.010 A 
ATOM     34  C   UNL     1      -4.388   6.457  -9.905  1.00  0.00    -0.014 A 
BRANCH  34  35
ATOM     35  C   UNL     1      -4.615   7.859 -10.329  1.00  0.00     0.031 A 
ATOM     36  C   UNL     1      -3.794   8.430 -11.451  1.00  0.00     0.074 A 
ATOM     37  C   UNL     1      -5.551   8.613  -9.728  1.00  0.00     0.049 A 
ATOM     38  N   UNL     1      -3.797   9.642 -11.945  1.00  0.00    -0.248 NA
ATOM     39  C   UNL     1      -2.846   7.514 -12.104  1.00  0.00     0.031 C 
ATOM     40  C   UNL     1      -6.444   8.165  -8.660  1.00  0.00     0.029 A 
ATOM     41  N   UNL     1      -5.900   9.925  -9.931  1.00  0.00    -0.354 N 
ATOM     42  C   UNL     1      -2.851   9.637 -12.962  1.00  0.00     0.074 A 
ATOM     43  C   UNL     1      -2.276   8.309 -12.999  1.00  0.00     0.031 C 
ATOM     44  C   UNL     1      -7.232   9.190  -8.294  1.00  0.00     0.029 A 
ATOM     45  C   UNL     1      -6.876  10.372  -9.076  1.00  0.00     0.049 A 
ATOM     46  H   UNL     1      -5.489  10.491 -10.624  1.00  0.00     0.167 HD
ATOM     47  C   UNL     1      -2.493  10.645 -13.792  1.00  0.00     0.031 A 
ATOM     48  C   UNL     1      -7.404  11.601  -8.924  1.00  0.00     0.031 A 
ATOM     49  C   UNL     1      -3.048  11.971 -13.747  1.00  0.00     0.049 A 
ATOM     50  C   UNL     1      -6.924  12.729  -9.797  1.00  0.00     0.074 A 
ATOM     51  C   UNL     1      -2.760  13.055 -14.558  1.00  0.00     0.029 A 
ATOM     52  N   UNL     1      -4.000  12.396 -12.835  1.00  0.00    -0.354 N 
ATOM     53  N   UNL     1      -6.044  12.705 -10.768  1.00  0.00    -0.248 NA
ATOM     54  C   UNL     1      -7.514  14.053  -9.552  1.00  0.00     0.031 C 
ATOM     55  C   UNL     1      -3.499  14.151 -14.102  1.00  0.00     0.029 A 
ATOM     56  C   UNL     1      -4.286  13.735 -13.041  1.00  0.00     0.049 A 
ATOM     57  H   UNL     1      -4.412  11.830 -12.142  1.00  0.00     0.167 HD
ATOM     58  C   UNL     1      -5.990  14.002 -11.262  1.00  0.00     0.074 A 
ATOM     59  C   UNL     1      -6.937  14.784 -10.495  1.00  0.00     0.031 C 
ATOM     60  C   UNL     1      -5.225  14.502 -12.264  1.00  0.00     0.031 A 
BRANCH  47  61
ATOM     61  C   UNL     1      -1.418  10.358 -14.801  1.00  0.00    -0.014 A 
ATOM     62  C   UNL     1      -1.674   9.565 -15.931  1.00  0.00     0.009 A 
ATOM     63  C   UNL     1      -0.142  10.918 -14.637  1.00  0.00     0.009 A 
ATOM     64  C   UNL     1      -0.662   9.315 -16.861  1.00  0.00     0.001 A 
ATOM     65  C   UNL     1       0.861  10.685 -15.580  1.00  0.00     0.001 A 
ATOM     66  C   UNL     1       0.602   9.878 -16.686  1.00  0.00     0.000 A 
ENDBRANCH  47  61
BRANCH  48  67
ATOM     67  C   UNL     1      -8.429  11.846  -7.877  1.00  0.00    -0.014 A 
ATOM     68  C   UNL     1      -9.762  12.108  -8.227  1.00  0.00     0.009 A 
ATOM     69  C   UNL     1      -8.072  11.839  -6.519  1.00  0.00     0.009 A 
ATOM     70  C   UNL     1     -10.711  12.380  -7.239  1.00  0.00     0.001 A 
ATOM     71  C   UNL     1      -9.028  12.085  -5.533  1.00  0.00     0.001 A 
ATOM     72  C   UNL     1     -10.345  12.365  -5.894  1.00  0.00     0.000 A 
ENDBRANCH  48  67
BRANCH  60  73
ATOM     73  C   UNL     1      -5.398  15.955 -12.602  1.00  0.00    -0.014 A 
ATOM     74  C   UNL     1      -4.891  16.961 -11.764  1.00  0.00     0.009 A 
ATOM     75  C   UNL     1      -6.043  16.322 -13.793  1.00  0.00     0.009 A 
ATOM     76  C   UNL     1      -5.054  18.307 -12.100  1.00  0.00     0.001 A 
ATOM     77  C   UNL     1      -6.183  17.667 -14.138  1.00  0.00     0.001 A 
ATOM     78  C   UNL     1      -5.696  18.658 -13.287  1.00  0.00     0.000 A 
ENDBRANCH  60  73
ENDBRANCH  34  35
ENDBRANCH  27  29
ENDBRANCH  26  27
ENDBRANCH  25  26
ENDBRANCH  24  25
ENDBRANCH  23  24
ENDBRANCH  22  23
ENDBRANCH   1  22
TORSDOF 19
