REMARK SMILES O=C(OCCOCCOC(=O)c1ccc(CNc2ccccc2)nc1)c1ccc(-c2c3nc(c(-c4ccccc4)c4ccc([nH]4)c(-c4ccccc4)c4nc(c(-c5ccccc5)c5ccc2[nH]5)C=C4)C=C3)cc1
REMARK SMILES IDX 7 1 6 2 5 3 4 4 3 5 2 6 1 7 26 8 27 9 73 10 28 11 72 12
REMARK SMILES IDX 29 13 30 14 31 15 66 16 32 17 71 18 65 19 67 20 33 21 70 22
REMARK SMILES IDX 64 23 63 24 34 26 56 27 41 28 55 29 42 30 45 31 54 32 68 33
REMARK SMILES IDX 43 34 44 35 53 37 69 38 46 39 35 40 36 41 40 42 37 43 39 44
REMARK SMILES IDX 38 45 57 46 58 47 62 48 59 49 61 50 60 51 47 52 48 53 52 54
REMARK SMILES IDX 49 55 51 56 50 57 8 58 9 59 10 60 11 61 12 62 13 63 25 64
REMARK SMILES IDX 14 65 24 66 15 67 16 68 17 69 18 71 19 72 23 73 20 74 22 75
REMARK SMILES IDX 21 76
REMARK H PARENT 67 25 45 36 17 70
REMARK Flexibility Score: inf
ROOT
ATOM      1  C   UNL     1       2.719   1.919  -0.991  1.00  0.00     0.202 C 
ENDROOT
BRANCH   1   2
ATOM      2  O   UNL     1       4.073   1.445  -0.974  1.00  0.00    -0.374 OA
BRANCH   2   3
ATOM      3  C   UNL     1       4.305   0.220  -1.676  1.00  0.00     0.202 C 
BRANCH   3   4
ATOM      4  C   UNL     1       3.990  -1.047  -0.873  1.00  0.00     0.261 C 
BRANCH   4   5
ATOM      5  O   UNL     1       2.611  -1.050  -0.460  1.00  0.00    -0.460 OA
BRANCH   5   6
ATOM      6  C   UNL     1       2.097  -0.839   0.774  1.00  0.00     0.338 C 
ATOM      7  O   UNL     1       0.885  -0.964   0.938  1.00  0.00    -0.246 OA
BRANCH   6   8
ATOM      8  C   UNL     1       2.923  -0.457   1.959  1.00  0.00     0.060 A 
ATOM      9  C   UNL     1       4.123   0.251   1.895  1.00  0.00     0.016 A 
ATOM     10  C   UNL     1       2.397  -0.750   3.229  1.00  0.00     0.016 A 
ATOM     11  C   UNL     1       4.828   0.588   3.041  1.00  0.00     0.010 A 
ATOM     12  C   UNL     1       3.072  -0.366   4.393  1.00  0.00     0.010 A 
ATOM     13  C   UNL     1       4.303   0.289   4.295  1.00  0.00    -0.014 A 
BRANCH  13  14
ATOM     14  C   UNL     1       5.119   0.618   5.476  1.00  0.00     0.031 A 
ATOM     15  C   UNL     1       5.849  -0.485   6.175  1.00  0.00     0.074 A 
ATOM     16  C   UNL     1       5.305   1.909   5.808  1.00  0.00     0.049 A 
ATOM     17  N   UNL     1       6.634  -0.426   7.216  1.00  0.00    -0.248 NA
ATOM     18  C   UNL     1       5.686  -1.838   5.615  1.00  0.00     0.031 C 
ATOM     19  C   UNL     1       4.725   3.054   5.099  1.00  0.00     0.029 A 
ATOM     20  N   UNL     1       6.066   2.477   6.793  1.00  0.00    -0.354 N 
ATOM     21  C   UNL     1       7.041  -1.732   7.450  1.00  0.00     0.074 A 
ATOM     22  C   UNL     1       6.413  -2.565   6.449  1.00  0.00     0.031 C 
ATOM     23  C   UNL     1       5.184   4.188   5.651  1.00  0.00     0.029 A 
ATOM     24  C   UNL     1       6.031   3.850   6.789  1.00  0.00     0.049 A 
ATOM     25  H   UNL     1       6.589   1.952   7.442  1.00  0.00     0.167 HD
ATOM     26  C   UNL     1       7.860  -2.191   8.424  1.00  0.00     0.031 A 
ATOM     27  C   UNL     1       6.602   4.729   7.632  1.00  0.00     0.031 A 
ATOM     28  C   UNL     1       8.454  -1.343   9.420  1.00  0.00     0.049 A 
ATOM     29  C   UNL     1       7.424   4.184   8.766  1.00  0.00     0.074 A 
ATOM     30  C   UNL     1       9.238  -1.693  10.503  1.00  0.00     0.029 A 
ATOM     31  N   UNL     1       8.322   0.039   9.445  1.00  0.00    -0.354 N 
ATOM     32  N   UNL     1       7.749   2.938   9.025  1.00  0.00    -0.248 NA
ATOM     33  C   UNL     1       7.946   5.158   9.732  1.00  0.00     0.031 C 
ATOM     34  C   UNL     1       9.542  -0.524  11.210  1.00  0.00     0.029 A 
ATOM     35  C   UNL     1       8.994   0.558  10.536  1.00  0.00     0.049 A 
ATOM     36  H   UNL     1       7.824   0.571   8.783  1.00  0.00     0.167 HD
ATOM     37  C   UNL     1       8.522   2.979  10.175  1.00  0.00     0.074 A 
ATOM     38  C   UNL     1       8.637   4.376  10.549  1.00  0.00     0.031 C 
ATOM     39  C   UNL     1       9.082   1.957  10.870  1.00  0.00     0.031 A 
BRANCH  26  40
ATOM     40  C   UNL     1       8.069  -3.676   8.489  1.00  0.00    -0.014 A 
ATOM     41  C   UNL     1       8.856  -4.352   7.542  1.00  0.00     0.009 A 
ATOM     42  C   UNL     1       7.427  -4.418   9.492  1.00  0.00     0.009 A 
ATOM     43  C   UNL     1       8.959  -5.745   7.575  1.00  0.00     0.001 A 
ATOM     44  C   UNL     1       7.553  -5.808   9.538  1.00  0.00     0.001 A 
ATOM     45  C   UNL     1       8.308  -6.471   8.573  1.00  0.00     0.000 A 
ENDBRANCH  26  40
BRANCH  27  46
ATOM     46  C   UNL     1       6.369   6.190   7.472  1.00  0.00    -0.014 A 
ATOM     47  C   UNL     1       7.421   7.061   7.153  1.00  0.00     0.009 A 
ATOM     48  C   UNL     1       5.082   6.726   7.651  1.00  0.00     0.009 A 
ATOM     49  C   UNL     1       7.193   8.436   7.037  1.00  0.00     0.001 A 
ATOM     50  C   UNL     1       4.850   8.095   7.504  1.00  0.00     0.001 A 
ATOM     51  C   UNL     1       5.908   8.951   7.208  1.00  0.00     0.000 A 
ENDBRANCH  27  46
BRANCH  39  52
ATOM     52  C   UNL     1       9.886   2.328  12.080  1.00  0.00    -0.014 A 
ATOM     53  C   UNL     1       9.263   2.747  13.265  1.00  0.00     0.009 A 
ATOM     54  C   UNL     1      11.284   2.212  12.043  1.00  0.00     0.009 A 
ATOM     55  C   UNL     1      10.031   3.073  14.383  1.00  0.00     0.001 A 
ATOM     56  C   UNL     1      12.046   2.513  13.171  1.00  0.00     0.001 A 
ATOM     57  C   UNL     1      11.420   2.951  14.337  1.00  0.00     0.000 A 
ENDBRANCH  39  52
ENDBRANCH  13  14
ENDBRANCH   6   8
ENDBRANCH   5   6
ENDBRANCH   4   5
ENDBRANCH   3   4
ENDBRANCH   2   3
ENDBRANCH   1   2
BRANCH   1  58
ATOM     58  C   UNL     1       2.695   3.403  -1.372  1.00  0.00     0.261 C 
BRANCH  58  59
ATOM     59  O   UNL     1       3.186   3.525  -2.716  1.00  0.00    -0.460 OA
BRANCH  59  60
ATOM     60  C   UNL     1       4.532   3.663  -2.803  1.00  0.00     0.339 C 
ATOM     61  O   UNL     1       5.292   4.082  -1.946  1.00  0.00    -0.246 OA
BRANCH  60  62
ATOM     62  C   UNL     1       4.977   2.989  -4.029  1.00  0.00     0.078 A 
ATOM     63  C   UNL     1       4.233   2.951  -5.210  1.00  0.00     0.019 A 
ATOM     64  C   UNL     1       6.160   2.277  -3.969  1.00  0.00     0.127 A 
ATOM     65  C   UNL     1       4.706   2.206  -6.291  1.00  0.00     0.026 A 
ATOM     66  N   UNL     1       6.634   1.541  -4.996  1.00  0.00    -0.259 NA
ATOM     67  C   UNL     1       5.910   1.520  -6.154  1.00  0.00     0.059 A 
BRANCH  67  68
ATOM     68  C   UNL     1       6.507   0.719  -7.302  1.00  0.00     0.169 C 
BRANCH  68  69
ATOM     69  N   UNL     1       7.947   0.936  -7.292  1.00  0.00    -0.379 N 
ATOM     70  H   UNL     1       8.288   1.818  -7.017  1.00  0.00     0.160 HD
BRANCH  69  71
ATOM     71  C   UNL     1       8.856  -0.041  -7.651  1.00  0.00     0.034 A 
ATOM     72  C   UNL     1      10.097  -0.067  -6.999  1.00  0.00     0.025 A 
ATOM     73  C   UNL     1       8.613  -0.990  -8.645  1.00  0.00     0.025 A 
ATOM     74  C   UNL     1      11.052  -1.039  -7.296  1.00  0.00     0.002 A 
ATOM     75  C   UNL     1       9.571  -1.961  -8.954  1.00  0.00     0.002 A 
ATOM     76  C   UNL     1      10.787  -1.991  -8.274  1.00  0.00     0.000 A 
ENDBRANCH  69  71
ENDBRANCH  68  69
ENDBRANCH  67  68
ENDBRANCH  60  62
ENDBRANCH  59  60
ENDBRANCH  58  59
ENDBRANCH   1  58
TORSDOF 17
