REMARK SMILES COc1ccc(C(=O)N2CC[C@@H](C(=O)OCCOCCOC(=O)c3ccc(-c4c5nc(c(-c6ccccc6)c6ccc([nH]6)c(-c6ccccc6)c6nc(c(-c7ccccc7)c7ccc4[nH]7)C=C6)C=C5)cc3)[C@H]2C)cc1O
REMARK SMILES IDX 17 1 16 2 15 3 13 4 14 5 12 6 9 7 10 8 72 9 11 10 73 11 7 12
REMARK SMILES IDX 8 13 6 14 3 15 4 16 75 17 5 18 74 19 2 20 1 21 76 22 18 24
REMARK SMILES IDX 19 25 20 26 21 27 22 28 23 29 24 30 25 31 71 32 26 33 70 34
REMARK SMILES IDX 27 35 28 36 29 37 64 38 30 39 69 40 63 41 65 42 31 43 68 44
REMARK SMILES IDX 62 45 61 46 32 48 54 49 39 50 53 51 40 52 43 53 52 54 66 55
REMARK SMILES IDX 41 56 42 57 51 59 67 60 44 61 33 62 34 63 38 64 35 65 37 66
REMARK SMILES IDX 36 67 55 68 56 69 60 70 57 71 59 72 58 73 45 74 46 75 50 76
REMARK SMILES IDX 47 77 49 78 48 79
REMARK H PARENT 76 23 65 47 43 58
REMARK Flexibility Score: inf
ROOT
ATOM      1  C   UNL     1       3.713  -4.515   8.095  1.00  0.00     0.202 C 
ENDROOT
BRANCH   1   2
ATOM      2  C   UNL     1       5.018  -5.020   7.471  1.00  0.00     0.261 C 
BRANCH   2   3
ATOM      3  O   UNL     1       4.826  -5.305   6.071  1.00  0.00    -0.463 OA
BRANCH   3   4
ATOM      4  C   UNL     1       4.689  -6.608   5.740  1.00  0.00     0.311 C 
ATOM      5  O   UNL     1       4.915  -7.543   6.499  1.00  0.00    -0.252 OA
BRANCH   4   6
ATOM      6  C   UNL     1       4.242  -6.829   4.313  1.00  0.00     0.123 C 
ATOM      7  N   UNL     1       3.587  -6.084   2.148  1.00  0.00    -0.335 N 
ATOM      8  C   UNL     1       4.728  -6.976   2.028  1.00  0.00     0.121 C 
ATOM      9  C   UNL     1       3.214  -5.922   3.583  1.00  0.00     0.096 C 
ATOM     10  C   UNL     1       5.430  -6.866   3.362  1.00  0.00     0.039 C 
ATOM     11  C   UNL     1       3.154  -4.462   4.014  1.00  0.00     0.032 C 
BRANCH   7  12
ATOM     12  C   UNL     1       2.693  -6.062   1.078  1.00  0.00     0.254 C 
ATOM     13  O   UNL     1       2.482  -7.056   0.386  1.00  0.00    -0.269 OA
BRANCH  12  14
ATOM     14  C   UNL     1       2.077  -4.766   0.675  1.00  0.00     0.043 A 
ATOM     15  C   UNL     1       0.870  -2.330  -0.102  1.00  0.00     0.160 A 
ATOM     16  C   UNL     1       0.392  -3.555  -0.583  1.00  0.00     0.051 A 
ATOM     17  C   UNL     1       1.976  -2.347   0.747  1.00  0.00     0.158 A 
ATOM     18  C   UNL     1       0.973  -4.766  -0.184  1.00  0.00     0.018 A 
ATOM     19  C   UNL     1       2.623  -3.543   1.058  1.00  0.00     0.064 A 
BRANCH  15  20
ATOM     20  O   UNL     1       0.158  -1.250  -0.538  1.00  0.00    -0.493 OA
ATOM     21  C   UNL     1       0.714   0.049  -0.386  1.00  0.00     0.278 C 
ENDBRANCH  15  20
BRANCH  17  22
ATOM     22  O   UNL     1       2.460  -1.247   1.395  1.00  0.00    -0.504 OA
ATOM     23  H   UNL     1       2.078  -0.406   1.240  1.00  0.00     0.293 HD
ENDBRANCH  17  22
ENDBRANCH  12  14
ENDBRANCH   7  12
ENDBRANCH   4   6
ENDBRANCH   3   4
ENDBRANCH   2   3
ENDBRANCH   1   2
BRANCH   1  24
ATOM     24  O   UNL     1       2.715  -5.505   8.341  1.00  0.00    -0.374 OA
BRANCH  24  25
ATOM     25  C   UNL     1       1.827  -5.829   7.273  1.00  0.00     0.202 C 
BRANCH  25  26
ATOM     26  C   UNL     1       0.655  -4.862   7.041  1.00  0.00     0.261 C 
BRANCH  26  27
ATOM     27  O   UNL     1       1.095  -3.554   6.629  1.00  0.00    -0.460 OA
BRANCH  27  28
ATOM     28  C   UNL     1       1.063  -2.612   7.600  1.00  0.00     0.338 C 
ATOM     29  O   UNL     1       0.612  -2.735   8.731  1.00  0.00    -0.246 OA
BRANCH  28  30
ATOM     30  C   UNL     1       1.833  -1.421   7.186  1.00  0.00     0.060 A 
ATOM     31  C   UNL     1       2.736  -0.888   8.116  1.00  0.00     0.016 A 
ATOM     32  C   UNL     1       1.645  -0.797   5.950  1.00  0.00     0.016 A 
ATOM     33  C   UNL     1       3.402   0.305   7.844  1.00  0.00     0.010 A 
ATOM     34  C   UNL     1       2.313   0.405   5.680  1.00  0.00     0.010 A 
ATOM     35  C   UNL     1       3.160   0.985   6.644  1.00  0.00    -0.014 A 
BRANCH  35  36
ATOM     36  C   UNL     1       3.661   2.373   6.479  1.00  0.00     0.031 A 
ATOM     37  C   UNL     1       2.702   3.521   6.661  1.00  0.00     0.074 A 
ATOM     38  C   UNL     1       4.958   2.623   6.221  1.00  0.00     0.049 A 
ATOM     39  N   UNL     1       2.916   4.808   6.550  1.00  0.00    -0.248 NA
ATOM     40  C   UNL     1       1.317   3.169   7.015  1.00  0.00     0.031 C 
ATOM     41  C   UNL     1       6.003   1.611   6.076  1.00  0.00     0.029 A 
ATOM     42  N   UNL     1       5.614   3.815   6.038  1.00  0.00    -0.354 N 
ATOM     43  C   UNL     1       1.694   5.417   6.810  1.00  0.00     0.074 A 
ATOM     44  C   UNL     1       0.736   4.359   7.048  1.00  0.00     0.031 C 
ATOM     45  C   UNL     1       7.172   2.226   5.826  1.00  0.00     0.029 A 
ATOM     46  C   UNL     1       6.951   3.670   5.757  1.00  0.00     0.049 A 
ATOM     47  H   UNL     1       5.170   4.691   6.103  1.00  0.00     0.167 HD
ATOM     48  C   UNL     1       1.394   6.737   6.855  1.00  0.00     0.031 A 
ATOM     49  C   UNL     1       7.886   4.593   5.457  1.00  0.00     0.031 A 
ATOM     50  C   UNL     1       2.340   7.794   6.612  1.00  0.00     0.049 A 
ATOM     51  C   UNL     1       7.507   6.051   5.425  1.00  0.00     0.074 A 
ATOM     52  C   UNL     1       2.131   9.162   6.651  1.00  0.00     0.029 A 
ATOM     53  N   UNL     1       3.671   7.601   6.279  1.00  0.00    -0.354 N 
ATOM     54  N   UNL     1       6.353   6.614   5.692  1.00  0.00    -0.248 NA
ATOM     55  C   UNL     1       8.567   7.002   5.057  1.00  0.00     0.031 C 
ATOM     56  C   UNL     1       3.320   9.796   6.276  1.00  0.00     0.029 A 
ATOM     57  C   UNL     1       4.288   8.824   6.076  1.00  0.00     0.049 A 
ATOM     58  H   UNL     1       4.113   6.725   6.199  1.00  0.00     0.167 HD
ATOM     59  C   UNL     1       6.558   7.983   5.558  1.00  0.00     0.074 A 
ATOM     60  C   UNL     1       7.948   8.166   5.200  1.00  0.00     0.031 C 
ATOM     61  C   UNL     1       5.673   8.997   5.720  1.00  0.00     0.031 A 
BRANCH  48  62
ATOM     62  C   UNL     1      -0.034   7.113   7.143  1.00  0.00    -0.014 A 
ATOM     63  C   UNL     1      -0.602   6.923   8.414  1.00  0.00     0.009 A 
ATOM     64  C   UNL     1      -0.814   7.699   6.133  1.00  0.00     0.009 A 
ATOM     65  C   UNL     1      -1.931   7.278   8.655  1.00  0.00     0.001 A 
ATOM     66  C   UNL     1      -2.132   8.082   6.386  1.00  0.00     0.001 A 
ATOM     67  C   UNL     1      -2.693   7.862   7.643  1.00  0.00     0.000 A 
ENDBRANCH  48  62
BRANCH  49  68
ATOM     68  C   UNL     1       9.276   4.171   5.137  1.00  0.00    -0.014 A 
ATOM     69  C   UNL     1      10.341   4.496   5.991  1.00  0.00     0.009 A 
ATOM     70  C   UNL     1       9.548   3.466   3.954  1.00  0.00     0.009 A 
ATOM     71  C   UNL     1      11.651   4.148   5.653  1.00  0.00     0.001 A 
ATOM     72  C   UNL     1      10.855   3.090   3.635  1.00  0.00     0.001 A 
ATOM     73  C   UNL     1      11.906   3.441   4.479  1.00  0.00     0.000 A 
ENDBRANCH  49  68
BRANCH  61  74
ATOM     74  C   UNL     1       6.188  10.402   5.557  1.00  0.00    -0.014 A 
ATOM     75  C   UNL     1       6.548  10.912   4.300  1.00  0.00     0.009 A 
ATOM     76  C   UNL     1       6.271  11.243   6.679  1.00  0.00     0.009 A 
ATOM     77  C   UNL     1       7.015  12.223   4.176  1.00  0.00     0.001 A 
ATOM     78  C   UNL     1       6.706  12.563   6.547  1.00  0.00     0.001 A 
ATOM     79  C   UNL     1       7.088  13.048   5.298  1.00  0.00     0.000 A 
ENDBRANCH  61  74
ENDBRANCH  35  36
ENDBRANCH  28  30
ENDBRANCH  27  28
ENDBRANCH  26  27
ENDBRANCH  25  26
ENDBRANCH  24  25
ENDBRANCH   1  24
TORSDOF 18
