REMARK SMILES Cc1nn(C)c(C)c1C[C@@H](C)C(=O)N[C@@H](C(=O)OCCOCCOC(=O)c1ccc(-c2c3nc(c(-c4ccccc4)c4ccc([nH]4)c(-c4ccccc4)c4nc(c(-c5ccccc5)c5ccc2[nH]5)C=C4)C=C3)cc1)c1ccccc1Cl
REMARK SMILES IDX 20 1 19 2 18 3 16 4 17 5 15 6 14 7 12 8 13 9 10 11 11 12
REMARK SMILES IDX 9 13 8 14 1 15 2 16 3 17 4 18 6 19 5 20 7 21 75 22 76 23
REMARK SMILES IDX 80 24 77 25 79 26 81 27 78 28 21 29 22 30 23 31 24 32 25 33
REMARK SMILES IDX 26 34 27 35 28 36 74 37 29 38 73 39 30 40 31 41 32 42 67 43
REMARK SMILES IDX 33 44 72 45 66 46 68 47 34 48 71 49 65 50 64 51 35 53 57 54
REMARK SMILES IDX 42 55 56 56 43 57 46 58 55 59 69 60 44 61 45 62 54 64 70 65
REMARK SMILES IDX 47 66 36 67 37 68 41 69 38 70 40 71 39 72 58 73 59 74 63 75
REMARK SMILES IDX 60 76 62 77 61 78 48 79 49 80 53 81 50 82 52 83 51 84
REMARK H PARENT 14 10 68 52 46 63
REMARK Flexibility Score: inf
ROOT
ATOM      1  C   UNL     1      -2.005   6.181  -4.016  1.00  0.00     0.202 C 
ENDROOT
BRANCH   1   2
ATOM      2  C   UNL     1      -1.174   4.938  -3.690  1.00  0.00     0.261 C 
BRANCH   2   3
ATOM      3  O   UNL     1      -0.671   4.986  -2.342  1.00  0.00    -0.461 OA
BRANCH   3   4
ATOM      4  C   UNL     1       0.686   4.937  -2.216  1.00  0.00     0.333 C 
ATOM      5  O   UNL     1       1.456   4.717  -3.145  1.00  0.00    -0.249 OA
BRANCH   4   6
ATOM      6  C   UNL     1       1.151   5.091  -0.741  1.00  0.00     0.224 C 
BRANCH   6   7
ATOM      7  N   UNL     1       0.126   5.481   0.229  1.00  0.00    -0.339 N 
ATOM      8  C   UNL     1      -0.594   4.757   1.127  1.00  0.00     0.224 C 
ATOM      9  O   UNL     1      -1.466   5.349   1.768  1.00  0.00    -0.275 OA
ATOM     10  H   UNL     1      -0.080   6.444   0.232  1.00  0.00     0.164 HD
BRANCH   8  11
ATOM     11  C   UNL     1      -0.339   3.271   1.369  1.00  0.00     0.080 C 
ATOM     12  C   UNL     1       1.037   3.065   2.006  1.00  0.00     0.018 C 
BRANCH  11  13
ATOM     13  C   UNL     1      -0.696   2.468   0.109  1.00  0.00     0.052 C 
BRANCH  13  14
ATOM     14  C   UNL     1      -0.379   1.009   0.122  1.00  0.00    -0.003 A 
ATOM     15  C   UNL     1      -2.781  -0.060   0.230  1.00  0.00     0.069 C 
ATOM     16  C   UNL     1      -1.296  -0.079   0.188  1.00  0.00     0.063 A 
ATOM     17  N   UNL     1      -0.667  -1.257   0.146  1.00  0.00    -0.178 NA
ATOM     18  N   UNL     1       0.630  -0.943   0.021  1.00  0.00    -0.272 N 
ATOM     19  C   UNL     1       0.856   0.405  -0.079  1.00  0.00     0.038 A 
ATOM     20  C   UNL     1       1.594  -2.016  -0.040  1.00  0.00     0.174 C 
ATOM     21  C   UNL     1       2.198   0.972  -0.369  1.00  0.00     0.066 C 
ENDBRANCH  13  14
ENDBRANCH  11  13
ENDBRANCH   8  11
ENDBRANCH   6   7
BRANCH   6  22
ATOM     22  C   UNL     1       2.441   5.899  -0.655  1.00  0.00     0.004 A 
ATOM     23  C   UNL     1       3.637   5.200  -0.942  1.00  0.00     0.008 A 
ATOM     24  C   UNL     1       2.540   7.277  -0.409  1.00  0.00     0.046 A 
ATOM     25  C   UNL     1       4.871   5.847  -0.992  1.00  0.00     0.000 A 
ATOM     26  C   UNL     1       3.783   7.924  -0.464  1.00  0.00     0.021 A 
ATOM     27  Cl  UNL     1       1.188   8.275  -0.019  1.00  0.00    -0.084 Cl
ATOM     28  C   UNL     1       4.943   7.212  -0.758  1.00  0.00     0.002 A 
ENDBRANCH   6  22
ENDBRANCH   4   6
ENDBRANCH   3   4
ENDBRANCH   2   3
ENDBRANCH   1   2
BRANCH   1  29
ATOM     29  O   UNL     1      -1.308   7.427  -4.020  1.00  0.00    -0.374 OA
BRANCH  29  30
ATOM     30  C   UNL     1      -0.927   7.972  -2.759  1.00  0.00     0.202 C 
BRANCH  30  31
ATOM     31  C   UNL     1      -2.017   8.671  -1.938  1.00  0.00     0.261 C 
BRANCH  31  32
ATOM     32  O   UNL     1      -3.120   7.804  -1.639  1.00  0.00    -0.460 OA
BRANCH  32  33
ATOM     33  C   UNL     1      -4.251   8.097  -2.319  1.00  0.00     0.338 C 
ATOM     34  O   UNL     1      -4.441   9.041  -3.076  1.00  0.00    -0.246 OA
BRANCH  33  35
ATOM     35  C   UNL     1      -5.230   7.008  -2.173  1.00  0.00     0.060 A 
ATOM     36  C   UNL     1      -5.796   6.501  -3.349  1.00  0.00     0.016 A 
ATOM     37  C   UNL     1      -5.648   6.551  -0.922  1.00  0.00     0.016 A 
ATOM     38  C   UNL     1      -6.837   5.582  -3.277  1.00  0.00     0.010 A 
ATOM     39  C   UNL     1      -6.700   5.632  -0.851  1.00  0.00     0.010 A 
ATOM     40  C   UNL     1      -7.325   5.181  -2.027  1.00  0.00    -0.014 A 
BRANCH  40  41
ATOM     41  C   UNL     1      -8.594   4.422  -1.966  1.00  0.00     0.031 A 
ATOM     42  C   UNL     1      -9.872   5.167  -1.695  1.00  0.00     0.074 A 
ATOM     43  C   UNL     1      -8.612   3.100  -2.208  1.00  0.00     0.049 A 
ATOM     44  N   UNL     1     -11.097   4.712  -1.623  1.00  0.00    -0.248 NA
ATOM     45  C   UNL     1      -9.754   6.619  -1.480  1.00  0.00     0.031 C 
ATOM     46  C   UNL     1      -7.443   2.284  -2.533  1.00  0.00     0.029 A 
ATOM     47  N   UNL     1      -9.659   2.216  -2.226  1.00  0.00    -0.354 N 
ATOM     48  C   UNL     1     -11.893   5.819  -1.354  1.00  0.00     0.074 A 
ATOM     49  C   UNL     1     -11.011   6.961  -1.243  1.00  0.00     0.031 C 
ATOM     50  C   UNL     1      -7.840   1.014  -2.721  1.00  0.00     0.029 A 
ATOM     51  C   UNL     1      -9.281   0.925  -2.501  1.00  0.00     0.049 A 
ATOM     52  H   UNL     1     -10.593   2.481  -2.058  1.00  0.00     0.167 HD
ATOM     53  C   UNL     1     -13.239   5.881  -1.218  1.00  0.00     0.031 A 
ATOM     54  C   UNL     1     -10.018  -0.201  -2.555  1.00  0.00     0.031 A 
ATOM     55  C   UNL     1     -14.110   4.741  -1.309  1.00  0.00     0.049 A 
ATOM     56  C   UNL     1     -11.501  -0.119  -2.316  1.00  0.00     0.074 A 
ATOM     57  C   UNL     1     -15.488   4.695  -1.192  1.00  0.00     0.029 A 
ATOM     58  N   UNL     1     -13.682   3.441  -1.533  1.00  0.00    -0.354 N 
ATOM     59  N   UNL     1     -12.245   0.936  -2.085  1.00  0.00    -0.248 NA
ATOM     60  C   UNL     1     -12.246  -1.385  -2.354  1.00  0.00     0.031 C 
ATOM     61  C   UNL     1     -15.889   3.358  -1.291  1.00  0.00     0.029 A 
ATOM     62  C   UNL     1     -14.766   2.580  -1.529  1.00  0.00     0.049 A 
ATOM     63  H   UNL     1     -12.746   3.171  -1.674  1.00  0.00     0.167 HD
ATOM     64  C   UNL     1     -13.548   0.466  -1.977  1.00  0.00     0.074 A 
ATOM     65  C   UNL     1     -13.493  -0.968  -2.182  1.00  0.00     0.031 C 
ATOM     66  C   UNL     1     -14.688   1.157  -1.732  1.00  0.00     0.031 A 
BRANCH  53  67
ATOM     67  C   UNL     1     -13.840   7.225  -0.917  1.00  0.00    -0.014 A 
ATOM     68  C   UNL     1     -13.893   8.236  -1.891  1.00  0.00     0.009 A 
ATOM     69  C   UNL     1     -14.378   7.479   0.354  1.00  0.00     0.009 A 
ATOM     70  C   UNL     1     -14.442   9.484  -1.586  1.00  0.00     0.001 A 
ATOM     71  C   UNL     1     -14.950   8.718   0.647  1.00  0.00     0.001 A 
ATOM     72  C   UNL     1     -14.973   9.722  -0.319  1.00  0.00     0.000 A 
ENDBRANCH  53  67
BRANCH  54  73
ATOM     73  C   UNL     1      -9.363  -1.504  -2.837  1.00  0.00    -0.014 A 
ATOM     74  C   UNL     1      -9.592  -2.175  -4.048  1.00  0.00     0.009 A 
ATOM     75  C   UNL     1      -8.511  -2.091  -1.887  1.00  0.00     0.009 A 
ATOM     76  C   UNL     1      -8.999  -3.416  -4.292  1.00  0.00     0.001 A 
ATOM     77  C   UNL     1      -7.898  -3.318  -2.146  1.00  0.00     0.001 A 
ATOM     78  C   UNL     1      -8.149  -3.984  -3.344  1.00  0.00     0.000 A 
ENDBRANCH  54  73
BRANCH  66  79
ATOM     79  C   UNL     1     -15.972   0.375  -1.706  1.00  0.00    -0.014 A 
ATOM     80  C   UNL     1     -16.285  -0.476  -0.636  1.00  0.00     0.009 A 
ATOM     81  C   UNL     1     -16.897   0.528  -2.751  1.00  0.00     0.009 A 
ATOM     82  C   UNL     1     -17.488  -1.186  -0.631  1.00  0.00     0.001 A 
ATOM     83  C   UNL     1     -18.110  -0.161  -2.728  1.00  0.00     0.001 A 
ATOM     84  C   UNL     1     -18.400  -1.024  -1.673  1.00  0.00     0.000 A 
ENDBRANCH  66  79
ENDBRANCH  40  41
ENDBRANCH  33  35
ENDBRANCH  32  33
ENDBRANCH  31  32
ENDBRANCH  30  31
ENDBRANCH  29  30
ENDBRANCH   1  29
TORSDOF 19
