REMARK SMILES O=C(Nc1ccc(O)cc1C(=O)OCCOCCOC(=O)c1ccc(-c2c3nc(c(-c4ccccc4)c4ccc([nH]4)c(-c4ccccc4)c4nc(c(-c5ccccc5)c5ccc2[nH]5)C=C4)C=C3)cc1)c1ccc(Br)nc1
REMARK SMILES IDX 16 1 15 2 14 3 13 4 11 5 12 6 10 7 4 8 5 9 6 10 9 11 7 12
REMARK SMILES IDX 3 13 1 14 2 15 70 17 71 18 76 19 72 20 75 21 73 22 74 23
REMARK SMILES IDX 8 24 17 26 18 27 19 28 20 29 21 30 22 31 23 32 69 33 24 34
REMARK SMILES IDX 68 35 25 36 26 37 27 38 62 39 28 40 67 41 61 42 63 43 29 44
REMARK SMILES IDX 66 45 60 46 59 47 30 49 52 50 37 51 51 52 38 53 41 54 50 55
REMARK SMILES IDX 64 56 39 57 40 58 49 60 65 61 42 62 31 63 32 64 36 65 33 66
REMARK SMILES IDX 35 67 34 68 53 69 54 70 58 71 55 72 57 73 56 74 43 75 44 76
REMARK SMILES IDX 48 77 45 78 47 79 46 80
REMARK H PARENT 3 16 8 25 63 48 41 59
REMARK Flexibility Score: inf
ROOT
ATOM      1  O   UNL     1       4.202   3.409   4.601  1.00  0.00    -0.374 OA
ENDROOT
BRANCH   1   2
ATOM      2  C   UNL     1       2.933   3.760   4.049  1.00  0.00     0.202 C 
BRANCH   2   3
ATOM      3  C   UNL     1       2.968   4.380   2.650  1.00  0.00     0.261 C 
BRANCH   3   4
ATOM      4  O   UNL     1       3.456   3.428   1.686  1.00  0.00    -0.460 OA
BRANCH   4   5
ATOM      5  C   UNL     1       4.618   3.773   1.081  1.00  0.00     0.340 C 
ATOM      6  O   UNL     1       5.154   4.870   1.138  1.00  0.00    -0.246 OA
BRANCH   5   7
ATOM      7  C   UNL     1       5.264   2.608   0.419  1.00  0.00     0.087 A 
ATOM      8  C   UNL     1       4.601   1.486  -0.121  1.00  0.00     0.056 A 
ATOM      9  C   UNL     1       5.369   0.562  -0.849  1.00  0.00     0.031 A 
ATOM     10  C   UNL     1       6.764   0.629  -0.879  1.00  0.00     0.048 A 
ATOM     11  C   UNL     1       6.670   2.666   0.390  1.00  0.00     0.064 A 
ATOM     12  C   UNL     1       7.405   1.661  -0.218  1.00  0.00     0.116 A 
BRANCH   8  13
ATOM     13  N   UNL     1       3.209   1.299   0.056  1.00  0.00    -0.321 N 
ATOM     14  O   UNL     1       1.191   0.266  -0.048  1.00  0.00    -0.269 OA
ATOM     15  C   UNL     1       2.417   0.171  -0.040  1.00  0.00     0.257 C 
ATOM     16  H   UNL     1       2.717   2.120   0.290  1.00  0.00     0.170 HD
BRANCH  15  17
ATOM     17  C   UNL     1       3.002  -1.182  -0.054  1.00  0.00     0.058 A 
ATOM     18  C   UNL     1       2.646  -2.097  -1.046  1.00  0.00     0.018 A 
ATOM     19  C   UNL     1       3.924  -1.578   0.906  1.00  0.00     0.126 A 
ATOM     20  C   UNL     1       3.285  -3.336  -1.086  1.00  0.00     0.037 A 
ATOM     21  N   UNL     1       4.565  -2.771   0.884  1.00  0.00    -0.249 NA
ATOM     22  C   UNL     1       4.242  -3.621  -0.118  1.00  0.00     0.106 A 
ATOM     23  Br  UNL     1       5.179  -5.266  -0.211  1.00  0.00    -0.029 Br
ENDBRANCH  15  17
ENDBRANCH   8  13
BRANCH  12  24
ATOM     24  O   UNL     1       8.762   1.732  -0.153  1.00  0.00    -0.508 OA
ATOM     25  H   UNL     1       9.286   1.067  -0.556  1.00  0.00     0.293 HD
ENDBRANCH  12  24
ENDBRANCH   5   7
ENDBRANCH   4   5
ENDBRANCH   3   4
ENDBRANCH   2   3
ENDBRANCH   1   2
BRANCH   1  26
ATOM     26  C   UNL     1       4.781   2.174   4.177  1.00  0.00     0.202 C 
BRANCH  26  27
ATOM     27  C   UNL     1       4.230   0.908   4.844  1.00  0.00     0.261 C 
BRANCH  27  28
ATOM     28  O   UNL     1       2.870   0.647   4.449  1.00  0.00    -0.460 OA
BRANCH  28  29
ATOM     29  C   UNL     1       1.953   0.821   5.431  1.00  0.00     0.338 C 
ATOM     30  O   UNL     1       2.168   1.079   6.607  1.00  0.00    -0.246 OA
BRANCH  29  31
ATOM     31  C   UNL     1       0.594   0.839   4.861  1.00  0.00     0.060 A 
ATOM     32  C   UNL     1      -0.236   1.913   5.209  1.00  0.00     0.016 A 
ATOM     33  C   UNL     1       0.112  -0.199   4.060  1.00  0.00     0.016 A 
ATOM     34  C   UNL     1      -1.568   1.928   4.801  1.00  0.00     0.010 A 
ATOM     35  C   UNL     1      -1.228  -0.186   3.659  1.00  0.00     0.010 A 
ATOM     36  C   UNL     1      -2.082   0.858   4.058  1.00  0.00    -0.014 A 
BRANCH  36  37
ATOM     37  C   UNL     1      -3.543   0.769   3.821  1.00  0.00     0.031 A 
ATOM     38  C   UNL     1      -4.377  -0.109   4.711  1.00  0.00     0.074 A 
ATOM     39  C   UNL     1      -4.126   1.486   2.845  1.00  0.00     0.049 A 
ATOM     40  N   UNL     1      -5.664  -0.346   4.671  1.00  0.00    -0.248 NA
ATOM     41  C   UNL     1      -3.666  -0.812   5.791  1.00  0.00     0.031 C 
ATOM     42  C   UNL     1      -3.435   2.402   1.940  1.00  0.00     0.029 A 
ATOM     43  N   UNL     1      -5.439   1.547   2.452  1.00  0.00    -0.354 N 
ATOM     44  C   UNL     1      -5.916  -1.227   5.716  1.00  0.00     0.074 A 
ATOM     45  C   UNL     1      -4.646  -1.505   6.351  1.00  0.00     0.031 C 
ATOM     46  C   UNL     1      -4.332   2.929   1.088  1.00  0.00     0.029 A 
ATOM     47  C   UNL     1      -5.649   2.362   1.368  1.00  0.00     0.049 A 
ATOM     48  H   UNL     1      -6.162   1.054   2.905  1.00  0.00     0.167 HD
ATOM     49  C   UNL     1      -7.099  -1.752   6.115  1.00  0.00     0.031 A 
ATOM     50  C   UNL     1      -6.773   2.606   0.667  1.00  0.00     0.031 A 
ATOM     51  C   UNL     1      -8.359  -1.497   5.471  1.00  0.00     0.049 A 
ATOM     52  C   UNL     1      -8.062   1.948   1.079  1.00  0.00     0.074 A 
ATOM     53  C   UNL     1      -9.613  -1.981   5.804  1.00  0.00     0.029 A 
ATOM     54  N   UNL     1      -8.524  -0.694   4.354  1.00  0.00    -0.354 N 
ATOM     55  N   UNL     1      -8.292   1.135   2.081  1.00  0.00    -0.248 NA
ATOM     56  C   UNL     1      -9.249   2.250   0.265  1.00  0.00     0.031 C 
ATOM     57  C   UNL     1     -10.528  -1.511   4.856  1.00  0.00     0.029 A 
ATOM     58  C   UNL     1      -9.854  -0.689   3.968  1.00  0.00     0.049 A 
ATOM     59  H   UNL     1      -7.802  -0.201   3.901  1.00  0.00     0.167 HD
ATOM     60  C   UNL     1      -9.651   0.847   2.033  1.00  0.00     0.074 A 
ATOM     61  C   UNL     1     -10.196   1.584   0.912  1.00  0.00     0.031 C 
ATOM     62  C   UNL     1     -10.381   0.045   2.846  1.00  0.00     0.031 A 
BRANCH  49  63
ATOM     63  C   UNL     1      -7.071  -2.688   7.291  1.00  0.00    -0.014 A 
ATOM     64  C   UNL     1      -6.840  -2.215   8.593  1.00  0.00     0.009 A 
ATOM     65  C   UNL     1      -7.295  -4.060   7.096  1.00  0.00     0.009 A 
ATOM     66  C   UNL     1      -6.797  -3.103   9.670  1.00  0.00     0.001 A 
ATOM     67  C   UNL     1      -7.279  -4.941   8.179  1.00  0.00     0.001 A 
ATOM     68  C   UNL     1      -7.020  -4.464   9.463  1.00  0.00     0.000 A 
ENDBRANCH  49  63
BRANCH  50  69
ATOM     69  C   UNL     1      -6.724   3.499  -0.519  1.00  0.00    -0.014 A 
ATOM     70  C   UNL     1      -7.324   4.766  -0.490  1.00  0.00     0.009 A 
ATOM     71  C   UNL     1      -6.076   3.080  -1.693  1.00  0.00     0.009 A 
ATOM     72  C   UNL     1      -7.293   5.588  -1.620  1.00  0.00     0.001 A 
ATOM     73  C   UNL     1      -6.024   3.914  -2.811  1.00  0.00     0.001 A 
ATOM     74  C   UNL     1      -6.639   5.164  -2.776  1.00  0.00     0.000 A 
ENDBRANCH  50  69
BRANCH  62  75
ATOM     75  C   UNL     1     -11.856  -0.054   2.572  1.00  0.00    -0.014 A 
ATOM     76  C   UNL     1     -12.347  -0.771   1.471  1.00  0.00     0.009 A 
ATOM     77  C   UNL     1     -12.768   0.546   3.455  1.00  0.00     0.009 A 
ATOM     78  C   UNL     1     -13.723  -0.859   1.242  1.00  0.00     0.001 A 
ATOM     79  C   UNL     1     -14.142   0.433   3.239  1.00  0.00     0.001 A 
ATOM     80  C   UNL     1     -14.618  -0.261   2.129  1.00  0.00     0.000 A 
ENDBRANCH  62  75
ENDBRANCH  36  37
ENDBRANCH  29  31
ENDBRANCH  28  29
ENDBRANCH  27  28
ENDBRANCH  26  27
ENDBRANCH   1  26
TORSDOF 17
