REMARK SMILES CS(=O)(=O)c1ccc(C2=NN(c3ccc(C(=O)OCCOCCOC(=O)c4ccc(-c5c6nc(c(-c7ccccc7)c7ccc([nH]7)c(-c7ccccc7)c7nc(c(-c8ccccc8)c8ccc5[nH]8)C=C7)C=C6)cc4)cc3)[C@H](c3ccc(F)cc3)C2)cc1
REMARK SMILES IDX 20 1 19 2 18 3 16 4 17 5 15 6 12 7 13 8 76 9 14 10 75 11
REMARK SMILES IDX 11 12 9 13 10 14 85 15 77 16 8 17 5 18 6 19 87 20 7 21 86 22
REMARK SMILES IDX 2 23 1 24 3 25 4 26 78 27 79 28 84 29 80 30 83 31 81 32
REMARK SMILES IDX 82 33 21 34 22 35 23 36 24 37 25 38 26 39 27 40 28 41 74 42
REMARK SMILES IDX 29 43 73 44 30 45 31 46 32 47 67 48 33 49 72 50 66 51 68 52
REMARK SMILES IDX 34 53 71 54 65 55 64 56 35 58 57 59 42 60 56 61 43 62 46 63
REMARK SMILES IDX 55 64 69 65 44 66 45 67 54 69 70 70 47 71 36 72 37 73 41 74
REMARK SMILES IDX 38 75 40 76 39 77 58 78 59 79 63 80 60 81 62 82 61 83 48 84
REMARK SMILES IDX 49 85 53 86 50 87 52 88 51 89
REMARK H PARENT 68 57 46 68
REMARK Flexibility Score: inf
ROOT
ATOM      1  C   UNL     1       8.623  12.357  -7.634  1.00  0.00     0.202 C 
ENDROOT
BRANCH   1   2
ATOM      2  C   UNL     1       7.647  13.083  -6.704  1.00  0.00     0.261 C 
BRANCH   2   3
ATOM      3  O   UNL     1       7.112  12.176  -5.727  1.00  0.00    -0.460 OA
BRANCH   3   4
ATOM      4  C   UNL     1       5.786  11.922  -5.837  1.00  0.00     0.338 C 
ATOM      5  O   UNL     1       4.992  12.500  -6.563  1.00  0.00    -0.246 OA
BRANCH   4   6
ATOM      6  C   UNL     1       5.409  10.750  -5.007  1.00  0.00     0.060 A 
ATOM      7  C   UNL     1       4.468   8.677  -3.365  1.00  0.00     0.060 A 
ATOM      8  C   UNL     1       3.737   9.071  -4.491  1.00  0.00     0.029 A 
ATOM      9  C   UNL     1       5.730   9.246  -3.144  1.00  0.00     0.029 A 
ATOM     10  C   UNL     1       4.200  10.108  -5.302  1.00  0.00     0.018 A 
ATOM     11  C   UNL     1       6.201  10.284  -3.952  1.00  0.00     0.018 A 
BRANCH   7  12
ATOM     12  N   UNL     1       3.891   7.876  -2.372  1.00  0.00    -0.257 N 
ATOM     13  C   UNL     1       2.530   6.293  -1.921  1.00  0.00     0.071 C 
ATOM     14  N   UNL     1       3.557   6.589  -2.656  1.00  0.00    -0.176 NA
ATOM     15  C   UNL     1       1.951   7.425  -1.118  1.00  0.00     0.091 C 
ATOM     16  C   UNL     1       2.955   8.536  -1.443  1.00  0.00     0.144 C 
BRANCH  13  17
ATOM     17  C   UNL     1       1.963   4.933  -1.853  1.00  0.00    -0.002 A 
ATOM     18  C   UNL     1       0.981   2.331  -1.700  1.00  0.00     0.067 A 
ATOM     19  C   UNL     1       2.355   2.541  -1.844  1.00  0.00     0.021 A 
ATOM     20  C   UNL     1       0.093   3.411  -1.653  1.00  0.00     0.021 A 
ATOM     21  C   UNL     1       2.844   3.846  -1.923  1.00  0.00     0.011 A 
ATOM     22  C   UNL     1       0.587   4.718  -1.720  1.00  0.00     0.011 A 
BRANCH  18  23
ATOM     23  S   UNL     1       0.369   0.662  -1.633  1.00  0.00     0.175 S 
ATOM     24  C   UNL     1       0.957   0.056  -0.073  1.00  0.00     0.163 C 
ATOM     25  O   UNL     1       1.029  -0.074  -2.689  1.00  0.00    -0.224 OA
ATOM     26  O   UNL     1      -1.081   0.730  -1.559  1.00  0.00    -0.224 OA
ENDBRANCH  18  23
ENDBRANCH  13  17
BRANCH  16  27
ATOM     27  C   UNL     1       3.729   9.174  -0.296  1.00  0.00    -0.023 A 
ATOM     28  C   UNL     1       4.028   8.508   0.902  1.00  0.00     0.009 A 
ATOM     29  C   UNL     1       4.264  10.466  -0.490  1.00  0.00     0.009 A 
ATOM     30  C   UNL     1       4.837   9.114   1.869  1.00  0.00     0.039 A 
ATOM     31  C   UNL     1       5.102  11.054   0.458  1.00  0.00     0.039 A 
ATOM     32  C   UNL     1       5.378  10.372   1.632  1.00  0.00     0.123 A 
ATOM     33  F   UNL     1       6.189  10.925   2.542  1.00  0.00    -0.207 F 
ENDBRANCH  16  27
ENDBRANCH   7  12
ENDBRANCH   4   6
ENDBRANCH   3   4
ENDBRANCH   2   3
ENDBRANCH   1   2
BRANCH   1  34
ATOM     34  O   UNL     1       8.049  11.374  -8.495  1.00  0.00    -0.374 OA
BRANCH  34  35
ATOM     35  C   UNL     1       7.763  10.094  -7.929  1.00  0.00     0.202 C 
BRANCH  35  36
ATOM     36  C   UNL     1       8.948   9.131  -7.797  1.00  0.00     0.261 C 
BRANCH  36  37
ATOM     37  O   UNL     1       9.933   9.610  -6.863  1.00  0.00    -0.460 OA
BRANCH  37  38
ATOM     38  C   UNL     1      11.084  10.042  -7.428  1.00  0.00     0.338 C 
ATOM     39  O   UNL     1      11.393   9.996  -8.610  1.00  0.00    -0.246 OA
BRANCH  38  40
ATOM     40  C   UNL     1      11.904  10.754  -6.431  1.00  0.00     0.060 A 
ATOM     41  C   UNL     1      12.397  12.016  -6.787  1.00  0.00     0.016 A 
ATOM     42  C   UNL     1      12.259  10.172  -5.212  1.00  0.00     0.016 A 
ATOM     43  C   UNL     1      13.295  12.676  -5.952  1.00  0.00     0.010 A 
ATOM     44  C   UNL     1      13.167  10.833  -4.378  1.00  0.00     0.010 A 
ATOM     45  C   UNL     1      13.720  12.068  -4.764  1.00  0.00    -0.014 A 
BRANCH  45  46
ATOM     46  C   UNL     1      14.858  12.653  -4.015  1.00  0.00     0.031 A 
ATOM     47  C   UNL     1      16.234  12.074  -4.212  1.00  0.00     0.074 A 
ATOM     48  C   UNL     1      14.684  13.716  -3.210  1.00  0.00     0.049 A 
ATOM     49  N   UNL     1      17.368  12.424  -3.660  1.00  0.00    -0.248 NA
ATOM     50  C   UNL     1      16.346  10.955  -5.162  1.00  0.00     0.031 C 
ATOM     51  C   UNL     1      13.416  14.405  -2.977  1.00  0.00     0.029 A 
ATOM     52  N   UNL     1      15.589  14.405  -2.442  1.00  0.00    -0.354 N 
ATOM     53  C   UNL     1      18.326  11.572  -4.196  1.00  0.00     0.074 A 
ATOM     54  C   UNL     1      17.637  10.666  -5.088  1.00  0.00     0.031 C 
ATOM     55  C   UNL     1      13.624  15.422  -2.123  1.00  0.00     0.029 A 
ATOM     56  C   UNL     1      15.030  15.436  -1.727  1.00  0.00     0.049 A 
ATOM     57  H   UNL     1      16.547  14.182  -2.407  1.00  0.00     0.167 HD
ATOM     58  C   UNL     1      19.662  11.550  -3.975  1.00  0.00     0.031 A 
ATOM     59  C   UNL     1      15.590  16.284  -0.843  1.00  0.00     0.031 A 
ATOM     60  C   UNL     1      20.350  12.436  -3.076  1.00  0.00     0.049 A 
ATOM     61  C   UNL     1      17.062  16.176  -0.542  1.00  0.00     0.074 A 
ATOM     62  C   UNL     1      21.701  12.483  -2.775  1.00  0.00     0.029 A 
ATOM     63  N   UNL     1      19.739  13.431  -2.330  1.00  0.00    -0.354 N 
ATOM     64  N   UNL     1      17.956  15.370  -1.060  1.00  0.00    -0.248 NA
ATOM     65  C   UNL     1      17.600  17.104   0.464  1.00  0.00     0.031 C 
ATOM     66  C   UNL     1      21.900  13.478  -1.812  1.00  0.00     0.029 A 
ATOM     67  C   UNL     1      20.681  14.086  -1.556  1.00  0.00     0.049 A 
ATOM     68  H   UNL     1      18.777  13.641  -2.348  1.00  0.00     0.167 HD
ATOM     69  C   UNL     1      19.166  15.718  -0.472  1.00  0.00     0.074 A 
ATOM     70  C   UNL     1      18.893  16.814   0.435  1.00  0.00     0.031 C 
ATOM     71  C   UNL     1      20.395  15.181  -0.667  1.00  0.00     0.031 A 
BRANCH  58  72
ATOM     72  C   UNL     1      20.465  10.513  -4.707  1.00  0.00    -0.014 A 
ATOM     73  C   UNL     1      20.714  10.628  -6.084  1.00  0.00     0.009 A 
ATOM     74  C   UNL     1      21.009   9.426  -4.006  1.00  0.00     0.009 A 
ATOM     75  C   UNL     1      21.467   9.659  -6.750  1.00  0.00     0.001 A 
ATOM     76  C   UNL     1      21.784   8.473  -4.669  1.00  0.00     0.001 A 
ATOM     77  C   UNL     1      22.006   8.585  -6.041  1.00  0.00     0.000 A 
ENDBRANCH  58  72
BRANCH  59  78
ATOM     78  C   UNL     1      14.761  17.309  -0.157  1.00  0.00    -0.014 A 
ATOM     79  C   UNL     1      14.940  18.674  -0.431  1.00  0.00     0.009 A 
ATOM     80  C   UNL     1      13.815  16.930   0.808  1.00  0.00     0.009 A 
ATOM     81  C   UNL     1      14.212  19.638   0.271  1.00  0.00     0.001 A 
ATOM     82  C   UNL     1      13.069  17.894   1.488  1.00  0.00     0.001 A 
ATOM     83  C   UNL     1      13.276  19.248   1.227  1.00  0.00     0.000 A 
ENDBRANCH  59  78
BRANCH  71  84
ATOM     84  C   UNL     1      21.545  15.804   0.074  1.00  0.00    -0.014 A 
ATOM     85  C   UNL     1      21.713  15.619   1.455  1.00  0.00     0.009 A 
ATOM     86  C   UNL     1      22.495  16.559  -0.632  1.00  0.00     0.009 A 
ATOM     87  C   UNL     1      22.791  16.208   2.119  1.00  0.00     0.001 A 
ATOM     88  C   UNL     1      23.587  17.123   0.030  1.00  0.00     0.001 A 
ATOM     89  C   UNL     1      23.728  16.956   1.406  1.00  0.00     0.000 A 
ENDBRANCH  71  84
ENDBRANCH  45  46
ENDBRANCH  38  40
ENDBRANCH  37  38
ENDBRANCH  36  37
ENDBRANCH  35  36
ENDBRANCH  34  35
ENDBRANCH   1  34
TORSDOF 18
