REMARK SMILES CC[C@@H](C)N(C)C(=O)N1[C@@H](C(=O)OCCOCCOC(=O)c2ccc(-c3c4nc(c(-c5ccccc5)c5ccc([nH]5)c(-c5ccccc5)c5nc(c(-c6ccccc6)c6ccc3[nH]6)C=C5)C=C4)cc2)CC[C@H]2CCCC[C@H]21
REMARK SMILES IDX 15 1 14 2 13 3 11 4 12 5 10 6 9 7 77 8 70 9 72 10 76 11
REMARK SMILES IDX 71 12 73 13 75 14 74 15 7 16 8 17 5 18 6 19 3 20 4 21 2 22
REMARK SMILES IDX 1 23 16 24 17 25 18 26 19 27 20 28 21 29 22 30 23 31 69 32
REMARK SMILES IDX 24 33 68 34 25 35 26 36 27 37 62 38 28 39 67 40 61 41 63 42
REMARK SMILES IDX 29 43 66 44 60 45 59 46 30 48 52 49 37 50 51 51 38 52 41 53
REMARK SMILES IDX 50 54 64 55 39 56 40 57 49 59 65 60 42 61 31 62 32 63 36 64
REMARK SMILES IDX 33 65 35 66 34 67 53 68 54 69 58 70 55 71 57 72 56 73 43 74
REMARK SMILES IDX 44 75 48 76 45 77 47 78 46 79
REMARK H PARENT 63 47 41 58
REMARK Flexibility Score: inf
ROOT
ATOM      1  C   UNL     1       2.442   7.811  -2.456  1.00  0.00     0.202 C 
ENDROOT
BRANCH   1   2
ATOM      2  C   UNL     1       2.023   6.525  -1.743  1.00  0.00     0.261 C 
BRANCH   2   3
ATOM      3  O   UNL     1       0.658   6.544  -1.308  1.00  0.00    -0.462 OA
BRANCH   3   4
ATOM      4  C   UNL     1       0.477   6.739   0.029  1.00  0.00     0.329 C 
ATOM      5  O   UNL     1       1.372   6.984   0.831  1.00  0.00    -0.250 OA
BRANCH   4   6
ATOM      6  C   UNL     1      -0.983   6.522   0.439  1.00  0.00     0.197 C 
ATOM      7  N   UNL     1      -1.363   5.128   0.726  1.00  0.00    -0.308 N 
ATOM      8  C   UNL     1      -2.727   4.998   1.279  1.00  0.00     0.091 C 
ATOM      9  C   UNL     1      -1.986   7.220  -0.486  1.00  0.00     0.038 C 
ATOM     10  C   UNL     1      -3.817   5.735   0.471  1.00  0.00     0.012 C 
ATOM     11  C   UNL     1      -3.189   3.577   1.625  1.00  0.00     0.025 C 
ATOM     12  C   UNL     1      -3.384   7.170   0.133  1.00  0.00     0.008 C 
ATOM     13  C   UNL     1      -4.256   4.984  -0.788  1.00  0.00     0.006 C 
ATOM     14  C   UNL     1      -3.729   2.753   0.460  1.00  0.00     0.002 C 
ATOM     15  C   UNL     1      -4.560   3.504  -0.580  1.00  0.00     0.000 C 
BRANCH   7  16
ATOM     16  C   UNL     1      -0.874   4.163  -0.145  1.00  0.00     0.320 C 
ATOM     17  O   UNL     1      -1.504   3.821  -1.139  1.00  0.00    -0.248 OA
BRANCH  16  18
ATOM     18  N   UNL     1       0.355   3.607   0.214  1.00  0.00    -0.325 N 
ATOM     19  C   UNL     1       1.149   4.047   1.363  1.00  0.00     0.149 C 
BRANCH  18  20
ATOM     20  C   UNL     1       0.856   2.377  -0.442  1.00  0.00     0.083 C 
ATOM     21  C   UNL     1       0.624   2.287  -1.955  1.00  0.00     0.031 C 
BRANCH  20  22
ATOM     22  C   UNL     1       0.312   1.143   0.308  1.00  0.00     0.021 C 
ATOM     23  C   UNL     1       0.956  -0.167  -0.116  1.00  0.00     0.006 C 
ENDBRANCH  20  22
ENDBRANCH  18  20
ENDBRANCH  16  18
ENDBRANCH   7  16
ENDBRANCH   4   6
ENDBRANCH   3   4
ENDBRANCH   2   3
ENDBRANCH   1   2
BRANCH   1  24
ATOM     24  O   UNL     1       2.342   9.029  -1.725  1.00  0.00    -0.374 OA
BRANCH  24  25
ATOM     25  C   UNL     1       1.049   9.599  -1.535  1.00  0.00     0.202 C 
BRANCH  25  26
ATOM     26  C   UNL     1       0.359  10.212  -2.759  1.00  0.00     0.261 C 
BRANCH  26  27
ATOM     27  O   UNL     1      -0.042   9.217  -3.718  1.00  0.00    -0.460 OA
BRANCH  27  28
ATOM     28  C   UNL     1       0.614   9.280  -4.902  1.00  0.00     0.338 C 
ATOM     29  O   UNL     1       1.454  10.094  -5.241  1.00  0.00    -0.246 OA
BRANCH  28  30
ATOM     30  C   UNL     1       0.299   8.098  -5.724  1.00  0.00     0.060 A 
ATOM     31  C   UNL     1       1.373   7.329  -6.196  1.00  0.00     0.016 A 
ATOM     32  C   UNL     1      -1.006   7.828  -6.133  1.00  0.00     0.016 A 
ATOM     33  C   UNL     1       1.151   6.325  -7.135  1.00  0.00     0.010 A 
ATOM     34  C   UNL     1      -1.225   6.828  -7.084  1.00  0.00     0.010 A 
ATOM     35  C   UNL     1      -0.143   6.106  -7.621  1.00  0.00    -0.014 A 
BRANCH  35  36
ATOM     36  C   UNL     1      -0.350   5.264  -8.821  1.00  0.00     0.031 A 
ATOM     37  C   UNL     1      -0.500   5.941 -10.155  1.00  0.00     0.074 A 
ATOM     38  C   UNL     1      -0.409   3.925  -8.727  1.00  0.00     0.049 A 
ATOM     39  N   UNL     1      -0.812   5.427 -11.317  1.00  0.00    -0.248 NA
ATOM     40  C   UNL     1      -0.269   7.396 -10.182  1.00  0.00     0.031 C 
ATOM     41  C   UNL     1      -0.213   3.152  -7.503  1.00  0.00     0.029 A 
ATOM     42  N   UNL     1      -0.671   2.982  -9.688  1.00  0.00    -0.354 N 
ATOM     43  C   UNL     1      -0.838   6.495 -12.205  1.00  0.00     0.074 A 
ATOM     44  C   UNL     1      -0.522   7.687 -11.449  1.00  0.00     0.031 C 
ATOM     45  C   UNL     1      -0.383   1.848  -7.783  1.00  0.00     0.029 A 
ATOM     46  C   UNL     1      -0.745   1.704  -9.192  1.00  0.00     0.049 A 
ATOM     47  H   UNL     1      -0.794   3.200 -10.640  1.00  0.00     0.167 HD
ATOM     48  C   UNL     1      -1.105   6.483 -13.532  1.00  0.00     0.031 A 
ATOM     49  C   UNL     1      -1.105   0.557  -9.799  1.00  0.00     0.031 A 
ATOM     50  C   UNL     1      -1.428   5.297 -14.277  1.00  0.00     0.049 A 
ATOM     51  C   UNL     1      -1.489   0.581 -11.255  1.00  0.00     0.074 A 
ATOM     52  C   UNL     1      -1.706   5.176 -15.627  1.00  0.00     0.029 A 
ATOM     53  N   UNL     1      -1.522   4.027 -13.730  1.00  0.00    -0.354 N 
ATOM     54  N   UNL     1      -1.506   1.593 -12.088  1.00  0.00    -0.248 NA
ATOM     55  C   UNL     1      -1.905  -0.696 -11.853  1.00  0.00     0.031 C 
ATOM     56  C   UNL     1      -2.021   3.839 -15.887  1.00  0.00     0.029 A 
ATOM     57  C   UNL     1      -1.880   3.119 -14.710  1.00  0.00     0.049 A 
ATOM     58  H   UNL     1      -1.358   3.804 -12.785  1.00  0.00     0.167 HD
ATOM     59  C   UNL     1      -1.901   1.070 -13.314  1.00  0.00     0.074 A 
ATOM     60  C   UNL     1      -2.111  -0.349 -13.117  1.00  0.00     0.031 C 
ATOM     61  C   UNL     1      -2.069   1.708 -14.498  1.00  0.00     0.031 A 
BRANCH  48  62
ATOM     62  C   UNL     1      -1.104   7.801 -14.253  1.00  0.00    -0.014 A 
ATOM     63  C   UNL     1       0.090   8.489 -14.520  1.00  0.00     0.009 A 
ATOM     64  C   UNL     1      -2.317   8.346 -14.701  1.00  0.00     0.009 A 
ATOM     65  C   UNL     1       0.065   9.711 -15.195  1.00  0.00     0.001 A 
ATOM     66  C   UNL     1      -2.337   9.555 -15.399  1.00  0.00     0.001 A 
ATOM     67  C   UNL     1      -1.147  10.240 -15.638  1.00  0.00     0.000 A 
ENDBRANCH  48  62
BRANCH  49  68
ATOM     68  C   UNL     1      -1.158  -0.709  -9.021  1.00  0.00    -0.014 A 
ATOM     69  C   UNL     1      -0.234  -1.736  -9.262  1.00  0.00     0.009 A 
ATOM     70  C   UNL     1      -2.142  -0.898  -8.037  1.00  0.00     0.009 A 
ATOM     71  C   UNL     1      -0.307  -2.935  -8.548  1.00  0.00     0.001 A 
ATOM     72  C   UNL     1      -2.195  -2.086  -7.306  1.00  0.00     0.001 A 
ATOM     73  C   UNL     1      -1.283  -3.107  -7.567  1.00  0.00     0.000 A 
ENDBRANCH  49  68
BRANCH  61  74
ATOM     74  C   UNL     1      -2.446   0.876 -15.690  1.00  0.00    -0.014 A 
ATOM     75  C   UNL     1      -3.750   0.389 -15.858  1.00  0.00     0.009 A 
ATOM     76  C   UNL     1      -1.497   0.651 -16.701  1.00  0.00     0.009 A 
ATOM     77  C   UNL     1      -4.091  -0.325 -17.009  1.00  0.00     0.001 A 
ATOM     78  C   UNL     1      -1.848  -0.039 -17.861  1.00  0.00     0.001 A 
ATOM     79  C   UNL     1      -3.144  -0.530 -18.012  1.00  0.00     0.000 A 
ENDBRANCH  61  74
ENDBRANCH  35  36
ENDBRANCH  28  30
ENDBRANCH  27  28
ENDBRANCH  26  27
ENDBRANCH  25  26
ENDBRANCH  24  25
ENDBRANCH   1  24
TORSDOF 18
