REMARK SMILES Cc1ccccc1NC(=O)CSc1nc(C(=O)OCCOCCOC(=O)c2ccc(-c3c4nc(c(-c5ccccc5)c5ccc([nH]5)c(-c5ccccc5)c5nc(c(-c6ccccc6)c6ccc3[nH]6)C=C5)C=C4)cc2)c2ccccc2n1
REMARK SMILES IDX 20 1 19 2 18 3 16 4 17 5 15 6 13 7 14 8 81 9 80 10 75 11
REMARK SMILES IDX 79 12 76 13 78 14 77 15 12 16 11 17 9 18 8 19 10 21 7 22
REMARK SMILES IDX 1 23 2 24 3 25 4 26 6 27 5 28 21 29 22 30 23 31 24 32 25 33
REMARK SMILES IDX 26 34 27 35 28 36 74 37 29 38 73 39 30 40 31 41 32 42 67 43
REMARK SMILES IDX 33 44 72 45 66 46 68 47 34 48 71 49 65 50 64 51 35 53 57 54
REMARK SMILES IDX 42 55 56 56 43 57 46 58 55 59 69 60 44 61 45 62 54 64 70 65
REMARK SMILES IDX 47 66 36 67 37 68 41 69 38 70 40 71 39 72 58 73 59 74 63 75
REMARK SMILES IDX 60 76 62 77 61 78 48 79 49 80 53 81 50 82 52 83 51 84
REMARK H PARENT 8 20 68 52 46 63
REMARK Flexibility Score: inf
ROOT
ATOM      1  C   UNL     1      -3.116   7.255  -6.288  1.00  0.00     0.202 C 
ENDROOT
BRANCH   1   2
ATOM      2  C   UNL     1      -1.718   7.787  -6.365  1.00  0.00     0.261 C 
BRANCH   2   3
ATOM      3  O   UNL     1      -0.797   6.935  -5.670  1.00  0.00    -0.458 OA
BRANCH   3   4
ATOM      4  C   UNL     1      -0.933   6.588  -4.368  1.00  0.00     0.357 C 
ATOM      5  O   UNL     1      -1.343   7.268  -3.456  1.00  0.00    -0.244 OA
BRANCH   4   6
ATOM      6  C   UNL     1      -0.641   5.128  -4.264  1.00  0.00     0.160 A 
ATOM      7  C   UNL     1      -1.140   3.332  -2.977  1.00  0.00     0.189 A 
ATOM      8  N   UNL     1      -1.089   4.644  -3.089  1.00  0.00    -0.215 NA
ATOM      9  N   UNL     1      -0.741   2.469  -3.918  1.00  0.00    -0.222 NA
ATOM     10  C   UNL     1      -0.265   2.965  -5.069  1.00  0.00     0.076 A 
ATOM     11  C   UNL     1      -0.185   4.331  -5.337  1.00  0.00     0.034 A 
ATOM     12  C   UNL     1       0.115   2.072  -6.067  1.00  0.00     0.029 A 
ATOM     13  C   UNL     1       0.286   4.742  -6.630  1.00  0.00     0.013 A 
ATOM     14  C   UNL     1       0.526   2.488  -7.339  1.00  0.00     0.002 A 
ATOM     15  C   UNL     1       0.598   3.834  -7.629  1.00  0.00     0.001 A 
BRANCH   7  16
ATOM     16  S   UNL     1      -2.080   2.723  -1.620  1.00  0.00    -0.076 SA
BRANCH  16  17
ATOM     17  C   UNL     1      -1.365   3.727  -0.275  1.00  0.00     0.178 C 
BRANCH  17  18
ATOM     18  C   UNL     1       0.119   3.496  -0.066  1.00  0.00     0.234 C 
ATOM     19  N   UNL     1       0.683   2.282   0.203  1.00  0.00    -0.325 N 
ATOM     20  H   UNL     1       1.657   2.330   0.339  1.00  0.00     0.169 HD
ATOM     21  O   UNL     1       0.902   4.454  -0.123  1.00  0.00    -0.274 OA
BRANCH  19  22
ATOM     22  C   UNL     1       0.172   0.974   0.326  1.00  0.00     0.044 A 
ATOM     23  C   UNL     1       2.517  -0.042  -0.080  1.00  0.00     0.046 C 
ATOM     24  C   UNL     1       1.022  -0.125   0.088  1.00  0.00    -0.027 A 
ATOM     25  C   UNL     1       0.461  -1.416  -0.007  1.00  0.00     0.005 A 
ATOM     26  C   UNL     1      -0.904  -1.626   0.163  1.00  0.00     0.000 A 
ATOM     27  C   UNL     1      -1.167   0.717   0.638  1.00  0.00     0.026 A 
ATOM     28  C   UNL     1      -1.715  -0.561   0.517  1.00  0.00     0.002 A 
ENDBRANCH  19  22
ENDBRANCH  17  18
ENDBRANCH  16  17
ENDBRANCH   7  16
ENDBRANCH   4   6
ENDBRANCH   3   4
ENDBRANCH   2   3
ENDBRANCH   1   2
BRANCH   1  29
ATOM     29  O   UNL     1      -3.516   7.418  -4.944  1.00  0.00    -0.374 OA
BRANCH  29  30
ATOM     30  C   UNL     1      -4.774   6.890  -4.592  1.00  0.00     0.202 C 
BRANCH  30  31
ATOM     31  C   UNL     1      -5.899   7.586  -5.363  1.00  0.00     0.261 C 
BRANCH  31  32
ATOM     32  O   UNL     1      -5.930   8.998  -5.036  1.00  0.00    -0.460 OA
BRANCH  32  33
ATOM     33  C   UNL     1      -5.245   9.837  -5.868  1.00  0.00     0.338 C 
ATOM     34  O   UNL     1      -5.383   9.892  -7.080  1.00  0.00    -0.246 OA
BRANCH  33  35
ATOM     35  C   UNL     1      -4.111  10.482  -5.135  1.00  0.00     0.060 A 
ATOM     36  C   UNL     1      -3.095  11.166  -5.839  1.00  0.00     0.016 A 
ATOM     37  C   UNL     1      -3.881  10.071  -3.830  1.00  0.00     0.016 A 
ATOM     38  C   UNL     1      -1.797  11.263  -5.302  1.00  0.00     0.010 A 
ATOM     39  C   UNL     1      -2.580  10.029  -3.386  1.00  0.00     0.010 A 
ATOM     40  C   UNL     1      -1.517  10.595  -4.115  1.00  0.00    -0.014 A 
BRANCH  40  41
ATOM     41  C   UNL     1      -0.200  10.339  -3.511  1.00  0.00     0.031 A 
ATOM     42  C   UNL     1      -0.017  10.790  -2.112  1.00  0.00     0.074 A 
ATOM     43  C   UNL     1       0.655   9.414  -4.019  1.00  0.00     0.049 A 
ATOM     44  N   UNL     1       1.055  10.609  -1.431  1.00  0.00    -0.248 NA
ATOM     45  C   UNL     1      -1.033  11.527  -1.357  1.00  0.00     0.031 C 
ATOM     46  C   UNL     1       1.552   8.510  -3.288  1.00  0.00     0.029 A 
ATOM     47  N   UNL     1       0.884   9.058  -5.342  1.00  0.00    -0.354 N 
ATOM     48  C   UNL     1       0.747  10.821  -0.112  1.00  0.00     0.074 A 
ATOM     49  C   UNL     1      -0.516  11.511  -0.127  1.00  0.00     0.031 C 
ATOM     50  C   UNL     1       2.375   7.880  -4.146  1.00  0.00     0.029 A 
ATOM     51  C   UNL     1       2.144   8.450  -5.457  1.00  0.00     0.049 A 
ATOM     52  H   UNL     1       0.257   9.209  -6.086  1.00  0.00     0.167 HD
ATOM     53  C   UNL     1       1.552  10.257   0.828  1.00  0.00     0.031 A 
ATOM     54  C   UNL     1       3.069   8.976  -6.305  1.00  0.00     0.031 A 
ATOM     55  C   UNL     1       2.731   9.640   0.199  1.00  0.00     0.049 A 
ATOM     56  C   UNL     1       4.174   9.566  -5.470  1.00  0.00     0.074 A 
ATOM     57  C   UNL     1       3.125   8.333  -0.028  1.00  0.00     0.029 A 
ATOM     58  N   UNL     1       3.528  10.433  -0.627  1.00  0.00    -0.354 N 
ATOM     59  N   UNL     1       4.004   9.890  -4.215  1.00  0.00    -0.248 NA
ATOM     60  C   UNL     1       5.560   9.710  -5.897  1.00  0.00     0.031 C 
ATOM     61  C   UNL     1       4.133   8.352  -1.042  1.00  0.00     0.029 A 
ATOM     62  C   UNL     1       4.372   9.669  -1.408  1.00  0.00     0.049 A 
ATOM     63  H   UNL     1       3.494  11.416  -0.650  1.00  0.00     0.167 HD
ATOM     64  C   UNL     1       5.209  10.131  -3.635  1.00  0.00     0.074 A 
ATOM     65  C   UNL     1       6.151  10.069  -4.742  1.00  0.00     0.031 C 
ATOM     66  C   UNL     1       5.348  10.316  -2.290  1.00  0.00     0.031 A 
BRANCH  53  67
ATOM     67  C   UNL     1       1.205  10.110   2.292  1.00  0.00    -0.014 A 
ATOM     68  C   UNL     1       2.065   9.381   3.132  1.00  0.00     0.009 A 
ATOM     69  C   UNL     1       0.041  10.610   2.905  1.00  0.00     0.009 A 
ATOM     70  C   UNL     1       1.780   9.168   4.490  1.00  0.00     0.001 A 
ATOM     71  C   UNL     1      -0.248  10.413   4.263  1.00  0.00     0.001 A 
ATOM     72  C   UNL     1       0.624   9.688   5.058  1.00  0.00     0.000 A 
ENDBRANCH  53  67
BRANCH  54  73
ATOM     73  C   UNL     1       2.418   9.480  -7.560  1.00  0.00    -0.014 A 
ATOM     74  C   UNL     1       1.996   8.489  -8.480  1.00  0.00     0.009 A 
ATOM     75  C   UNL     1       1.717  10.699  -7.548  1.00  0.00     0.009 A 
ATOM     76  C   UNL     1       0.814   8.640  -9.219  1.00  0.00     0.001 A 
ATOM     77  C   UNL     1       0.524  10.837  -8.279  1.00  0.00     0.001 A 
ATOM     78  C   UNL     1       0.052   9.796  -9.078  1.00  0.00     0.000 A 
ENDBRANCH  54  73
BRANCH  66  79
ATOM     79  C   UNL     1       6.455  11.126  -1.666  1.00  0.00    -0.014 A 
ATOM     80  C   UNL     1       7.374  11.888  -2.397  1.00  0.00     0.009 A 
ATOM     81  C   UNL     1       6.477  11.291  -0.263  1.00  0.00     0.009 A 
ATOM     82  C   UNL     1       8.291  12.731  -1.763  1.00  0.00     0.001 A 
ATOM     83  C   UNL     1       7.340  12.184   0.369  1.00  0.00     0.001 A 
ATOM     84  C   UNL     1       8.262  12.892  -0.383  1.00  0.00     0.000 A 
ENDBRANCH  66  79
ENDBRANCH  40  41
ENDBRANCH  33  35
ENDBRANCH  32  33
ENDBRANCH  31  32
ENDBRANCH  30  31
ENDBRANCH  29  30
ENDBRANCH   1  29
TORSDOF 18
