REMARK SMILES O=C(OCCOCCOC(=O)c1ccc(-c2c3nc(c(-c4ccccc4)c4ccc([nH]4)c(-c4ccccc4)c4nc(c(-c5ccccc5)c5ccc2[nH]5)C=C4)C=C3)cc1)C1=Cc2cc(Cl)cc(Cl)c2O[C@@H]1C(F)(F)F
REMARK SMILES IDX 7 1 6 2 5 3 4 4 3 5 2 6 1 7 60 8 61 9 71 10 62 11 70 12
REMARK SMILES IDX 63 13 69 14 64 15 67 16 65 17 66 18 68 19 72 20 73 21 74 22
REMARK SMILES IDX 75 23 8 24 9 25 10 26 11 27 12 28 13 29 59 30 14 31 58 32
REMARK SMILES IDX 15 33 16 34 17 35 52 36 18 37 57 38 51 39 53 40 19 41 56 42
REMARK SMILES IDX 50 43 49 44 20 46 42 47 27 48 41 49 28 50 31 51 40 52 54 53
REMARK SMILES IDX 29 54 30 55 39 57 55 58 32 59 21 60 22 61 26 62 23 63 25 64
REMARK SMILES IDX 24 65 43 66 44 67 48 68 45 69 47 70 46 71 33 72 34 73 38 74
REMARK SMILES IDX 35 75 37 76 36 77
REMARK H PARENT 53 45 31 56
REMARK Flexibility Score: inf
ROOT
ATOM      1  C   UNL     1       2.699   2.577   1.619  1.00  0.00     0.202 C 
ENDROOT
BRANCH   1   2
ATOM      2  O   UNL     1       3.840   1.725   1.763  1.00  0.00    -0.374 OA
BRANCH   2   3
ATOM      3  C   UNL     1       4.240   0.287   1.227  1.00  0.00     0.202 C 
BRANCH   3   4
ATOM      4  C   UNL     1       3.354  -1.076  -0.210  1.00  0.00     0.261 C 
BRANCH   4   5
ATOM      5  O   UNL     1       2.445  -2.282   0.102  1.00  0.00    -0.460 OA
BRANCH   5   6
ATOM      6  C   UNL     1       2.659  -2.791   1.318  1.00  0.00     0.338 C 
ATOM      7  O   UNL     1       2.075  -3.667   1.902  1.00  0.00    -0.246 OA
BRANCH   6   8
ATOM      8  C   UNL     1       3.527  -1.727   1.764  1.00  0.00     0.087 C 
ATOM      9  C   UNL     1       4.903  -1.881   1.199  1.00  0.00     0.027 C 
ATOM     10  C   UNL     1       2.321  -0.270   1.339  1.00  0.00     0.316 C 
ATOM     11  C   UNL     1       5.566  -0.823  -0.130  1.00  0.00     0.020 A 
ATOM     12  O   UNL     1       2.986   0.814  -0.105  1.00  0.00    -0.474 OA
ATOM     13  C   UNL     1       6.751  -1.157  -0.730  1.00  0.00     0.032 A 
ATOM     14  C   UNL     1       4.604   0.432  -0.848  1.00  0.00     0.146 A 
ATOM     15  C   UNL     1       7.022  -0.477  -1.933  1.00  0.00     0.043 A 
ATOM     16  C   UNL     1       4.878   0.892  -2.106  1.00  0.00     0.085 A 
ATOM     17  Cl  UNL     1       8.523  -0.851  -2.720  1.00  0.00    -0.084 Cl
ATOM     18  C   UNL     1       6.123   0.447  -2.607  1.00  0.00     0.045 A 
ATOM     19  Cl  UNL     1       3.704   1.600  -3.116  1.00  0.00    -0.080 Cl
BRANCH  10  20
ATOM     20  C   UNL     1       1.856   0.138   2.791  1.00  0.00     0.430 C 
ATOM     21  F   UNL     1       0.968   1.145   2.851  1.00  0.00    -0.167 F 
ATOM     22  F   UNL     1       1.203  -0.940   3.319  1.00  0.00    -0.167 F 
ATOM     23  F   UNL     1       2.865   0.385   3.655  1.00  0.00    -0.167 F 
ENDBRANCH  10  20
ENDBRANCH   6   8
ENDBRANCH   5   6
ENDBRANCH   4   5
ENDBRANCH   3   4
ENDBRANCH   2   3
ENDBRANCH   1   2
BRANCH   1  24
ATOM     24  C   UNL     1       2.933   3.961   1.034  1.00  0.00     0.261 C 
BRANCH  24  25
ATOM     25  O   UNL     1       3.473   3.915  -0.274  1.00  0.00    -0.460 OA
BRANCH  25  26
ATOM     26  C   UNL     1       4.803   4.141  -0.342  1.00  0.00     0.338 C 
ATOM     27  O   UNL     1       5.608   4.188   0.569  1.00  0.00    -0.246 OA
BRANCH  26  28
ATOM     28  C   UNL     1       5.141   4.314  -1.762  1.00  0.00     0.060 A 
ATOM     29  C   UNL     1       6.380   3.849  -2.212  1.00  0.00     0.016 A 
ATOM     30  C   UNL     1       4.210   4.872  -2.650  1.00  0.00     0.016 A 
ATOM     31  C   UNL     1       6.671   3.890  -3.572  1.00  0.00     0.010 A 
ATOM     32  C   UNL     1       4.500   4.913  -4.005  1.00  0.00     0.010 A 
ATOM     33  C   UNL     1       5.732   4.424  -4.465  1.00  0.00    -0.014 A 
BRANCH  33  34
ATOM     34  C   UNL     1       6.111   4.702  -5.858  1.00  0.00     0.031 A 
ATOM     35  C   UNL     1       6.628   6.074  -6.154  1.00  0.00     0.074 A 
ATOM     36  C   UNL     1       5.942   3.788  -6.827  1.00  0.00     0.049 A 
ATOM     37  N   UNL     1       6.965   6.601  -7.297  1.00  0.00    -0.248 NA
ATOM     38  C   UNL     1       6.769   6.978  -4.997  1.00  0.00     0.031 C 
ATOM     39  C   UNL     1       5.454   2.425  -6.634  1.00  0.00     0.029 A 
ATOM     40  N   UNL     1       6.144   3.888  -8.178  1.00  0.00    -0.354 N 
ATOM     41  C   UNL     1       7.357   7.898  -6.998  1.00  0.00     0.074 A 
ATOM     42  C   UNL     1       7.176   8.092  -5.579  1.00  0.00     0.031 C 
ATOM     43  C   UNL     1       5.376   1.817  -7.831  1.00  0.00     0.029 A 
ATOM     44  C   UNL     1       5.775   2.762  -8.872  1.00  0.00     0.049 A 
ATOM     45  H   UNL     1       6.518   4.689  -8.611  1.00  0.00     0.167 HD
ATOM     46  C   UNL     1       7.828   8.844  -7.839  1.00  0.00     0.031 A 
ATOM     47  C   UNL     1       5.738   2.540 -10.200  1.00  0.00     0.031 A 
ATOM     48  C   UNL     1       7.944   8.652  -9.257  1.00  0.00     0.049 A 
ATOM     49  C   UNL     1       6.187   3.638 -11.130  1.00  0.00     0.074 A 
ATOM     50  C   UNL     1       8.417   9.535 -10.208  1.00  0.00     0.029 A 
ATOM     51  N   UNL     1       7.550   7.503  -9.927  1.00  0.00    -0.354 N 
ATOM     52  N   UNL     1       6.624   4.840 -10.838  1.00  0.00    -0.248 NA
ATOM     53  C   UNL     1       6.149   3.347 -12.570  1.00  0.00     0.031 C 
ATOM     54  C   UNL     1       8.234   8.950 -11.463  1.00  0.00     0.029 A 
ATOM     55  C   UNL     1       7.732   7.668 -11.287  1.00  0.00     0.049 A 
ATOM     56  H   UNL     1       7.195   6.691  -9.498  1.00  0.00     0.167 HD
ATOM     57  C   UNL     1       6.945   5.436 -12.052  1.00  0.00     0.074 A 
ATOM     58  C   UNL     1       6.658   4.459 -13.083  1.00  0.00     0.031 C 
ATOM     59  C   UNL     1       7.439   6.676 -12.292  1.00  0.00     0.031 A 
BRANCH  46  60
ATOM     60  C   UNL     1       8.175  10.174  -7.237  1.00  0.00    -0.014 A 
ATOM     61  C   UNL     1       9.243  10.317  -6.335  1.00  0.00     0.009 A 
ATOM     62  C   UNL     1       7.396  11.298  -7.551  1.00  0.00     0.009 A 
ATOM     63  C   UNL     1       9.487  11.545  -5.718  1.00  0.00     0.001 A 
ATOM     64  C   UNL     1       7.667  12.533  -6.963  1.00  0.00     0.001 A 
ATOM     65  C   UNL     1       8.702  12.652  -6.036  1.00  0.00     0.000 A 
ENDBRANCH  46  60
BRANCH  47  66
ATOM     66  C   UNL     1       5.240   1.241 -10.725  1.00  0.00    -0.014 A 
ATOM     67  C   UNL     1       6.104   0.343 -11.370  1.00  0.00     0.009 A 
ATOM     68  C   UNL     1       3.886   0.891 -10.585  1.00  0.00     0.009 A 
ATOM     69  C   UNL     1       5.619  -0.863 -11.885  1.00  0.00     0.001 A 
ATOM     70  C   UNL     1       3.410  -0.329 -11.072  1.00  0.00     0.001 A 
ATOM     71  C   UNL     1       4.275  -1.200 -11.730  1.00  0.00     0.000 A 
ENDBRANCH  47  66
BRANCH  59  72
ATOM     72  C   UNL     1       7.750   7.041 -13.718  1.00  0.00    -0.014 A 
ATOM     73  C   UNL     1       6.735   7.291 -14.652  1.00  0.00     0.009 A 
ATOM     74  C   UNL     1       9.089   7.233 -14.098  1.00  0.00     0.009 A 
ATOM     75  C   UNL     1       7.057   7.709 -15.945  1.00  0.00     0.001 A 
ATOM     76  C   UNL     1       9.405   7.686 -15.378  1.00  0.00     0.001 A 
ATOM     77  C   UNL     1       8.389   7.917 -16.303  1.00  0.00     0.000 A 
ENDBRANCH  59  72
ENDBRANCH  33  34
ENDBRANCH  26  28
ENDBRANCH  25  26
ENDBRANCH  24  25
ENDBRANCH   1  24
TORSDOF 15
