REMARK SMILES COc1ccc([C@@H]([NH3+])CC(=O)OCCOCCOC(=O)c2ccc(-c3c4nc(c(-c5ccccc5)c5ccc([nH]5)c(-c5ccccc5)c5nc(c(-c6ccccc6)c6ccc3[nH]6)C=C5)C=C4)cc2)cc1
REMARK SMILES IDX 14 1 13 2 12 3 10 4 11 5 9 6 7 7 6 8 3 9 4 10 70 11 5 12
REMARK SMILES IDX 69 13 2 14 1 15 8 16 15 20 16 21 17 22 18 23 19 24 20 25
REMARK SMILES IDX 21 26 22 27 68 28 23 29 67 30 24 31 25 32 26 33 61 34 27 35
REMARK SMILES IDX 66 36 60 37 62 38 28 39 65 40 59 41 58 42 29 44 51 45 36 46
REMARK SMILES IDX 50 47 37 48 40 49 49 50 63 51 38 52 39 53 48 55 64 56 41 57
REMARK SMILES IDX 30 58 31 59 35 60 32 61 34 62 33 63 52 64 53 65 57 66 54 67
REMARK SMILES IDX 56 68 55 69 42 70 43 71 47 72 44 73 46 74 45 75
REMARK H PARENT 8 17 8 18 8 19 62 43 40 54
REMARK Flexibility Score: inf
ROOT
ATOM      1  C   UNL     1       1.926   3.699   5.118  1.00  0.00     0.202 C 
ENDROOT
BRANCH   1   2
ATOM      2  C   UNL     1       0.574   4.340   4.801  1.00  0.00     0.261 C 
BRANCH   2   3
ATOM      3  O   UNL     1       0.643   5.078   3.566  1.00  0.00    -0.463 OA
BRANCH   3   4
ATOM      4  C   UNL     1       0.420   6.411   3.644  1.00  0.00     0.312 C 
ATOM      5  O   UNL     1       0.098   7.004   4.668  1.00  0.00    -0.252 OA
BRANCH   4   6
ATOM      6  C   UNL     1       0.560   7.130   2.322  1.00  0.00     0.192 C 
BRANCH   6   7
ATOM      7  C   UNL     1       1.538   6.530   1.297  1.00  0.00     0.223 C 
BRANCH   7   8
ATOM      8  C   UNL     1       1.118   5.221   0.651  1.00  0.00     0.010 A 
ATOM      9  C   UNL     1       0.407   2.821  -0.642  1.00  0.00     0.118 A 
ATOM     10  C   UNL     1      -0.555   3.792  -0.385  1.00  0.00     0.047 A 
ATOM     11  C   UNL     1       1.734   3.053  -0.285  1.00  0.00     0.047 A 
ATOM     12  C   UNL     1      -0.205   4.983   0.252  1.00  0.00     0.014 A 
ATOM     13  C   UNL     1       2.086   4.242   0.363  1.00  0.00     0.014 A 
BRANCH   9  14
ATOM     14  O   UNL     1      -0.037   1.709  -1.303  1.00  0.00    -0.497 OA
ATOM     15  C   UNL     1       0.565   0.499  -0.861  1.00  0.00     0.278 C 
ENDBRANCH   9  14
ENDBRANCH   7   8
BRANCH   7  16
ATOM     16  N   UNL     1       1.763   7.521   0.231  1.00  0.00    -0.351 N 
ATOM     17  H   UNL     1       0.887   7.695  -0.262  1.00  0.00     0.345 HD
ATOM     18  H   UNL     1       2.457   7.162  -0.425  1.00  0.00     0.345 HD
ATOM     19  H   UNL     1       2.102   8.391   0.641  1.00  0.00     0.345 HD
ENDBRANCH   7  16
ENDBRANCH   6   7
ENDBRANCH   4   6
ENDBRANCH   3   4
ENDBRANCH   2   3
ENDBRANCH   1   2
BRANCH   1  20
ATOM     20  O   UNL     1       2.955   4.610   5.510  1.00  0.00    -0.374 OA
BRANCH  20  21
ATOM     21  C   UNL     1       3.642   5.279   4.455  1.00  0.00     0.202 C 
BRANCH  21  22
ATOM     22  C   UNL     1       4.798   4.498   3.818  1.00  0.00     0.261 C 
BRANCH  22  23
ATOM     23  O   UNL     1       4.341   3.328   3.117  1.00  0.00    -0.460 OA
BRANCH  23  24
ATOM     24  C   UNL     1       4.530   2.158   3.773  1.00  0.00     0.338 C 
ATOM     25  O   UNL     1       5.112   1.989   4.836  1.00  0.00    -0.246 OA
BRANCH  24  26
ATOM     26  C   UNL     1       3.788   1.077   3.096  1.00  0.00     0.060 A 
ATOM     27  C   UNL     1       2.969   0.245   3.872  1.00  0.00     0.016 A 
ATOM     28  C   UNL     1       3.940   0.839   1.732  1.00  0.00     0.016 A 
ATOM     29  C   UNL     1       2.325  -0.853   3.295  1.00  0.00     0.010 A 
ATOM     30  C   UNL     1       3.297  -0.260   1.157  1.00  0.00     0.010 A 
ATOM     31  C   UNL     1       2.507  -1.133   1.936  1.00  0.00    -0.014 A 
BRANCH  31  32
ATOM     32  C   UNL     1       2.031  -2.408   1.331  1.00  0.00     0.031 A 
ATOM     33  C   UNL     1       3.064  -3.411   0.886  1.00  0.00     0.074 A 
ATOM     34  C   UNL     1       0.726  -2.667   1.122  1.00  0.00     0.049 A 
ATOM     35  N   UNL     1       2.921  -4.487   0.155  1.00  0.00    -0.248 NA
ATOM     36  C   UNL     1       4.450  -3.148   1.309  1.00  0.00     0.031 C 
ATOM     37  C   UNL     1      -0.395  -1.827   1.541  1.00  0.00     0.029 A 
ATOM     38  N   UNL     1       0.129  -3.709   0.451  1.00  0.00    -0.354 N 
ATOM     39  C   UNL     1       4.200  -5.010   0.008  1.00  0.00     0.074 A 
ATOM     40  C   UNL     1       5.109  -4.107   0.680  1.00  0.00     0.031 C 
ATOM     41  C   UNL     1      -1.539  -2.358   1.073  1.00  0.00     0.029 A 
ATOM     42  C   UNL     1      -1.231  -3.563   0.306  1.00  0.00     0.049 A 
ATOM     43  H   UNL     1       0.627  -4.486   0.108  1.00  0.00     0.167 HD
ATOM     44  C   UNL     1       4.588  -6.150  -0.610  1.00  0.00     0.031 A 
ATOM     45  C   UNL     1      -2.122  -4.298  -0.389  1.00  0.00     0.031 A 
ATOM     46  C   UNL     1       3.691  -7.070  -1.251  1.00  0.00     0.049 A 
ATOM     47  C   UNL     1      -1.663  -5.525  -1.134  1.00  0.00     0.074 A 
ATOM     48  C   UNL     1       3.986  -8.277  -1.859  1.00  0.00     0.029 A 
ATOM     49  N   UNL     1       2.323  -6.887  -1.361  1.00  0.00    -0.354 N 
ATOM     50  N   UNL     1      -0.456  -6.024  -1.241  1.00  0.00    -0.248 NA
ATOM     51  C   UNL     1      -2.697  -6.303  -1.837  1.00  0.00     0.031 C 
ATOM     52  C   UNL     1       2.800  -8.806  -2.376  1.00  0.00     0.029 A 
ATOM     53  C   UNL     1       1.761  -7.953  -2.040  1.00  0.00     0.049 A 
ATOM     54  H   UNL     1       1.825  -6.114  -1.008  1.00  0.00     0.167 HD
ATOM     55  C   UNL     1      -0.595  -7.200  -1.970  1.00  0.00     0.074 A 
ATOM     56  C   UNL     1      -1.999  -7.335  -2.291  1.00  0.00     0.031 C 
ATOM     57  C   UNL     1       0.357  -8.096  -2.325  1.00  0.00     0.031 A 
BRANCH  44  58
ATOM     58  C   UNL     1       6.059  -6.457  -0.625  1.00  0.00    -0.014 A 
ATOM     59  C   UNL     1       6.739  -6.823   0.548  1.00  0.00     0.009 A 
ATOM     60  C   UNL     1       6.770  -6.397  -1.833  1.00  0.00     0.009 A 
ATOM     61  C   UNL     1       8.111  -7.076   0.519  1.00  0.00     0.001 A 
ATOM     62  C   UNL     1       8.136  -6.684  -1.865  1.00  0.00     0.001 A 
ATOM     63  C   UNL     1       8.807  -7.010  -0.688  1.00  0.00     0.000 A 
ENDBRANCH  44  58
BRANCH  45  64
ATOM     64  C   UNL     1      -3.554  -3.897  -0.427  1.00  0.00    -0.014 A 
ATOM     65  C   UNL     1      -4.523  -4.649   0.254  1.00  0.00     0.009 A 
ATOM     66  C   UNL     1      -3.963  -2.783  -1.177  1.00  0.00     0.009 A 
ATOM     67  C   UNL     1      -5.876  -4.312   0.161  1.00  0.00     0.001 A 
ATOM     68  C   UNL     1      -5.314  -2.434  -1.248  1.00  0.00     0.001 A 
ATOM     69  C   UNL     1      -6.269  -3.204  -0.588  1.00  0.00     0.000 A 
ENDBRANCH  45  64
BRANCH  57  70
ATOM     70  C   UNL     1      -0.080  -9.352  -3.024  1.00  0.00    -0.014 A 
ATOM     71  C   UNL     1      -0.464  -9.351  -4.373  1.00  0.00     0.009 A 
ATOM     72  C   UNL     1      -0.020 -10.575  -2.334  1.00  0.00     0.009 A 
ATOM     73  C   UNL     1      -0.793 -10.549  -5.012  1.00  0.00     0.001 A 
ATOM     74  C   UNL     1      -0.324 -11.772  -2.982  1.00  0.00     0.001 A 
ATOM     75  C   UNL     1      -0.715 -11.758  -4.320  1.00  0.00     0.000 A 
ENDBRANCH  57  70
ENDBRANCH  31  32
ENDBRANCH  24  26
ENDBRANCH  23  24
ENDBRANCH  22  23
ENDBRANCH  21  22
ENDBRANCH  20  21
ENDBRANCH   1  20
TORSDOF 18
