REMARK SMILES C=CC[C@@]1(C(=O)OCCOCCOC(=O)c2ccc(-c3c4nc(c(-c5ccccc5)c5ccc([nH]5)c(-c5ccccc5)c5nc(c(-c6ccccc6)c6ccc3[nH]6)C=C5)C=C4)cc2)CCCN(C(=O)c2ccc3c(c2)OCO3)C1
REMARK SMILES IDX 10 1 9 2 8 3 7 4 5 5 6 6 4 7 64 8 79 9 65 10 67 11 66 12
REMARK SMILES IDX 3 13 2 14 1 15 68 16 69 17 70 18 71 19 75 20 72 21 74 22
REMARK SMILES IDX 73 23 76 24 78 25 77 26 11 27 12 28 13 29 14 30 15 31 16 32
REMARK SMILES IDX 17 33 63 34 18 35 62 36 19 37 20 38 21 39 56 40 22 41 61 42
REMARK SMILES IDX 55 43 57 44 23 45 60 46 54 47 53 48 24 50 46 51 31 52 45 53
REMARK SMILES IDX 32 54 35 55 44 56 58 57 33 58 34 59 43 61 59 62 36 63 25 64
REMARK SMILES IDX 26 65 30 66 27 67 29 68 28 69 47 70 48 71 52 72 49 73 51 74
REMARK SMILES IDX 50 75 37 76 38 77 42 78 39 79 41 80 40 81
REMARK H PARENT 57 49 35 60
REMARK Flexibility Score: inf
ROOT
ATOM      1  O   UNL     1      -1.176   1.631  -1.520  1.00  0.00    -0.374 OA
ENDROOT
BRANCH   1   2
ATOM      2  C   UNL     1       0.171   1.904  -1.186  1.00  0.00     0.202 C 
BRANCH   2   3
ATOM      3  C   UNL     1       0.454   1.965   0.330  1.00  0.00     0.261 C 
BRANCH   3   4
ATOM      4  O   UNL     1      -0.078   0.894   1.145  1.00  0.00    -0.463 OA
BRANCH   4   5
ATOM      5  C   UNL     1      -1.397   1.021   1.471  1.00  0.00     0.314 C 
ATOM      6  O   UNL     1      -2.094   1.939   1.051  1.00  0.00    -0.252 OA
BRANCH   5   7
ATOM      7  C   UNL     1      -1.931  -0.061   2.441  1.00  0.00     0.089 C 
ATOM      8  C   UNL     1      -0.897  -1.112   2.933  1.00  0.00     0.023 C 
ATOM      9  C   UNL     1      -3.179  -0.755   1.809  1.00  0.00     0.138 C 
ATOM     10  C   UNL     1      -0.700  -2.345   2.060  1.00  0.00     0.023 C 
ATOM     11  N   UNL     1      -2.918  -1.959   0.984  1.00  0.00    -0.337 N 
ATOM     12  C   UNL     1      -2.003  -2.947   1.552  1.00  0.00     0.120 C 
BRANCH   7  13
ATOM     13  C   UNL     1      -2.348   0.728   3.737  1.00  0.00     0.047 C 
BRANCH  13  14
ATOM     14  C   UNL     1      -3.246   1.925   3.578  1.00  0.00    -0.034 C 
ATOM     15  C   UNL     1      -4.573   1.927   3.736  1.00  0.00     0.004 C 
ENDBRANCH  13  14
ENDBRANCH   7  13
BRANCH  11  16
ATOM     16  C   UNL     1      -3.734  -2.194  -0.149  1.00  0.00     0.254 C 
ATOM     17  O   UNL     1      -4.578  -1.400  -0.553  1.00  0.00    -0.269 OA
BRANCH  16  18
ATOM     18  C   UNL     1      -3.512  -3.415  -0.975  1.00  0.00     0.043 A 
ATOM     19  C   UNL     1      -2.932  -3.275  -2.258  1.00  0.00     0.018 A 
ATOM     20  C   UNL     1      -3.790  -4.684  -0.465  1.00  0.00     0.064 A 
ATOM     21  C   UNL     1      -2.432  -4.385  -2.944  1.00  0.00     0.051 A 
ATOM     22  C   UNL     1      -3.311  -5.763  -1.179  1.00  0.00     0.166 A 
ATOM     23  C   UNL     1      -2.617  -5.616  -2.362  1.00  0.00     0.165 A 
ATOM     24  O   UNL     1      -3.390  -7.066  -0.793  1.00  0.00    -0.454 OA
ATOM     25  O   UNL     1      -2.144  -6.798  -2.837  1.00  0.00    -0.454 OA
ATOM     26  C   UNL     1      -2.522  -7.685  -1.766  1.00  0.00     0.468 C 
ENDBRANCH  16  18
ENDBRANCH  11  16
ENDBRANCH   5   7
ENDBRANCH   4   5
ENDBRANCH   3   4
ENDBRANCH   2   3
ENDBRANCH   1   2
BRANCH   1  27
ATOM     27  C   UNL     1      -1.566   0.289  -1.806  1.00  0.00     0.202 C 
BRANCH  27  28
ATOM     28  C   UNL     1      -0.832  -0.857  -1.122  1.00  0.00     0.261 C 
BRANCH  28  29
ATOM     29  O   UNL     1       0.567  -0.906  -1.310  1.00  0.00    -0.460 OA
BRANCH  29  30
ATOM     30  C   UNL     1       0.952  -1.462  -2.474  1.00  0.00     0.338 C 
ATOM     31  O   UNL     1       0.284  -1.891  -3.384  1.00  0.00    -0.246 OA
BRANCH  30  32
ATOM     32  C   UNL     1       2.404  -1.403  -2.401  1.00  0.00     0.060 A 
ATOM     33  C   UNL     1       3.057  -0.362  -3.058  1.00  0.00     0.016 A 
ATOM     34  C   UNL     1       3.078  -2.334  -1.605  1.00  0.00     0.016 A 
ATOM     35  C   UNL     1       4.436  -0.304  -2.987  1.00  0.00     0.010 A 
ATOM     36  C   UNL     1       4.458  -2.259  -1.518  1.00  0.00     0.010 A 
ATOM     37  C   UNL     1       5.136  -1.278  -2.257  1.00  0.00    -0.014 A 
BRANCH  37  38
ATOM     38  C   UNL     1       6.592  -1.367  -2.441  1.00  0.00     0.031 A 
ATOM     39  C   UNL     1       7.120  -2.410  -3.381  1.00  0.00     0.074 A 
ATOM     40  C   UNL     1       7.391  -0.464  -1.853  1.00  0.00     0.049 A 
ATOM     41  N   UNL     1       8.342  -2.601  -3.799  1.00  0.00    -0.248 NA
ATOM     42  C   UNL     1       6.139  -3.365  -3.930  1.00  0.00     0.031 C 
ATOM     43  C   UNL     1       6.946   0.596  -0.948  1.00  0.00     0.029 A 
ATOM     44  N   UNL     1       8.741  -0.278  -1.958  1.00  0.00    -0.354 N 
ATOM     45  C   UNL     1       8.275  -3.693  -4.655  1.00  0.00     0.074 A 
ATOM     46  C   UNL     1       6.907  -4.154  -4.663  1.00  0.00     0.031 C 
ATOM     47  C   UNL     1       8.005   1.346  -0.604  1.00  0.00     0.029 A 
ATOM     48  C   UNL     1       9.198   0.800  -1.243  1.00  0.00     0.049 A 
ATOM     49  H   UNL     1       9.327  -0.859  -2.495  1.00  0.00     0.167 HD
ATOM     50  C   UNL     1       9.270  -4.247  -5.384  1.00  0.00     0.031 A 
ATOM     51  C   UNL     1      10.447   1.285  -1.131  1.00  0.00     0.031 A 
ATOM     52  C   UNL     1      10.627  -3.778  -5.349  1.00  0.00     0.049 A 
ATOM     53  C   UNL     1      11.543   0.619  -1.915  1.00  0.00     0.074 A 
ATOM     54  C   UNL     1      11.726  -4.254  -6.039  1.00  0.00     0.029 A 
ATOM     55  N   UNL     1      11.068  -2.717  -4.569  1.00  0.00    -0.354 N 
ATOM     56  N   UNL     1      11.468  -0.396  -2.744  1.00  0.00    -0.248 NA
ATOM     57  C   UNL     1      12.891   1.177  -1.762  1.00  0.00     0.031 C 
ATOM     58  C   UNL     1      12.843  -3.518  -5.632  1.00  0.00     0.029 A 
ATOM     59  C   UNL     1      12.428  -2.537  -4.742  1.00  0.00     0.049 A 
ATOM     60  H   UNL     1      10.496  -2.173  -3.981  1.00  0.00     0.167 HD
ATOM     61  C   UNL     1      12.754  -0.583  -3.233  1.00  0.00     0.074 A 
ATOM     62  C   UNL     1      13.580   0.442  -2.623  1.00  0.00     0.031 C 
ATOM     63  C   UNL     1      13.217  -1.512  -4.106  1.00  0.00     0.031 A 
BRANCH  50  64
ATOM     64  C   UNL     1       8.922  -5.437  -6.235  1.00  0.00    -0.014 A 
ATOM     65  C   UNL     1       8.105  -5.316  -7.372  1.00  0.00     0.009 A 
ATOM     66  C   UNL     1       9.419  -6.704  -5.892  1.00  0.00     0.009 A 
ATOM     67  C   UNL     1       7.766  -6.443  -8.124  1.00  0.00     0.001 A 
ATOM     68  C   UNL     1       9.104  -7.824  -6.664  1.00  0.00     0.001 A 
ATOM     69  C   UNL     1       8.270  -7.694  -7.773  1.00  0.00     0.000 A 
ENDBRANCH  50  64
BRANCH  51  70
ATOM     70  C   UNL     1      10.715   2.455  -0.255  1.00  0.00    -0.014 A 
ATOM     71  C   UNL     1      11.106   3.689  -0.795  1.00  0.00     0.009 A 
ATOM     72  C   UNL     1      10.577   2.340   1.138  1.00  0.00     0.009 A 
ATOM     73  C   UNL     1      11.380   4.774   0.043  1.00  0.00     0.001 A 
ATOM     74  C   UNL     1      10.820   3.433   1.971  1.00  0.00     0.001 A 
ATOM     75  C   UNL     1      11.232   4.646   1.423  1.00  0.00     0.000 A 
ENDBRANCH  51  70
BRANCH  63  76
ATOM     76  C   UNL     1      14.673  -1.430  -4.469  1.00  0.00    -0.014 A 
ATOM     77  C   UNL     1      15.677  -1.750  -3.543  1.00  0.00     0.009 A 
ATOM     78  C   UNL     1      15.040  -1.041  -5.767  1.00  0.00     0.009 A 
ATOM     79  C   UNL     1      17.022  -1.631  -3.894  1.00  0.00     0.001 A 
ATOM     80  C   UNL     1      16.384  -0.959  -6.126  1.00  0.00     0.001 A 
ATOM     81  C   UNL     1      17.374  -1.238  -5.186  1.00  0.00     0.000 A 
ENDBRANCH  63  76
ENDBRANCH  37  38
ENDBRANCH  30  32
ENDBRANCH  29  30
ENDBRANCH  28  29
ENDBRANCH  27  28
ENDBRANCH   1  27
TORSDOF 18
