REMARK SMILES Cc1ccc(S(=O)(=O)n2cc(C(=O)C(=O)N[C@@H](Cc3cnc[nH]3)C(=O)OCCOCCOC(=O)c3ccc(-c4c5nc(c(-c6ccccc6)c6ccc([nH]6)c(-c6ccccc6)c6nc(c(-c7ccccc7)c7ccc4[nH]7)C=C6)C=C5)cc3)c3ccccc32)cc1
REMARK SMILES IDX 27 1 26 2 24 3 25 4 17 5 16 6 14 7 15 8 12 10 13 11 11 12
REMARK SMILES IDX 9 13 10 14 88 15 83 16 87 17 84 18 86 19 85 20 6 21 7 22
REMARK SMILES IDX 8 23 5 24 1 25 2 26 3 27 90 28 4 29 89 30 18 31 19 32 20 33
REMARK SMILES IDX 23 34 21 35 22 36 28 38 29 39 30 40 31 41 32 42 33 43 34 44
REMARK SMILES IDX 35 45 36 46 82 47 37 48 81 49 38 50 39 51 40 52 75 53 41 54
REMARK SMILES IDX 80 55 74 56 76 57 42 58 79 59 73 60 72 61 43 63 65 64 50 65
REMARK SMILES IDX 64 66 51 67 54 68 63 69 77 70 52 71 53 72 62 74 78 75 55 76
REMARK SMILES IDX 44 77 45 78 49 79 46 80 48 81 47 82 66 83 67 84 71 85 68 86
REMARK SMILES IDX 70 87 69 88 56 89 57 90 61 91 58 92 60 93 59 94
REMARK H PARENT 16 9 23 37 76 62 54 73
REMARK Flexibility Score: inf
ROOT
ATOM      1  C   UNL     1      -7.085   6.802   5.099  1.00  0.00     0.261 C 
ENDROOT
BRANCH   1   2
ATOM      2  O   UNL     1      -8.025   6.241   4.190  1.00  0.00    -0.462 OA
BRANCH   2   3
ATOM      3  C   UNL     1      -7.999   6.742   2.914  1.00  0.00     0.329 C 
ATOM      4  O   UNL     1      -7.853   7.917   2.617  1.00  0.00    -0.250 OA
BRANCH   3   5
ATOM      5  C   UNL     1      -8.374   5.621   1.951  1.00  0.00     0.198 C 
BRANCH   5   6
ATOM      6  N   UNL     1      -7.841   4.371   2.530  1.00  0.00    -0.335 N 
ATOM      7  C   UNL     1      -6.570   3.875   2.415  1.00  0.00     0.293 C 
ATOM      8  O   UNL     1      -6.136   3.060   3.220  1.00  0.00    -0.265 OA
ATOM      9  H   UNL     1      -8.473   3.833   3.059  1.00  0.00     0.164 HD
BRANCH   7  10
ATOM     10  C   UNL     1      -5.691   4.356   1.264  1.00  0.00     0.252 C 
ATOM     11  O   UNL     1      -5.586   5.566   1.087  1.00  0.00    -0.283 OA
BRANCH  10  12
ATOM     12  C   UNL     1      -5.021   3.380   0.415  1.00  0.00     0.054 A 
ATOM     13  N   UNL     1      -4.112   1.489  -0.326  1.00  0.00    -0.240 N 
ATOM     14  C   UNL     1      -4.839   2.039   0.695  1.00  0.00     0.117 A 
ATOM     15  C   UNL     1      -3.840   2.423  -1.303  1.00  0.00     0.065 A 
ATOM     16  C   UNL     1      -4.403   3.625  -0.853  1.00  0.00     0.012 A 
ATOM     17  C   UNL     1      -3.126   2.352  -2.512  1.00  0.00     0.028 A 
ATOM     18  C   UNL     1      -4.268   4.781  -1.651  1.00  0.00     0.011 A 
ATOM     19  C   UNL     1      -2.986   3.521  -3.266  1.00  0.00     0.002 A 
ATOM     20  C   UNL     1      -3.555   4.718  -2.848  1.00  0.00     0.001 A 
BRANCH  13  21
ATOM     21  S   UNL     1      -3.512  -0.103  -0.279  1.00  0.00     0.268 S 
ATOM     22  O   UNL     1      -3.778  -0.643  -1.605  1.00  0.00    -0.201 OA
ATOM     23  O   UNL     1      -4.060  -0.700   0.917  1.00  0.00    -0.201 OA
BRANCH  21  24
ATOM     24  C   UNL     1      -1.754  -0.013  -0.073  1.00  0.00     0.088 A 
ATOM     25  C   UNL     1       2.543  -0.036   0.039  1.00  0.00     0.044 C 
ATOM     26  C   UNL     1       1.043  -0.023   0.039  1.00  0.00    -0.051 A 
ATOM     27  C   UNL     1       0.336  -1.228  -0.048  1.00  0.00     0.005 A 
ATOM     28  C   UNL     1       0.335   1.182   0.116  1.00  0.00     0.005 A 
ATOM     29  C   UNL     1      -1.057  -1.226  -0.109  1.00  0.00     0.022 A 
ATOM     30  C   UNL     1      -1.062   1.190   0.074  1.00  0.00     0.022 A 
ENDBRANCH  21  24
ENDBRANCH  13  21
ENDBRANCH  10  12
ENDBRANCH   7  10
ENDBRANCH   5   6
BRANCH   5  31
ATOM     31  C   UNL     1      -9.905   5.603   1.801  1.00  0.00     0.092 C 
BRANCH  31  32
ATOM     32  C   UNL     1     -10.603   4.837   2.880  1.00  0.00     0.037 A 
ATOM     33  C   UNL     1     -10.874   3.489   3.001  1.00  0.00     0.134 A 
ATOM     34  N   UNL     1     -11.073   5.390   4.045  1.00  0.00    -0.348 N 
ATOM     35  N   UNL     1     -11.491   3.219   4.189  1.00  0.00    -0.245 NA
ATOM     36  C   UNL     1     -11.631   4.382   4.778  1.00  0.00     0.196 A 
ATOM     37  H   UNL     1     -11.018   6.338   4.304  1.00  0.00     0.167 HD
ENDBRANCH  31  32
ENDBRANCH   5  31
ENDBRANCH   3   5
ENDBRANCH   2   3
ENDBRANCH   1   2
BRANCH   1  38
ATOM     38  C   UNL     1      -5.884   5.934   5.224  1.00  0.00     0.202 C 
BRANCH  38  39
ATOM     39  O   UNL     1      -4.919   6.437   4.317  1.00  0.00    -0.374 OA
BRANCH  39  40
ATOM     40  C   UNL     1      -3.679   5.744   4.360  1.00  0.00     0.202 C 
BRANCH  40  41
ATOM     41  C   UNL     1      -3.104   5.539   5.777  1.00  0.00     0.261 C 
BRANCH  41  42
ATOM     42  O   UNL     1      -2.828   6.825   6.375  1.00  0.00    -0.460 OA
BRANCH  42  43
ATOM     43  C   UNL     1      -3.548   7.160   7.483  1.00  0.00     0.338 C 
ATOM     44  O   UNL     1      -3.773   6.430   8.434  1.00  0.00    -0.246 OA
BRANCH  43  45
ATOM     45  C   UNL     1      -4.300   8.423   7.213  1.00  0.00     0.060 A 
ATOM     46  C   UNL     1      -5.327   8.830   8.083  1.00  0.00     0.016 A 
ATOM     47  C   UNL     1      -4.236   8.956   5.929  1.00  0.00     0.016 A 
ATOM     48  C   UNL     1      -6.391   9.607   7.600  1.00  0.00     0.010 A 
ATOM     49  C   UNL     1      -5.338   9.616   5.433  1.00  0.00     0.010 A 
ATOM     50  C   UNL     1      -6.447   9.900   6.242  1.00  0.00    -0.014 A 
BRANCH  50  51
ATOM     51  C   UNL     1      -7.606  10.458   5.535  1.00  0.00     0.031 A 
ATOM     52  C   UNL     1      -7.453  11.808   4.969  1.00  0.00     0.074 A 
ATOM     53  C   UNL     1      -8.714   9.732   5.236  1.00  0.00     0.049 A 
ATOM     54  N   UNL     1      -8.439  12.602   4.749  1.00  0.00    -0.248 NA
ATOM     55  C   UNL     1      -6.160  12.407   4.643  1.00  0.00     0.031 C 
ATOM     56  C   UNL     1      -9.792  10.013   4.286  1.00  0.00     0.029 A 
ATOM     57  N   UNL     1      -9.142   8.526   5.792  1.00  0.00    -0.354 N 
ATOM     58  C   UNL     1      -7.966  13.592   3.922  1.00  0.00     0.074 A 
ATOM     59  C   UNL     1      -6.534  13.531   4.032  1.00  0.00     0.031 C 
ATOM     60  C   UNL     1     -10.862   9.245   4.582  1.00  0.00     0.029 A 
ATOM     61  C   UNL     1     -10.534   8.508   5.795  1.00  0.00     0.049 A 
ATOM     62  H   UNL     1      -8.557   7.807   6.125  1.00  0.00     0.167 HD
ATOM     63  C   UNL     1      -8.835  14.212   3.078  1.00  0.00     0.031 A 
ATOM     64  C   UNL     1     -11.220   8.398   6.962  1.00  0.00     0.031 A 
ATOM     65  C   UNL     1     -10.193  13.657   3.220  1.00  0.00     0.049 A 
ATOM     66  C   UNL     1     -12.035   9.647   7.077  1.00  0.00     0.074 A 
ATOM     67  C   UNL     1     -10.977  12.854   2.406  1.00  0.00     0.029 A 
ATOM     68  N   UNL     1     -10.788  13.615   4.483  1.00  0.00    -0.354 N 
ATOM     69  N   UNL     1     -11.656  10.777   6.539  1.00  0.00    -0.248 NA
ATOM     70  C   UNL     1     -13.395   9.681   7.593  1.00  0.00     0.031 C 
ATOM     71  C   UNL     1     -12.034  12.316   3.201  1.00  0.00     0.029 A 
ATOM     72  C   UNL     1     -11.901  12.796   4.497  1.00  0.00     0.049 A 
ATOM     73  H   UNL     1     -10.455  14.108   5.268  1.00  0.00     0.167 HD
ATOM     74  C   UNL     1     -12.742  11.594   6.439  1.00  0.00     0.074 A 
ATOM     75  C   UNL     1     -13.787  10.898   7.177  1.00  0.00     0.031 C 
ATOM     76  C   UNL     1     -12.757  12.728   5.681  1.00  0.00     0.031 A 
BRANCH  63  77
ATOM     77  C   UNL     1      -8.391  15.106   1.937  1.00  0.00    -0.014 A 
ATOM     78  C   UNL     1      -9.278  15.387   0.884  1.00  0.00     0.009 A 
ATOM     79  C   UNL     1      -7.120  15.704   1.828  1.00  0.00     0.009 A 
ATOM     80  C   UNL     1      -8.902  16.165  -0.223  1.00  0.00     0.001 A 
ATOM     81  C   UNL     1      -6.721  16.450   0.711  1.00  0.00     0.001 A 
ATOM     82  C   UNL     1      -7.617  16.683  -0.319  1.00  0.00     0.000 A 
ENDBRANCH  63  77
BRANCH  64  83
ATOM     83  C   UNL     1     -10.457   7.634   8.005  1.00  0.00    -0.014 A 
ATOM     84  C   UNL     1     -10.239   6.256   7.761  1.00  0.00     0.009 A 
ATOM     85  C   UNL     1      -9.590   8.268   8.900  1.00  0.00     0.009 A 
ATOM     86  C   UNL     1      -9.093   5.593   8.221  1.00  0.00     0.001 A 
ATOM     87  C   UNL     1      -8.463   7.587   9.398  1.00  0.00     0.001 A 
ATOM     88  C   UNL     1      -8.179   6.277   9.008  1.00  0.00     0.000 A 
ENDBRANCH  64  83
BRANCH  76  89
ATOM     89  C   UNL     1     -13.606  13.927   6.011  1.00  0.00    -0.014 A 
ATOM     90  C   UNL     1     -14.424  14.025   7.141  1.00  0.00     0.009 A 
ATOM     91  C   UNL     1     -13.425  15.108   5.257  1.00  0.00     0.009 A 
ATOM     92  C   UNL     1     -15.036  15.230   7.494  1.00  0.00     0.001 A 
ATOM     93  C   UNL     1     -13.977  16.326   5.641  1.00  0.00     0.001 A 
ATOM     94  C   UNL     1     -14.793  16.384   6.759  1.00  0.00     0.000 A 
ENDBRANCH  76  89
ENDBRANCH  50  51
ENDBRANCH  43  45
ENDBRANCH  42  43
ENDBRANCH  41  42
ENDBRANCH  40  41
ENDBRANCH  39  40
ENDBRANCH  38  39
ENDBRANCH   1  38
TORSDOF 21
