REMARK SMILES Cc1c(NC(=O)c2ccccc2NC(=O)[C@@H]2CCCO2)cccc1C(=O)OCCOCCOC(=O)c1ccc(-c2c3nc(c(-c4ccccc4)c4ccc([nH]4)c(-c4ccccc4)c4nc(c(-c5ccccc5)c5ccc2[nH]5)C=C4)C=C3)cc1
REMARK SMILES IDX 29 1 28 2 27 3 25 4 26 5 24 6 1 7 2 8 3 9 21 10 23 11 22 12
REMARK SMILES IDX 4 13 5 14 6 16 7 17 8 18 12 19 9 20 11 21 10 22 13 23 14 24
REMARK SMILES IDX 15 26 16 27 17 28 20 29 18 30 19 31 30 32 31 33 32 34 33 35
REMARK SMILES IDX 34 36 35 37 36 38 37 39 83 40 38 41 82 42 39 43 40 44 41 45
REMARK SMILES IDX 76 46 42 47 81 48 75 49 77 50 43 51 80 52 74 53 73 54 44 56
REMARK SMILES IDX 66 57 51 58 65 59 52 60 55 61 64 62 78 63 53 64 54 65 63 67
REMARK SMILES IDX 79 68 56 69 45 70 46 71 50 72 47 73 49 74 48 75 67 76 68 77
REMARK SMILES IDX 72 78 69 79 71 80 70 81 57 82 58 83 62 84 59 85 61 86 60 87
REMARK H PARENT 4 15 13 25 77 55 55 66
REMARK Flexibility Score: inf
ROOT
ATOM      1  C   UNL     1       2.154   2.443  -2.378  1.00  0.00     0.202 C 
ENDROOT
BRANCH   1   2
ATOM      2  C   UNL     1       2.630   2.428  -0.976  1.00  0.00     0.261 C 
BRANCH   2   3
ATOM      3  O   UNL     1       1.807   1.556  -0.200  1.00  0.00    -0.460 OA
BRANCH   3   4
ATOM      4  C   UNL     1       0.576   1.857   0.240  1.00  0.00     0.338 C 
ATOM      5  O   UNL     1       0.064   2.947   0.353  1.00  0.00    -0.246 OA
BRANCH   4   6
ATOM      6  C   UNL     1      -0.087   0.545   0.509  1.00  0.00     0.065 A 
ATOM      7  C   UNL     1       2.032  -0.989   0.233  1.00  0.00     0.047 C 
ATOM      8  C   UNL     1       0.560  -0.721   0.516  1.00  0.00    -0.013 A 
ATOM      9  C   UNL     1      -0.257  -1.873   0.636  1.00  0.00     0.045 A 
ATOM     10  C   UNL     1      -1.644  -1.773   0.781  1.00  0.00     0.026 A 
ATOM     11  C   UNL     1      -1.487   0.625   0.649  1.00  0.00     0.016 A 
ATOM     12  C   UNL     1      -2.260  -0.525   0.780  1.00  0.00     0.003 A 
BRANCH   9  13
ATOM     13  N   UNL     1       0.389  -3.115   0.500  1.00  0.00    -0.322 N 
ATOM     14  C   UNL     1       0.090  -4.223  -0.247  1.00  0.00     0.257 C 
ATOM     15  H   UNL     1       1.206  -3.204   1.042  1.00  0.00     0.170 HD
ATOM     16  O   UNL     1       0.871  -5.175  -0.217  1.00  0.00    -0.269 OA
BRANCH  14  17
ATOM     17  C   UNL     1      -1.116  -4.313  -1.096  1.00  0.00     0.063 A 
ATOM     18  C   UNL     1      -1.812  -5.524  -0.935  1.00  0.00     0.016 A 
ATOM     19  C   UNL     1      -1.580  -3.320  -1.992  1.00  0.00     0.054 A 
ATOM     20  C   UNL     1      -3.025  -5.728  -1.571  1.00  0.00     0.001 A 
ATOM     21  C   UNL     1      -2.858  -3.508  -2.521  1.00  0.00     0.027 A 
ATOM     22  C   UNL     1      -3.566  -4.701  -2.328  1.00  0.00     0.002 A 
BRANCH  19  23
ATOM     23  N   UNL     1      -0.754  -2.212  -2.307  1.00  0.00    -0.323 N 
ATOM     24  C   UNL     1      -0.820  -1.128  -3.139  1.00  0.00     0.253 C 
ATOM     25  H   UNL     1       0.086  -2.226  -1.793  1.00  0.00     0.170 HD
ATOM     26  O   UNL     1       0.104  -0.310  -3.049  1.00  0.00    -0.272 OA
BRANCH  24  27
ATOM     27  C   UNL     1      -1.934  -0.948  -4.174  1.00  0.00     0.207 C 
ATOM     28  C   UNL     1      -1.809  -2.000  -5.268  1.00  0.00     0.044 C 
ATOM     29  O   UNL     1      -1.913   0.314  -4.871  1.00  0.00    -0.368 OA
ATOM     30  C   UNL     1      -2.574  -1.369  -6.397  1.00  0.00     0.032 C 
ATOM     31  C   UNL     1      -2.162   0.078  -6.265  1.00  0.00     0.161 C 
ENDBRANCH  24  27
ENDBRANCH  19  23
ENDBRANCH  14  17
ENDBRANCH   9  13
ENDBRANCH   4   6
ENDBRANCH   3   4
ENDBRANCH   2   3
ENDBRANCH   1   2
BRANCH   1  32
ATOM     32  O   UNL     1       1.001   3.265  -2.337  1.00  0.00    -0.374 OA
BRANCH  32  33
ATOM     33  C   UNL     1       0.353   3.428  -3.576  1.00  0.00     0.202 C 
BRANCH  33  34
ATOM     34  C   UNL     1       1.281   4.078  -4.610  1.00  0.00     0.261 C 
BRANCH  34  35
ATOM     35  O   UNL     1       1.729   5.366  -4.116  1.00  0.00    -0.460 OA
BRANCH  35  36
ATOM     36  C   UNL     1       3.002   5.437  -3.629  1.00  0.00     0.338 C 
ATOM     37  O   UNL     1       3.997   4.995  -4.183  1.00  0.00    -0.246 OA
BRANCH  36  38
ATOM     38  C   UNL     1       2.983   5.876  -2.197  1.00  0.00     0.060 A 
ATOM     39  C   UNL     1       4.141   5.755  -1.398  1.00  0.00     0.016 A 
ATOM     40  C   UNL     1       1.746   6.051  -1.587  1.00  0.00     0.016 A 
ATOM     41  C   UNL     1       4.032   5.628   0.000  1.00  0.00     0.010 A 
ATOM     42  C   UNL     1       1.636   5.805  -0.235  1.00  0.00     0.010 A 
ATOM     43  C   UNL     1       2.763   5.553   0.570  1.00  0.00    -0.014 A 
BRANCH  43  44
ATOM     44  C   UNL     1       2.428   5.086   1.925  1.00  0.00     0.031 A 
ATOM     45  C   UNL     1       1.639   6.002   2.778  1.00  0.00     0.074 A 
ATOM     46  C   UNL     1       2.539   3.777   2.283  1.00  0.00     0.049 A 
ATOM     47  N   UNL     1       1.381   5.774   4.015  1.00  0.00    -0.248 NA
ATOM     48  C   UNL     1       1.094   7.286   2.328  1.00  0.00     0.031 C 
ATOM     49  C   UNL     1       1.797   3.033   3.307  1.00  0.00     0.029 A 
ATOM     50  N   UNL     1       3.381   2.792   1.765  1.00  0.00    -0.354 N 
ATOM     51  C   UNL     1       0.385   6.635   4.399  1.00  0.00     0.074 A 
ATOM     52  C   UNL     1       0.332   7.635   3.367  1.00  0.00     0.031 C 
ATOM     53  C   UNL     1       2.396   1.847   3.537  1.00  0.00     0.029 A 
ATOM     54  C   UNL     1       3.611   1.815   2.742  1.00  0.00     0.049 A 
ATOM     55  H   UNL     1       3.754   2.784   0.854  1.00  0.00     0.167 HD
ATOM     56  C   UNL     1      -0.356   6.304   5.491  1.00  0.00     0.031 A 
ATOM     57  C   UNL     1       4.880   1.542   3.144  1.00  0.00     0.031 A 
ATOM     58  C   UNL     1       0.206   5.119   6.158  1.00  0.00     0.049 A 
ATOM     59  C   UNL     1       4.986   2.033   4.559  1.00  0.00     0.074 A 
ATOM     60  C   UNL     1      -0.196   3.798   6.256  1.00  0.00     0.029 A 
ATOM     61  N   UNL     1       1.550   5.145   6.543  1.00  0.00    -0.354 N 
ATOM     62  N   UNL     1       4.202   2.968   5.029  1.00  0.00    -0.248 NA
ATOM     63  C   UNL     1       5.822   1.427   5.590  1.00  0.00     0.031 C 
ATOM     64  C   UNL     1       0.956   3.021   6.596  1.00  0.00     0.029 A 
ATOM     65  C   UNL     1       2.044   3.870   6.746  1.00  0.00     0.049 A 
ATOM     66  H   UNL     1       2.078   5.968   6.654  1.00  0.00     0.167 HD
ATOM     67  C   UNL     1       4.281   2.974   6.383  1.00  0.00     0.074 A 
ATOM     68  C   UNL     1       5.365   2.054   6.690  1.00  0.00     0.031 C 
ATOM     69  C   UNL     1       3.427   3.674   7.180  1.00  0.00     0.031 A 
BRANCH  56  70
ATOM     70  C   UNL     1      -1.678   6.937   5.859  1.00  0.00    -0.014 A 
ATOM     71  C   UNL     1      -2.366   6.478   6.996  1.00  0.00     0.009 A 
ATOM     72  C   UNL     1      -2.336   7.934   5.112  1.00  0.00     0.009 A 
ATOM     73  C   UNL     1      -3.620   6.990   7.366  1.00  0.00     0.001 A 
ATOM     74  C   UNL     1      -3.577   8.468   5.487  1.00  0.00     0.001 A 
ATOM     75  C   UNL     1      -4.222   7.993   6.616  1.00  0.00     0.000 A 
ENDBRANCH  56  70
BRANCH  57  76
ATOM     76  C   UNL     1       5.849   1.630   2.002  1.00  0.00    -0.014 A 
ATOM     77  C   UNL     1       5.801   0.579   1.052  1.00  0.00     0.009 A 
ATOM     78  C   UNL     1       6.365   2.864   1.578  1.00  0.00     0.009 A 
ATOM     79  C   UNL     1       6.108   0.800  -0.299  1.00  0.00     0.001 A 
ATOM     80  C   UNL     1       6.669   3.081   0.221  1.00  0.00     0.001 A 
ATOM     81  C   UNL     1       6.502   2.065  -0.721  1.00  0.00     0.000 A 
ENDBRANCH  57  76
BRANCH  69  82
ATOM     82  C   UNL     1       3.875   4.232   8.496  1.00  0.00    -0.014 A 
ATOM     83  C   UNL     1       5.229   4.375   8.834  1.00  0.00     0.009 A 
ATOM     84  C   UNL     1       2.930   4.832   9.350  1.00  0.00     0.009 A 
ATOM     85  C   UNL     1       5.619   5.030  10.001  1.00  0.00     0.001 A 
ATOM     86  C   UNL     1       3.320   5.546  10.481  1.00  0.00     0.001 A 
ATOM     87  C   UNL     1       4.665   5.626  10.817  1.00  0.00     0.000 A 
ENDBRANCH  69  82
ENDBRANCH  43  44
ENDBRANCH  36  38
ENDBRANCH  35  36
ENDBRANCH  34  35
ENDBRANCH  33  34
ENDBRANCH  32  33
ENDBRANCH   1  32
TORSDOF 18
