REMARK SMILES O=C(Cc1c[nH]c(=O)n(Cc2ccccc2)c1=O)OCCOCCOC(=O)c1ccc(-c2c3nc(c(-c4ccccc4)c4ccc([nH]4)c(-c4ccccc4)c4nc(c(-c5ccccc5)c5ccc2[nH]5)C=C4)C=C3)cc1
REMARK SMILES IDX 21 1 20 2 19 3 2 4 1 5 3 6 4 7 5 8 17 9 6 10 9 11 18 12 7 13
REMARK SMILES IDX 8 15 10 16 11 17 12 18 16 19 13 20 15 21 14 22 22 23 23 24
REMARK SMILES IDX 24 25 25 26 26 27 27 28 28 29 29 30 75 31 30 32 74 33 31 34
REMARK SMILES IDX 32 35 33 36 68 37 34 38 73 39 67 40 69 41 35 42 72 43 66 44
REMARK SMILES IDX 65 45 36 47 58 48 43 49 57 50 44 51 47 52 56 53 70 54 45 55
REMARK SMILES IDX 46 56 55 58 71 59 48 60 37 61 38 62 42 63 39 64 41 65 40 66
REMARK SMILES IDX 59 67 60 68 64 69 61 70 63 71 62 72 49 73 50 74 54 75 51 76
REMARK SMILES IDX 53 77 52 78
REMARK H PARENT 6 14 69 46 47 57
REMARK Flexibility Score: inf
ROOT
ATOM      1  C   UNL     1       4.795  -0.057   1.129  1.00  0.00     0.202 C 
ENDROOT
BRANCH   1   2
ATOM      2  C   UNL     1       4.196   0.956   0.160  1.00  0.00     0.261 C 
BRANCH   2   3
ATOM      3  O   UNL     1       2.763   1.004   0.056  1.00  0.00    -0.463 OA
BRANCH   3   4
ATOM      4  C   UNL     1       1.974   0.272  -0.768  1.00  0.00     0.310 C 
ATOM      5  O   UNL     1       0.792   0.589  -0.902  1.00  0.00    -0.252 OA
BRANCH   4   6
ATOM      6  C   UNL     1       2.522  -0.958  -1.467  1.00  0.00     0.165 C 
BRANCH   6   7
ATOM      7  C   UNL     1       3.611  -0.720  -2.462  1.00  0.00     0.045 A 
ATOM      8  C   UNL     1       3.911   0.458  -3.025  1.00  0.00     0.097 A 
ATOM      9  C   UNL     1       4.469  -1.894  -2.797  1.00  0.00     0.260 A 
ATOM     10  N   UNL     1       5.106   0.642  -3.646  1.00  0.00    -0.314 N 
ATOM     11  N   UNL     1       5.574  -1.631  -3.582  1.00  0.00    -0.256 N 
ATOM     12  O   UNL     1       4.158  -3.012  -2.393  1.00  0.00    -0.269 OA
ATOM     13  C   UNL     1       6.023  -0.352  -3.848  1.00  0.00     0.328 A 
ATOM     14  H   UNL     1       5.324   1.546  -3.970  1.00  0.00     0.171 HD
ATOM     15  O   UNL     1       7.142  -0.071  -4.272  1.00  0.00    -0.248 OA
BRANCH  11  16
ATOM     16  C   UNL     1       6.216  -2.732  -4.283  1.00  0.00     0.166 C 
BRANCH  16  17
ATOM     17  C   UNL     1       5.579  -2.846  -5.662  1.00  0.00    -0.028 A 
ATOM     18  C   UNL     1       5.808  -1.849  -6.628  1.00  0.00     0.005 A 
ATOM     19  C   UNL     1       4.642  -3.849  -5.943  1.00  0.00     0.005 A 
ATOM     20  C   UNL     1       5.076  -1.815  -7.812  1.00  0.00     0.000 A 
ATOM     21  C   UNL     1       3.935  -3.833  -7.148  1.00  0.00     0.000 A 
ATOM     22  C   UNL     1       4.137  -2.807  -8.072  1.00  0.00     0.000 A 
ENDBRANCH  16  17
ENDBRANCH  11  16
ENDBRANCH   6   7
ENDBRANCH   4   6
ENDBRANCH   3   4
ENDBRANCH   2   3
ENDBRANCH   1   2
BRANCH   1  23
ATOM     23  O   UNL     1       4.094  -1.267   1.342  1.00  0.00    -0.374 OA
BRANCH  23  24
ATOM     24  C   UNL     1       2.909  -1.223   2.141  1.00  0.00     0.202 C 
BRANCH  24  25
ATOM     25  C   UNL     1       3.079  -0.910   3.630  1.00  0.00     0.261 C 
BRANCH  25  26
ATOM     26  O   UNL     1       3.357   0.486   3.841  1.00  0.00    -0.460 OA
BRANCH  26  27
ATOM     27  C   UNL     1       4.583   0.779   4.337  1.00  0.00     0.338 C 
ATOM     28  O   UNL     1       5.460  -0.005   4.663  1.00  0.00    -0.246 OA
BRANCH  27  29
ATOM     29  C   UNL     1       4.802   2.232   4.205  1.00  0.00     0.060 A 
ATOM     30  C   UNL     1       3.847   3.141   4.659  1.00  0.00     0.016 A 
ATOM     31  C   UNL     1       5.998   2.680   3.625  1.00  0.00     0.016 A 
ATOM     32  C   UNL     1       4.109   4.507   4.565  1.00  0.00     0.010 A 
ATOM     33  C   UNL     1       6.260   4.047   3.535  1.00  0.00     0.010 A 
ATOM     34  C   UNL     1       5.327   4.968   4.030  1.00  0.00    -0.014 A 
BRANCH  34  35
ATOM     35  C   UNL     1       5.676   6.402   4.155  1.00  0.00     0.031 A 
ATOM     36  C   UNL     1       5.626   7.331   2.984  1.00  0.00     0.074 A 
ATOM     37  C   UNL     1       6.024   6.856   5.375  1.00  0.00     0.049 A 
ATOM     38  N   UNL     1       5.778   8.630   2.969  1.00  0.00    -0.248 NA
ATOM     39  C   UNL     1       5.378   6.736   1.662  1.00  0.00     0.031 C 
ATOM     40  C   UNL     1       6.128   6.023   6.576  1.00  0.00     0.029 A 
ATOM     41  N   UNL     1       6.325   8.118   5.816  1.00  0.00    -0.354 N 
ATOM     42  C   UNL     1       5.621   9.015   1.645  1.00  0.00     0.074 A 
ATOM     43  C   UNL     1       5.413   7.806   0.876  1.00  0.00     0.031 C 
ATOM     44  C   UNL     1       6.416   6.805   7.626  1.00  0.00     0.029 A 
ATOM     45  C   UNL     1       6.557   8.184   7.170  1.00  0.00     0.049 A 
ATOM     46  H   UNL     1       6.371   8.902   5.222  1.00  0.00     0.167 HD
ATOM     47  C   UNL     1       5.632  10.267   1.131  1.00  0.00     0.031 A 
ATOM     48  C   UNL     1       6.839   9.236   7.961  1.00  0.00     0.031 A 
ATOM     49  C   UNL     1       5.861  11.458   1.910  1.00  0.00     0.049 A 
ATOM     50  C   UNL     1       6.889  10.609   7.352  1.00  0.00     0.074 A 
ATOM     51  C   UNL     1       5.856  12.774   1.482  1.00  0.00     0.029 A 
ATOM     52  N   UNL     1       6.144  11.480   3.268  1.00  0.00    -0.354 N 
ATOM     53  N   UNL     1       6.654  10.968   6.113  1.00  0.00    -0.248 NA
ATOM     54  C   UNL     1       7.225  11.725   8.248  1.00  0.00     0.031 C 
ATOM     55  C   UNL     1       6.213  13.585   2.560  1.00  0.00     0.029 A 
ATOM     56  C   UNL     1       6.353  12.785   3.683  1.00  0.00     0.049 A 
ATOM     57  H   UNL     1       6.189  10.687   3.849  1.00  0.00     0.167 HD
ATOM     58  C   UNL     1       6.790  12.349   6.084  1.00  0.00     0.074 A 
ATOM     59  C   UNL     1       7.106  12.767   7.435  1.00  0.00     0.031 C 
ATOM     60  C   UNL     1       6.665  13.192   5.031  1.00  0.00     0.031 A 
BRANCH  47  61
ATOM     61  C   UNL     1       5.378  10.441  -0.342  1.00  0.00    -0.014 A 
ATOM     62  C   UNL     1       6.388  10.954  -1.173  1.00  0.00     0.009 A 
ATOM     63  C   UNL     1       4.098  10.236  -0.881  1.00  0.00     0.009 A 
ATOM     64  C   UNL     1       6.117  11.283  -2.502  1.00  0.00     0.001 A 
ATOM     65  C   UNL     1       3.837  10.537  -2.220  1.00  0.00     0.001 A 
ATOM     66  C   UNL     1       4.842  11.073  -3.025  1.00  0.00     0.000 A 
ENDBRANCH  47  61
BRANCH  48  67
ATOM     67  C   UNL     1       7.050   9.022   9.418  1.00  0.00    -0.014 A 
ATOM     68  C   UNL     1       8.146   8.273   9.879  1.00  0.00     0.009 A 
ATOM     69  C   UNL     1       6.130   9.516  10.355  1.00  0.00     0.009 A 
ATOM     70  C   UNL     1       8.303   8.003  11.240  1.00  0.00     0.001 A 
ATOM     71  C   UNL     1       6.310   9.276  11.720  1.00  0.00     0.001 A 
ATOM     72  C   UNL     1       7.388   8.510  12.160  1.00  0.00     0.000 A 
ENDBRANCH  48  67
BRANCH  60  73
ATOM     73  C   UNL     1       6.855  14.665   5.275  1.00  0.00    -0.014 A 
ATOM     74  C   UNL     1       5.772  15.544   5.105  1.00  0.00     0.009 A 
ATOM     75  C   UNL     1       8.124  15.197   5.548  1.00  0.00     0.009 A 
ATOM     76  C   UNL     1       5.960  16.925   5.176  1.00  0.00     0.001 A 
ATOM     77  C   UNL     1       8.302  16.579   5.654  1.00  0.00     0.001 A 
ATOM     78  C   UNL     1       7.225  17.441   5.453  1.00  0.00     0.000 A 
ENDBRANCH  60  73
ENDBRANCH  34  35
ENDBRANCH  27  29
ENDBRANCH  26  27
ENDBRANCH  25  26
ENDBRANCH  24  25
ENDBRANCH  23  24
ENDBRANCH   1  23
TORSDOF 17
