REMARK SMILES CS(=O)(=O)c1ccc(-c2cc(Cl)cc3c2O[C@@H](C(F)(F)F)C(C(=O)OCCOCCOC(=O)c2ccc(-c4c5nc(c(-c6ccccc6)c6ccc([nH]6)c(-c6ccccc6)c6nc(c(-c7ccccc7)c7ccc4[nH]7)C=C6)C=C5)cc2)=C3)cc1
REMARK SMILES IDX 28 1 27 2 26 3 25 4 23 5 24 6 22 7 9 8 10 9 15 10 11 11
REMARK SMILES IDX 14 12 16 13 12 14 13 15 82 16 17 17 8 18 5 19 6 20 84 21
REMARK SMILES IDX 7 22 83 23 2 24 1 25 3 26 4 27 18 28 19 29 20 30 21 31 29 32
REMARK SMILES IDX 30 33 31 34 32 35 33 36 34 37 35 38 81 39 36 40 80 41 37 42
REMARK SMILES IDX 38 43 39 44 74 45 40 46 79 47 73 48 75 49 41 50 78 51 72 52
REMARK SMILES IDX 71 53 42 55 64 56 49 57 63 58 50 59 53 60 62 61 76 62 51 63
REMARK SMILES IDX 52 64 61 66 77 67 54 68 43 69 44 70 48 71 45 72 47 73 46 74
REMARK SMILES IDX 65 75 66 76 70 77 67 78 69 79 68 80 55 81 56 82 60 83 57 84
REMARK SMILES IDX 59 85 58 86
REMARK H PARENT 75 54 53 65
REMARK Flexibility Score: inf
ROOT
ATOM      1  O   UNL     1       2.068  -8.333  -8.736  1.00  0.00    -0.374 OA
ENDROOT
BRANCH   1   2
ATOM      2  C   UNL     1       2.394  -8.413 -10.116  1.00  0.00     0.202 C 
BRANCH   2   3
ATOM      3  C   UNL     1       3.372  -7.380 -10.698  1.00  0.00     0.261 C 
BRANCH   3   4
ATOM      4  O   UNL     1       4.159  -6.721  -9.695  1.00  0.00    -0.460 OA
BRANCH   4   5
ATOM      5  C   UNL     1       4.462  -5.432  -9.938  1.00  0.00     0.338 C 
ATOM      6  O   UNL     1       4.242  -4.838 -10.985  1.00  0.00    -0.246 OA
BRANCH   5   7
ATOM      7  C   UNL     1       4.952  -4.732  -8.727  1.00  0.00     0.087 C 
ATOM      8  C   UNL     1       2.826  -5.307  -5.197  1.00  0.00     0.026 A 
ATOM      9  C   UNL     1       1.574  -5.789  -5.641  1.00  0.00     0.033 A 
ATOM     10  C   UNL     1       3.708  -4.925  -6.230  1.00  0.00     0.135 A 
ATOM     11  C   UNL     1       1.110  -5.490  -6.923  1.00  0.00     0.042 A 
ATOM     12  C   UNL     1       3.174  -4.387  -7.413  1.00  0.00     0.019 A 
ATOM     13  O   UNL     1       4.928  -5.633  -6.374  1.00  0.00    -0.475 OA
ATOM     14  Cl  UNL     1      -0.456  -6.006  -7.402  1.00  0.00    -0.084 Cl
ATOM     15  C   UNL     1       1.867  -4.696  -7.773  1.00  0.00     0.032 A 
ATOM     16  C   UNL     1       4.094  -3.756  -8.383  1.00  0.00     0.027 C 
ATOM     17  C   UNL     1       5.744  -5.320  -7.578  1.00  0.00     0.316 C 
BRANCH   8  18
ATOM     18  C   UNL     1       2.713  -4.569  -3.874  1.00  0.00    -0.015 A 
ATOM     19  C   UNL     1       1.673  -3.006  -1.717  1.00  0.00     0.067 A 
ATOM     20  C   UNL     1       1.541  -4.397  -1.715  1.00  0.00     0.021 A 
ATOM     21  C   UNL     1       2.399  -2.390  -2.734  1.00  0.00     0.021 A 
ATOM     22  C   UNL     1       2.068  -5.165  -2.768  1.00  0.00     0.010 A 
ATOM     23  C   UNL     1       2.915  -3.170  -3.796  1.00  0.00     0.010 A 
BRANCH  19  24
ATOM     24  S   UNL     1       0.819  -2.108  -0.433  1.00  0.00     0.175 S 
ATOM     25  C   UNL     1       1.354  -0.423  -0.455  1.00  0.00     0.163 C 
ATOM     26  O   UNL     1       1.265  -2.676   0.826  1.00  0.00    -0.224 OA
ATOM     27  O   UNL     1      -0.586  -2.116  -0.798  1.00  0.00    -0.224 OA
ENDBRANCH  19  24
ENDBRANCH   8  18
BRANCH  17  28
ATOM     28  C   UNL     1       6.798  -6.375  -7.985  1.00  0.00     0.430 C 
ATOM     29  F   UNL     1       7.788  -5.764  -8.695  1.00  0.00    -0.167 F 
ATOM     30  F   UNL     1       7.394  -6.936  -6.907  1.00  0.00    -0.167 F 
ATOM     31  F   UNL     1       6.339  -7.381  -8.753  1.00  0.00    -0.167 F 
ENDBRANCH  17  28
ENDBRANCH   5   7
ENDBRANCH   4   5
ENDBRANCH   3   4
ENDBRANCH   2   3
ENDBRANCH   1   2
BRANCH   1  32
ATOM     32  C   UNL     1       3.096  -8.595  -7.784  1.00  0.00     0.202 C 
BRANCH  32  33
ATOM     33  C   UNL     1       3.662 -10.016  -7.698  1.00  0.00     0.261 C 
BRANCH  33  34
ATOM     34  O   UNL     1       4.298 -10.451  -8.911  1.00  0.00    -0.460 OA
BRANCH  34  35
ATOM     35  C   UNL     1       3.713 -11.514  -9.513  1.00  0.00     0.338 C 
ATOM     36  O   UNL     1       2.723 -12.133  -9.149  1.00  0.00    -0.246 OA
BRANCH  35  37
ATOM     37  C   UNL     1       4.363 -11.756 -10.807  1.00  0.00     0.060 A 
ATOM     38  C   UNL     1       3.615 -11.571 -11.977  1.00  0.00     0.016 A 
ATOM     39  C   UNL     1       5.673 -12.233 -10.862  1.00  0.00     0.016 A 
ATOM     40  C   UNL     1       4.180 -11.870 -13.216  1.00  0.00     0.010 A 
ATOM     41  C   UNL     1       6.231 -12.543 -12.102  1.00  0.00     0.010 A 
ATOM     42  C   UNL     1       5.483 -12.377 -13.282  1.00  0.00    -0.014 A 
BRANCH  42  43
ATOM     43  C   UNL     1       6.050 -12.818 -14.576  1.00  0.00     0.031 A 
ATOM     44  C   UNL     1       6.110 -14.284 -14.893  1.00  0.00     0.074 A 
ATOM     45  C   UNL     1       6.535 -11.914 -15.444  1.00  0.00     0.049 A 
ATOM     46  N   UNL     1       6.661 -14.889 -15.913  1.00  0.00    -0.248 NA
ATOM     47  C   UNL     1       5.469 -15.189 -13.925  1.00  0.00     0.031 C 
ATOM     48  C   UNL     1       6.499 -10.463 -15.260  1.00  0.00     0.029 A 
ATOM     49  N   UNL     1       7.176 -12.088 -16.644  1.00  0.00    -0.354 N 
ATOM     50  C   UNL     1       6.450 -16.245 -15.703  1.00  0.00     0.074 A 
ATOM     51  C   UNL     1       5.741 -16.375 -14.448  1.00  0.00     0.031 C 
ATOM     52  C   UNL     1       7.113  -9.878 -16.302  1.00  0.00     0.029 A 
ATOM     53  C   UNL     1       7.623 -10.913 -17.198  1.00  0.00     0.049 A 
ATOM     54  H   UNL     1       7.303 -12.968 -17.067  1.00  0.00     0.167 HD
ATOM     55  C   UNL     1       6.818 -17.287 -16.486  1.00  0.00     0.031 A 
ATOM     56  C   UNL     1       8.391 -10.700 -18.284  1.00  0.00     0.031 A 
ATOM     57  C   UNL     1       7.544 -17.149 -17.722  1.00  0.00     0.049 A 
ATOM     58  C   UNL     1       8.860 -11.878 -19.094  1.00  0.00     0.074 A 
ATOM     59  C   UNL     1       7.940 -18.138 -18.605  1.00  0.00     0.029 A 
ATOM     60  N   UNL     1       7.998 -15.945 -18.239  1.00  0.00    -0.354 N 
ATOM     61  N   UNL     1       8.621 -13.155 -18.911  1.00  0.00    -0.248 NA
ATOM     62  C   UNL     1       9.703 -11.585 -20.262  1.00  0.00     0.031 C 
ATOM     63  C   UNL     1       8.695 -17.540 -19.619  1.00  0.00     0.029 A 
ATOM     64  C   UNL     1       8.708 -16.171 -19.406  1.00  0.00     0.049 A 
ATOM     65  H   UNL     1       7.840 -15.061 -17.836  1.00  0.00     0.167 HD
ATOM     66  C   UNL     1       9.264 -13.815 -19.951  1.00  0.00     0.074 A 
ATOM     67  C   UNL     1       9.888 -12.796 -20.770  1.00  0.00     0.031 C 
ATOM     68  C   UNL     1       9.331 -15.145 -20.205  1.00  0.00     0.031 A 
BRANCH  55  69
ATOM     69  C   UNL     1       6.485 -18.671 -15.999  1.00  0.00    -0.014 A 
ATOM     70  C   UNL     1       5.160 -19.135 -15.950  1.00  0.00     0.009 A 
ATOM     71  C   UNL     1       7.519 -19.533 -15.602  1.00  0.00     0.009 A 
ATOM     72  C   UNL     1       4.877 -20.417 -15.473  1.00  0.00     0.001 A 
ATOM     73  C   UNL     1       7.236 -20.825 -15.156  1.00  0.00     0.001 A 
ATOM     74  C   UNL     1       5.915 -21.262 -15.080  1.00  0.00     0.000 A 
ENDBRANCH  55  69
BRANCH  56  75
ATOM     75  C   UNL     1       8.797  -9.316 -18.640  1.00  0.00    -0.014 A 
ATOM     76  C   UNL     1       8.299  -8.695 -19.795  1.00  0.00     0.009 A 
ATOM     77  C   UNL     1       9.689  -8.605 -17.820  1.00  0.00     0.009 A 
ATOM     78  C   UNL     1       8.699  -7.399 -20.130  1.00  0.00     0.001 A 
ATOM     79  C   UNL     1      10.063  -7.299 -18.140  1.00  0.00     0.001 A 
ATOM     80  C   UNL     1       9.575  -6.700 -19.299  1.00  0.00     0.000 A 
ENDBRANCH  56  75
BRANCH  68  81
ATOM     81  C   UNL     1      10.085 -15.578 -21.433  1.00  0.00    -0.014 A 
ATOM     82  C   UNL     1      11.486 -15.507 -21.492  1.00  0.00     0.009 A 
ATOM     83  C   UNL     1       9.386 -16.118 -22.524  1.00  0.00     0.009 A 
ATOM     84  C   UNL     1      12.167 -15.943 -22.630  1.00  0.00     0.001 A 
ATOM     85  C   UNL     1      10.071 -16.583 -23.647  1.00  0.00     0.001 A 
ATOM     86  C   UNL     1      11.460 -16.487 -23.703  1.00  0.00     0.000 A 
ENDBRANCH  68  81
ENDBRANCH  42  43
ENDBRANCH  35  37
ENDBRANCH  34  35
ENDBRANCH  33  34
ENDBRANCH  32  33
ENDBRANCH   1  32
TORSDOF 17
