REMARK SMILES O=C(OCCOCCOC(=O)[C@H]1CCCN(c2cc(-c3ccccn3)nc(-c3ccccc3F)n2)C1)c1ccc(-c2c3nc(c(-c4ccccc4)c4ccc([nH]4)c(-c4ccccc4)c4nc(c(-c5ccccc5)c5ccc2[nH]5)C=C4)C=C3)cc1
REMARK SMILES IDX 6 1 5 2 4 3 3 4 2 5 1 6 37 7 38 8 84 9 39 10 83 11 40 12
REMARK SMILES IDX 41 13 42 14 77 15 43 16 82 17 76 18 78 19 44 20 81 21 75 22
REMARK SMILES IDX 74 23 45 25 67 26 52 27 66 28 53 29 56 30 65 31 79 32 54 33
REMARK SMILES IDX 55 34 64 36 80 37 57 38 46 39 47 40 51 41 48 42 50 43 49 44
REMARK SMILES IDX 68 45 69 46 73 47 70 48 72 49 71 50 58 51 59 52 63 53 60 54
REMARK SMILES IDX 62 55 61 56 7 57 8 58 9 59 10 60 11 61 12 62 13 63 36 64
REMARK SMILES IDX 14 65 16 66 15 67 17 68 18 69 35 70 19 71 27 72 26 73 20 74
REMARK SMILES IDX 21 75 25 76 22 77 24 78 23 79 28 80 29 81 33 82 30 83 32 84
REMARK SMILES IDX 34 85 31 86
REMARK H PARENT 78 24 56 35
REMARK Flexibility Score: inf
ROOT
ATOM      1  O   UNL     1       6.831  -2.968   4.674  1.00  0.00    -0.374 OA
ENDROOT
BRANCH   1   2
ATOM      2  C   UNL     1       7.369  -1.803   4.056  1.00  0.00     0.202 C 
BRANCH   2   3
ATOM      3  C   UNL     1       8.889  -1.690   3.962  1.00  0.00     0.261 C 
BRANCH   3   4
ATOM      4  O   UNL     1       9.416  -2.786   3.190  1.00  0.00    -0.460 OA
BRANCH   4   5
ATOM      5  C   UNL     1      10.061  -3.871   3.676  1.00  0.00     0.338 C 
ATOM      6  O   UNL     1      10.456  -4.761   2.924  1.00  0.00    -0.246 OA
BRANCH   5   7
ATOM      7  C   UNL     1      10.357  -3.967   5.120  1.00  0.00     0.060 A 
ATOM      8  C   UNL     1       9.393  -3.679   6.078  1.00  0.00     0.016 A 
ATOM      9  C   UNL     1      11.619  -4.394   5.537  1.00  0.00     0.016 A 
ATOM     10  C   UNL     1       9.692  -3.627   7.413  1.00  0.00     0.010 A 
ATOM     11  C   UNL     1      11.891  -4.495   6.903  1.00  0.00     0.010 A 
ATOM     12  C   UNL     1      10.921  -4.100   7.836  1.00  0.00    -0.014 A 
BRANCH  12  13
ATOM     13  C   UNL     1      11.127  -4.146   9.285  1.00  0.00     0.031 A 
ATOM     14  C   UNL     1      12.109  -3.206   9.888  1.00  0.00     0.074 A 
ATOM     15  C   UNL     1      10.322  -4.935  10.022  1.00  0.00     0.049 A 
ATOM     16  N   UNL     1      12.554  -3.165  11.110  1.00  0.00    -0.248 NA
ATOM     17  C   UNL     1      12.666  -2.170   8.999  1.00  0.00     0.031 C 
ATOM     18  C   UNL     1       9.217  -5.754   9.496  1.00  0.00     0.029 A 
ATOM     19  N   UNL     1      10.273  -5.152  11.368  1.00  0.00    -0.354 N 
ATOM     20  C   UNL     1      13.499  -2.150  11.121  1.00  0.00     0.074 A 
ATOM     21  C   UNL     1      13.542  -1.577   9.797  1.00  0.00     0.031 C 
ATOM     22  C   UNL     1       8.585  -6.352  10.514  1.00  0.00     0.029 A 
ATOM     23  C   UNL     1       9.315  -6.066  11.736  1.00  0.00     0.049 A 
ATOM     24  H   UNL     1      10.865  -4.700  12.011  1.00  0.00     0.167 HD
ATOM     25  C   UNL     1      14.279  -1.776  12.158  1.00  0.00     0.031 A 
ATOM     26  C   UNL     1       9.114  -6.664  12.923  1.00  0.00     0.031 A 
ATOM     27  C   UNL     1      14.184  -2.389  13.453  1.00  0.00     0.049 A 
ATOM     28  C   UNL     1      10.066  -6.305  14.026  1.00  0.00     0.074 A 
ATOM     29  C   UNL     1      14.941  -2.153  14.583  1.00  0.00     0.029 A 
ATOM     30  N   UNL     1      13.257  -3.373  13.781  1.00  0.00    -0.354 N 
ATOM     31  N   UNL     1      11.024  -5.406  14.025  1.00  0.00    -0.248 NA
ATOM     32  C   UNL     1       9.940  -7.058  15.277  1.00  0.00     0.031 C 
ATOM     33  C   UNL     1      14.509  -3.038  15.577  1.00  0.00     0.029 A 
ATOM     34  C   UNL     1      13.443  -3.780  15.086  1.00  0.00     0.049 A 
ATOM     35  H   UNL     1      12.570  -3.727  13.171  1.00  0.00     0.167 HD
ATOM     36  C   UNL     1      11.615  -5.480  15.274  1.00  0.00     0.074 A 
ATOM     37  C   UNL     1      10.884  -6.492  16.016  1.00  0.00     0.031 C 
ATOM     38  C   UNL     1      12.672  -4.790  15.769  1.00  0.00     0.031 A 
BRANCH  25  39
ATOM     39  C   UNL     1      15.351  -0.766  11.878  1.00  0.00    -0.014 A 
ATOM     40  C   UNL     1      15.063   0.587  11.642  1.00  0.00     0.009 A 
ATOM     41  C   UNL     1      16.686  -1.197  11.809  1.00  0.00     0.009 A 
ATOM     42  C   UNL     1      16.087   1.478  11.309  1.00  0.00     0.001 A 
ATOM     43  C   UNL     1      17.709  -0.300  11.502  1.00  0.00     0.001 A 
ATOM     44  C   UNL     1      17.408   1.035  11.242  1.00  0.00     0.000 A 
ENDBRANCH  25  39
BRANCH  26  45
ATOM     45  C   UNL     1       8.085  -7.727  13.076  1.00  0.00    -0.014 A 
ATOM     46  C   UNL     1       7.010  -7.572  13.963  1.00  0.00     0.009 A 
ATOM     47  C   UNL     1       8.178  -8.921  12.338  1.00  0.00     0.009 A 
ATOM     48  C   UNL     1       6.073  -8.597  14.128  1.00  0.00     0.001 A 
ATOM     49  C   UNL     1       7.221  -9.928  12.476  1.00  0.00     0.001 A 
ATOM     50  C   UNL     1       6.176  -9.771  13.382  1.00  0.00     0.000 A 
ENDBRANCH  26  45
BRANCH  38  51
ATOM     51  C   UNL     1      13.062  -5.094  17.182  1.00  0.00    -0.014 A 
ATOM     52  C   UNL     1      13.738  -6.279  17.506  1.00  0.00     0.009 A 
ATOM     53  C   UNL     1      12.806  -4.147  18.184  1.00  0.00     0.009 A 
ATOM     54  C   UNL     1      14.135  -6.518  18.820  1.00  0.00     0.001 A 
ATOM     55  C   UNL     1      13.233  -4.375  19.490  1.00  0.00     0.001 A 
ATOM     56  C   UNL     1      13.891  -5.563  19.808  1.00  0.00     0.000 A 
ENDBRANCH  38  51
ENDBRANCH  12  13
ENDBRANCH   5   7
ENDBRANCH   4   5
ENDBRANCH   3   4
ENDBRANCH   2   3
ENDBRANCH   1   2
BRANCH   1  57
ATOM     57  C   UNL     1       6.639  -4.098   3.818  1.00  0.00     0.202 C 
BRANCH  57  58
ATOM     58  C   UNL     1       5.147  -4.392   3.681  1.00  0.00     0.261 C 
BRANCH  58  59
ATOM     59  O   UNL     1       4.492  -3.248   3.098  1.00  0.00    -0.463 OA
BRANCH  59  60
ATOM     60  C   UNL     1       3.971  -2.356   3.990  1.00  0.00     0.310 C 
ATOM     61  O   UNL     1       3.873  -2.547   5.195  1.00  0.00    -0.252 OA
BRANCH  60  62
ATOM     62  C   UNL     1       3.548  -1.074   3.291  1.00  0.00     0.118 C 
ATOM     63  C   UNL     1       2.803  -0.164   4.275  1.00  0.00     0.019 C 
ATOM     64  C   UNL     1       4.783  -0.358   2.758  1.00  0.00     0.133 C 
ATOM     65  C   UNL     1       2.528   1.207   3.663  1.00  0.00     0.022 C 
ATOM     66  N   UNL     1       4.497   0.990   2.277  1.00  0.00    -0.356 N 
ATOM     67  C   UNL     1       3.817   1.886   3.194  1.00  0.00     0.118 C 
BRANCH  66  68
ATOM     68  C   UNL     1       5.206   1.421   1.177  1.00  0.00     0.133 A 
ATOM     69  C   UNL     1       5.786   2.668   1.091  1.00  0.00     0.077 A 
ATOM     70  N   UNL     1       5.282   0.569   0.148  1.00  0.00    -0.211 NA
ATOM     71  C   UNL     1       6.428   2.996  -0.093  1.00  0.00     0.095 A 
ATOM     72  C   UNL     1       5.890   0.969  -0.983  1.00  0.00     0.165 A 
ATOM     73  N   UNL     1       6.493   2.152  -1.145  1.00  0.00    -0.226 NA
BRANCH  71  74
ATOM     74  C   UNL     1       7.034   4.322  -0.277  1.00  0.00     0.089 A 
ATOM     75  C   UNL     1       8.265   4.656   0.286  1.00  0.00     0.030 A 
ATOM     76  N   UNL     1       6.294   5.219  -0.980  1.00  0.00    -0.255 NA
ATOM     77  C   UNL     1       8.759   5.949   0.112  1.00  0.00     0.004 A 
ATOM     78  C   UNL     1       6.807   6.456  -1.150  1.00  0.00     0.112 A 
ATOM     79  C   UNL     1       8.019   6.867  -0.623  1.00  0.00     0.020 A 
ENDBRANCH  71  74
BRANCH  72  80
ATOM     80  C   UNL     1       5.729   0.085  -2.136  1.00  0.00     0.055 A 
ATOM     81  C   UNL     1       4.480  -0.525  -2.385  1.00  0.00     0.015 A 
ATOM     82  C   UNL     1       6.774  -0.205  -3.016  1.00  0.00     0.134 A 
ATOM     83  C   UNL     1       4.290  -1.384  -3.470  1.00  0.00     0.001 A 
ATOM     84  C   UNL     1       6.593  -1.069  -4.099  1.00  0.00     0.040 A 
ATOM     85  F   UNL     1       7.997   0.310  -2.820  1.00  0.00    -0.206 F 
ATOM     86  C   UNL     1       5.351  -1.658  -4.328  1.00  0.00     0.003 A 
ENDBRANCH  72  80
ENDBRANCH  66  68
ENDBRANCH  60  62
ENDBRANCH  59  60
ENDBRANCH  58  59
ENDBRANCH  57  58
ENDBRANCH   1  57
TORSDOF 17
