REMARK SMILES Cc1c(C(=O)OCCOCCOC(=O)c2ccc(-c3c4nc(c(-c5ccccc5)c5ccc([nH]5)c(-c5ccccc5)c5nc(c(-c6ccccc6)c6ccc3[nH]6)C=C5)C=C4)cc2)oc2c1/C(=N/NC(=O)C(c1ccccc1)c1ccccc1)CCC2
REMARK SMILES IDX 8 1 7 2 6 3 4 4 5 5 3 6 1 7 2 8 65 9 63 10 64 11 66 12 86 13
REMARK SMILES IDX 67 14 84 15 85 16 68 17 69 18 70 20 71 21 72 22 73 23 77 24
REMARK SMILES IDX 74 25 76 26 75 27 78 28 79 29 83 30 80 31 82 32 81 33 9 34
REMARK SMILES IDX 10 35 11 36 12 37 13 38 14 39 15 40 16 41 62 42 17 43 61 44
REMARK SMILES IDX 18 45 19 46 20 47 55 48 21 49 60 50 54 51 56 52 22 53 59 54
REMARK SMILES IDX 53 55 52 56 23 58 45 59 30 60 44 61 31 62 34 63 43 64 57 65
REMARK SMILES IDX 32 66 33 67 42 69 58 70 35 71 24 72 25 73 29 74 26 75 28 76
REMARK SMILES IDX 27 77 46 78 47 79 51 80 48 81 50 82 49 83 36 84 37 85 41 86
REMARK SMILES IDX 38 87 40 88 39 89
REMARK H PARENT 68 19 56 57 34 68
REMARK Flexibility Score: inf
ROOT
ATOM      1  C   UNL     1      -3.514  -0.047  -3.966  1.00  0.00     0.202 C 
ENDROOT
BRANCH   1   2
ATOM      2  C   UNL     1      -4.093   0.580  -2.695  1.00  0.00     0.261 C 
BRANCH   2   3
ATOM      3  O   UNL     1      -3.132   1.355  -1.999  1.00  0.00    -0.457 OA
BRANCH   3   4
ATOM      4  C   UNL     1      -2.405   0.721  -1.043  1.00  0.00     0.374 C 
ATOM      5  O   UNL     1      -2.626  -0.405  -0.589  1.00  0.00    -0.242 OA
BRANCH   4   6
ATOM      6  C   UNL     1      -1.261   1.540  -0.771  1.00  0.00     0.215 A 
ATOM      7  C   UNL     1       0.645   0.003   0.047  1.00  0.00     0.049 C 
ATOM      8  C   UNL     1       0.027   1.309  -0.287  1.00  0.00     0.012 A 
ATOM      9  C   UNL     1       0.566   2.610  -0.085  1.00  0.00     0.043 A 
ATOM     10  O   UNL     1      -1.416   2.847  -1.111  1.00  0.00    -0.453 OA
ATOM     11  C   UNL     1      -0.338   3.482  -0.673  1.00  0.00     0.114 A 
ATOM     12  C   UNL     1       1.665   3.155   0.711  1.00  0.00     0.072 C 
ATOM     13  C   UNL     1      -0.432   4.952  -0.681  1.00  0.00     0.076 C 
ATOM     14  N   UNL     1       2.626   2.348   1.074  1.00  0.00    -0.177 NA
ATOM     15  C   UNL     1       1.282   4.579   1.061  1.00  0.00     0.059 C 
ATOM     16  C   UNL     1       0.823   5.492  -0.063  1.00  0.00     0.014 C 
BRANCH  14  17
ATOM     17  N   UNL     1       3.789   2.464   1.843  1.00  0.00    -0.246 N 
ATOM     18  C   UNL     1       4.550   3.465   2.452  1.00  0.00     0.252 C 
ATOM     19  H   UNL     1       4.189   1.578   2.002  1.00  0.00     0.193 HD
ATOM     20  O   UNL     1       5.627   3.155   2.978  1.00  0.00    -0.272 OA
BRANCH  18  21
ATOM     21  C   UNL     1       4.055   4.915   2.517  1.00  0.00     0.140 C 
BRANCH  21  22
ATOM     22  C   UNL     1       4.146   5.448   0.987  1.00  0.00    -0.031 A 
ATOM     23  C   UNL     1       3.982   6.782   0.588  1.00  0.00     0.005 A 
ATOM     24  C   UNL     1       4.372   4.541  -0.100  1.00  0.00     0.005 A 
ATOM     25  C   UNL     1       3.896   7.127  -0.792  1.00  0.00     0.000 A 
ATOM     26  C   UNL     1       4.191   4.855  -1.451  1.00  0.00     0.000 A 
ATOM     27  C   UNL     1       3.940   6.160  -1.803  1.00  0.00     0.000 A 
ENDBRANCH  21  22
BRANCH  21  28
ATOM     28  C   UNL     1       2.749   4.852   3.496  1.00  0.00    -0.031 A 
ATOM     29  C   UNL     1       1.819   5.892   3.692  1.00  0.00     0.005 A 
ATOM     30  C   UNL     1       2.371   3.598   4.073  1.00  0.00     0.005 A 
ATOM     31  C   UNL     1       0.510   5.603   4.174  1.00  0.00     0.000 A 
ATOM     32  C   UNL     1       1.065   3.298   4.475  1.00  0.00     0.000 A 
ATOM     33  C   UNL     1       0.115   4.298   4.491  1.00  0.00     0.000 A 
ENDBRANCH  21  28
ENDBRANCH  18  21
ENDBRANCH  14  17
ENDBRANCH   4   6
ENDBRANCH   3   4
ENDBRANCH   2   3
ENDBRANCH   1   2
BRANCH   1  34
ATOM     34  O   UNL     1      -2.385  -0.917  -3.858  1.00  0.00    -0.374 OA
BRANCH  34  35
ATOM     35  C   UNL     1      -1.078  -0.392  -3.649  1.00  0.00     0.202 C 
BRANCH  35  36
ATOM     36  C   UNL     1      -0.379   0.369  -4.756  1.00  0.00     0.261 C 
BRANCH  36  37
ATOM     37  O   UNL     1      -1.133   1.493  -5.164  1.00  0.00    -0.460 OA
BRANCH  37  38
ATOM     38  C   UNL     1      -1.811   1.310  -6.315  1.00  0.00     0.338 C 
ATOM     39  O   UNL     1      -2.087   0.256  -6.864  1.00  0.00    -0.246 OA
BRANCH  38  40
ATOM     40  C   UNL     1      -2.023   2.630  -6.904  1.00  0.00     0.060 A 
ATOM     41  C   UNL     1      -2.734   2.697  -8.097  1.00  0.00     0.016 A 
ATOM     42  C   UNL     1      -1.306   3.728  -6.419  1.00  0.00     0.016 A 
ATOM     43  C   UNL     1      -2.389   3.701  -8.977  1.00  0.00     0.010 A 
ATOM     44  C   UNL     1      -1.128   4.806  -7.237  1.00  0.00     0.010 A 
ATOM     45  C   UNL     1      -1.442   4.656  -8.577  1.00  0.00    -0.014 A 
BRANCH  45  46
ATOM     46  C   UNL     1      -0.965   5.687  -9.481  1.00  0.00     0.031 A 
ATOM     47  C   UNL     1      -2.093   6.593  -9.788  1.00  0.00     0.074 A 
ATOM     48  C   UNL     1       0.323   5.842  -9.886  1.00  0.00     0.049 A 
ATOM     49  N   UNL     1      -2.800   6.542 -10.864  1.00  0.00    -0.248 NA
ATOM     50  C   UNL     1      -2.708   7.388  -8.709  1.00  0.00     0.031 C 
ATOM     51  C   UNL     1       1.534   5.074  -9.555  1.00  0.00     0.029 A 
ATOM     52  N   UNL     1       0.831   6.803 -10.718  1.00  0.00    -0.354 N 
ATOM     53  C   UNL     1      -3.782   7.506 -10.708  1.00  0.00     0.074 A 
ATOM     54  C   UNL     1      -3.821   7.822  -9.306  1.00  0.00     0.031 C 
ATOM     55  C   UNL     1       2.643   5.734  -9.989  1.00  0.00     0.029 A 
ATOM     56  C   UNL     1       2.231   6.895 -10.756  1.00  0.00     0.049 A 
ATOM     57  H   UNL     1       0.252   7.391 -11.255  1.00  0.00     0.167 HD
ATOM     58  C   UNL     1      -4.223   8.190 -11.796  1.00  0.00     0.031 A 
ATOM     59  C   UNL     1       2.985   7.807 -11.444  1.00  0.00     0.031 A 
ATOM     60  C   UNL     1      -3.823   7.522 -13.012  1.00  0.00     0.049 A 
ATOM     61  C   UNL     1       2.126   8.313 -12.542  1.00  0.00     0.074 A 
ATOM     62  C   UNL     1      -4.125   6.322 -13.618  1.00  0.00     0.029 A 
ATOM     63  N   UNL     1      -2.613   7.926 -13.521  1.00  0.00    -0.354 N 
ATOM     64  N   UNL     1       1.742   7.543 -13.520  1.00  0.00    -0.248 NA
ATOM     65  C   UNL     1       1.259   9.440 -12.240  1.00  0.00     0.031 C 
ATOM     66  C   UNL     1      -2.887   5.854 -14.153  1.00  0.00     0.029 A 
ATOM     67  C   UNL     1      -1.911   6.833 -13.956  1.00  0.00     0.049 A 
ATOM     68  H   UNL     1      -2.298   8.858 -13.567  1.00  0.00     0.167 HD
ATOM     69  C   UNL     1       0.382   7.787 -13.637  1.00  0.00     0.074 A 
ATOM     70  C   UNL     1       0.150   9.006 -12.851  1.00  0.00     0.031 C 
ATOM     71  C   UNL     1      -0.469   6.808 -14.070  1.00  0.00     0.031 A 
BRANCH  58  72
ATOM     72  C   UNL     1      -4.494   9.672 -11.763  1.00  0.00    -0.014 A 
ATOM     73  C   UNL     1      -4.947  10.285 -12.943  1.00  0.00     0.009 A 
ATOM     74  C   UNL     1      -4.030  10.523 -10.741  1.00  0.00     0.009 A 
ATOM     75  C   UNL     1      -4.874  11.671 -13.114  1.00  0.00     0.001 A 
ATOM     76  C   UNL     1      -3.984  11.910 -10.898  1.00  0.00     0.001 A 
ATOM     77  C   UNL     1      -4.384  12.482 -12.095  1.00  0.00     0.000 A 
ENDBRANCH  58  72
BRANCH  59  78
ATOM     78  C   UNL     1       4.171   8.588 -10.976  1.00  0.00    -0.014 A 
ATOM     79  C   UNL     1       5.005   9.311 -11.856  1.00  0.00     0.009 A 
ATOM     80  C   UNL     1       4.311   8.863  -9.604  1.00  0.00     0.009 A 
ATOM     81  C   UNL     1       5.932  10.261 -11.377  1.00  0.00     0.001 A 
ATOM     82  C   UNL     1       5.224   9.817  -9.128  1.00  0.00     0.001 A 
ATOM     83  C   UNL     1       6.034  10.520 -10.013  1.00  0.00     0.000 A 
ENDBRANCH  59  78
BRANCH  71  84
ATOM     84  C   UNL     1       0.143   5.522 -14.584  1.00  0.00    -0.014 A 
ATOM     85  C   UNL     1       0.800   4.575 -13.772  1.00  0.00     0.009 A 
ATOM     86  C   UNL     1      -0.088   5.193 -15.925  1.00  0.00     0.009 A 
ATOM     87  C   UNL     1       1.232   3.350 -14.304  1.00  0.00     0.001 A 
ATOM     88  C   UNL     1       0.324   3.967 -16.449  1.00  0.00     0.001 A 
ATOM     89  C   UNL     1       0.991   3.048 -15.643  1.00  0.00     0.000 A 
ENDBRANCH  71  84
ENDBRANCH  45  46
ENDBRANCH  38  40
ENDBRANCH  37  38
ENDBRANCH  36  37
ENDBRANCH  35  36
ENDBRANCH  34  35
ENDBRANCH   1  34
TORSDOF 18
