REMARK SMILES CC(C)C[C@H](NC(=O)CNC(=O)[C@@H](NC(=O)OCc1ccccc1)C(C)C)C(=O)OCCOCCOC(=O)c1ccc(-c2c3nc(c(-c4ccccc4)c4ccc([nH]4)c(-c4ccccc4)c4nc(c(-c5ccccc5)c5ccc2[nH]5)C=C4)C=C3)cc1
REMARK SMILES IDX 30 1 28 2 29 3 5 4 4 5 2 6 1 7 3 8 6 9 7 10 8 12 9 13 10 14
REMARK SMILES IDX 11 15 12 17 13 18 14 19 15 20 16 22 17 23 18 24 19 25 20 26
REMARK SMILES IDX 24 27 21 28 23 29 22 30 25 31 26 32 27 33 31 34 32 35 33 36
REMARK SMILES IDX 34 37 35 38 36 39 37 40 38 41 39 42 40 43 86 44 41 45 85 46
REMARK SMILES IDX 42 47 43 48 44 49 79 50 45 51 84 52 78 53 80 54 46 55 83 56
REMARK SMILES IDX 77 57 76 58 47 60 69 61 54 62 68 63 55 64 58 65 67 66 81 67
REMARK SMILES IDX 56 68 57 69 66 71 82 72 59 73 48 74 49 75 53 76 50 77 52 78
REMARK SMILES IDX 51 79 70 80 71 81 75 82 72 83 74 84 73 85 60 86 61 87 65 88
REMARK SMILES IDX 62 89 64 90 63 91
REMARK H PARENT 6 11 10 16 14 21 80 59 58 70
REMARK Flexibility Score: inf
ROOT
ATOM      1  O   UNL     1      -3.669  -0.723  -2.432  1.00  0.00    -0.462 OA
ENDROOT
BRANCH   1   2
ATOM      2  C   UNL     1      -2.935   0.410  -2.280  1.00  0.00     0.328 C 
ATOM      3  O   UNL     1      -3.389   1.550  -2.274  1.00  0.00    -0.250 OA
BRANCH   2   4
ATOM      4  C   UNL     1      -1.427   0.157  -2.198  1.00  0.00     0.192 C 
BRANCH   4   5
ATOM      5  C   UNL     1      -0.836  -0.013  -3.600  1.00  0.00     0.040 C 
BRANCH   5   6
ATOM      6  C   UNL     1      -1.085   1.196  -4.527  1.00  0.00    -0.015 C 
ATOM      7  C   UNL     1      -0.558   2.507  -3.941  1.00  0.00     0.007 C 
ATOM      8  C   UNL     1      -0.448   0.949  -5.892  1.00  0.00     0.007 C 
ENDBRANCH   5   6
ENDBRANCH   4   5
BRANCH   4   9
ATOM      9  N   UNL     1      -1.046  -0.944  -1.327  1.00  0.00    -0.341 N 
ATOM     10  C   UNL     1      -0.178  -0.971  -0.277  1.00  0.00     0.240 C 
ATOM     11  H   UNL     1      -1.484  -1.803  -1.527  1.00  0.00     0.164 HD
ATOM     12  O   UNL     1      -0.089  -2.044   0.333  1.00  0.00    -0.273 OA
BRANCH  10  13
ATOM     13  C   UNL     1       0.624   0.257   0.241  1.00  0.00     0.216 C 
BRANCH  13  14
ATOM     14  N   UNL     1       0.917   1.428  -0.576  1.00  0.00    -0.345 N 
ATOM     15  C   UNL     1       0.524   2.731  -0.550  1.00  0.00     0.243 C 
ATOM     16  H   UNL     1       1.541   1.233  -1.312  1.00  0.00     0.164 HD
ATOM     17  O   UNL     1       1.222   3.491  -1.236  1.00  0.00    -0.273 OA
BRANCH  15  18
ATOM     18  C   UNL     1      -0.707   3.308   0.228  1.00  0.00     0.177 C 
BRANCH  18  19
ATOM     19  N   UNL     1      -1.688   2.280   0.561  1.00  0.00    -0.309 N 
ATOM     20  C   UNL     1      -1.911   1.601   1.713  1.00  0.00     0.408 C 
ATOM     21  H   UNL     1      -2.292   2.038  -0.178  1.00  0.00     0.167 HD
ATOM     22  O   UNL     1      -2.279   0.439   1.666  1.00  0.00    -0.225 OA
BRANCH  20  23
ATOM     23  O   UNL     1      -1.788   2.325   2.841  1.00  0.00    -0.445 OA
BRANCH  23  24
ATOM     24  C   UNL     1      -2.393   1.724   3.996  1.00  0.00     0.270 C 
BRANCH  24  25
ATOM     25  C   UNL     1      -3.883   1.992   4.118  1.00  0.00    -0.011 A 
ATOM     26  C   UNL     1      -4.625   2.684   3.148  1.00  0.00     0.007 A 
ATOM     27  C   UNL     1      -4.564   1.513   5.249  1.00  0.00     0.007 A 
ATOM     28  C   UNL     1      -5.997   2.893   3.300  1.00  0.00     0.000 A 
ATOM     29  C   UNL     1      -5.936   1.730   5.406  1.00  0.00     0.000 A 
ATOM     30  C   UNL     1      -6.652   2.420   4.432  1.00  0.00     0.000 A 
ENDBRANCH  24  25
ENDBRANCH  23  24
ENDBRANCH  20  23
ENDBRANCH  18  19
BRANCH  18  31
ATOM     31  C   UNL     1      -0.364   4.310   1.358  1.00  0.00     0.015 C 
ATOM     32  C   UNL     1       0.719   5.326   0.981  1.00  0.00     0.010 C 
ATOM     33  C   UNL     1      -1.610   5.113   1.775  1.00  0.00     0.010 C 
ENDBRANCH  18  31
ENDBRANCH  15  18
ENDBRANCH  13  14
ENDBRANCH  10  13
ENDBRANCH   4   9
ENDBRANCH   2   4
ENDBRANCH   1   2
BRANCH   1  34
ATOM     34  C   UNL     1      -5.079  -0.505  -2.650  1.00  0.00     0.261 C 
BRANCH  34  35
ATOM     35  C   UNL     1      -5.936  -0.967  -1.471  1.00  0.00     0.202 C 
BRANCH  35  36
ATOM     36  O   UNL     1      -5.900  -0.172  -0.289  1.00  0.00    -0.374 OA
BRANCH  36  37
ATOM     37  C   UNL     1      -4.721  -0.243   0.510  1.00  0.00     0.202 C 
BRANCH  37  38
ATOM     38  C   UNL     1      -4.587  -1.420   1.484  1.00  0.00     0.261 C 
BRANCH  38  39
ATOM     39  O   UNL     1      -4.733  -2.674   0.821  1.00  0.00    -0.460 OA
BRANCH  39  40
ATOM     40  C   UNL     1      -5.939  -3.251   1.000  1.00  0.00     0.338 C 
ATOM     41  O   UNL     1      -6.857  -2.893   1.718  1.00  0.00    -0.246 OA
BRANCH  40  42
ATOM     42  C   UNL     1      -6.055  -4.321   0.007  1.00  0.00     0.060 A 
ATOM     43  C   UNL     1      -7.196  -4.323  -0.805  1.00  0.00     0.016 A 
ATOM     44  C   UNL     1      -5.056  -5.288  -0.127  1.00  0.00     0.016 A 
ATOM     45  C   UNL     1      -7.376  -5.343  -1.725  1.00  0.00     0.010 A 
ATOM     46  C   UNL     1      -5.242  -6.316  -1.041  1.00  0.00     0.010 A 
ATOM     47  C   UNL     1      -6.424  -6.366  -1.801  1.00  0.00    -0.014 A 
BRANCH  47  48
ATOM     48  C   UNL     1      -6.765  -7.618  -2.493  1.00  0.00     0.031 A 
ATOM     49  C   UNL     1      -7.274  -8.753  -1.657  1.00  0.00     0.074 A 
ATOM     50  C   UNL     1      -6.600  -7.731  -3.818  1.00  0.00     0.049 A 
ATOM     51  N   UNL     1      -7.538  -9.983  -2.004  1.00  0.00    -0.248 NA
ATOM     52  C   UNL     1      -7.502  -8.462  -0.230  1.00  0.00     0.031 C 
ATOM     53  C   UNL     1      -6.150  -6.662  -4.709  1.00  0.00     0.029 A 
ATOM     54  N   UNL     1      -6.776  -8.811  -4.638  1.00  0.00    -0.354 N 
ATOM     55  C   UNL     1      -7.939 -10.618  -0.835  1.00  0.00     0.074 A 
ATOM     56  C   UNL     1      -7.858  -9.649   0.233  1.00  0.00     0.031 C 
ATOM     57  C   UNL     1      -6.064  -7.151  -5.958  1.00  0.00     0.029 A 
ATOM     58  C   UNL     1      -6.414  -8.569  -5.938  1.00  0.00     0.049 A 
ATOM     59  H   UNL     1      -7.127  -9.676  -4.326  1.00  0.00     0.167 HD
ATOM     60  C   UNL     1      -8.335 -11.900  -0.672  1.00  0.00     0.031 A 
ATOM     61  C   UNL     1      -6.345  -9.416  -6.981  1.00  0.00     0.031 A 
ATOM     62  C   UNL     1      -8.382 -12.852  -1.747  1.00  0.00     0.049 A 
ATOM     63  C   UNL     1      -6.732 -10.853  -6.769  1.00  0.00     0.074 A 
ATOM     64  C   UNL     1      -8.778 -14.175  -1.715  1.00  0.00     0.029 A 
ATOM     65  N   UNL     1      -8.004 -12.573  -3.054  1.00  0.00    -0.354 N 
ATOM     66  N   UNL     1      -7.133 -11.446  -5.668  1.00  0.00    -0.248 NA
ATOM     67  C   UNL     1      -6.668 -11.736  -7.940  1.00  0.00     0.031 C 
ATOM     68  C   UNL     1      -8.585 -14.713  -2.992  1.00  0.00     0.029 A 
ATOM     69  C   UNL     1      -8.134 -13.706  -3.834  1.00  0.00     0.049 A 
ATOM     70  H   UNL     1      -7.690 -11.697  -3.377  1.00  0.00     0.167 HD
ATOM     71  C   UNL     1      -7.400 -12.762  -6.019  1.00  0.00     0.074 A 
ATOM     72  C   UNL     1      -7.117 -12.878  -7.437  1.00  0.00     0.031 C 
ATOM     73  C   UNL     1      -7.846 -13.783  -5.245  1.00  0.00     0.031 A 
BRANCH  60  74
ATOM     74  C   UNL     1      -8.683 -12.339   0.723  1.00  0.00    -0.014 A 
ATOM     75  C   UNL     1      -9.818 -11.847   1.389  1.00  0.00     0.009 A 
ATOM     76  C   UNL     1      -7.846 -13.244   1.393  1.00  0.00     0.009 A 
ATOM     77  C   UNL     1     -10.078 -12.213   2.711  1.00  0.00     0.001 A 
ATOM     78  C   UNL     1      -8.126 -13.635   2.703  1.00  0.00     0.001 A 
ATOM     79  C   UNL     1      -9.234 -13.109   3.366  1.00  0.00     0.000 A 
ENDBRANCH  60  74
BRANCH  61  80
ATOM     80  C   UNL     1      -5.881  -8.917  -8.300  1.00  0.00    -0.014 A 
ATOM     81  C   UNL     1      -6.782  -8.762  -9.363  1.00  0.00     0.009 A 
ATOM     82  C   UNL     1      -4.538  -8.550  -8.489  1.00  0.00     0.009 A 
ATOM     83  C   UNL     1      -6.345  -8.261 -10.592  1.00  0.00     0.001 A 
ATOM     84  C   UNL     1      -4.111  -8.024  -9.710  1.00  0.00     0.001 A 
ATOM     85  C   UNL     1      -5.013  -7.886 -10.762  1.00  0.00     0.000 A 
ENDBRANCH  61  80
BRANCH  73  86
ATOM     86  C   UNL     1      -8.106 -15.097  -5.923  1.00  0.00    -0.014 A 
ATOM     87  C   UNL     1      -7.055 -15.931  -6.330  1.00  0.00     0.009 A 
ATOM     88  C   UNL     1      -9.430 -15.536  -6.083  1.00  0.00     0.009 A 
ATOM     89  C   UNL     1      -7.329 -17.172  -6.910  1.00  0.00     0.001 A 
ATOM     90  C   UNL     1      -9.699 -16.788  -6.635  1.00  0.00     0.001 A 
ATOM     91  C   UNL     1      -8.648 -17.602  -7.054  1.00  0.00     0.000 A 
ENDBRANCH  73  86
ENDBRANCH  47  48
ENDBRANCH  40  42
ENDBRANCH  39  40
ENDBRANCH  38  39
ENDBRANCH  37  38
ENDBRANCH  36  37
ENDBRANCH  35  36
ENDBRANCH  34  35
ENDBRANCH   1  34
TORSDOF 25
