REMARK SMILES O=C(C[C@@H](C(=O)N(c1ccccc1)c1ccccc1)[NH+]1CCOCC1)OCCOCCOC(=O)c1ccc(-c2c3nc(c(-c4ccccc4)c4ccc([nH]4)c(-c4ccccc4)c4nc(c(-c5ccccc5)c5ccc2[nH]5)C=C4)C=C3)cc1
REMARK SMILES IDX 28 1 27 2 26 3 2 4 1 5 3 6 4 7 5 8 6 9 7 10 8 11 9 12 13 13
REMARK SMILES IDX 10 14 12 15 11 16 14 17 15 18 19 19 16 20 18 21 17 22 20 23
REMARK SMILES IDX 21 24 25 25 22 27 24 28 23 29 29 30 30 31 31 32 32 33 33 34
REMARK SMILES IDX 34 35 35 36 36 37 82 38 37 39 81 40 38 41 39 42 40 43 75 44
REMARK SMILES IDX 41 45 80 46 74 47 76 48 42 49 79 50 73 51 72 52 43 54 65 55
REMARK SMILES IDX 50 56 64 57 51 58 54 59 63 60 77 61 52 62 53 63 62 65 78 66
REMARK SMILES IDX 55 67 44 68 45 69 49 70 46 71 48 72 47 73 66 74 67 75 71 76
REMARK SMILES IDX 68 77 70 78 69 79 56 80 57 81 61 82 58 83 60 84 59 85
REMARK H PARENT 20 26 76 53 54 64
REMARK Flexibility Score: inf
ROOT
ATOM      1  C   UNL     1       5.050   0.610   1.686  1.00  0.00     0.202 C 
ENDROOT
BRANCH   1   2
ATOM      2  C   UNL     1       3.996   1.159   0.718  1.00  0.00     0.261 C 
BRANCH   2   3
ATOM      3  O   UNL     1       2.666   0.613   0.741  1.00  0.00    -0.463 OA
BRANCH   3   4
ATOM      4  C   UNL     1       2.265  -0.660   0.631  1.00  0.00     0.312 C 
ATOM      5  O   UNL     1       1.066  -0.925   0.724  1.00  0.00    -0.252 OA
BRANCH   4   6
ATOM      6  C   UNL     1       3.258  -1.764   0.465  1.00  0.00     0.198 C 
BRANCH   6   7
ATOM      7  C   UNL     1       3.933  -2.048  -0.891  1.00  0.00     0.286 C 
BRANCH   7   8
ATOM      8  C   UNL     1       4.673  -0.840  -1.544  1.00  0.00     0.290 C 
ATOM      9  O   UNL     1       5.798  -0.558  -1.088  1.00  0.00    -0.267 OA
ATOM     10  N   UNL     1       4.150  -0.000  -2.567  1.00  0.00    -0.276 N 
BRANCH  10  11
ATOM     11  C   UNL     1       2.764   0.329  -2.889  1.00  0.00     0.049 A 
ATOM     12  C   UNL     1       2.446   1.350  -3.814  1.00  0.00     0.027 A 
ATOM     13  C   UNL     1       1.659  -0.232  -2.255  1.00  0.00     0.027 A 
ATOM     14  C   UNL     1       1.181   1.957  -3.865  1.00  0.00     0.002 A 
ATOM     15  C   UNL     1       0.394   0.380  -2.270  1.00  0.00     0.002 A 
ATOM     16  C   UNL     1       0.167   1.509  -3.038  1.00  0.00     0.000 A 
ENDBRANCH  10  11
BRANCH  10  17
ATOM     17  C   UNL     1       5.152   0.936  -3.081  1.00  0.00     0.049 A 
ATOM     18  C   UNL     1       5.081   2.313  -2.798  1.00  0.00     0.027 A 
ATOM     19  C   UNL     1       6.327   0.445  -3.674  1.00  0.00     0.027 A 
ATOM     20  C   UNL     1       6.147   3.160  -3.112  1.00  0.00     0.002 A 
ATOM     21  C   UNL     1       7.395   1.298  -3.974  1.00  0.00     0.002 A 
ATOM     22  C   UNL     1       7.303   2.656  -3.694  1.00  0.00     0.000 A 
ENDBRANCH  10  17
ENDBRANCH   7   8
BRANCH   7  23
ATOM     23  N   UNL     1       4.830  -3.196  -0.467  1.00  0.00    -0.320 N 
ATOM     24  C   UNL     1       6.292  -3.140  -0.626  1.00  0.00     0.291 C 
ATOM     25  C   UNL     1       4.369  -4.515  -0.923  1.00  0.00     0.291 C 
ATOM     26  H   UNL     1       4.703  -3.048   0.534  1.00  0.00     0.348 HD
ATOM     27  C   UNL     1       6.721  -3.414  -2.070  1.00  0.00     0.221 C 
ATOM     28  C   UNL     1       4.837  -4.826  -2.352  1.00  0.00     0.221 C 
ATOM     29  O   UNL     1       6.260  -4.708  -2.491  1.00  0.00    -0.370 OA
ENDBRANCH   7  23
ENDBRANCH   6   7
ENDBRANCH   4   6
ENDBRANCH   3   4
ENDBRANCH   2   3
ENDBRANCH   1   2
BRANCH   1  30
ATOM     30  O   UNL     1       4.817   0.598   3.090  1.00  0.00    -0.374 OA
BRANCH  30  31
ATOM     31  C   UNL     1       3.494   0.608   3.589  1.00  0.00     0.202 C 
BRANCH  31  32
ATOM     32  C   UNL     1       2.952   2.013   3.890  1.00  0.00     0.261 C 
BRANCH  32  33
ATOM     33  O   UNL     1       3.302   3.018   2.928  1.00  0.00    -0.460 OA
BRANCH  33  34
ATOM     34  C   UNL     1       4.554   3.538   3.034  1.00  0.00     0.338 C 
ATOM     35  O   UNL     1       5.400   3.290   3.869  1.00  0.00    -0.246 OA
BRANCH  34  36
ATOM     36  C   UNL     1       4.783   4.446   1.887  1.00  0.00     0.060 A 
ATOM     37  C   UNL     1       5.944   4.314   1.111  1.00  0.00     0.016 A 
ATOM     38  C   UNL     1       3.868   5.467   1.626  1.00  0.00     0.016 A 
ATOM     39  C   UNL     1       6.227   5.255   0.117  1.00  0.00     0.010 A 
ATOM     40  C   UNL     1       4.158   6.414   0.647  1.00  0.00     0.010 A 
ATOM     41  C   UNL     1       5.361   6.341  -0.075  1.00  0.00    -0.014 A 
BRANCH  41  42
ATOM     42  C   UNL     1       5.805   7.546  -0.814  1.00  0.00     0.031 A 
ATOM     43  C   UNL     1       6.425   8.660  -0.019  1.00  0.00     0.074 A 
ATOM     44  C   UNL     1       5.600   7.689  -2.133  1.00  0.00     0.049 A 
ATOM     45  N   UNL     1       6.728   9.876  -0.392  1.00  0.00    -0.248 NA
ATOM     46  C   UNL     1       6.692   8.375   1.400  1.00  0.00     0.031 C 
ATOM     47  C   UNL     1       4.990   6.690  -2.999  1.00  0.00     0.029 A 
ATOM     48  N   UNL     1       5.880   8.739  -2.971  1.00  0.00    -0.354 N 
ATOM     49  C   UNL     1       7.166  10.518   0.759  1.00  0.00     0.074 A 
ATOM     50  C   UNL     1       7.092   9.557   1.838  1.00  0.00     0.031 C 
ATOM     51  C   UNL     1       5.000   7.143  -4.264  1.00  0.00     0.029 A 
ATOM     52  C   UNL     1       5.510   8.513  -4.275  1.00  0.00     0.049 A 
ATOM     53  H   UNL     1       6.304   9.574  -2.668  1.00  0.00     0.167 HD
ATOM     54  C   UNL     1       7.566  11.802   0.908  1.00  0.00     0.031 A 
ATOM     55  C   UNL     1       5.529   9.336  -5.342  1.00  0.00     0.031 A 
ATOM     56  C   UNL     1       7.606  12.757  -0.166  1.00  0.00     0.049 A 
ATOM     57  C   UNL     1       5.960  10.767  -5.152  1.00  0.00     0.074 A 
ATOM     58  C   UNL     1       8.002  14.081  -0.128  1.00  0.00     0.029 A 
ATOM     59  N   UNL     1       7.222  12.489  -1.472  1.00  0.00    -0.354 N 
ATOM     60  N   UNL     1       6.371  11.369  -4.061  1.00  0.00    -0.248 NA
ATOM     61  C   UNL     1       5.900  11.641  -6.333  1.00  0.00     0.031 C 
ATOM     62  C   UNL     1       7.799  14.632  -1.397  1.00  0.00     0.029 A 
ATOM     63  C   UNL     1       7.352  13.630  -2.245  1.00  0.00     0.049 A 
ATOM     64  H   UNL     1       6.904  11.617  -1.801  1.00  0.00     0.167 HD
ATOM     65  C   UNL     1       6.633  12.684  -4.426  1.00  0.00     0.074 A 
ATOM     66  C   UNL     1       6.350  12.789  -5.843  1.00  0.00     0.031 C 
ATOM     67  C   UNL     1       7.068  13.713  -3.656  1.00  0.00     0.031 A 
BRANCH  54  68
ATOM     68  C   UNL     1       7.909  12.255   2.301  1.00  0.00    -0.014 A 
ATOM     69  C   UNL     1       9.030  11.758   2.986  1.00  0.00     0.009 A 
ATOM     70  C   UNL     1       7.078  13.183   2.948  1.00  0.00     0.009 A 
ATOM     71  C   UNL     1       9.279  12.140   4.306  1.00  0.00     0.001 A 
ATOM     72  C   UNL     1       7.350  13.592   4.254  1.00  0.00     0.001 A 
ATOM     73  C   UNL     1       8.441  13.059   4.938  1.00  0.00     0.000 A 
ENDBRANCH  54  68
BRANCH  55  74
ATOM     74  C   UNL     1       5.076   8.842  -6.670  1.00  0.00    -0.014 A 
ATOM     75  C   UNL     1       5.987   8.699  -7.728  1.00  0.00     0.009 A 
ATOM     76  C   UNL     1       3.733   8.492  -6.886  1.00  0.00     0.009 A 
ATOM     77  C   UNL     1       5.562   8.223  -8.972  1.00  0.00     0.001 A 
ATOM     78  C   UNL     1       3.318   7.983  -8.117  1.00  0.00     0.001 A 
ATOM     79  C   UNL     1       4.231   7.854  -9.162  1.00  0.00     0.000 A 
ENDBRANCH  55  74
BRANCH  67  80
ATOM     80  C   UNL     1       7.323  15.031  -4.334  1.00  0.00    -0.014 A 
ATOM     81  C   UNL     1       6.273  15.852  -4.771  1.00  0.00     0.009 A 
ATOM     82  C   UNL     1       8.645  15.488  -4.466  1.00  0.00     0.009 A 
ATOM     83  C   UNL     1       6.545  17.095  -5.349  1.00  0.00     0.001 A 
ATOM     84  C   UNL     1       8.911  16.743  -5.015  1.00  0.00     0.001 A 
ATOM     85  C   UNL     1       7.862  17.542  -5.463  1.00  0.00     0.000 A 
ENDBRANCH  67  80
ENDBRANCH  41  42
ENDBRANCH  34  36
ENDBRANCH  33  34
ENDBRANCH  32  33
ENDBRANCH  31  32
ENDBRANCH  30  31
ENDBRANCH   1  30
TORSDOF 19
