REMARK SMILES CCC[C@@](C)(C/C=C/c1ccccc1)C(=O)OCCOCCOC(=O)c1ccc(-c2c3nc(c(-c4ccccc4)c4ccc([nH]4)c(-c4ccccc4)c4nc(c(-c5ccccc5)c5ccc2[nH]5)C=C4)C=C3)cc1
REMARK SMILES IDX 19 1 18 2 17 3 15 4 16 5 4 6 5 7 3 8 2 9 1 10 6 11 7 12 8 13
REMARK SMILES IDX 9 14 10 15 14 16 11 17 13 18 12 19 20 20 21 21 22 22 23 23
REMARK SMILES IDX 24 24 25 25 26 26 27 27 73 28 28 29 72 30 29 31 30 32 31 33
REMARK SMILES IDX 66 34 32 35 71 36 65 37 67 38 33 39 70 40 64 41 63 42 34 44
REMARK SMILES IDX 56 45 41 46 55 47 42 48 45 49 54 50 68 51 43 52 44 53 53 55
REMARK SMILES IDX 69 56 46 57 35 58 36 59 40 60 37 61 39 62 38 63 57 64 58 65
REMARK SMILES IDX 62 66 59 67 61 68 60 69 47 70 48 71 52 72 49 73 51 74 50 75
REMARK H PARENT 67 43 45 54
REMARK Flexibility Score: inf
ROOT
ATOM      1  C   UNL     1       1.904   0.227   3.957  1.00  0.00     0.202 C 
ENDROOT
BRANCH   1   2
ATOM      2  C   UNL     1       0.640  -0.630   3.804  1.00  0.00     0.261 C 
BRANCH   2   3
ATOM      3  O   UNL     1       0.767  -1.720   2.872  1.00  0.00    -0.463 OA
BRANCH   3   4
ATOM      4  C   UNL     1      -0.085  -1.680   1.814  1.00  0.00     0.312 C 
ATOM      5  O   UNL     1      -0.934  -0.806   1.661  1.00  0.00    -0.252 OA
BRANCH   4   6
ATOM      6  C   UNL     1       0.081  -2.837   0.816  1.00  0.00     0.069 C 
ATOM      7  C   UNL     1      -1.369  -3.288   0.492  1.00  0.00     0.024 C 
BRANCH   6   8
ATOM      8  C   UNL     1       0.799  -2.357  -0.479  1.00  0.00     0.018 C 
BRANCH   8   9
ATOM      9  C   UNL     1       0.191  -1.218  -1.310  1.00  0.00    -0.002 C 
ATOM     10  C   UNL     1       0.683   0.169  -0.913  1.00  0.00     0.004 C 
ENDBRANCH   8   9
ENDBRANCH   6   8
BRANCH   6  11
ATOM     11  C   UNL     1       0.787  -4.112   1.413  1.00  0.00     0.046 C 
BRANCH  11  12
ATOM     12  C   UNL     1       2.289  -4.247   1.276  1.00  0.00    -0.025 C 
ATOM     13  C   UNL     1       3.086  -4.791   2.211  1.00  0.00     0.004 C 
BRANCH  13  14
ATOM     14  C   UNL     1       4.558  -4.910   2.140  1.00  0.00    -0.026 A 
ATOM     15  C   UNL     1       5.221  -5.599   3.167  1.00  0.00     0.008 A 
ATOM     16  C   UNL     1       5.340  -4.274   1.163  1.00  0.00     0.008 A 
ATOM     17  C   UNL     1       6.617  -5.605   3.247  1.00  0.00     0.001 A 
ATOM     18  C   UNL     1       6.737  -4.276   1.244  1.00  0.00     0.001 A 
ATOM     19  C   UNL     1       7.375  -4.929   2.295  1.00  0.00     0.000 A 
ENDBRANCH  13  14
ENDBRANCH  11  12
ENDBRANCH   6  11
ENDBRANCH   4   6
ENDBRANCH   3   4
ENDBRANCH   2   3
ENDBRANCH   1   2
BRANCH   1  20
ATOM     20  O   UNL     1       2.673   0.458   2.781  1.00  0.00    -0.374 OA
BRANCH  20  21
ATOM     21  C   UNL     1       3.427  -0.648   2.271  1.00  0.00     0.202 C 
BRANCH  21  22
ATOM     22  C   UNL     1       4.324  -1.371   3.278  1.00  0.00     0.261 C 
BRANCH  22  23
ATOM     23  O   UNL     1       3.528  -2.117   4.216  1.00  0.00    -0.460 OA
BRANCH  23  24
ATOM     24  C   UNL     1       4.224  -2.542   5.292  1.00  0.00     0.338 C 
ATOM     25  O   UNL     1       5.432  -2.560   5.440  1.00  0.00    -0.246 OA
BRANCH  24  26
ATOM     26  C   UNL     1       3.282  -2.770   6.400  1.00  0.00     0.060 A 
ATOM     27  C   UNL     1       3.075  -1.715   7.295  1.00  0.00     0.016 A 
ATOM     28  C   UNL     1       2.733  -4.030   6.640  1.00  0.00     0.016 A 
ATOM     29  C   UNL     1       2.367  -1.936   8.475  1.00  0.00     0.010 A 
ATOM     30  C   UNL     1       2.016  -4.248   7.824  1.00  0.00     0.010 A 
ATOM     31  C   UNL     1       1.872  -3.215   8.769  1.00  0.00    -0.014 A 
BRANCH  31  32
ATOM     32  C   UNL     1       1.360  -3.488  10.136  1.00  0.00     0.031 A 
ATOM     33  C   UNL     1       2.277  -4.117  11.151  1.00  0.00     0.074 A 
ATOM     34  C   UNL     1       0.121  -3.111  10.498  1.00  0.00     0.049 A 
ATOM     35  N   UNL     1       2.067  -4.358  12.421  1.00  0.00    -0.248 NA
ATOM     36  C   UNL     1       3.610  -4.522  10.674  1.00  0.00     0.031 C 
ATOM     37  C   UNL     1      -0.857  -2.463   9.627  1.00  0.00     0.029 A 
ATOM     38  N   UNL     1      -0.518  -3.210  11.710  1.00  0.00    -0.354 N 
ATOM     39  C   UNL     1       3.239  -4.934  12.895  1.00  0.00     0.074 A 
ATOM     40  C   UNL     1       4.144  -5.040  11.771  1.00  0.00     0.031 C 
ATOM     41  C   UNL     1      -1.971  -2.211  10.335  1.00  0.00     0.029 A 
ATOM     42  C   UNL     1      -1.790  -2.693  11.703  1.00  0.00     0.049 A 
ATOM     43  H   UNL     1      -0.104  -3.613  12.507  1.00  0.00     0.167 HD
ATOM     44  C   UNL     1       3.545  -5.330  14.154  1.00  0.00     0.031 A 
ATOM     45  C   UNL     1      -2.705  -2.616  12.689  1.00  0.00     0.031 A 
ATOM     46  C   UNL     1       2.650  -5.245  15.276  1.00  0.00     0.049 A 
ATOM     47  C   UNL     1      -2.365  -3.121  14.065  1.00  0.00     0.074 A 
ATOM     48  C   UNL     1       2.877  -5.614  16.591  1.00  0.00     0.029 A 
ATOM     49  N   UNL     1       1.353  -4.763  15.213  1.00  0.00    -0.354 N 
ATOM     50  N   UNL     1      -1.240  -3.630  14.504  1.00  0.00    -0.248 NA
ATOM     51  C   UNL     1      -3.422  -3.027  15.084  1.00  0.00     0.031 C 
ATOM     52  C   UNL     1       1.700  -5.394  17.316  1.00  0.00     0.029 A 
ATOM     53  C   UNL     1       0.758  -4.847  16.461  1.00  0.00     0.049 A 
ATOM     54  H   UNL     1       0.919  -4.413  14.402  1.00  0.00     0.167 HD
ATOM     55  C   UNL     1      -1.446  -3.896  15.852  1.00  0.00     0.074 A 
ATOM     56  C   UNL     1      -2.797  -3.479  16.163  1.00  0.00     0.031 C 
ATOM     57  C   UNL     1      -0.589  -4.433  16.754  1.00  0.00     0.031 A 
BRANCH  44  58
ATOM     58  C   UNL     1       4.909  -5.918  14.375  1.00  0.00    -0.014 A 
ATOM     59  C   UNL     1       6.053  -5.104  14.400  1.00  0.00     0.009 A 
ATOM     60  C   UNL     1       5.049  -7.298  14.586  1.00  0.00     0.009 A 
ATOM     61  C   UNL     1       7.315  -5.667  14.601  1.00  0.00     0.001 A 
ATOM     62  C   UNL     1       6.309  -7.855  14.809  1.00  0.00     0.001 A 
ATOM     63  C   UNL     1       7.441  -7.041  14.809  1.00  0.00     0.000 A 
ENDBRANCH  44  58
BRANCH  45  64
ATOM     64  C   UNL     1      -4.043  -2.032  12.414  1.00  0.00    -0.014 A 
ATOM     65  C   UNL     1      -4.396  -0.776  12.931  1.00  0.00     0.009 A 
ATOM     66  C   UNL     1      -4.979  -2.738  11.643  1.00  0.00     0.009 A 
ATOM     67  C   UNL     1      -5.668  -0.249  12.698  1.00  0.00     0.001 A 
ATOM     68  C   UNL     1      -6.242  -2.198  11.393  1.00  0.00     0.001 A 
ATOM     69  C   UNL     1      -6.588  -0.958  11.927  1.00  0.00     0.000 A 
ENDBRANCH  45  64
BRANCH  57  70
ATOM     70  C   UNL     1      -1.079  -4.580  18.166  1.00  0.00    -0.014 A 
ATOM     71  C   UNL     1      -1.994  -5.585  18.516  1.00  0.00     0.009 A 
ATOM     72  C   UNL     1      -0.591  -3.724  19.166  1.00  0.00     0.009 A 
ATOM     73  C   UNL     1      -2.433  -5.710  19.836  1.00  0.00     0.001 A 
ATOM     74  C   UNL     1      -1.014  -3.866  20.488  1.00  0.00     0.001 A 
ATOM     75  C   UNL     1      -1.941  -4.853  20.820  1.00  0.00     0.000 A 
ENDBRANCH  57  70
ENDBRANCH  31  32
ENDBRANCH  24  26
ENDBRANCH  23  24
ENDBRANCH  22  23
ENDBRANCH  21  22
ENDBRANCH  20  21
ENDBRANCH   1  20
TORSDOF 19
