REMARK SMILES Cc1cc(C)c2c(c1)C=C(C(=O)OCCOCCOC(=O)c1ccc(-c3c4nc(c(-c5ccccc5)c5ccc([nH]5)c(-c5ccccc5)c5nc(c(-c6ccccc6)c6ccc3[nH]6)C=C5)C=C4)cc1)[C@@H](C(F)(F)F)O2
REMARK SMILES IDX 17 1 16 2 15 3 14 4 13 5 11 6 12 7 10 8 1 9 2 10 3 11 8 12
REMARK SMILES IDX 4 13 7 14 5 15 6 16 9 17 75 18 70 19 71 20 72 21 73 22 74 23
REMARK SMILES IDX 18 24 19 25 20 26 21 27 22 28 23 29 69 30 24 31 68 32 25 33
REMARK SMILES IDX 26 34 27 35 62 36 28 37 67 38 61 39 63 40 29 41 66 42 60 43
REMARK SMILES IDX 59 44 30 46 52 47 37 48 51 49 38 50 41 51 50 52 64 53 39 54
REMARK SMILES IDX 40 55 49 57 65 58 42 59 31 60 32 61 36 62 33 63 35 64 34 65
REMARK SMILES IDX 53 66 54 67 58 68 55 69 57 70 56 71 43 72 44 73 48 74 45 75
REMARK SMILES IDX 47 76 46 77
REMARK H PARENT 63 45 41 56
REMARK Flexibility Score: inf
ROOT
ATOM      1  C   UNL     1       3.877   7.309   1.451  1.00  0.00     0.202 C 
ENDROOT
BRANCH   1   2
ATOM      2  O   UNL     1       4.625   8.178   0.598  1.00  0.00    -0.374 OA
BRANCH   2   3
ATOM      3  C   UNL     1       3.952   9.314   0.059  1.00  0.00     0.202 C 
BRANCH   3   4
ATOM      4  C   UNL     1       3.055   9.056  -1.154  1.00  0.00     0.261 C 
BRANCH   4   5
ATOM      5  O   UNL     1       2.015   8.114  -0.843  1.00  0.00    -0.460 OA
BRANCH   5   6
ATOM      6  C   UNL     1       2.086   6.950  -1.530  1.00  0.00     0.338 C 
ATOM      7  O   UNL     1       2.839   6.692  -2.456  1.00  0.00    -0.246 OA
BRANCH   6   8
ATOM      8  C   UNL     1       1.185   5.953  -0.923  1.00  0.00     0.087 C 
ATOM      9  C   UNL     1       0.879  -0.116   0.032  1.00  0.00     0.044 C 
ATOM     10  C   UNL     1       0.406   1.308   0.064  1.00  0.00    -0.050 A 
ATOM     11  C   UNL     1      -0.924   1.607   0.380  1.00  0.00     0.010 A 
ATOM     12  C   UNL     1       1.266   2.347  -0.302  1.00  0.00     0.015 A 
ATOM     13  C   UNL     1      -1.392   2.932   0.367  1.00  0.00    -0.008 A 
ATOM     14  C   UNL     1       0.809   3.669  -0.335  1.00  0.00     0.018 A 
ATOM     15  C   UNL     1      -2.831   3.220   0.688  1.00  0.00     0.048 C 
ATOM     16  C   UNL     1      -0.508   3.966   0.022  1.00  0.00     0.130 A 
ATOM     17  C   UNL     1       1.689   4.719  -0.811  1.00  0.00     0.027 C 
ATOM     18  O   UNL     1      -0.999   5.244   0.054  1.00  0.00    -0.475 OA
ATOM     19  C   UNL     1      -0.206   6.330  -0.499  1.00  0.00     0.316 C 
BRANCH  19  20
ATOM     20  C   UNL     1      -1.013   6.985  -1.629  1.00  0.00     0.430 C 
ATOM     21  F   UNL     1      -2.274   7.277  -1.225  1.00  0.00    -0.167 F 
ATOM     22  F   UNL     1      -0.460   8.154  -2.030  1.00  0.00    -0.167 F 
ATOM     23  F   UNL     1      -1.110   6.188  -2.716  1.00  0.00    -0.167 F 
ENDBRANCH  19  20
ENDBRANCH   6   8
ENDBRANCH   5   6
ENDBRANCH   4   5
ENDBRANCH   3   4
ENDBRANCH   2   3
ENDBRANCH   1   2
BRANCH   1  24
ATOM     24  C   UNL     1       3.592   7.818   2.870  1.00  0.00     0.261 C 
BRANCH  24  25
ATOM     25  O   UNL     1       2.660   8.916   2.869  1.00  0.00    -0.460 OA
BRANCH  25  26
ATOM     26  C   UNL     1       3.165  10.092   3.313  1.00  0.00     0.338 C 
ATOM     27  O   UNL     1       4.277  10.296   3.775  1.00  0.00    -0.246 OA
BRANCH  26  28
ATOM     28  C   UNL     1       2.234  11.189   2.998  1.00  0.00     0.060 A 
ATOM     29  C   UNL     1       2.722  12.249   2.223  1.00  0.00     0.016 A 
ATOM     30  C   UNL     1       0.942  11.228   3.525  1.00  0.00     0.016 A 
ATOM     31  C   UNL     1       1.933  13.377   2.011  1.00  0.00     0.010 A 
ATOM     32  C   UNL     1       0.157  12.368   3.323  1.00  0.00     0.010 A 
ATOM     33  C   UNL     1       0.663  13.460   2.595  1.00  0.00    -0.014 A 
BRANCH  33  34
ATOM     34  C   UNL     1      -0.063  14.752   2.571  1.00  0.00     0.031 A 
ATOM     35  C   UNL     1       0.049  15.672   3.756  1.00  0.00     0.074 A 
ATOM     36  C   UNL     1      -0.767  15.127   1.488  1.00  0.00     0.049 A 
ATOM     37  N   UNL     1      -0.495  16.848   3.944  1.00  0.00    -0.248 NA
ATOM     38  C   UNL     1       0.892  15.211   4.871  1.00  0.00     0.031 C 
ATOM     39  C   UNL     1      -0.898  14.354   0.255  1.00  0.00     0.029 A 
ATOM     40  N   UNL     1      -1.496  16.266   1.254  1.00  0.00    -0.354 N 
ATOM     41  C   UNL     1      -0.055  17.268   5.193  1.00  0.00     0.074 A 
ATOM     42  C   UNL     1       0.773  16.212   5.732  1.00  0.00     0.031 C 
ATOM     43  C   UNL     1      -1.659  15.045  -0.612  1.00  0.00     0.029 A 
ATOM     44  C   UNL     1      -2.092  16.291   0.017  1.00  0.00     0.049 A 
ATOM     45  H   UNL     1      -1.583  16.995   1.909  1.00  0.00     0.167 HD
ATOM     46  C   UNL     1      -0.309  18.435   5.830  1.00  0.00     0.031 A 
ATOM     47  C   UNL     1      -2.904  17.211  -0.539  1.00  0.00     0.031 A 
ATOM     48  C   UNL     1      -1.147  19.480   5.306  1.00  0.00     0.049 A 
ATOM     49  C   UNL     1      -3.260  18.451   0.237  1.00  0.00     0.074 A 
ATOM     50  C   UNL     1      -1.470  20.695   5.885  1.00  0.00     0.029 A 
ATOM     51  N   UNL     1      -1.795  19.431   4.083  1.00  0.00    -0.354 N 
ATOM     52  N   UNL     1      -2.838  18.837   1.417  1.00  0.00    -0.248 NA
ATOM     53  C   UNL     1      -4.205  19.383  -0.398  1.00  0.00     0.031 C 
ATOM     54  C   UNL     1      -2.355  21.361   5.033  1.00  0.00     0.029 A 
ATOM     55  C   UNL     1      -2.539  20.584   3.900  1.00  0.00     0.049 A 
ATOM     56  H   UNL     1      -1.735  18.688   3.441  1.00  0.00     0.167 HD
ATOM     57  C   UNL     1      -3.447  20.063   1.655  1.00  0.00     0.074 A 
ATOM     58  C   UNL     1      -4.257  20.364   0.493  1.00  0.00     0.031 C 
ATOM     59  C   UNL     1      -3.342  20.868   2.740  1.00  0.00     0.031 A 
BRANCH  46  60
ATOM     60  C   UNL     1       0.313  18.639   7.181  1.00  0.00    -0.014 A 
ATOM     61  C   UNL     1       1.680  18.926   7.311  1.00  0.00     0.009 A 
ATOM     62  C   UNL     1      -0.488  18.602   8.333  1.00  0.00     0.009 A 
ATOM     63  C   UNL     1       2.237  19.155   8.570  1.00  0.00     0.001 A 
ATOM     64  C   UNL     1       0.067  18.853   9.588  1.00  0.00     0.001 A 
ATOM     65  C   UNL     1       1.429  19.125   9.707  1.00  0.00     0.000 A 
ENDBRANCH  46  60
BRANCH  47  66
ATOM     66  C   UNL     1      -3.450  16.992  -1.903  1.00  0.00    -0.014 A 
ATOM     67  C   UNL     1      -3.015  17.779  -2.980  1.00  0.00     0.009 A 
ATOM     68  C   UNL     1      -4.417  16.001  -2.133  1.00  0.00     0.009 A 
ATOM     69  C   UNL     1      -3.549  17.587  -4.257  1.00  0.00     0.001 A 
ATOM     70  C   UNL     1      -4.930  15.795  -3.415  1.00  0.00     0.001 A 
ATOM     71  C   UNL     1      -4.501  16.593  -4.474  1.00  0.00     0.000 A 
ENDBRANCH  47  66
BRANCH  59  72
ATOM     72  C   UNL     1      -4.103  22.163   2.723  1.00  0.00    -0.014 A 
ATOM     73  C   UNL     1      -5.492  22.189   2.913  1.00  0.00     0.009 A 
ATOM     74  C   UNL     1      -3.409  23.377   2.593  1.00  0.00     0.009 A 
ATOM     75  C   UNL     1      -6.175  23.407   2.953  1.00  0.00     0.001 A 
ATOM     76  C   UNL     1      -4.090  24.592   2.659  1.00  0.00     0.001 A 
ATOM     77  C   UNL     1      -5.473  24.606   2.834  1.00  0.00     0.000 A 
ENDBRANCH  59  72
ENDBRANCH  33  34
ENDBRANCH  26  28
ENDBRANCH  25  26
ENDBRANCH  24  25
ENDBRANCH   1  24
TORSDOF 15
