REMARK SMILES C[NH2+][C@]1(C(=O)OCCOCCOC(=O)c2ccc(-c3c4nc(c(-c5ccccc5)c5ccc([nH]5)c(-c5ccccc5)c5nc(c(-c6ccccc6)c6ccc3[nH]6)C=C5)C=C4)cc2)CC[C@@H](Sc2cc(F)ccc2F)C1
REMARK SMILES IDX 9 1 8 2 7 3 6 4 4 5 5 6 3 7 63 8 75 9 64 10 65 11 2 12 1 13
REMARK SMILES IDX 66 16 67 17 68 18 73 19 69 20 72 21 74 22 70 23 71 24 10 25
REMARK SMILES IDX 11 26 12 27 13 28 14 29 15 30 16 31 62 32 17 33 61 34 18 35
REMARK SMILES IDX 19 36 20 37 55 38 21 39 60 40 54 41 56 42 22 43 59 44 53 45
REMARK SMILES IDX 52 46 23 48 45 49 30 50 44 51 31 52 34 53 43 54 57 55 32 56
REMARK SMILES IDX 33 57 42 59 58 60 35 61 24 62 25 63 29 64 26 65 28 66 27 67
REMARK SMILES IDX 46 68 47 69 51 70 48 71 50 72 49 73 36 74 37 75 41 76 38 77
REMARK SMILES IDX 40 78 39 79
REMARK H PARENT 2 14 2 15 56 47 34 58
REMARK Flexibility Score: inf
ROOT
ATOM      1  O   UNL     1       2.821   0.920   2.126  1.00  0.00    -0.374 OA
ENDROOT
BRANCH   1   2
ATOM      2  C   UNL     1       3.175   0.131   0.989  1.00  0.00     0.202 C 
BRANCH   2   3
ATOM      3  C   UNL     1       2.418  -1.189   0.828  1.00  0.00     0.261 C 
BRANCH   3   4
ATOM      4  O   UNL     1       1.024  -0.938   0.591  1.00  0.00    -0.459 OA
BRANCH   4   5
ATOM      5  C   UNL     1       0.156  -1.573   1.428  1.00  0.00     0.368 C 
ATOM      6  O   UNL     1       0.483  -2.453   2.217  1.00  0.00    -0.245 OA
BRANCH   5   7
ATOM      7  C   UNL     1      -1.304  -1.040   1.286  1.00  0.00     0.195 C 
ATOM      8  C   UNL     1      -1.473   0.134   0.295  1.00  0.00     0.082 C 
ATOM      9  C   UNL     1      -2.108  -2.165   0.606  1.00  0.00     0.096 C 
ATOM     10  C   UNL     1      -2.890   0.013  -0.248  1.00  0.00     0.022 C 
ATOM     11  C   UNL     1      -3.194  -1.485  -0.235  1.00  0.00     0.059 C 
BRANCH   7  12
ATOM     12  N   UNL     1      -1.731  -0.629   2.644  1.00  0.00    -0.335 N 
ATOM     13  C   UNL     1      -3.110  -0.771   3.049  1.00  0.00     0.331 C 
ATOM     14  H   UNL     1      -1.174  -1.173   3.303  1.00  0.00     0.347 HD
ATOM     15  H   UNL     1      -1.595   0.382   2.633  1.00  0.00     0.347 HD
ENDBRANCH   7  12
BRANCH  11  16
ATOM     16  S   UNL     1      -3.424  -2.280  -1.879  1.00  0.00    -0.119 SA
BRANCH  16  17
ATOM     17  C   UNL     1      -2.177  -1.521  -2.910  1.00  0.00     0.046 A 
ATOM     18  C   UNL     1      -2.597  -0.619  -3.895  1.00  0.00     0.057 A 
ATOM     19  C   UNL     1      -0.817  -1.851  -2.849  1.00  0.00     0.136 A 
ATOM     20  C   UNL     1      -1.669  -0.056  -4.768  1.00  0.00     0.124 A 
ATOM     21  C   UNL     1       0.110  -1.280  -3.723  1.00  0.00     0.043 A 
ATOM     22  F   UNL     1      -0.364  -2.742  -1.957  1.00  0.00    -0.206 F 
ATOM     23  F   UNL     1      -2.087   0.806  -5.704  1.00  0.00    -0.207 F 
ATOM     24  C   UNL     1      -0.318  -0.377  -4.691  1.00  0.00     0.042 A 
ENDBRANCH  16  17
ENDBRANCH  11  16
ENDBRANCH   5   7
ENDBRANCH   4   5
ENDBRANCH   3   4
ENDBRANCH   2   3
ENDBRANCH   1   2
BRANCH   1  25
ATOM     25  C   UNL     1       1.594   1.647   2.066  1.00  0.00     0.202 C 
BRANCH  25  26
ATOM     26  C   UNL     1       1.612   2.940   1.242  1.00  0.00     0.261 C 
BRANCH  26  27
ATOM     27  O   UNL     1       1.823   2.689  -0.160  1.00  0.00    -0.460 OA
BRANCH  27  28
ATOM     28  C   UNL     1       2.997   3.156  -0.645  1.00  0.00     0.338 C 
ATOM     29  O   UNL     1       3.831   3.828  -0.053  1.00  0.00    -0.246 OA
BRANCH  28  30
ATOM     30  C   UNL     1       3.255   2.604  -1.987  1.00  0.00     0.060 A 
ATOM     31  C   UNL     1       4.481   1.958  -2.191  1.00  0.00     0.016 A 
ATOM     32  C   UNL     1       2.368   2.796  -3.048  1.00  0.00     0.016 A 
ATOM     33  C   UNL     1       4.851   1.550  -3.470  1.00  0.00     0.010 A 
ATOM     34  C   UNL     1       2.746   2.396  -4.335  1.00  0.00     0.010 A 
ATOM     35  C   UNL     1       4.004   1.806  -4.556  1.00  0.00    -0.014 A 
BRANCH  35  36
ATOM     36  C   UNL     1       4.508   1.591  -5.933  1.00  0.00     0.031 A 
ATOM     37  C   UNL     1       5.058   2.761  -6.703  1.00  0.00     0.074 A 
ATOM     38  C   UNL     1       4.520   0.362  -6.478  1.00  0.00     0.049 A 
ATOM     39  N   UNL     1       5.551   2.798  -7.914  1.00  0.00    -0.248 NA
ATOM     40  C   UNL     1       5.053   4.062  -6.013  1.00  0.00     0.031 C 
ATOM     41  C   UNL     1       4.067  -0.862  -5.818  1.00  0.00     0.029 A 
ATOM     42  N   UNL     1       4.937  -0.055  -7.717  1.00  0.00    -0.354 N 
ATOM     43  C   UNL     1       5.912   4.122  -8.133  1.00  0.00     0.074 A 
ATOM     44  C   UNL     1       5.557   4.862  -6.942  1.00  0.00     0.031 C 
ATOM     45  C   UNL     1       4.227  -1.895  -6.663  1.00  0.00     0.029 A 
ATOM     46  C   UNL     1       4.767  -1.401  -7.928  1.00  0.00     0.049 A 
ATOM     47  H   UNL     1       5.321   0.552  -8.389  1.00  0.00     0.167 HD
ATOM     48  C   UNL     1       6.494   4.673  -9.225  1.00  0.00     0.031 A 
ATOM     49  C   UNL     1       5.009  -2.146  -9.024  1.00  0.00     0.031 A 
ATOM     50  C   UNL     1       6.838   3.946 -10.417  1.00  0.00     0.049 A 
ATOM     51  C   UNL     1       5.582  -1.496 -10.254  1.00  0.00     0.074 A 
ATOM     52  C   UNL     1       7.440   4.417 -11.572  1.00  0.00     0.029 A 
ATOM     53  N   UNL     1       6.603   2.594 -10.610  1.00  0.00    -0.354 N 
ATOM     54  N   UNL     1       5.938  -0.248 -10.440  1.00  0.00    -0.248 NA
ATOM     55  C   UNL     1       5.792  -2.362 -11.424  1.00  0.00     0.031 C 
ATOM     56  C   UNL     1       7.524   3.358 -12.483  1.00  0.00     0.029 A 
ATOM     57  C   UNL     1       7.022   2.219 -11.875  1.00  0.00     0.049 A 
ATOM     58  H   UNL     1       6.199   1.990  -9.946  1.00  0.00     0.167 HD
ATOM     59  C   UNL     1       6.436  -0.184 -11.735  1.00  0.00     0.074 A 
ATOM     60  C   UNL     1       6.348  -1.521 -12.285  1.00  0.00     0.031 C 
ATOM     61  C   UNL     1       6.925   0.885 -12.409  1.00  0.00     0.031 A 
BRANCH  48  62
ATOM     62  C   UNL     1       6.762   6.151  -9.191  1.00  0.00    -0.014 A 
ATOM     63  C   UNL     1       7.799   6.685  -8.409  1.00  0.00     0.009 A 
ATOM     64  C   UNL     1       5.986   7.018  -9.975  1.00  0.00     0.009 A 
ATOM     65  C   UNL     1       8.031   8.062  -8.390  1.00  0.00     0.001 A 
ATOM     66  C   UNL     1       6.236   8.391  -9.973  1.00  0.00     0.001 A 
ATOM     67  C   UNL     1       7.253   8.912  -9.174  1.00  0.00     0.000 A 
ENDBRANCH  48  62
BRANCH  49  68
ATOM     68  C   UNL     1       4.692  -3.598  -9.018  1.00  0.00    -0.014 A 
ATOM     69  C   UNL     1       5.718  -4.555  -9.023  1.00  0.00     0.009 A 
ATOM     70  C   UNL     1       3.357  -4.031  -9.025  1.00  0.00     0.009 A 
ATOM     71  C   UNL     1       5.411  -5.918  -9.057  1.00  0.00     0.001 A 
ATOM     72  C   UNL     1       3.054  -5.394  -9.034  1.00  0.00     0.001 A 
ATOM     73  C   UNL     1       4.081  -6.335  -9.058  1.00  0.00     0.000 A 
ENDBRANCH  49  68
BRANCH  61  74
ATOM     74  C   UNL     1       7.431   0.649 -13.804  1.00  0.00    -0.014 A 
ATOM     75  C   UNL     1       6.547   0.432 -14.872  1.00  0.00     0.009 A 
ATOM     76  C   UNL     1       8.811   0.687 -14.059  1.00  0.00     0.009 A 
ATOM     77  C   UNL     1       7.038   0.228 -16.163  1.00  0.00     0.001 A 
ATOM     78  C   UNL     1       9.297   0.508 -15.354  1.00  0.00     0.001 A 
ATOM     79  C   UNL     1       8.411   0.271 -16.404  1.00  0.00     0.000 A 
ENDBRANCH  61  74
ENDBRANCH  35  36
ENDBRANCH  28  30
ENDBRANCH  27  28
ENDBRANCH  26  27
ENDBRANCH  25  26
ENDBRANCH   1  25
TORSDOF 17
