REMARK SMILES C[C@@H](C(=O)OCCOCCOC(=O)c1ccc(-c2c3nc(c(-c4ccccc4)c4ccc([nH]4)c(-c4ccccc4)c4nc(c(-c5ccccc5)c5ccc2[nH]5)C=C4)C=C3)cc1)c1ccc(N[C@H]2CCC[C@@H]2O)cc1F
REMARK SMILES IDX 7 1 6 2 5 3 3 4 4 5 2 6 1 7 62 8 63 9 74 10 64 11 73 12
REMARK SMILES IDX 75 13 65 14 66 15 67 17 68 18 71 19 69 20 70 21 72 22 8 24
REMARK SMILES IDX 9 25 10 26 11 27 12 28 13 29 14 30 15 31 61 32 16 33 60 34
REMARK SMILES IDX 17 35 18 36 19 37 54 38 20 39 59 40 53 41 55 42 21 43 58 44
REMARK SMILES IDX 52 45 51 46 22 48 44 49 29 50 43 51 30 52 33 53 42 54 56 55
REMARK SMILES IDX 31 56 32 57 41 59 57 60 34 61 23 62 24 63 28 64 25 65 27 66
REMARK SMILES IDX 26 67 45 68 46 69 50 70 47 71 49 72 48 73 35 74 36 75 40 76
REMARK SMILES IDX 37 77 39 78 38 79
REMARK H PARENT 66 16 72 23 55 47 33 58
REMARK Flexibility Score: inf
ROOT
ATOM      1  C   UNL     1       2.355   2.316   3.898  1.00  0.00     0.202 C 
ENDROOT
BRANCH   1   2
ATOM      2  C   UNL     1       2.134   0.812   4.104  1.00  0.00     0.261 C 
BRANCH   2   3
ATOM      3  O   UNL     1       1.857   0.174   2.841  1.00  0.00    -0.463 OA
BRANCH   3   4
ATOM      4  C   UNL     1       0.880  -0.775   2.857  1.00  0.00     0.313 C 
ATOM      5  O   UNL     1       0.381  -1.222   3.884  1.00  0.00    -0.252 OA
BRANCH   4   6
ATOM      6  C   UNL     1       0.432  -1.190   1.448  1.00  0.00     0.129 C 
ATOM      7  C   UNL     1       1.203  -0.527   0.300  1.00  0.00     0.025 C 
BRANCH   6   8
ATOM      8  C   UNL     1      -1.072  -1.006   1.318  1.00  0.00     0.002 A 
ATOM      9  C   UNL     1      -1.658   0.253   1.166  1.00  0.00     0.010 A 
ATOM     10  C   UNL     1      -1.933  -2.090   1.472  1.00  0.00     0.129 A 
ATOM     11  C   UNL     1      -3.046   0.423   1.241  1.00  0.00     0.026 A 
ATOM     12  C   UNL     1      -3.321  -1.926   1.494  1.00  0.00     0.065 A 
ATOM     13  F   UNL     1      -1.431  -3.325   1.614  1.00  0.00    -0.207 F 
ATOM     14  C   UNL     1      -3.911  -0.658   1.393  1.00  0.00     0.037 A 
BRANCH  14  15
ATOM     15  N   UNL     1      -5.283  -0.552   1.474  1.00  0.00    -0.380 N 
ATOM     16  H   UNL     1      -5.768  -1.409   1.476  1.00  0.00     0.160 HD
BRANCH  15  17
ATOM     17  C   UNL     1      -6.125   0.636   1.557  1.00  0.00     0.107 C 
ATOM     18  C   UNL     1      -5.870   1.490   2.804  1.00  0.00     0.027 C 
ATOM     19  C   UNL     1      -6.064   1.599   0.354  1.00  0.00     0.136 C 
ATOM     20  C   UNL     1      -5.930   2.945   2.337  1.00  0.00     0.005 C 
ATOM     21  C   UNL     1      -6.565   2.908   0.954  1.00  0.00     0.034 C 
BRANCH  19  22
ATOM     22  O   UNL     1      -6.879   1.206  -0.744  1.00  0.00    -0.391 OA
ATOM     23  H   UNL     1      -7.803   1.139  -0.454  1.00  0.00     0.211 HD
ENDBRANCH  19  22
ENDBRANCH  15  17
ENDBRANCH  14  15
ENDBRANCH   6   8
ENDBRANCH   4   6
ENDBRANCH   3   4
ENDBRANCH   2   3
ENDBRANCH   1   2
BRANCH   1  24
ATOM     24  O   UNL     1       1.177   3.091   3.651  1.00  0.00    -0.374 OA
BRANCH  24  25
ATOM     25  C   UNL     1       0.545   2.901   2.389  1.00  0.00     0.202 C 
BRANCH  25  26
ATOM     26  C   UNL     1       1.083   3.741   1.227  1.00  0.00     0.261 C 
BRANCH  26  27
ATOM     27  O   UNL     1       2.483   3.513   1.010  1.00  0.00    -0.460 OA
BRANCH  27  28
ATOM     28  C   UNL     1       3.279   4.522   1.432  1.00  0.00     0.338 C 
ATOM     29  O   UNL     1       2.933   5.625   1.833  1.00  0.00    -0.246 OA
BRANCH  28  30
ATOM     30  C   UNL     1       4.674   4.060   1.515  1.00  0.00     0.060 A 
ATOM     31  C   UNL     1       5.345   4.278   2.725  1.00  0.00     0.016 A 
ATOM     32  C   UNL     1       5.333   3.482   0.427  1.00  0.00     0.016 A 
ATOM     33  C   UNL     1       6.697   3.972   2.835  1.00  0.00     0.010 A 
ATOM     34  C   UNL     1       6.695   3.184   0.536  1.00  0.00     0.010 A 
ATOM     35  C   UNL     1       7.389   3.465   1.727  1.00  0.00    -0.014 A 
BRANCH  35  36
ATOM     36  C   UNL     1       8.867   3.389   1.778  1.00  0.00     0.031 A 
ATOM     37  C   UNL     1       9.671   4.508   1.177  1.00  0.00     0.074 A 
ATOM     38  C   UNL     1       9.484   2.367   2.397  1.00  0.00     0.049 A 
ATOM     39  N   UNL     1      10.970   4.661   1.125  1.00  0.00    -0.248 NA
ATOM     40  C   UNL     1       8.910   5.604   0.555  1.00  0.00     0.031 C 
ATOM     41  C   UNL     1       8.814   1.250   3.061  1.00  0.00     0.029 A 
ATOM     42  N   UNL     1      10.820   2.113   2.572  1.00  0.00    -0.354 N 
ATOM     43  C   UNL     1      11.181   5.863   0.463  1.00  0.00     0.074 A 
ATOM     44  C   UNL     1       9.880   6.387   0.107  1.00  0.00     0.031 C 
ATOM     45  C   UNL     1       9.745   0.427   3.573  1.00  0.00     0.029 A 
ATOM     46  C   UNL     1      11.073   0.946   3.248  1.00  0.00     0.049 A 
ATOM     47  H   UNL     1      11.530   2.710   2.243  1.00  0.00     0.167 HD
ATOM     48  C   UNL     1      12.352   6.481   0.181  1.00  0.00     0.031 A 
ATOM     49  C   UNL     1      12.244   0.357   3.558  1.00  0.00     0.031 A 
ATOM     50  C   UNL     1      13.646   5.956   0.524  1.00  0.00     0.049 A 
ATOM     51  C   UNL     1      13.534   1.024   3.161  1.00  0.00     0.074 A 
ATOM     52  C   UNL     1      14.891   6.516   0.295  1.00  0.00     0.029 A 
ATOM     53  N   UNL     1      13.860   4.745   1.161  1.00  0.00    -0.354 N 
ATOM     54  N   UNL     1      13.719   2.175   2.560  1.00  0.00    -0.248 NA
ATOM     55  C   UNL     1      14.776   0.311   3.492  1.00  0.00     0.031 C 
ATOM     56  C   UNL     1      15.862   5.615   0.747  1.00  0.00     0.029 A 
ATOM     57  C   UNL     1      15.219   4.523   1.306  1.00  0.00     0.049 A 
ATOM     58  H   UNL     1      13.152   4.132   1.464  1.00  0.00     0.167 HD
ATOM     59  C   UNL     1      15.096   2.336   2.467  1.00  0.00     0.074 A 
ATOM     60  C   UNL     1      15.698   1.172   3.084  1.00  0.00     0.031 C 
ATOM     61  C   UNL     1      15.800   3.359   1.922  1.00  0.00     0.031 A 
BRANCH  48  62
ATOM     62  C   UNL     1      12.284   7.779  -0.572  1.00  0.00    -0.014 A 
ATOM     63  C   UNL     1      11.838   8.958   0.046  1.00  0.00     0.009 A 
ATOM     64  C   UNL     1      12.699   7.827  -1.911  1.00  0.00     0.009 A 
ATOM     65  C   UNL     1      11.781  10.154  -0.674  1.00  0.00     0.001 A 
ATOM     66  C   UNL     1      12.665   9.029  -2.621  1.00  0.00     0.001 A 
ATOM     67  C   UNL     1      12.199  10.189  -2.004  1.00  0.00     0.000 A 
ENDBRANCH  48  62
BRANCH  49  68
ATOM     68  C   UNL     1      12.258  -0.947   4.270  1.00  0.00    -0.014 A 
ATOM     69  C   UNL     1      12.707  -1.035   5.596  1.00  0.00     0.009 A 
ATOM     70  C   UNL     1      11.841  -2.117   3.615  1.00  0.00     0.009 A 
ATOM     71  C   UNL     1      12.761  -2.272   6.243  1.00  0.00     0.001 A 
ATOM     72  C   UNL     1      11.870  -3.348   4.274  1.00  0.00     0.001 A 
ATOM     73  C   UNL     1      12.339  -3.426   5.584  1.00  0.00     0.000 A 
ENDBRANCH  49  68
BRANCH  61  74
ATOM     74  C   UNL     1      17.299   3.281   2.000  1.00  0.00    -0.014 A 
ATOM     75  C   UNL     1      18.025   2.393   1.192  1.00  0.00     0.009 A 
ATOM     76  C   UNL     1      17.994   4.142   2.863  1.00  0.00     0.009 A 
ATOM     77  C   UNL     1      19.419   2.347   1.272  1.00  0.00     0.001 A 
ATOM     78  C   UNL     1      19.388   4.113   2.920  1.00  0.00     0.001 A 
ATOM     79  C   UNL     1      20.098   3.210   2.132  1.00  0.00     0.000 A 
ENDBRANCH  61  74
ENDBRANCH  35  36
ENDBRANCH  28  30
ENDBRANCH  27  28
ENDBRANCH  26  27
ENDBRANCH  25  26
ENDBRANCH  24  25
ENDBRANCH   1  24
TORSDOF 18
