REMARK SMILES O=C(OCCOCCOC(=O)[C@@H](CCO)NC(=O)c1c(F)ccc([N+](=O)[O-])c1F)c1ccc(-c2c3nc(c(-c4ccccc4)c4ccc([nH]4)c(-c4ccccc4)c4nc(c(-c5ccccc5)c5ccc2[nH]5)C=C4)C=C3)cc1
REMARK SMILES IDX 7 1 6 2 5 3 4 4 3 5 2 6 1 7 30 8 31 9 77 10 32 11 76 12
REMARK SMILES IDX 33 13 34 14 35 15 70 16 36 17 75 18 69 19 71 20 37 21 74 22
REMARK SMILES IDX 68 23 67 24 38 26 60 27 45 28 59 29 46 30 49 31 58 32 72 33
REMARK SMILES IDX 47 34 48 35 57 37 73 38 50 39 39 40 40 41 44 42 41 43 43 44
REMARK SMILES IDX 42 45 61 46 62 47 66 48 63 49 65 50 64 51 51 52 52 53 56 54
REMARK SMILES IDX 53 55 55 56 54 57 8 58 9 59 10 60 11 61 12 62 13 63 14 64
REMARK SMILES IDX 15 65 16 67 17 68 18 70 19 71 20 72 28 73 21 74 22 75 24 76
REMARK SMILES IDX 29 77 23 78 25 79 26 80 27 81
REMARK H PARENT 71 25 49 36 15 66 16 69
REMARK Flexibility Score: inf
ROOT
ATOM      1  C   UNL     1       2.705   1.373  -1.699  1.00  0.00     0.202 C 
ENDROOT
BRANCH   1   2
ATOM      2  O   UNL     1       4.074   1.075  -1.393  1.00  0.00    -0.374 OA
BRANCH   2   3
ATOM      3  C   UNL     1       4.443  -0.306  -1.419  1.00  0.00     0.202 C 
BRANCH   3   4
ATOM      4  C   UNL     1       4.141  -1.131  -0.159  1.00  0.00     0.261 C 
BRANCH   4   5
ATOM      5  O   UNL     1       2.746  -1.062   0.183  1.00  0.00    -0.460 OA
BRANCH   5   6
ATOM      6  C   UNL     1       2.131  -0.231   1.058  1.00  0.00     0.338 C 
ATOM      7  O   UNL     1       0.912  -0.316   1.193  1.00  0.00    -0.246 OA
BRANCH   6   8
ATOM      8  C   UNL     1       2.859   0.780   1.883  1.00  0.00     0.060 A 
ATOM      9  C   UNL     1       4.102   1.320   1.561  1.00  0.00     0.016 A 
ATOM     10  C   UNL     1       2.220   1.253   3.042  1.00  0.00     0.016 A 
ATOM     11  C   UNL     1       4.748   2.209   2.393  1.00  0.00     0.010 A 
ATOM     12  C   UNL     1       2.845   2.188   3.875  1.00  0.00     0.010 A 
ATOM     13  C   UNL     1       4.131   2.634   3.562  1.00  0.00    -0.014 A 
BRANCH  13  14
ATOM     14  C   UNL     1       4.978   3.407   4.480  1.00  0.00     0.031 A 
ATOM     15  C   UNL     1       5.630   2.673   5.611  1.00  0.00     0.074 A 
ATOM     16  C   UNL     1       5.351   4.649   4.126  1.00  0.00     0.049 A 
ATOM     17  N   UNL     1       6.518   3.097   6.466  1.00  0.00    -0.248 NA
ATOM     18  C   UNL     1       5.258   1.255   5.778  1.00  0.00     0.031 C 
ATOM     19  C   UNL     1       4.887   5.358   2.928  1.00  0.00     0.029 A 
ATOM     20  N   UNL     1       6.263   5.499   4.686  1.00  0.00    -0.354 N 
ATOM     21  C   UNL     1       6.786   2.013   7.290  1.00  0.00     0.074 A 
ATOM     22  C   UNL     1       5.980   0.907   6.830  1.00  0.00     0.031 C 
ATOM     23  C   UNL     1       5.564   6.511   2.814  1.00  0.00     0.029 A 
ATOM     24  C   UNL     1       6.453   6.650   3.961  1.00  0.00     0.049 A 
ATOM     25  H   UNL     1       6.738   5.305   5.526  1.00  0.00     0.167 HD
ATOM     26  C   UNL     1       7.623   1.958   8.350  1.00  0.00     0.031 A 
ATOM     27  C   UNL     1       7.252   7.702   4.216  1.00  0.00     0.031 A 
ATOM     28  C   UNL     1       8.401   3.080   8.793  1.00  0.00     0.049 A 
ATOM     29  C   UNL     1       8.092   7.654   5.460  1.00  0.00     0.074 A 
ATOM     30  C   UNL     1       9.202   3.195   9.912  1.00  0.00     0.029 A 
ATOM     31  N   UNL     1       8.470   4.291   8.117  1.00  0.00    -0.354 N 
ATOM     32  N   UNL     1       8.261   6.662   6.304  1.00  0.00    -0.248 NA
ATOM     33  C   UNL     1       8.835   8.872   5.801  1.00  0.00     0.031 C 
ATOM     34  C   UNL     1       9.725   4.494   9.934  1.00  0.00     0.029 A 
ATOM     35  C   UNL     1       9.289   5.167   8.801  1.00  0.00     0.049 A 
ATOM     36  H   UNL     1       8.004   4.495   7.274  1.00  0.00     0.167 HD
ATOM     37  C   UNL     1       9.134   7.132   7.273  1.00  0.00     0.074 A 
ATOM     38  C   UNL     1       9.480   8.490   6.894  1.00  0.00     0.031 C 
ATOM     39  C   UNL     1       9.603   6.509   8.382  1.00  0.00     0.031 A 
BRANCH  26  40
ATOM     40  C   UNL     1       7.630   0.681   9.136  1.00  0.00    -0.014 A 
ATOM     41  C   UNL     1       8.261  -0.478   8.660  1.00  0.00     0.009 A 
ATOM     42  C   UNL     1       6.929   0.624  10.351  1.00  0.00     0.009 A 
ATOM     43  C   UNL     1       8.158  -1.679   9.369  1.00  0.00     0.001 A 
ATOM     44  C   UNL     1       6.846  -0.570  11.067  1.00  0.00     0.001 A 
ATOM     45  C   UNL     1       7.450  -1.724  10.570  1.00  0.00     0.000 A 
ENDBRANCH  26  40
BRANCH  27  46
ATOM     46  C   UNL     1       7.247   8.889   3.321  1.00  0.00    -0.014 A 
ATOM     47  C   UNL     1       8.390   9.258   2.596  1.00  0.00     0.009 A 
ATOM     48  C   UNL     1       6.086   9.672   3.193  1.00  0.00     0.009 A 
ATOM     49  C   UNL     1       8.375  10.394   1.780  1.00  0.00     0.001 A 
ATOM     50  C   UNL     1       6.064  10.787   2.353  1.00  0.00     0.001 A 
ATOM     51  C   UNL     1       7.212  11.153   1.654  1.00  0.00     0.000 A 
ENDBRANCH  27  46
BRANCH  39  52
ATOM     52  C   UNL     1      10.556   7.290   9.235  1.00  0.00    -0.014 A 
ATOM     53  C   UNL     1      10.101   8.324  10.067  1.00  0.00     0.009 A 
ATOM     54  C   UNL     1      11.918   6.958   9.231  1.00  0.00     0.009 A 
ATOM     55  C   UNL     1      11.004   9.034  10.858  1.00  0.00     0.001 A 
ATOM     56  C   UNL     1      12.814   7.653  10.042  1.00  0.00     0.001 A 
ATOM     57  C   UNL     1      12.357   8.696  10.847  1.00  0.00     0.000 A 
ENDBRANCH  39  52
ENDBRANCH  13  14
ENDBRANCH   6   8
ENDBRANCH   5   6
ENDBRANCH   4   5
ENDBRANCH   3   4
ENDBRANCH   2   3
ENDBRANCH   1   2
BRANCH   1  58
ATOM     58  C   UNL     1       2.565   1.943  -3.109  1.00  0.00     0.261 C 
BRANCH  58  59
ATOM     59  O   UNL     1       2.892   0.895  -4.036  1.00  0.00    -0.462 OA
BRANCH  59  60
ATOM     60  C   UNL     1       4.176   0.875  -4.463  1.00  0.00     0.328 C 
ATOM     61  O   UNL     1       4.946   1.832  -4.415  1.00  0.00    -0.250 OA
BRANCH  60  62
ATOM     62  C   UNL     1       4.595  -0.478  -5.053  1.00  0.00     0.194 C 
BRANCH  62  63
ATOM     63  C   UNL     1       3.918  -1.802  -4.651  1.00  0.00     0.065 C 
BRANCH  63  64
ATOM     64  C   UNL     1       2.426  -1.824  -4.354  1.00  0.00     0.159 C 
BRANCH  64  65
ATOM     65  O   UNL     1       1.697  -1.198  -5.391  1.00  0.00    -0.396 OA
ATOM     66  H   UNL     1       1.977  -0.272  -5.470  1.00  0.00     0.210 HD
ENDBRANCH  64  65
ENDBRANCH  63  64
ENDBRANCH  62  63
BRANCH  62  67
ATOM     67  N   UNL     1       4.700  -0.342  -6.505  1.00  0.00    -0.338 N 
ATOM     68  C   UNL     1       5.790  -0.005  -7.260  1.00  0.00     0.258 C 
ATOM     69  H   UNL     1       3.872  -0.516  -7.008  1.00  0.00     0.164 HD
ATOM     70  O   UNL     1       5.655   0.205  -8.471  1.00  0.00    -0.269 OA
BRANCH  68  71
ATOM     71  C   UNL     1       7.133   0.090  -6.674  1.00  0.00     0.118 A 
ATOM     72  C   UNL     1       7.693  -0.992  -5.991  1.00  0.00     0.139 A 
ATOM     73  C   UNL     1       7.900   1.238  -6.894  1.00  0.00     0.216 A 
ATOM     74  F   UNL     1       6.997  -2.122  -5.800  1.00  0.00    -0.206 F 
ATOM     75  C   UNL     1       8.986  -0.926  -5.479  1.00  0.00     0.047 A 
ATOM     76  C   UNL     1       9.207   1.301  -6.405  1.00  0.00     0.305 A 
ATOM     77  F   UNL     1       7.363   2.262  -7.573  1.00  0.00    -0.198 F 
ATOM     78  C   UNL     1       9.752   0.221  -5.686  1.00  0.00     0.092 A 
BRANCH  76  79
ATOM     79  N   UNL     1      10.043   2.476  -6.653  1.00  0.00     0.065 N 
ATOM     80  O   UNL     1       9.517   3.500  -7.101  1.00  0.00    -0.258 OA
ATOM     81  O   UNL     1      11.249   2.375  -6.382  1.00  0.00    -0.258 OA
ENDBRANCH  76  79
ENDBRANCH  68  71
ENDBRANCH  62  67
ENDBRANCH  60  62
ENDBRANCH  59  60
ENDBRANCH  58  59
ENDBRANCH   1  58
TORSDOF 20
