REMARK SMILES Cc1c(C(=O)OCCOCCOC(=O)c2ccc(-c3c4nc(c(-c5ccccc5)c5ccc([nH]5)c(-c5ccccc5)c5nc(c(-c6ccccc6)c6ccc3[nH]6)C=C5)C=C4)cc2)cccc1-n1c(C)cc(/C=C2/C(=O)NC(=S)N=C2O)c1C
REMARK SMILES IDX 8 1 7 2 6 3 4 4 5 5 3 6 1 7 2 8 66 9 63 10 65 11 64 12 67 13
REMARK SMILES IDX 68 14 82 15 69 16 70 17 71 18 83 19 72 20 73 21 74 22 80 23
REMARK SMILES IDX 75 24 76 25 79 26 77 27 78 29 81 30 9 32 10 33 11 34 12 35
REMARK SMILES IDX 13 36 14 37 15 38 16 39 62 40 17 41 61 42 18 43 19 44 20 45
REMARK SMILES IDX 55 46 21 47 60 48 54 49 56 50 22 51 59 52 53 53 52 54 23 56
REMARK SMILES IDX 45 57 30 58 44 59 31 60 34 61 43 62 57 63 32 64 33 65 42 67
REMARK SMILES IDX 58 68 35 69 24 70 25 71 29 72 26 73 28 74 27 75 46 76 47 77
REMARK SMILES IDX 51 78 48 79 50 80 49 81 36 82 37 83 41 84 38 85 40 86 39 87
REMARK H PARENT 76 28 81 31 56 55 34 66
REMARK Flexibility Score: inf
ROOT
ATOM      1  C   UNL     1       2.084  -2.484   2.295  1.00  0.00     0.202 C 
ENDROOT
BRANCH   1   2
ATOM      2  C   UNL     1       2.550  -2.515   0.879  1.00  0.00     0.261 C 
BRANCH   2   3
ATOM      3  O   UNL     1       1.690  -1.781   0.002  1.00  0.00    -0.460 OA
BRANCH   3   4
ATOM      4  C   UNL     1       0.375  -2.016  -0.185  1.00  0.00     0.338 C 
ATOM      5  O   UNL     1      -0.202  -3.071  -0.201  1.00  0.00    -0.246 OA
BRANCH   4   6
ATOM      6  C   UNL     1      -0.253  -0.664  -0.333  1.00  0.00     0.065 A 
ATOM      7  C   UNL     1       1.939   0.627   0.168  1.00  0.00     0.047 C 
ATOM      8  C   UNL     1       0.470   0.550  -0.217  1.00  0.00    -0.012 A 
ATOM      9  C   UNL     1      -0.257   1.739  -0.359  1.00  0.00     0.049 A 
ATOM     10  C   UNL     1      -1.653  -0.644  -0.497  1.00  0.00     0.016 A 
ATOM     11  C   UNL     1      -1.651   1.765  -0.480  1.00  0.00     0.027 A 
ATOM     12  C   UNL     1      -2.350   0.565  -0.544  1.00  0.00     0.003 A 
BRANCH   9  13
ATOM     13  N   UNL     1       0.419   2.960  -0.196  1.00  0.00    -0.318 N 
ATOM     14  C   UNL     1       1.340   3.493  -1.086  1.00  0.00     0.020 A 
ATOM     15  C   UNL     1       0.620   3.544   1.051  1.00  0.00     0.027 A 
ATOM     16  C   UNL     1       1.706   2.861  -2.389  1.00  0.00     0.065 C 
ATOM     17  C   UNL     1       1.821   4.647  -0.501  1.00  0.00     0.031 A 
ATOM     18  C   UNL     1       1.290   4.731   0.818  1.00  0.00    -0.003 A 
ATOM     19  C   UNL     1       0.197   2.841   2.306  1.00  0.00     0.065 C 
BRANCH  18  20
ATOM     20  C   UNL     1       1.614   5.779   1.727  1.00  0.00     0.029 C 
ATOM     21  C   UNL     1       0.945   6.277   2.784  1.00  0.00     0.102 C 
ATOM     22  C   UNL     1       1.640   7.351   3.536  1.00  0.00     0.262 C 
ATOM     23  C   UNL     1      -0.341   5.895   3.370  1.00  0.00     0.226 C 
ATOM     24  O   UNL     1       2.594   7.989   3.108  1.00  0.00    -0.269 OA
ATOM     25  N   UNL     1       1.138   7.559   4.792  1.00  0.00    -0.297 N 
ATOM     26  N   UNL     1      -0.755   6.168   4.553  1.00  0.00    -0.184 NA
ATOM     27  C   UNL     1       0.043   6.946   5.348  1.00  0.00     0.203 C 
ATOM     28  H   UNL     1       1.611   8.215   5.354  1.00  0.00     0.172 HD
ATOM     29  S   UNL     1      -0.286   7.251   6.961  1.00  0.00    -0.038 S 
BRANCH  23  30
ATOM     30  O   UNL     1      -1.203   5.256   2.580  1.00  0.00    -0.493 OA
ATOM     31  H   UNL     1      -0.958   5.030   1.704  1.00  0.00     0.295 HD
ENDBRANCH  23  30
ENDBRANCH  18  20
ENDBRANCH   9  13
ENDBRANCH   4   6
ENDBRANCH   3   4
ENDBRANCH   2   3
ENDBRANCH   1   2
BRANCH   1  32
ATOM     32  O   UNL     1       0.920  -3.284   2.318  1.00  0.00    -0.374 OA
BRANCH  32  33
ATOM     33  C   UNL     1       0.326  -3.449   3.584  1.00  0.00     0.202 C 
BRANCH  33  34
ATOM     34  C   UNL     1       1.274  -4.139   4.572  1.00  0.00     0.261 C 
BRANCH  34  35
ATOM     35  O   UNL     1       1.685  -5.417   4.029  1.00  0.00    -0.460 OA
BRANCH  35  36
ATOM     36  C   UNL     1       2.942  -5.491   3.503  1.00  0.00     0.338 C 
ATOM     37  O   UNL     1       3.952  -5.042   4.021  1.00  0.00    -0.246 OA
BRANCH  36  38
ATOM     38  C   UNL     1       2.873  -5.920   2.068  1.00  0.00     0.060 A 
ATOM     39  C   UNL     1       4.005  -5.801   1.232  1.00  0.00     0.016 A 
ATOM     40  C   UNL     1       1.614  -6.075   1.498  1.00  0.00     0.016 A 
ATOM     41  C   UNL     1       3.853  -5.673  -0.164  1.00  0.00     0.010 A 
ATOM     42  C   UNL     1       1.465  -5.826   0.148  1.00  0.00     0.010 A 
ATOM     43  C   UNL     1       2.567  -5.597  -0.697  1.00  0.00    -0.014 A 
BRANCH  43  44
ATOM     44  C   UNL     1       2.199  -5.149  -2.049  1.00  0.00     0.031 A 
ATOM     45  C   UNL     1       1.422  -6.067  -2.904  1.00  0.00     0.074 A 
ATOM     46  C   UNL     1       2.257  -3.845  -2.423  1.00  0.00     0.049 A 
ATOM     47  N   UNL     1       1.281  -5.909  -4.176  1.00  0.00    -0.248 NA
ATOM     48  C   UNL     1       0.751  -7.264  -2.401  1.00  0.00     0.031 C 
ATOM     49  C   UNL     1       1.395  -3.143  -3.380  1.00  0.00     0.029 A 
ATOM     50  N   UNL     1       3.118  -2.839  -1.993  1.00  0.00    -0.354 N 
ATOM     51  C   UNL     1       0.222  -6.696  -4.550  1.00  0.00     0.074 A 
ATOM     52  C   UNL     1       0.018  -7.616  -3.457  1.00  0.00     0.031 C 
ATOM     53  C   UNL     1       1.895  -1.921  -3.631  1.00  0.00     0.029 A 
ATOM     54  C   UNL     1       3.183  -1.835  -2.968  1.00  0.00     0.049 A 
ATOM     55  H   UNL     1       3.605  -2.834  -1.137  1.00  0.00     0.167 HD
ATOM     56  C   UNL     1      -0.504  -6.366  -5.652  1.00  0.00     0.031 A 
ATOM     57  C   UNL     1       4.375  -1.428  -3.477  1.00  0.00     0.031 A 
ATOM     58  C   UNL     1      -0.043  -5.108  -6.261  1.00  0.00     0.049 A 
ATOM     59  C   UNL     1       4.418  -1.753  -4.942  1.00  0.00     0.074 A 
ATOM     60  C   UNL     1      -0.581  -3.832  -6.330  1.00  0.00     0.029 A 
ATOM     61  N   UNL     1       1.293  -4.966  -6.631  1.00  0.00    -0.354 N 
ATOM     62  N   UNL     1       3.499  -2.479  -5.516  1.00  0.00    -0.248 NA
ATOM     63  C   UNL     1       5.444  -1.334  -5.880  1.00  0.00     0.031 C 
ATOM     64  C   UNL     1       0.430  -2.941  -6.796  1.00  0.00     0.029 A 
ATOM     65  C   UNL     1       1.581  -3.674  -7.035  1.00  0.00     0.049 A 
ATOM     66  H   UNL     1       1.953  -5.697  -6.608  1.00  0.00     0.167 HD
ATOM     67  C   UNL     1       3.753  -2.629  -6.839  1.00  0.00     0.074 A 
ATOM     68  C   UNL     1       5.014  -1.921  -7.015  1.00  0.00     0.031 C 
ATOM     69  C   UNL     1       2.889  -3.349  -7.618  1.00  0.00     0.031 A 
BRANCH  56  70
ATOM     70  C   UNL     1      -1.816  -7.045  -5.983  1.00  0.00    -0.014 A 
ATOM     71  C   UNL     1      -2.787  -6.375  -6.743  1.00  0.00     0.009 A 
ATOM     72  C   UNL     1      -2.157  -8.349  -5.572  1.00  0.00     0.009 A 
ATOM     73  C   UNL     1      -4.048  -6.932  -6.998  1.00  0.00     0.001 A 
ATOM     74  C   UNL     1      -3.432  -8.894  -5.776  1.00  0.00     0.001 A 
ATOM     75  C   UNL     1      -4.382  -8.180  -6.489  1.00  0.00     0.000 A 
ENDBRANCH  56  70
BRANCH  57  76
ATOM     76  C   UNL     1       5.471  -1.501  -2.459  1.00  0.00    -0.014 A 
ATOM     77  C   UNL     1       5.487  -0.501  -1.458  1.00  0.00     0.009 A 
ATOM     78  C   UNL     1       6.070  -2.737  -2.161  1.00  0.00     0.009 A 
ATOM     79  C   UNL     1       5.941  -0.783  -0.161  1.00  0.00     0.001 A 
ATOM     80  C   UNL     1       6.509  -3.017  -0.857  1.00  0.00     0.001 A 
ATOM     81  C   UNL     1       6.409  -2.056   0.149  1.00  0.00     0.000 A 
ENDBRANCH  57  76
BRANCH  69  82
ATOM     82  C   UNL     1       3.181  -3.852  -9.009  1.00  0.00    -0.014 A 
ATOM     83  C   UNL     1       4.178  -3.353  -9.848  1.00  0.00     0.009 A 
ATOM     84  C   UNL     1       2.424  -4.934  -9.515  1.00  0.00     0.009 A 
ATOM     85  C   UNL     1       4.482  -3.974 -11.066  1.00  0.00     0.001 A 
ATOM     86  C   UNL     1       2.714  -5.553 -10.728  1.00  0.00     0.001 A 
ATOM     87  C   UNL     1       3.765  -5.085 -11.495  1.00  0.00     0.000 A 
ENDBRANCH  69  82
ENDBRANCH  43  44
ENDBRANCH  36  38
ENDBRANCH  35  36
ENDBRANCH  34  35
ENDBRANCH  33  34
ENDBRANCH  32  33
ENDBRANCH   1  32
TORSDOF 17
