REMARK SMILES C[NH2+][C@]1(C(=O)OCCOCCOC(=O)c2ccc(-c3c4nc(c(-c5ccccc5)c5ccc([nH]5)c(-c5ccccc5)c5nc(c(-c6ccccc6)c6ccc3[nH]6)C=C5)C=C4)cc2)CCC[C@@H]1CCn1nc(C)c(Cl)c1C
REMARK SMILES IDX 8 1 7 2 6 3 4 4 5 5 3 6 63 7 66 8 64 9 65 10 2 11 1 12 67 15
REMARK SMILES IDX 68 16 69 17 70 18 75 19 71 20 73 21 76 22 72 23 74 24 9 25
REMARK SMILES IDX 10 26 11 27 12 28 13 29 14 30 15 31 16 32 62 33 17 34 61 35
REMARK SMILES IDX 18 36 19 37 20 38 55 39 21 40 60 41 54 42 56 43 22 44 59 45
REMARK SMILES IDX 53 46 52 47 23 49 45 50 30 51 44 52 31 53 34 54 43 55 57 56
REMARK SMILES IDX 32 57 33 58 42 60 58 61 35 62 24 63 25 64 29 65 26 66 28 67
REMARK SMILES IDX 27 68 46 69 47 70 51 71 48 72 50 73 49 74 36 75 37 76 41 77
REMARK SMILES IDX 38 78 40 79 39 80
REMARK H PARENT 2 13 2 14 56 48 34 59
REMARK Flexibility Score: inf
ROOT
ATOM      1  C   UNL     1       3.443   0.192  -1.584  1.00  0.00     0.202 C 
ENDROOT
BRANCH   1   2
ATOM      2  C   UNL     1       2.618  -1.050  -1.952  1.00  0.00     0.261 C 
BRANCH   2   3
ATOM      3  O   UNL     1       1.203  -0.829  -1.980  1.00  0.00    -0.459 OA
BRANCH   3   4
ATOM      4  C   UNL     1       0.528  -1.294  -0.886  1.00  0.00     0.368 C 
ATOM      5  O   UNL     1       1.059  -1.933   0.015  1.00  0.00    -0.245 OA
BRANCH   4   6
ATOM      6  C   UNL     1      -1.000  -0.995  -0.972  1.00  0.00     0.197 C 
ATOM      7  C   UNL     1      -1.403   0.248  -1.800  1.00  0.00     0.081 C 
ATOM      8  C   UNL     1      -1.633  -2.094  -1.867  1.00  0.00     0.064 C 
ATOM      9  C   UNL     1      -2.831  -0.024  -2.288  1.00  0.00     0.008 C 
ATOM     10  C   UNL     1      -3.021  -1.542  -2.214  1.00  0.00     0.011 C 
BRANCH   6  11
ATOM     11  N   UNL     1      -1.706  -0.870   0.339  1.00  0.00    -0.334 N 
ATOM     12  C   UNL     1      -0.877  -0.638   1.512  1.00  0.00     0.331 C 
ATOM     13  H   UNL     1      -2.360  -0.091   0.264  1.00  0.00     0.347 HD
ATOM     14  H   UNL     1      -2.140  -1.780   0.495  1.00  0.00     0.347 HD
ENDBRANCH   6  11
BRANCH   8  15
ATOM     15  C   UNL     1      -1.637  -3.508  -1.266  1.00  0.00     0.034 C 
BRANCH  15  16
ATOM     16  C   UNL     1      -1.765  -4.625  -2.307  1.00  0.00     0.145 C 
BRANCH  16  17
ATOM     17  N   UNL     1      -0.706  -4.627  -3.305  1.00  0.00    -0.268 N 
ATOM     18  N   UNL     1       0.495  -5.141  -2.965  1.00  0.00    -0.176 NA
ATOM     19  C   UNL     1      -0.744  -4.150  -4.594  1.00  0.00     0.054 A 
ATOM     20  C   UNL     1       1.239  -5.016  -4.072  1.00  0.00     0.078 A 
ATOM     21  C   UNL     1       0.508  -4.404  -5.112  1.00  0.00     0.084 A 
ATOM     22  C   UNL     1      -1.904  -3.475  -5.227  1.00  0.00     0.068 C 
ATOM     23  C   UNL     1       2.642  -5.502  -4.078  1.00  0.00     0.070 C 
ATOM     24  Cl  UNL     1       1.057  -4.045  -6.675  1.00  0.00    -0.080 Cl
ENDBRANCH  16  17
ENDBRANCH  15  16
ENDBRANCH   8  15
ENDBRANCH   4   6
ENDBRANCH   3   4
ENDBRANCH   2   3
ENDBRANCH   1   2
BRANCH   1  25
ATOM     25  O   UNL     1       2.931   1.093  -0.610  1.00  0.00    -0.374 OA
BRANCH  25  26
ATOM     26  C   UNL     1       1.780   1.871  -0.940  1.00  0.00     0.202 C 
BRANCH  26  27
ATOM     27  C   UNL     1       1.842   2.790  -2.165  1.00  0.00     0.261 C 
BRANCH  27  28
ATOM     28  O   UNL     1       2.011   2.066  -3.399  1.00  0.00    -0.460 OA
BRANCH  28  29
ATOM     29  C   UNL     1       3.046   2.498  -4.161  1.00  0.00     0.338 C 
ATOM     30  O   UNL     1       3.777   3.451  -3.951  1.00  0.00    -0.246 OA
BRANCH  29  31
ATOM     31  C   UNL     1       3.314   1.546  -5.252  1.00  0.00     0.060 A 
ATOM     32  C   UNL     1       4.558   0.902  -5.261  1.00  0.00     0.016 A 
ATOM     33  C   UNL     1       2.430   1.404  -6.322  1.00  0.00     0.016 A 
ATOM     34  C   UNL     1       4.945   0.150  -6.367  1.00  0.00     0.010 A 
ATOM     35  C   UNL     1       2.825   0.656  -7.437  1.00  0.00     0.010 A 
ATOM     36  C   UNL     1       4.099   0.061  -7.480  1.00  0.00    -0.014 A 
BRANCH  36  37
ATOM     37  C   UNL     1       4.616  -0.525  -8.740  1.00  0.00     0.031 A 
ATOM     38  C   UNL     1       5.142   0.388  -9.812  1.00  0.00     0.074 A 
ATOM     39  C   UNL     1       4.654  -1.857  -8.914  1.00  0.00     0.049 A 
ATOM     40  N   UNL     1       5.633   0.089 -10.987  1.00  0.00    -0.248 NA
ATOM     41  C   UNL     1       5.121   1.830  -9.515  1.00  0.00     0.031 C 
ATOM     42  C   UNL     1       4.229  -2.849  -7.930  1.00  0.00     0.029 A 
ATOM     43  N   UNL     1       5.068  -2.603  -9.989  1.00  0.00    -0.354 N 
ATOM     44  C   UNL     1       5.983   1.301 -11.569  1.00  0.00     0.074 A 
ATOM     45  C   UNL     1       5.619   2.342 -10.632  1.00  0.00     0.031 C 
ATOM     46  C   UNL     1       4.381  -4.077  -8.456  1.00  0.00     0.029 A 
ATOM     47  C   UNL     1       4.894  -3.953  -9.817  1.00  0.00     0.049 A 
ATOM     48  H   UNL     1       5.452  -2.207 -10.805  1.00  0.00     0.167 HD
ATOM     49  C   UNL     1       6.563   1.527 -12.771  1.00  0.00     0.031 A 
ATOM     50  C   UNL     1       5.107  -4.973 -10.670  1.00  0.00     0.031 A 
ATOM     51  C   UNL     1       6.909   0.497 -13.713  1.00  0.00     0.049 A 
ATOM     52  C   UNL     1       5.662  -4.689 -12.039  1.00  0.00     0.074 A 
ATOM     53  C   UNL     1       7.511   0.627 -14.952  1.00  0.00     0.029 A 
ATOM     54  N   UNL     1       6.674  -0.855 -13.521  1.00  0.00    -0.354 N 
ATOM     55  N   UNL     1       6.014  -3.541 -12.566  1.00  0.00    -0.248 NA
ATOM     56  C   UNL     1       5.862  -5.845 -12.925  1.00  0.00     0.031 C 
ATOM     57  C   UNL     1       7.594  -0.643 -15.532  1.00  0.00     0.029 A 
ATOM     58  C   UNL     1       7.091  -1.569 -14.632  1.00  0.00     0.049 A 
ATOM     59  H   UNL     1       6.269  -1.250 -12.715  1.00  0.00     0.167 HD
ATOM     60  C   UNL     1       6.504  -3.839 -13.831  1.00  0.00     0.074 A 
ATOM     61  C   UNL     1       6.412  -5.276 -13.989  1.00  0.00     0.031 C 
ATOM     62  C   UNL     1       6.992  -2.998 -14.775  1.00  0.00     0.031 A 
BRANCH  49  63
ATOM     63  C   UNL     1       6.831   2.957 -13.146  1.00  0.00    -0.014 A 
ATOM     64  C   UNL     1       7.867   3.686 -12.540  1.00  0.00     0.009 A 
ATOM     65  C   UNL     1       6.054   3.575 -14.138  1.00  0.00     0.009 A 
ATOM     66  C   UNL     1       8.097   5.016 -12.898  1.00  0.00     0.001 A 
ATOM     67  C   UNL     1       6.302   4.897 -14.511  1.00  0.00     0.001 A 
ATOM     68  C   UNL     1       7.317   5.618 -13.885  1.00  0.00     0.000 A 
ENDBRANCH  49  63
BRANCH  50  69
ATOM     69  C   UNL     1       4.779  -6.363 -10.260  1.00  0.00    -0.014 A 
ATOM     70  C   UNL     1       5.795  -7.296 -10.009  1.00  0.00     0.009 A 
ATOM     71  C   UNL     1       3.440  -6.764 -10.131  1.00  0.00     0.009 A 
ATOM     72  C   UNL     1       5.477  -8.610  -9.659  1.00  0.00     0.001 A 
ATOM     73  C   UNL     1       3.125  -8.072  -9.758  1.00  0.00     0.001 A 
ATOM     74  C   UNL     1       4.143  -8.996  -9.531  1.00  0.00     0.000 A 
ENDBRANCH  50  69
BRANCH  62  75
ATOM     75  C   UNL     1       7.497  -3.612 -16.049  1.00  0.00    -0.014 A 
ATOM     76  C   UNL     1       6.612  -4.114 -17.016  1.00  0.00     0.009 A 
ATOM     77  C   UNL     1       8.877  -3.652 -16.301  1.00  0.00     0.009 A 
ATOM     78  C   UNL     1       7.104  -4.671 -18.199  1.00  0.00     0.001 A 
ATOM     79  C   UNL     1       9.364  -4.185 -17.495  1.00  0.00     0.001 A 
ATOM     80  C   UNL     1       8.477  -4.702 -18.439  1.00  0.00     0.000 A 
ENDBRANCH  62  75
ENDBRANCH  36  37
ENDBRANCH  29  31
ENDBRANCH  28  29
ENDBRANCH  27  28
ENDBRANCH  26  27
ENDBRANCH  25  26
ENDBRANCH   1  25
TORSDOF 18
