REMARK SMILES C[C@H](C(=O)OCCOCCOC(=O)c1ccc(-c2c3nc(c(-c4ccccc4)c4ccc([nH]4)c(-c4ccccc4)c4nc(c(-c5ccccc5)c5ccc2[nH]5)C=C4)C=C3)cc1)c1ccc2c(c1)[nH]c1ccc(Cl)cc12
REMARK SMILES IDX 9 1 8 2 7 3 6 4 5 5 3 6 4 7 2 8 1 9 62 10 63 11 67 12 64 13
REMARK SMILES IDX 66 14 65 15 68 16 75 17 69 18 74 20 70 21 72 22 71 23 73 24
REMARK SMILES IDX 10 25 11 26 12 27 13 28 14 29 15 30 61 31 16 32 60 33 17 34
REMARK SMILES IDX 18 35 19 36 54 37 20 38 59 39 53 40 55 41 21 42 58 43 52 44
REMARK SMILES IDX 51 45 22 47 44 48 29 49 43 50 30 51 33 52 42 53 56 54 31 55
REMARK SMILES IDX 32 56 41 58 57 59 34 60 23 61 24 62 28 63 25 64 27 65 26 66
REMARK SMILES IDX 45 67 46 68 50 69 47 70 49 71 48 72 35 73 36 74 40 75 37 76
REMARK SMILES IDX 39 77 38 78
REMARK H PARENT 68 19 55 46 33 57
REMARK Flexibility Score: inf
ROOT
ATOM      1  C   UNL     1      -0.042   2.090  -1.337  1.00  0.00     0.202 C 
ENDROOT
BRANCH   1   2
ATOM      2  O   UNL     1       1.075   1.828  -2.186  1.00  0.00    -0.374 OA
BRANCH   2   3
ATOM      3  C   UNL     1       1.216   0.504  -2.696  1.00  0.00     0.202 C 
BRANCH   3   4
ATOM      4  C   UNL     1       1.688  -0.573  -1.715  1.00  0.00     0.261 C 
BRANCH   4   5
ATOM      5  O   UNL     1       0.845  -0.671  -0.553  1.00  0.00    -0.463 OA
BRANCH   5   6
ATOM      6  C   UNL     1       1.465  -0.435   0.634  1.00  0.00     0.313 C 
ATOM      7  O   UNL     1       2.677  -0.272   0.754  1.00  0.00    -0.252 OA
BRANCH   6   8
ATOM      8  C   UNL     1       0.535  -0.368   1.837  1.00  0.00     0.126 C 
ATOM      9  C   UNL     1       0.794   0.946   2.589  1.00  0.00     0.025 C 
BRANCH   8  10
ATOM     10  C   UNL     1      -0.953  -0.640   1.619  1.00  0.00    -0.032 A 
ATOM     11  C   UNL     1      -1.891   0.377   1.379  1.00  0.00     0.005 A 
ATOM     12  C   UNL     1      -1.413  -1.960   1.780  1.00  0.00     0.031 A 
ATOM     13  C   UNL     1      -3.271   0.119   1.339  1.00  0.00     0.011 A 
ATOM     14  C   UNL     1      -2.796  -2.187   1.812  1.00  0.00     0.047 A 
ATOM     15  C   UNL     1      -3.737  -1.183   1.602  1.00  0.00     0.007 A 
ATOM     16  N   UNL     1      -3.491  -3.340   2.089  1.00  0.00    -0.355 N 
ATOM     17  C   UNL     1      -5.035  -1.765   1.777  1.00  0.00     0.009 A 
ATOM     18  C   UNL     1      -4.842  -3.095   2.152  1.00  0.00     0.047 A 
ATOM     19  H   UNL     1      -3.077  -4.223   2.223  1.00  0.00     0.167 HD
ATOM     20  C   UNL     1      -6.354  -1.269   1.712  1.00  0.00     0.031 A 
ATOM     21  C   UNL     1      -5.892  -3.944   2.522  1.00  0.00     0.028 A 
ATOM     22  C   UNL     1      -7.413  -2.111   2.067  1.00  0.00     0.041 A 
ATOM     23  C   UNL     1      -7.187  -3.421   2.482  1.00  0.00     0.022 A 
ATOM     24  Cl  UNL     1      -9.027  -1.511   2.006  1.00  0.00    -0.084 Cl
ENDBRANCH   8  10
ENDBRANCH   6   8
ENDBRANCH   5   6
ENDBRANCH   4   5
ENDBRANCH   3   4
ENDBRANCH   2   3
ENDBRANCH   1   2
BRANCH   1  25
ATOM     25  C   UNL     1      -1.428   2.101  -1.994  1.00  0.00     0.261 C 
BRANCH  25  26
ATOM     26  O   UNL     1      -1.814   0.802  -2.479  1.00  0.00    -0.460 OA
BRANCH  26  27
ATOM     27  C   UNL     1      -2.075   0.749  -3.804  1.00  0.00     0.338 C 
ATOM     28  O   UNL     1      -2.115   1.690  -4.591  1.00  0.00    -0.246 OA
BRANCH  27  29
ATOM     29  C   UNL     1      -2.139  -0.647  -4.270  1.00  0.00     0.060 A 
ATOM     30  C   UNL     1      -1.299  -1.007  -5.332  1.00  0.00     0.016 A 
ATOM     31  C   UNL     1      -3.071  -1.555  -3.764  1.00  0.00     0.016 A 
ATOM     32  C   UNL     1      -1.432  -2.254  -5.936  1.00  0.00     0.010 A 
ATOM     33  C   UNL     1      -3.210  -2.805  -4.380  1.00  0.00     0.010 A 
ATOM     34  C   UNL     1      -2.421  -3.142  -5.495  1.00  0.00    -0.014 A 
BRANCH  34  35
ATOM     35  C   UNL     1      -2.723  -4.346  -6.307  1.00  0.00     0.031 A 
ATOM     36  C   UNL     1      -3.874  -4.306  -7.276  1.00  0.00     0.074 A 
ATOM     37  C   UNL     1      -1.948  -5.443  -6.229  1.00  0.00     0.049 A 
ATOM     38  N   UNL     1      -4.299  -5.232  -8.098  1.00  0.00    -0.248 NA
ATOM     39  C   UNL     1      -4.646  -3.053  -7.329  1.00  0.00     0.031 C 
ATOM     40  C   UNL     1      -0.773  -5.590  -5.372  1.00  0.00     0.029 A 
ATOM     41  N   UNL     1      -2.034  -6.641  -6.893  1.00  0.00    -0.354 N 
ATOM     42  C   UNL     1      -5.388  -4.678  -8.759  1.00  0.00     0.074 A 
ATOM     43  C   UNL     1      -5.576  -3.346  -8.226  1.00  0.00     0.031 C 
ATOM     44  C   UNL     1      -0.246  -6.811  -5.563  1.00  0.00     0.029 A 
ATOM     45  C   UNL     1      -1.062  -7.540  -6.532  1.00  0.00     0.049 A 
ATOM     46  H   UNL     1      -2.728  -6.837  -7.563  1.00  0.00     0.167 HD
ATOM     47  C   UNL     1      -6.161  -5.225  -9.727  1.00  0.00     0.031 A 
ATOM     48  C   UNL     1      -0.861  -8.811  -6.929  1.00  0.00     0.031 A 
ATOM     49  C   UNL     1      -5.986  -6.552 -10.254  1.00  0.00     0.049 A 
ATOM     50  C   UNL     1      -1.784  -9.425  -7.948  1.00  0.00     0.074 A 
ATOM     51  C   UNL     1      -6.708  -7.188 -11.249  1.00  0.00     0.029 A 
ATOM     52  N   UNL     1      -5.024  -7.450  -9.821  1.00  0.00    -0.354 N 
ATOM     53  N   UNL     1      -2.793  -8.880  -8.584  1.00  0.00    -0.248 NA
ATOM     54  C   UNL     1      -1.534 -10.829  -8.306  1.00  0.00     0.031 C 
ATOM     55  C   UNL     1      -6.217  -8.491 -11.380  1.00  0.00     0.029 A 
ATOM     56  C   UNL     1      -5.153  -8.646 -10.506  1.00  0.00     0.049 A 
ATOM     57  H   UNL     1      -4.348  -7.265  -9.129  1.00  0.00     0.167 HD
ATOM     58  C   UNL     1      -3.279  -9.864  -9.437  1.00  0.00     0.074 A 
ATOM     59  C   UNL     1      -2.448 -11.034  -9.245  1.00  0.00     0.031 C 
ATOM     60  C   UNL     1      -4.320  -9.802 -10.303  1.00  0.00     0.031 A 
BRANCH  47  61
ATOM     61  C   UNL     1      -7.298  -4.396 -10.256  1.00  0.00    -0.014 A 
ATOM     62  C   UNL     1      -7.070  -3.296 -11.098  1.00  0.00     0.009 A 
ATOM     63  C   UNL     1      -8.619  -4.742  -9.932  1.00  0.00     0.009 A 
ATOM     64  C   UNL     1      -8.142  -2.542 -11.581  1.00  0.00     0.001 A 
ATOM     65  C   UNL     1      -9.690  -4.002 -10.435  1.00  0.00     0.001 A 
ATOM     66  C   UNL     1      -9.450  -2.898 -11.252  1.00  0.00     0.000 A 
ENDBRANCH  47  61
BRANCH  48  67
ATOM     67  C   UNL     1       0.254  -9.605  -6.351  1.00  0.00    -0.014 A 
ATOM     68  C   UNL     1       1.362  -9.961  -7.134  1.00  0.00     0.009 A 
ATOM     69  C   UNL     1       0.203 -10.029  -5.014  1.00  0.00     0.009 A 
ATOM     70  C   UNL     1       2.385 -10.747  -6.596  1.00  0.00     0.001 A 
ATOM     71  C   UNL     1       1.240 -10.791  -4.471  1.00  0.00     0.001 A 
ATOM     72  C   UNL     1       2.325 -11.157  -5.265  1.00  0.00     0.000 A 
ENDBRANCH  48  67
BRANCH  60  73
ATOM     73  C   UNL     1      -4.597 -11.023 -11.135  1.00  0.00    -0.014 A 
ATOM     74  C   UNL     1      -5.175 -12.171 -10.574  1.00  0.00     0.009 A 
ATOM     75  C   UNL     1      -4.314 -11.005 -12.510  1.00  0.00     0.009 A 
ATOM     76  C   UNL     1      -5.434 -13.290 -11.368  1.00  0.00     0.001 A 
ATOM     77  C   UNL     1      -4.599 -12.114 -13.307  1.00  0.00     0.001 A 
ATOM     78  C   UNL     1      -5.151 -13.259 -12.734  1.00  0.00     0.000 A 
ENDBRANCH  60  73
ENDBRANCH  34  35
ENDBRANCH  27  29
ENDBRANCH  26  27
ENDBRANCH  25  26
ENDBRANCH   1  25
TORSDOF 15
