REMARK SMILES C[C@@H]1[C@@H](C(=O)OCCOCCOC(=O)c2ccc(-c3c4nc(c(-c5ccccc5)c5ccc([nH]5)c(-c5ccccc5)c5nc(c(-c6ccccc6)c6ccc3[nH]6)C=C5)C=C4)cc2)CCN1C(=O)N1CC[N@H+]2CCCC[C@@H]2C1
REMARK SMILES IDX 9 1 8 2 7 3 6 4 4 5 5 6 3 7 1 8 2 9 65 10 63 11 64 12 66 13
REMARK SMILES IDX 67 14 68 15 69 16 77 17 70 18 76 19 71 20 75 21 72 22 74 24
REMARK SMILES IDX 73 25 10 26 11 27 12 28 13 29 14 30 15 31 16 32 62 33 17 34
REMARK SMILES IDX 61 35 18 36 19 37 20 38 55 39 21 40 60 41 54 42 56 43 22 44
REMARK SMILES IDX 59 45 53 46 52 47 23 49 45 50 30 51 44 52 31 53 34 54 43 55
REMARK SMILES IDX 57 56 32 57 33 58 42 60 58 61 35 62 24 63 25 64 29 65 26 66
REMARK SMILES IDX 28 67 27 68 46 69 47 70 51 71 48 72 50 73 49 74 36 75 37 76
REMARK SMILES IDX 41 77 38 78 40 79 39 80
REMARK H PARENT 71 23 56 48 34 59
REMARK Flexibility Score: inf
ROOT
ATOM      1  O   UNL     1      -0.107   2.403  -4.503  1.00  0.00    -0.374 OA
ENDROOT
BRANCH   1   2
ATOM      2  C   UNL     1      -1.531   2.389  -4.420  1.00  0.00     0.202 C 
BRANCH   2   3
ATOM      3  C   UNL     1      -2.168   1.226  -3.652  1.00  0.00     0.261 C 
BRANCH   3   4
ATOM      4  O   UNL     1      -1.818   1.254  -2.259  1.00  0.00    -0.463 OA
BRANCH   4   5
ATOM      5  C   UNL     1      -0.903   0.314  -1.886  1.00  0.00     0.311 C 
ATOM      6  O   UNL     1      -0.461  -0.554  -2.625  1.00  0.00    -0.252 OA
BRANCH   5   7
ATOM      7  C   UNL     1      -0.412   0.596  -0.475  1.00  0.00     0.123 C 
ATOM      8  C   UNL     1       1.646   0.301   0.941  1.00  0.00     0.032 C 
ATOM      9  C   UNL     1       0.769  -0.328  -0.147  1.00  0.00     0.098 C 
ATOM     10  N   UNL     1       0.098  -1.562   0.285  1.00  0.00    -0.321 N 
ATOM     11  C   UNL     1      -1.436   0.239   0.595  1.00  0.00     0.039 C 
ATOM     12  C   UNL     1      -1.241  -1.261   0.788  1.00  0.00     0.122 C 
BRANCH  10  13
ATOM     13  C   UNL     1       0.291  -2.816  -0.287  1.00  0.00     0.320 C 
ATOM     14  O   UNL     1      -0.606  -3.661  -0.307  1.00  0.00    -0.248 OA
BRANCH  13  15
ATOM     15  N   UNL     1       1.486  -3.036  -0.923  1.00  0.00    -0.313 N 
ATOM     16  C   UNL     1       1.537  -3.899  -2.098  1.00  0.00     0.183 C 
ATOM     17  C   UNL     1       2.781  -2.840  -0.293  1.00  0.00     0.186 C 
ATOM     18  C   UNL     1       2.608  -3.406  -3.100  1.00  0.00     0.284 C 
ATOM     19  C   UNL     1       3.779  -2.243  -1.304  1.00  0.00     0.203 C 
ATOM     20  N   UNL     1       3.933  -3.135  -2.483  1.00  0.00    -0.330 N 
ATOM     21  C   UNL     1       5.133  -1.999  -0.628  1.00  0.00     0.067 C 
ATOM     22  C   UNL     1       4.846  -2.545  -3.473  1.00  0.00     0.262 C 
ATOM     23  H   UNL     1       4.337  -4.016  -2.166  1.00  0.00     0.348 HD
ATOM     24  C   UNL     1       6.127  -1.400  -1.616  1.00  0.00     0.012 C 
ATOM     25  C   UNL     1       6.224  -2.266  -2.868  1.00  0.00     0.062 C 
ENDBRANCH  13  15
ENDBRANCH  10  13
ENDBRANCH   5   7
ENDBRANCH   4   5
ENDBRANCH   3   4
ENDBRANCH   2   3
ENDBRANCH   1   2
BRANCH   1  26
ATOM     26  C   UNL     1       0.621   2.891  -3.377  1.00  0.00     0.202 C 
BRANCH  26  27
ATOM     27  C   UNL     1       0.652   4.410  -3.176  1.00  0.00     0.261 C 
BRANCH  27  28
ATOM     28  O   UNL     1      -0.645   4.934  -2.839  1.00  0.00    -0.460 OA
BRANCH  28  29
ATOM     29  C   UNL     1      -1.198   5.726  -3.786  1.00  0.00     0.338 C 
ATOM     30  O   UNL     1      -0.682   6.107  -4.830  1.00  0.00    -0.246 OA
BRANCH  29  31
ATOM     31  C   UNL     1      -2.624   5.948  -3.493  1.00  0.00     0.060 A 
ATOM     32  C   UNL     1      -3.545   5.641  -4.503  1.00  0.00     0.016 A 
ATOM     33  C   UNL     1      -3.050   6.520  -2.292  1.00  0.00     0.016 A 
ATOM     34  C   UNL     1      -4.891   5.955  -4.340  1.00  0.00     0.010 A 
ATOM     35  C   UNL     1      -4.402   6.846  -2.134  1.00  0.00     0.010 A 
ATOM     36  C   UNL     1      -5.319   6.600  -3.172  1.00  0.00    -0.014 A 
BRANCH  36  37
ATOM     37  C   UNL     1      -6.692   7.155  -3.112  1.00  0.00     0.031 A 
ATOM     38  C   UNL     1      -6.902   8.612  -3.422  1.00  0.00     0.074 A 
ATOM     39  C   UNL     1      -7.742   6.367  -2.826  1.00  0.00     0.049 A 
ATOM     40  N   UNL     1      -8.011   9.307  -3.427  1.00  0.00    -0.248 NA
ATOM     41  C   UNL     1      -5.702   9.388  -3.776  1.00  0.00     0.031 C 
ATOM     42  C   UNL     1      -7.676   4.932  -2.554  1.00  0.00     0.029 A 
ATOM     43  N   UNL     1      -9.076   6.671  -2.719  1.00  0.00    -0.354 N 
ATOM     44  C   UNL     1      -7.643  10.599  -3.779  1.00  0.00     0.074 A 
ATOM     45  C   UNL     1      -6.206  10.600  -3.953  1.00  0.00     0.031 C 
ATOM     46  C   UNL     1      -8.918   4.480  -2.307  1.00  0.00     0.029 A 
ATOM     47  C   UNL     1      -9.858   5.597  -2.374  1.00  0.00     0.049 A 
ATOM     48  H   UNL     1      -9.438   7.574  -2.874  1.00  0.00     0.167 HD
ATOM     49  C   UNL     1      -8.430  11.688  -3.949  1.00  0.00     0.031 A 
ATOM     50  C   UNL     1     -11.180   5.528  -2.126  1.00  0.00     0.031 A 
ATOM     51  C   UNL     1      -9.855  11.695  -3.764  1.00  0.00     0.049 A 
ATOM     52  C   UNL     1     -12.021   6.770  -2.245  1.00  0.00     0.074 A 
ATOM     53  C   UNL     1     -10.741  12.746  -3.924  1.00  0.00     0.029 A 
ATOM     54  N   UNL     1     -10.603  10.597  -3.371  1.00  0.00    -0.354 N 
ATOM     55  N   UNL     1     -11.665   7.980  -2.600  1.00  0.00    -0.248 NA
ATOM     56  C   UNL     1     -13.452   6.631  -1.933  1.00  0.00     0.031 C 
ATOM     57  C   UNL     1     -12.020  12.296  -3.578  1.00  0.00     0.029 A 
ATOM     58  C   UNL     1     -11.936  10.951  -3.256  1.00  0.00     0.049 A 
ATOM     59  H   UNL     1     -10.240   9.698  -3.199  1.00  0.00     0.167 HD
ATOM     60  C   UNL     1     -12.828   8.740  -2.581  1.00  0.00     0.074 A 
ATOM     61  C   UNL     1     -13.903   7.851  -2.191  1.00  0.00     0.031 C 
ATOM     62  C   UNL     1     -12.993  10.055  -2.865  1.00  0.00     0.031 A 
BRANCH  49  63
ATOM     63  C   UNL     1      -7.752  12.975  -4.325  1.00  0.00    -0.014 A 
ATOM     64  C   UNL     1      -7.236  13.178  -5.614  1.00  0.00     0.009 A 
ATOM     65  C   UNL     1      -7.655  14.011  -3.382  1.00  0.00     0.009 A 
ATOM     66  C   UNL     1      -6.607  14.381  -5.942  1.00  0.00     0.001 A 
ATOM     67  C   UNL     1      -7.049  15.222  -3.721  1.00  0.00     0.001 A 
ATOM     68  C   UNL     1      -6.519  15.403  -4.997  1.00  0.00     0.000 A 
ENDBRANCH  49  63
BRANCH  50  69
ATOM     69  C   UNL     1     -11.793   4.237  -1.720  1.00  0.00    -0.014 A 
ATOM     70  C   UNL     1     -12.657   3.551  -2.587  1.00  0.00     0.009 A 
ATOM     71  C   UNL     1     -11.533   3.696  -0.452  1.00  0.00     0.009 A 
ATOM     72  C   UNL     1     -13.265   2.360  -2.182  1.00  0.00     0.001 A 
ATOM     73  C   UNL     1     -12.121   2.492  -0.060  1.00  0.00     0.001 A 
ATOM     74  C   UNL     1     -12.993   1.830  -0.921  1.00  0.00     0.000 A 
ENDBRANCH  50  69
BRANCH  62  75
ATOM     75  C   UNL     1     -14.390  10.604  -2.796  1.00  0.00    -0.014 A 
ATOM     76  C   UNL     1     -15.025  10.827  -1.565  1.00  0.00     0.009 A 
ATOM     77  C   UNL     1     -15.062  10.943  -3.981  1.00  0.00     0.009 A 
ATOM     78  C   UNL     1     -16.320  11.350  -1.525  1.00  0.00     0.001 A 
ATOM     79  C   UNL     1     -16.345  11.489  -3.937  1.00  0.00     0.001 A 
ATOM     80  C   UNL     1     -16.976  11.684  -2.710  1.00  0.00     0.000 A 
ENDBRANCH  62  75
ENDBRANCH  36  37
ENDBRANCH  29  31
ENDBRANCH  28  29
ENDBRANCH  27  28
ENDBRANCH  26  27
ENDBRANCH   1  26
TORSDOF 16
