REMARK SMILES C[C@@H](C(=O)OCCOCCOC(=O)c1ccc(-c2c3nc(c(-c4ccccc4)c4ccc([nH]4)c(-c4ccccc4)c4nc(c(-c5ccccc5)c5ccc2[nH]5)C=C4)C=C3)cc1)N1C(=O)/C(=C\c2ccc(OCc3ccccc3Cl)cc2)SC1=S
REMARK SMILES IDX 6 1 5 2 3 3 4 4 2 5 1 6 62 7 63 8 83 9 64 10 65 11 82 12
REMARK SMILES IDX 84 13 66 14 67 15 68 16 81 17 69 18 80 19 70 20 71 21 72 22
REMARK SMILES IDX 73 23 74 24 78 25 75 26 77 27 79 28 76 29 7 30 8 31 9 32
REMARK SMILES IDX 10 33 11 34 12 35 13 36 14 37 15 38 61 39 16 40 60 41 17 42
REMARK SMILES IDX 18 43 19 44 54 45 20 46 59 47 53 48 55 49 21 50 58 51 52 52
REMARK SMILES IDX 51 53 22 55 44 56 29 57 43 58 30 59 33 60 42 61 56 62 31 63
REMARK SMILES IDX 32 64 41 66 57 67 34 68 23 69 24 70 28 71 25 72 27 73 26 74
REMARK SMILES IDX 45 75 46 76 50 77 47 78 49 79 48 80 35 81 36 82 40 83 37 84
REMARK SMILES IDX 39 85 38 86
REMARK H PARENT 55 54 33 65
REMARK Flexibility Score: inf
ROOT
ATOM      1  C   UNL     1       2.149  -3.606   2.091  1.00  0.00     0.261 C 
ENDROOT
BRANCH   1   2
ATOM      2  O   UNL     1       1.861  -2.705   1.007  1.00  0.00    -0.462 OA
BRANCH   2   3
ATOM      3  C   UNL     1       0.559  -2.712   0.605  1.00  0.00     0.329 C 
ATOM      4  O   UNL     1      -0.303  -3.421   1.113  1.00  0.00    -0.250 OA
BRANCH   3   5
ATOM      5  C   UNL     1       0.297  -1.756  -0.579  1.00  0.00     0.199 C 
ATOM      6  C   UNL     1       1.252  -0.562  -0.605  1.00  0.00     0.044 C 
BRANCH   5   7
ATOM      7  N   UNL     1      -1.165  -1.470  -0.562  1.00  0.00    -0.279 N 
ATOM      8  C   UNL     1      -1.968  -2.548  -0.946  1.00  0.00     0.266 C 
ATOM      9  C   UNL     1      -1.854  -0.373  -0.086  1.00  0.00     0.149 C 
ATOM     10  O   UNL     1      -1.584  -3.526  -1.573  1.00  0.00    -0.268 OA
ATOM     11  C   UNL     1      -3.366  -2.333  -0.488  1.00  0.00     0.081 C 
ATOM     12  S   UNL     1      -3.597  -0.652  -0.220  1.00  0.00    -0.054 SA
ATOM     13  S   UNL     1      -1.302   1.065   0.551  1.00  0.00    -0.052 S 
ATOM     14  C   UNL     1      -4.267  -3.257  -0.126  1.00  0.00     0.029 C 
BRANCH  14  15
ATOM     15  C   UNL     1      -3.965  -4.684  -0.001  1.00  0.00    -0.024 A 
ATOM     16  C   UNL     1      -4.154  -5.565  -1.063  1.00  0.00     0.012 A 
ATOM     17  C   UNL     1      -3.431  -5.160   1.204  1.00  0.00     0.012 A 
ATOM     18  C   UNL     1      -3.746  -6.895  -0.939  1.00  0.00     0.047 A 
ATOM     19  C   UNL     1      -3.028  -6.493   1.328  1.00  0.00     0.047 A 
ATOM     20  C   UNL     1      -3.135  -7.349   0.234  1.00  0.00     0.119 A 
BRANCH  20  21
ATOM     21  O   UNL     1      -2.596  -8.601   0.141  1.00  0.00    -0.489 OA
BRANCH  21  22
ATOM     22  C   UNL     1      -1.605  -9.013   1.093  1.00  0.00     0.267 C 
BRANCH  22  23
ATOM     23  C   UNL     1      -0.195  -8.466   0.901  1.00  0.00     0.008 A 
ATOM     24  C   UNL     1       0.058  -7.273   0.200  1.00  0.00     0.009 A 
ATOM     25  C   UNL     1       0.910  -9.109   1.490  1.00  0.00     0.047 A 
ATOM     26  C   UNL     1       1.345  -6.737   0.100  1.00  0.00     0.001 A 
ATOM     27  C   UNL     1       2.203  -8.579   1.378  1.00  0.00     0.021 A 
ATOM     28  Cl  UNL     1       0.742 -10.577   2.392  1.00  0.00    -0.084 Cl
ATOM     29  C   UNL     1       2.419  -7.388   0.690  1.00  0.00     0.002 A 
ENDBRANCH  22  23
ENDBRANCH  21  22
ENDBRANCH  20  21
ENDBRANCH  14  15
ENDBRANCH   5   7
ENDBRANCH   3   5
ENDBRANCH   2   3
ENDBRANCH   1   2
BRANCH   1  30
ATOM     30  C   UNL     1       2.067  -2.940   3.467  1.00  0.00     0.202 C 
BRANCH  30  31
ATOM     31  O   UNL     1       0.796  -2.430   3.861  1.00  0.00    -0.374 OA
BRANCH  31  32
ATOM     32  C   UNL     1       0.437  -1.128   3.398  1.00  0.00     0.202 C 
BRANCH  32  33
ATOM     33  C   UNL     1       1.075   0.054   4.131  1.00  0.00     0.261 C 
BRANCH  33  34
ATOM     34  O   UNL     1       2.486   0.138   3.850  1.00  0.00    -0.460 OA
BRANCH  34  35
ATOM     35  C   UNL     1       3.289  -0.124   4.906  1.00  0.00     0.338 C 
ATOM     36  O   UNL     1       2.950  -0.308   6.068  1.00  0.00    -0.246 OA
BRANCH  35  37
ATOM     37  C   UNL     1       4.670  -0.361   4.448  1.00  0.00     0.060 A 
ATOM     38  C   UNL     1       5.311  -1.514   4.919  1.00  0.00     0.016 A 
ATOM     39  C   UNL     1       5.353   0.550   3.638  1.00  0.00     0.016 A 
ATOM     40  C   UNL     1       6.659  -1.725   4.645  1.00  0.00     0.010 A 
ATOM     41  C   UNL     1       6.710   0.341   3.370  1.00  0.00     0.010 A 
ATOM     42  C   UNL     1       7.378  -0.774   3.910  1.00  0.00    -0.014 A 
BRANCH  42  43
ATOM     43  C   UNL     1       8.857  -0.863   3.865  1.00  0.00     0.031 A 
ATOM     44  C   UNL     1       9.663  -0.021   4.818  1.00  0.00     0.074 A 
ATOM     45  C   UNL     1       9.475  -1.713   3.028  1.00  0.00     0.049 A 
ATOM     46  N   UNL     1      10.962   0.067   4.951  1.00  0.00    -0.248 NA
ATOM     47  C   UNL     1       8.902   0.833   5.745  1.00  0.00     0.031 C 
ATOM     48  C   UNL     1       8.807  -2.618   2.094  1.00  0.00     0.029 A 
ATOM     49  N   UNL     1      10.812  -1.950   2.833  1.00  0.00    -0.354 N 
ATOM     50  C   UNL     1      11.173   0.986   5.971  1.00  0.00     0.074 A 
ATOM     51  C   UNL     1       9.872   1.451   6.401  1.00  0.00     0.031 C 
ATOM     52  C   UNL     1       9.741  -3.309   1.418  1.00  0.00     0.029 A 
ATOM     53  C   UNL     1      11.067  -2.874   1.850  1.00  0.00     0.049 A 
ATOM     54  H   UNL     1      11.520  -1.501   3.348  1.00  0.00     0.167 HD
ATOM     55  C   UNL     1      12.344   1.402   6.509  1.00  0.00     0.031 A 
ATOM     56  C   UNL     1      12.239  -3.304   1.344  1.00  0.00     0.031 A 
ATOM     57  C   UNL     1      13.639   0.954   6.074  1.00  0.00     0.049 A 
ATOM     58  C   UNL     1      13.529  -2.766   1.901  1.00  0.00     0.074 A 
ATOM     59  C   UNL     1      14.884   1.314   6.560  1.00  0.00     0.029 A 
ATOM     60  N   UNL     1      13.855   0.052   5.045  1.00  0.00    -0.354 N 
ATOM     61  N   UNL     1      13.715  -1.910   2.877  1.00  0.00    -0.248 NA
ATOM     62  C   UNL     1      14.772  -3.261   1.291  1.00  0.00     0.031 C 
ATOM     63  C   UNL     1      15.857   0.668   5.789  1.00  0.00     0.029 A 
ATOM     64  C   UNL     1      15.215  -0.137   4.862  1.00  0.00     0.049 A 
ATOM     65  H   UNL     1      13.148  -0.389   4.522  1.00  0.00     0.167 HD
ATOM     66  C   UNL     1      15.092  -1.783   3.014  1.00  0.00     0.074 A 
ATOM     67  C   UNL     1      15.694  -2.661   2.031  1.00  0.00     0.031 C 
ATOM     68  C   UNL     1      15.797  -1.012   3.877  1.00  0.00     0.031 A 
BRANCH  55  69
ATOM     69  C   UNL     1      12.272   2.424   7.609  1.00  0.00    -0.014 A 
ATOM     70  C   UNL     1      11.815   2.083   8.892  1.00  0.00     0.009 A 
ATOM     71  C   UNL     1      12.689   3.741   7.363  1.00  0.00     0.009 A 
ATOM     72  C   UNL     1      11.746   3.050   9.897  1.00  0.00     0.001 A 
ATOM     73  C   UNL     1      12.644   4.699   8.377  1.00  0.00     0.001 A 
ATOM     74  C   UNL     1      12.164   4.355   9.640  1.00  0.00     0.000 A 
ENDBRANCH  55  69
BRANCH  56  75
ATOM     75  C   UNL     1      12.249  -4.284   0.227  1.00  0.00    -0.014 A 
ATOM     76  C   UNL     1      12.690  -5.600   0.430  1.00  0.00     0.009 A 
ATOM     77  C   UNL     1      11.828  -3.899  -1.056  1.00  0.00     0.009 A 
ATOM     78  C   UNL     1      12.731  -6.504  -0.635  1.00  0.00     0.001 A 
ATOM     79  C   UNL     1      11.844  -4.811  -2.112  1.00  0.00     0.001 A 
ATOM     80  C   UNL     1      12.303  -6.110  -1.903  1.00  0.00     0.000 A 
ENDBRANCH  56  75
BRANCH  68  81
ATOM     81  C   UNL     1      17.296  -1.106   3.821  1.00  0.00    -0.014 A 
ATOM     82  C   UNL     1      18.023  -0.537   2.764  1.00  0.00     0.009 A 
ATOM     83  C   UNL     1      17.991  -1.735   4.866  1.00  0.00     0.009 A 
ATOM     84  C   UNL     1      19.417  -0.626   2.740  1.00  0.00     0.001 A 
ATOM     85  C   UNL     1      19.386  -1.798   4.852  1.00  0.00     0.001 A 
ATOM     86  C   UNL     1      20.096  -1.251   3.785  1.00  0.00     0.000 A 
ENDBRANCH  68  81
ENDBRANCH  42  43
ENDBRANCH  35  37
ENDBRANCH  34  35
ENDBRANCH  33  34
ENDBRANCH  32  33
ENDBRANCH  31  32
ENDBRANCH  30  31
ENDBRANCH   1  30
TORSDOF 19
