REMARK SMILES CCn1cc(Br)cc1C(=O)N[C@@H]1C=C[C@@H](C(=O)OCCOCCOC(=O)c2ccc(-c3c4nc(c(-c5ccccc5)c5ccc([nH]5)c(-c5ccccc5)c5nc(c(-c6ccccc6)c6ccc3[nH]6)C=C5)C=C4)cc2)C1
REMARK SMILES IDX 20 1 19 2 18 3 16 4 17 5 15 6 12 7 13 8 75 9 14 10 11 11
REMARK SMILES IDX 9 12 10 13 8 15 3 16 4 17 5 18 7 19 6 20 2 21 1 22 21 23
REMARK SMILES IDX 22 24 23 25 24 26 25 27 26 28 27 29 28 30 74 31 29 32 73 33
REMARK SMILES IDX 30 34 31 35 32 36 67 37 33 38 72 39 66 40 68 41 34 42 71 43
REMARK SMILES IDX 65 44 64 45 35 47 57 48 42 49 56 50 43 51 46 52 55 53 69 54
REMARK SMILES IDX 44 55 45 56 54 58 70 59 47 60 36 61 37 62 41 63 38 64 40 65
REMARK SMILES IDX 39 66 58 67 59 68 63 69 60 70 62 71 61 72 48 73 49 74 53 75
REMARK SMILES IDX 50 76 52 77 51 78
REMARK H PARENT 11 14 68 46 46 57
REMARK Flexibility Score: inf
ROOT
ATOM      1  C   UNL     1      -3.688   0.975   3.232  1.00  0.00     0.202 C 
ENDROOT
BRANCH   1   2
ATOM      2  C   UNL     1      -3.892  -0.519   2.971  1.00  0.00     0.261 C 
BRANCH   2   3
ATOM      3  O   UNL     1      -2.717  -1.086   2.346  1.00  0.00    -0.463 OA
BRANCH   3   4
ATOM      4  C   UNL     1      -2.849  -1.488   1.051  1.00  0.00     0.312 C 
ATOM      5  O   UNL     1      -3.907  -1.515   0.434  1.00  0.00    -0.252 OA
BRANCH   4   6
ATOM      6  C   UNL     1      -1.525  -1.931   0.420  1.00  0.00     0.124 C 
ATOM      7  C   UNL     1       0.720  -2.279   1.393  1.00  0.00     0.106 C 
ATOM      8  C   UNL     1       0.035  -3.566   1.077  1.00  0.00    -0.006 C 
ATOM      9  C   UNL     1      -0.275  -1.213   0.935  1.00  0.00     0.048 C 
ATOM     10  C   UNL     1      -1.207  -3.380   0.615  1.00  0.00    -0.014 C 
BRANCH   7  11
ATOM     11  N   UNL     1       2.006  -2.211   0.764  1.00  0.00    -0.345 N 
ATOM     12  C   UNL     1       2.975  -1.242   0.772  1.00  0.00     0.268 C 
ATOM     13  O   UNL     1       4.018  -1.536   0.184  1.00  0.00    -0.268 OA
ATOM     14  H   UNL     1       2.236  -3.005   0.229  1.00  0.00     0.164 HD
BRANCH  12  15
ATOM     15  C   UNL     1       2.772   0.095   1.312  1.00  0.00     0.108 A 
ATOM     16  N   UNL     1       2.193   0.559   2.491  1.00  0.00    -0.343 N 
ATOM     17  C   UNL     1       2.278   1.940   2.521  1.00  0.00     0.102 A 
ATOM     18  C   UNL     1       3.002   2.354   1.442  1.00  0.00     0.036 A 
ATOM     19  C   UNL     1       3.330   1.222   0.696  1.00  0.00     0.049 A 
ATOM     20  Br  UNL     1       3.550   4.100   1.053  1.00  0.00    -0.049 Br
BRANCH  16  21
ATOM     21  C   UNL     1       1.872  -0.202   3.696  1.00  0.00     0.119 C 
ATOM     22  C   UNL     1       0.392  -0.281   4.072  1.00  0.00     0.027 C 
ENDBRANCH  16  21
ENDBRANCH  12  15
ENDBRANCH   7  11
ENDBRANCH   4   6
ENDBRANCH   3   4
ENDBRANCH   2   3
ENDBRANCH   1   2
BRANCH   1  23
ATOM     23  O   UNL     1      -3.743   1.754   2.035  1.00  0.00    -0.374 OA
BRANCH  23  24
ATOM     24  C   UNL     1      -2.487   2.021   1.416  1.00  0.00     0.202 C 
BRANCH  24  25
ATOM     25  C   UNL     1      -1.810   3.283   1.940  1.00  0.00     0.261 C 
BRANCH  25  26
ATOM     26  O   UNL     1      -1.357   3.080   3.274  1.00  0.00    -0.460 OA
BRANCH  26  27
ATOM     27  C   UNL     1      -2.062   3.582   4.322  1.00  0.00     0.338 C 
ATOM     28  O   UNL     1      -3.118   4.160   4.305  1.00  0.00    -0.246 OA
BRANCH  27  29
ATOM     29  C   UNL     1      -1.207   3.357   5.514  1.00  0.00     0.060 A 
ATOM     30  C   UNL     1      -1.457   4.000   6.720  1.00  0.00     0.016 A 
ATOM     31  C   UNL     1      -0.034   2.617   5.351  1.00  0.00     0.016 A 
ATOM     32  C   UNL     1      -0.409   4.100   7.627  1.00  0.00     0.010 A 
ATOM     33  C   UNL     1       0.967   2.626   6.272  1.00  0.00     0.010 A 
ATOM     34  C   UNL     1       0.825   3.510   7.313  1.00  0.00    -0.014 A 
BRANCH  34  35
ATOM     35  C   UNL     1       2.028   3.798   8.052  1.00  0.00     0.031 A 
ATOM     36  C   UNL     1       2.039   3.155   9.373  1.00  0.00     0.074 A 
ATOM     37  C   UNL     1       3.086   4.430   7.501  1.00  0.00     0.049 A 
ATOM     38  N   UNL     1       1.771   3.727  10.495  1.00  0.00    -0.248 NA
ATOM     39  C   UNL     1       2.119   1.687   9.441  1.00  0.00     0.031 C 
ATOM     40  C   UNL     1       3.330   4.812   6.103  1.00  0.00     0.029 A 
ATOM     41  N   UNL     1       4.239   4.803   8.107  1.00  0.00    -0.354 N 
ATOM     42  C   UNL     1       1.883   2.731  11.450  1.00  0.00     0.074 A 
ATOM     43  C   UNL     1       1.857   1.482  10.733  1.00  0.00     0.031 C 
ATOM     44  C   UNL     1       4.634   5.154   5.948  1.00  0.00     0.029 A 
ATOM     45  C   UNL     1       5.273   5.164   7.253  1.00  0.00     0.049 A 
ATOM     46  H   UNL     1       4.337   4.817   9.087  1.00  0.00     0.167 HD
ATOM     47  C   UNL     1       2.294   3.033  12.711  1.00  0.00     0.031 A 
ATOM     48  C   UNL     1       6.560   5.405   7.619  1.00  0.00     0.031 A 
ATOM     49  C   UNL     1       2.257   4.459  12.943  1.00  0.00     0.049 A 
ATOM     50  C   UNL     1       6.551   5.677   9.080  1.00  0.00     0.074 A 
ATOM     51  C   UNL     1       1.264   5.419  12.921  1.00  0.00     0.029 A 
ATOM     52  N   UNL     1       3.447   5.139  12.804  1.00  0.00    -0.354 N 
ATOM     53  N   UNL     1       5.992   6.732   9.601  1.00  0.00    -0.248 NA
ATOM     54  C   UNL     1       6.698   4.541   9.979  1.00  0.00     0.031 C 
ATOM     55  C   UNL     1       1.864   6.553  12.296  1.00  0.00     0.029 A 
ATOM     56  C   UNL     1       3.208   6.263  12.053  1.00  0.00     0.049 A 
ATOM     57  H   UNL     1       4.316   4.868  13.178  1.00  0.00     0.167 HD
ATOM     58  C   UNL     1       5.320   6.262  10.722  1.00  0.00     0.074 A 
ATOM     59  C   UNL     1       5.856   4.917  10.948  1.00  0.00     0.031 C 
ATOM     60  C   UNL     1       4.184   6.872  11.175  1.00  0.00     0.031 A 
BRANCH  47  61
ATOM     61  C   UNL     1       3.147   2.111  13.540  1.00  0.00    -0.014 A 
ATOM     62  C   UNL     1       3.516   2.533  14.827  1.00  0.00     0.009 A 
ATOM     63  C   UNL     1       3.829   0.994  13.019  1.00  0.00     0.009 A 
ATOM     64  C   UNL     1       4.574   1.928  15.514  1.00  0.00     0.001 A 
ATOM     65  C   UNL     1       4.858   0.362  13.718  1.00  0.00     0.001 A 
ATOM     66  C   UNL     1       5.252   0.851  14.953  1.00  0.00     0.000 A 
ENDBRANCH  47  61
BRANCH  48  67
ATOM     67  C   UNL     1       7.811   5.086   6.889  1.00  0.00    -0.014 A 
ATOM     68  C   UNL     1       9.042   5.645   7.276  1.00  0.00     0.009 A 
ATOM     69  C   UNL     1       7.846   4.001   5.995  1.00  0.00     0.009 A 
ATOM     70  C   UNL     1      10.257   5.112   6.815  1.00  0.00     0.001 A 
ATOM     71  C   UNL     1       9.057   3.468   5.537  1.00  0.00     0.001 A 
ATOM     72  C   UNL     1      10.264   4.014   5.958  1.00  0.00     0.000 A 
ENDBRANCH  48  67
BRANCH  60  73
ATOM     73  C   UNL     1       3.790   8.190  10.545  1.00  0.00    -0.014 A 
ATOM     74  C   UNL     1       3.464   8.335   9.183  1.00  0.00     0.009 A 
ATOM     75  C   UNL     1       3.587   9.287  11.394  1.00  0.00     0.009 A 
ATOM     76  C   UNL     1       2.976   9.551   8.688  1.00  0.00     0.001 A 
ATOM     77  C   UNL     1       3.082  10.493  10.903  1.00  0.00     0.001 A 
ATOM     78  C   UNL     1       2.781  10.627   9.550  1.00  0.00     0.000 A 
ENDBRANCH  60  73
ENDBRANCH  34  35
ENDBRANCH  27  29
ENDBRANCH  26  27
ENDBRANCH  25  26
ENDBRANCH  24  25
ENDBRANCH  23  24
ENDBRANCH   1  23
TORSDOF 17
