REMARK SMILES Cc1ccc(C(=O)OCCOCCOC(=O)c2ccc(-c3c4nc(c(-c5ccccc5)c5ccc([nH]5)c(-c5ccccc5)c5nc(c(-c6ccccc6)c6ccc3[nH]6)C=C5)C=C4)cc2)cc1N[C@@H]1CC(=O)N(c2ccccc2C)C1=O
REMARK SMILES IDX 10 1 9 2 8 3 6 4 7 5 5 6 1 7 2 8 3 9 66 10 4 11 65 12 67 13
REMARK SMILES IDX 68 15 69 16 80 17 70 18 72 19 81 20 71 21 73 22 74 23 78 24
REMARK SMILES IDX 75 25 77 26 79 27 76 28 11 29 12 30 13 31 14 32 15 33 16 34
REMARK SMILES IDX 17 35 18 36 64 37 19 38 63 39 20 40 21 41 22 42 57 43 23 44
REMARK SMILES IDX 62 45 56 46 58 47 24 48 61 49 55 50 54 51 25 53 47 54 32 55
REMARK SMILES IDX 46 56 33 57 36 58 45 59 59 60 34 61 35 62 44 64 60 65 37 66
REMARK SMILES IDX 26 67 27 68 31 69 28 70 30 71 29 72 48 73 49 74 53 75 50 76
REMARK SMILES IDX 52 77 51 78 38 79 39 80 43 81 40 82 42 83 41 84
REMARK H PARENT 67 14 58 52 36 63
REMARK Flexibility Score: inf
ROOT
ATOM      1  C   UNL     1      -3.579   1.050  -2.375  1.00  0.00     0.202 C 
ENDROOT
BRANCH   1   2
ATOM      2  C   UNL     1      -3.956   1.483  -0.995  1.00  0.00     0.261 C 
BRANCH   2   3
ATOM      3  O   UNL     1      -2.901   1.274  -0.051  1.00  0.00    -0.460 OA
BRANCH   3   4
ATOM      4  C   UNL     1      -2.510  -0.003   0.218  1.00  0.00     0.338 C 
ATOM      5  O   UNL     1      -3.205  -0.974   0.408  1.00  0.00    -0.246 OA
BRANCH   4   6
ATOM      6  C   UNL     1      -1.030   0.004   0.145  1.00  0.00     0.062 A 
ATOM      7  C   UNL     1       3.243   0.054  -0.203  1.00  0.00     0.046 C 
ATOM      8  C   UNL     1       1.743   0.121  -0.106  1.00  0.00    -0.028 A 
ATOM      9  C   UNL     1       1.076  -1.111   0.127  1.00  0.00     0.006 A 
ATOM     10  C   UNL     1       1.011   1.317  -0.249  1.00  0.00     0.038 A 
ATOM     11  C   UNL     1      -0.307  -1.171   0.272  1.00  0.00     0.016 A 
ATOM     12  C   UNL     1      -0.366   1.207  -0.135  1.00  0.00     0.041 A 
BRANCH  10  13
ATOM     13  N   UNL     1       1.598   2.559  -0.402  1.00  0.00    -0.373 N 
ATOM     14  H   UNL     1       2.542   2.554  -0.681  1.00  0.00     0.161 HD
BRANCH  13  15
ATOM     15  C   UNL     1       0.993   3.896  -0.202  1.00  0.00     0.179 C 
ATOM     16  C   UNL     1       0.274   4.094   1.107  1.00  0.00     0.136 C 
ATOM     17  C   UNL     1      -0.011   4.380  -1.242  1.00  0.00     0.256 C 
ATOM     18  C   UNL     1      -0.805   5.081   0.767  1.00  0.00     0.236 C 
ATOM     19  N   UNL     1      -0.917   5.225  -0.601  1.00  0.00    -0.248 N 
ATOM     20  O   UNL     1       0.074   4.103  -2.432  1.00  0.00    -0.272 OA
ATOM     21  O   UNL     1      -1.510   5.535   1.659  1.00  0.00    -0.274 OA
BRANCH  19  22
ATOM     22  C   UNL     1      -1.919   6.029  -1.280  1.00  0.00     0.055 A 
ATOM     23  C   UNL     1      -2.347   5.643  -2.572  1.00  0.00     0.027 A 
ATOM     24  C   UNL     1      -2.544   7.188  -0.739  1.00  0.00    -0.027 A 
ATOM     25  C   UNL     1      -3.380   6.298  -3.264  1.00  0.00     0.002 A 
ATOM     26  C   UNL     1      -3.617   7.809  -1.435  1.00  0.00     0.005 A 
ATOM     27  C   UNL     1      -2.175   7.885   0.545  1.00  0.00     0.046 C 
ATOM     28  C   UNL     1      -4.035   7.369  -2.683  1.00  0.00     0.000 A 
ENDBRANCH  19  22
ENDBRANCH  13  15
ENDBRANCH  10  13
ENDBRANCH   4   6
ENDBRANCH   3   4
ENDBRANCH   2   3
ENDBRANCH   1   2
BRANCH   1  29
ATOM     29  O   UNL     1      -3.683  -0.364  -2.373  1.00  0.00    -0.374 OA
BRANCH  29  30
ATOM     30  C   UNL     1      -3.506  -0.988  -3.629  1.00  0.00     0.202 C 
BRANCH  30  31
ATOM     31  C   UNL     1      -4.523  -0.517  -4.679  1.00  0.00     0.261 C 
BRANCH  31  32
ATOM     32  O   UNL     1      -5.861  -0.819  -4.223  1.00  0.00    -0.460 OA
BRANCH  32  33
ATOM     33  C   UNL     1      -6.606   0.229  -3.772  1.00  0.00     0.338 C 
ATOM     34  O   UNL     1      -6.706   1.316  -4.318  1.00  0.00    -0.246 OA
BRANCH  33  35
ATOM     35  C   UNL     1      -7.044  -0.035  -2.368  1.00  0.00     0.060 A 
ATOM     36  C   UNL     1      -7.629   0.995  -1.606  1.00  0.00     0.016 A 
ATOM     37  C   UNL     1      -6.548  -1.168  -1.728  1.00  0.00     0.016 A 
ATOM     38  C   UNL     1      -7.555   0.966  -0.204  1.00  0.00     0.010 A 
ATOM     39  C   UNL     1      -6.381  -1.137  -0.359  1.00  0.00     0.010 A 
ATOM     40  C   UNL     1      -6.840  -0.056   0.413  1.00  0.00    -0.014 A 
BRANCH  40  41
ATOM     41  C   UNL     1      -6.357  -0.056   1.802  1.00  0.00     0.031 A 
ATOM     42  C   UNL     1      -6.730  -1.186   2.673  1.00  0.00     0.074 A 
ATOM     43  C   UNL     1      -5.336   0.755   2.179  1.00  0.00     0.049 A 
ATOM     44  N   UNL     1      -6.487  -1.235   3.936  1.00  0.00    -0.248 NA
ATOM     45  C   UNL     1      -7.454  -2.365   2.198  1.00  0.00     0.031 C 
ATOM     46  C   UNL     1      -4.335   0.554   3.229  1.00  0.00     0.029 A 
ATOM     47  N   UNL     1      -4.977   2.000   1.667  1.00  0.00    -0.354 N 
ATOM     48  C   UNL     1      -6.598  -2.553   4.306  1.00  0.00     0.074 A 
ATOM     49  C   UNL     1      -7.370  -3.170   3.259  1.00  0.00     0.031 C 
ATOM     50  C   UNL     1      -3.705   1.718   3.485  1.00  0.00     0.029 A 
ATOM     51  C   UNL     1      -4.374   2.737   2.694  1.00  0.00     0.049 A 
ATOM     52  H   UNL     1      -5.121   2.308   0.744  1.00  0.00     0.167 HD
ATOM     53  C   UNL     1      -5.848  -2.997   5.354  1.00  0.00     0.031 A 
ATOM     54  C   UNL     1      -4.898   3.925   3.100  1.00  0.00     0.031 A 
ATOM     55  C   UNL     1      -5.135  -1.885   6.008  1.00  0.00     0.049 A 
ATOM     56  C   UNL     1      -5.251   3.759   4.540  1.00  0.00     0.074 A 
ATOM     57  C   UNL     1      -3.798  -1.532   6.092  1.00  0.00     0.029 A 
ATOM     58  N   UNL     1      -5.857  -0.767   6.433  1.00  0.00    -0.354 N 
ATOM     59  N   UNL     1      -5.634   2.608   5.026  1.00  0.00    -0.248 NA
ATOM     60  C   UNL     1      -5.033   4.776   5.563  1.00  0.00     0.031 C 
ATOM     61  C   UNL     1      -3.731  -0.164   6.492  1.00  0.00     0.029 A 
ATOM     62  C   UNL     1      -5.023   0.306   6.676  1.00  0.00     0.049 A 
ATOM     63  H   UNL     1      -6.835  -0.747   6.544  1.00  0.00     0.167 HD
ATOM     64  C   UNL     1      -5.523   2.663   6.378  1.00  0.00     0.074 A 
ATOM     65  C   UNL     1      -5.244   4.059   6.681  1.00  0.00     0.031 C 
ATOM     66  C   UNL     1      -5.559   1.565   7.178  1.00  0.00     0.031 A 
BRANCH  53  67
ATOM     67  C   UNL     1      -5.547  -4.459   5.628  1.00  0.00    -0.014 A 
ATOM     68  C   UNL     1      -4.578  -4.796   6.591  1.00  0.00     0.009 A 
ATOM     69  C   UNL     1      -6.123  -5.551   4.951  1.00  0.00     0.009 A 
ATOM     70  C   UNL     1      -4.192  -6.124   6.835  1.00  0.00     0.001 A 
ATOM     71  C   UNL     1      -5.749  -6.881   5.190  1.00  0.00     0.001 A 
ATOM     72  C   UNL     1      -4.777  -7.168   6.132  1.00  0.00     0.000 A 
ENDBRANCH  53  67
BRANCH  54  73
ATOM     73  C   UNL     1      -5.657   4.596   2.001  1.00  0.00    -0.014 A 
ATOM     74  C   UNL     1      -4.898   4.956   0.867  1.00  0.00     0.009 A 
ATOM     75  C   UNL     1      -7.038   4.432   1.833  1.00  0.00     0.009 A 
ATOM     76  C   UNL     1      -5.460   4.948  -0.411  1.00  0.00     0.001 A 
ATOM     77  C   UNL     1      -7.607   4.490   0.546  1.00  0.00     0.001 A 
ATOM     78  C   UNL     1      -6.810   4.692  -0.579  1.00  0.00     0.000 A 
ENDBRANCH  54  73
BRANCH  66  79
ATOM     79  C   UNL     1      -6.125   1.630   8.559  1.00  0.00    -0.014 A 
ATOM     80  C   UNL     1      -6.960   2.676   8.980  1.00  0.00     0.009 A 
ATOM     81  C   UNL     1      -6.020   0.504   9.397  1.00  0.00     0.009 A 
ATOM     82  C   UNL     1      -7.627   2.619  10.202  1.00  0.00     0.001 A 
ATOM     83  C   UNL     1      -6.729   0.420  10.592  1.00  0.00     0.001 A 
ATOM     84  C   UNL     1      -7.522   1.485  11.000  1.00  0.00     0.000 A 
ENDBRANCH  66  79
ENDBRANCH  40  41
ENDBRANCH  33  35
ENDBRANCH  32  33
ENDBRANCH  31  32
ENDBRANCH  30  31
ENDBRANCH  29  30
ENDBRANCH   1  29
TORSDOF 17
