REMARK SMILES O=C(OCCOCCOC(=O)[C@H]1CC=CC[C@H]1C(=O)Nc1ccc(S(=O)(=O)N2CCc3ccccc32)cc1)c1ccc(-c2c3nc(c(-c4ccccc4)c4ccc([nH]4)c(-c4ccccc4)c4nc(c(-c5ccccc5)c5ccc2[nH]5)C=C4)C=C3)cc1
REMARK SMILES IDX 7 1 6 2 5 3 4 4 3 5 2 6 1 7 39 8 40 9 86 10 41 11 85 12
REMARK SMILES IDX 42 13 43 14 44 15 79 16 45 17 84 18 78 19 80 20 46 21 83 22
REMARK SMILES IDX 77 23 76 24 47 26 69 27 54 28 68 29 55 30 58 31 67 32 81 33
REMARK SMILES IDX 56 34 57 35 66 37 82 38 59 39 48 40 49 41 53 42 50 43 52 44
REMARK SMILES IDX 51 45 70 46 71 47 75 48 72 49 74 50 73 51 60 52 61 53 65 54
REMARK SMILES IDX 62 55 64 56 63 57 8 58 9 59 10 60 11 61 12 62 13 63 17 64
REMARK SMILES IDX 14 65 16 66 15 67 18 68 19 69 20 70 21 72 22 73 38 74 23 75
REMARK SMILES IDX 37 76 24 77 25 78 26 79 27 80 28 81 29 82 36 83 30 84 31 85
REMARK SMILES IDX 35 86 32 87 34 88 33 89
REMARK H PARENT 80 25 58 36 20 71
REMARK Flexibility Score: inf
ROOT
ATOM      1  C   UNL     1       2.998  -0.214  -1.103  1.00  0.00     0.202 C 
ENDROOT
BRANCH   1   2
ATOM      2  O   UNL     1       4.361   0.009  -0.803  1.00  0.00    -0.374 OA
BRANCH   2   3
ATOM      3  C   UNL     1       5.292  -0.705  -1.608  1.00  0.00     0.202 C 
BRANCH   3   4
ATOM      4  C   UNL     1       5.465  -2.185  -1.261  1.00  0.00     0.261 C 
BRANCH   4   5
ATOM      5  O   UNL     1       5.387  -2.559   0.117  1.00  0.00    -0.460 OA
BRANCH   5   6
ATOM      6  C   UNL     1       4.404  -1.978   0.830  1.00  0.00     0.338 C 
ATOM      7  O   UNL     1       3.254  -2.382   0.905  1.00  0.00    -0.246 OA
BRANCH   6   8
ATOM      8  C   UNL     1       4.966  -0.870   1.640  1.00  0.00     0.060 A 
ATOM      9  C   UNL     1       6.302  -0.466   1.583  1.00  0.00     0.016 A 
ATOM     10  C   UNL     1       4.098  -0.238   2.509  1.00  0.00     0.016 A 
ATOM     11  C   UNL     1       6.813   0.333   2.589  1.00  0.00     0.010 A 
ATOM     12  C   UNL     1       4.591   0.509   3.544  1.00  0.00     0.010 A 
ATOM     13  C   UNL     1       5.966   0.671   3.637  1.00  0.00    -0.014 A 
BRANCH  13  14
ATOM     14  C   UNL     1       6.470   0.929   4.977  1.00  0.00     0.031 A 
ATOM     15  C   UNL     1       6.779  -0.259   5.840  1.00  0.00     0.074 A 
ATOM     16  C   UNL     1       6.357   2.175   5.446  1.00  0.00     0.049 A 
ATOM     17  N   UNL     1       7.300  -0.296   7.034  1.00  0.00    -0.248 NA
ATOM     18  C   UNL     1       6.405  -1.589   5.312  1.00  0.00     0.031 C 
ATOM     19  C   UNL     1       5.814   3.309   4.692  1.00  0.00     0.029 A 
ATOM     20  N   UNL     1       6.630   2.676   6.677  1.00  0.00    -0.354 N 
ATOM     21  C   UNL     1       7.368  -1.643   7.370  1.00  0.00     0.074 A 
ATOM     22  C   UNL     1       6.732  -2.390   6.314  1.00  0.00     0.031 C 
ATOM     23  C   UNL     1       5.782   4.384   5.494  1.00  0.00     0.029 A 
ATOM     24  C   UNL     1       6.358   4.014   6.779  1.00  0.00     0.049 A 
ATOM     25  H   UNL     1       6.985   2.135   7.418  1.00  0.00     0.167 HD
ATOM     26  C   UNL     1       7.967  -2.187   8.455  1.00  0.00     0.031 A 
ATOM     27  C   UNL     1       6.629   4.841   7.797  1.00  0.00     0.031 A 
ATOM     28  C   UNL     1       8.527  -1.358   9.487  1.00  0.00     0.049 A 
ATOM     29  C   UNL     1       7.402   4.252   8.942  1.00  0.00     0.074 A 
ATOM     30  C   UNL     1       9.276  -1.706  10.591  1.00  0.00     0.029 A 
ATOM     31  N   UNL     1       8.369   0.025   9.521  1.00  0.00    -0.354 N 
ATOM     32  N   UNL     1       7.703   2.993   9.172  1.00  0.00    -0.248 NA
ATOM     33  C   UNL     1       7.944   5.197   9.918  1.00  0.00     0.031 C 
ATOM     34  C   UNL     1       9.545  -0.532  11.308  1.00  0.00     0.029 A 
ATOM     35  C   UNL     1       9.004   0.551  10.625  1.00  0.00     0.049 A 
ATOM     36  H   UNL     1       7.875   0.552   8.852  1.00  0.00     0.167 HD
ATOM     37  C   UNL     1       8.510   2.993  10.298  1.00  0.00     0.074 A 
ATOM     38  C   UNL     1       8.657   4.386  10.688  1.00  0.00     0.031 C 
ATOM     39  C   UNL     1       9.088   1.954  10.955  1.00  0.00     0.031 A 
BRANCH  26  40
ATOM     40  C   UNL     1       8.075  -3.689   8.521  1.00  0.00    -0.014 A 
ATOM     41  C   UNL     1       8.793  -4.400   7.540  1.00  0.00     0.009 A 
ATOM     42  C   UNL     1       7.471  -4.416   9.557  1.00  0.00     0.009 A 
ATOM     43  C   UNL     1       8.856  -5.796   7.561  1.00  0.00     0.001 A 
ATOM     44  C   UNL     1       7.562  -5.813   9.595  1.00  0.00     0.001 A 
ATOM     45  C   UNL     1       8.242  -6.503   8.591  1.00  0.00     0.000 A 
ENDBRANCH  26  40
BRANCH  27  46
ATOM     46  C   UNL     1       6.353   6.289   7.651  1.00  0.00    -0.014 A 
ATOM     47  C   UNL     1       7.403   7.179   7.379  1.00  0.00     0.009 A 
ATOM     48  C   UNL     1       5.040   6.781   7.688  1.00  0.00     0.009 A 
ATOM     49  C   UNL     1       7.152   8.540   7.199  1.00  0.00     0.001 A 
ATOM     50  C   UNL     1       4.788   8.140   7.482  1.00  0.00     0.001 A 
ATOM     51  C   UNL     1       5.845   9.020   7.251  1.00  0.00     0.000 A 
ENDBRANCH  27  46
BRANCH  39  52
ATOM     52  C   UNL     1       9.922   2.314  12.146  1.00  0.00    -0.014 A 
ATOM     53  C   UNL     1       9.325   2.773  13.329  1.00  0.00     0.009 A 
ATOM     54  C   UNL     1      11.313   2.145  12.092  1.00  0.00     0.009 A 
ATOM     55  C   UNL     1      10.115   3.094  14.430  1.00  0.00     0.001 A 
ATOM     56  C   UNL     1      12.096   2.430  13.208  1.00  0.00     0.001 A 
ATOM     57  C   UNL     1      11.497   2.914  14.371  1.00  0.00     0.000 A 
ENDBRANCH  39  52
ENDBRANCH  13  14
ENDBRANCH   6   8
ENDBRANCH   5   6
ENDBRANCH   4   5
ENDBRANCH   3   4
ENDBRANCH   2   3
ENDBRANCH   1   2
BRANCH   1  58
ATOM     58  C   UNL     1       2.412   0.926  -1.868  1.00  0.00     0.261 C 
BRANCH  58  59
ATOM     59  O   UNL     1       3.298   1.506  -2.816  1.00  0.00    -0.463 OA
BRANCH  59  60
ATOM     60  C   UNL     1       4.551   1.979  -2.854  1.00  0.00     0.310 C 
ATOM     61  O   UNL     1       5.402   2.105  -1.979  1.00  0.00    -0.252 OA
BRANCH  60  62
ATOM     62  C   UNL     1       4.776   2.362  -4.275  1.00  0.00     0.116 C 
ATOM     63  C   UNL     1       4.759   1.069  -5.127  1.00  0.00     0.043 C 
ATOM     64  C   UNL     1       3.671   3.375  -4.609  1.00  0.00     0.097 C 
ATOM     65  C   UNL     1       3.381   0.508  -5.352  1.00  0.00    -0.030 C 
ATOM     66  C   UNL     1       2.290   2.756  -4.947  1.00  0.00     0.041 C 
ATOM     67  C   UNL     1       2.278   1.272  -5.275  1.00  0.00    -0.030 C 
BRANCH  64  68
ATOM     68  C   UNL     1       3.669   4.645  -3.682  1.00  0.00     0.228 C 
ATOM     69  O   UNL     1       4.067   5.687  -4.246  1.00  0.00    -0.274 OA
ATOM     70  N   UNL     1       3.329   4.868  -2.368  1.00  0.00    -0.326 N 
ATOM     71  H   UNL     1       3.580   5.784  -2.110  1.00  0.00     0.169 HD
BRANCH  70  72
ATOM     72  C   UNL     1       2.730   4.204  -1.258  1.00  0.00     0.041 A 
ATOM     73  C   UNL     1       1.412   4.511  -0.919  1.00  0.00     0.027 A 
ATOM     74  C   UNL     1       3.435   3.488  -0.268  1.00  0.00     0.027 A 
ATOM     75  C   UNL     1       0.747   3.865   0.158  1.00  0.00     0.024 A 
ATOM     76  C   UNL     1       2.763   2.773   0.798  1.00  0.00     0.024 A 
ATOM     77  C   UNL     1       1.374   2.881   0.950  1.00  0.00     0.088 A 
BRANCH  77  78
ATOM     78  S   UNL     1       0.210   1.542   1.540  1.00  0.00     0.264 S 
ATOM     79  O   UNL     1      -1.041   2.237   1.785  1.00  0.00    -0.201 OA
ATOM     80  O   UNL     1       0.270   0.546   0.487  1.00  0.00    -0.201 OA
BRANCH  78  81
ATOM     81  N   UNL     1       0.639   0.784   2.963  1.00  0.00    -0.266 N 
ATOM     82  C   UNL     1       0.765  -0.692   3.167  1.00  0.00     0.140 C 
ATOM     83  C   UNL     1       0.610   1.362   4.245  1.00  0.00     0.055 A 
ATOM     84  C   UNL     1       1.509  -0.818   4.542  1.00  0.00     0.060 C 
ATOM     85  C   UNL     1       1.350   0.565   5.110  1.00  0.00    -0.022 A 
ATOM     86  C   UNL     1      -0.099   2.439   4.716  1.00  0.00     0.027 A 
ATOM     87  C   UNL     1       1.813   1.103   6.296  1.00  0.00     0.006 A 
ATOM     88  C   UNL     1       0.248   2.933   5.969  1.00  0.00     0.002 A 
ATOM     89  C   UNL     1       1.291   2.337   6.694  1.00  0.00     0.000 A 
ENDBRANCH  78  81
ENDBRANCH  77  78
ENDBRANCH  70  72
ENDBRANCH  64  68
ENDBRANCH  60  62
ENDBRANCH  59  60
ENDBRANCH  58  59
ENDBRANCH   1  58
TORSDOF 18
