REMARK SMILES Cc1cc(C(=O)NC[C@@H]2CC[C@H](C(=O)OCCOCCOC(=O)c3ccc(-c4c5nc(c(-c6ccccc6)c6ccc([nH]6)c(-c6ccccc6)c6nc(c(-c7ccccc7)c7ccc4[nH]7)C=C6)C=C5)cc3)O2)on1
REMARK SMILES IDX 17 1 16 2 15 3 13 4 14 5 12 6 9 7 10 8 72 9 11 10 8 11 7 12
REMARK SMILES IDX 5 13 6 14 4 16 1 17 2 18 3 19 74 20 73 21 18 22 19 23 20 24
REMARK SMILES IDX 21 25 22 26 23 27 24 28 25 29 71 30 26 31 70 32 27 33 28 34
REMARK SMILES IDX 29 35 64 36 30 37 69 38 63 39 65 40 31 41 68 42 62 43 61 44
REMARK SMILES IDX 32 46 54 47 39 48 53 49 40 50 43 51 52 52 66 53 41 54 42 55
REMARK SMILES IDX 51 57 67 58 44 59 33 60 34 61 38 62 35 63 37 64 36 65 55 66
REMARK SMILES IDX 56 67 60 68 57 69 59 70 58 71 45 72 46 73 50 74 47 75 49 76
REMARK SMILES IDX 48 77
REMARK H PARENT 7 15 65 45 43 56
REMARK Flexibility Score: inf
ROOT
ATOM      1  C   UNL     1      -1.269  -9.434  -1.806  1.00  0.00     0.202 C 
ENDROOT
BRANCH   1   2
ATOM      2  C   UNL     1      -2.057  -8.135  -1.625  1.00  0.00     0.261 C 
BRANCH   2   3
ATOM      3  O   UNL     1      -1.552  -7.374  -0.514  1.00  0.00    -0.461 OA
BRANCH   3   4
ATOM      4  C   UNL     1      -2.456  -7.082   0.463  1.00  0.00     0.335 C 
ATOM      5  O   UNL     1      -3.658  -7.310   0.388  1.00  0.00    -0.249 OA
BRANCH   4   6
ATOM      6  C   UNL     1      -1.811  -6.391   1.675  1.00  0.00     0.228 C 
ATOM      7  C   UNL     1      -1.038  -4.262   1.116  1.00  0.00     0.138 C 
ATOM      8  C   UNL     1       0.151  -5.209   1.030  1.00  0.00     0.037 C 
ATOM      9  O   UNL     1      -2.139  -4.999   1.682  1.00  0.00    -0.361 OA
ATOM     10  C   UNL     1      -0.298  -6.433   1.790  1.00  0.00     0.047 C 
BRANCH   7  11
ATOM     11  C   UNL     1      -1.452  -3.724  -0.262  1.00  0.00     0.148 C 
BRANCH  11  12
ATOM     12  N   UNL     1      -2.486  -2.715  -0.143  1.00  0.00    -0.347 N 
ATOM     13  C   UNL     1      -2.419  -1.347  -0.052  1.00  0.00     0.289 C 
ATOM     14  O   UNL     1      -3.501  -0.759   0.004  1.00  0.00    -0.266 OA
ATOM     15  H   UNL     1      -3.401  -3.076  -0.125  1.00  0.00     0.164 HD
BRANCH  13  16
ATOM     16  C   UNL     1      -1.150  -0.655  -0.037  1.00  0.00     0.224 A 
ATOM     17  C   UNL     1       2.353   0.430   0.074  1.00  0.00     0.070 C 
ATOM     18  C   UNL     1       0.891   0.213   0.002  1.00  0.00     0.081 A 
ATOM     19  C   UNL     1       0.173  -0.993   0.155  1.00  0.00     0.083 A 
ATOM     20  N   UNL     1       0.068   1.237  -0.234  1.00  0.00    -0.084 NA
ATOM     21  O   UNL     1      -1.204   0.698  -0.245  1.00  0.00    -0.351 OA
ENDBRANCH  13  16
ENDBRANCH  11  12
ENDBRANCH   7  11
ENDBRANCH   4   6
ENDBRANCH   3   4
ENDBRANCH   2   3
ENDBRANCH   1   2
BRANCH   1  22
ATOM     22  O   UNL     1      -1.370 -10.385  -0.748  1.00  0.00    -0.374 OA
BRANCH  22  23
ATOM     23  C   UNL     1      -0.653 -10.122   0.457  1.00  0.00     0.202 C 
BRANCH  23  24
ATOM     24  C   UNL     1       0.867 -10.324   0.412  1.00  0.00     0.261 C 
BRANCH  24  25
ATOM     25  O   UNL     1       1.527  -9.396  -0.470  1.00  0.00    -0.460 OA
BRANCH  25  26
ATOM     26  C   UNL     1       2.109  -9.965  -1.554  1.00  0.00     0.338 C 
ATOM     27  O   UNL     1       2.179 -11.158  -1.819  1.00  0.00    -0.246 OA
BRANCH  26  28
ATOM     28  C   UNL     1       2.536  -8.930  -2.512  1.00  0.00     0.060 A 
ATOM     29  C   UNL     1       2.063  -9.026  -3.828  1.00  0.00     0.016 A 
ATOM     30  C   UNL     1       3.466  -7.950  -2.161  1.00  0.00     0.016 A 
ATOM     31  C   UNL     1       2.555  -8.171  -4.813  1.00  0.00     0.010 A 
ATOM     32  C   UNL     1       3.967  -7.101  -3.154  1.00  0.00     0.010 A 
ATOM     33  C   UNL     1       3.542  -7.232  -4.489  1.00  0.00    -0.014 A 
BRANCH  33  34
ATOM     34  C   UNL     1       4.253  -6.501  -5.566  1.00  0.00     0.031 A 
ATOM     35  C   UNL     1       5.597  -7.004  -6.018  1.00  0.00     0.074 A 
ATOM     36  C   UNL     1       3.716  -5.408  -6.137  1.00  0.00     0.049 A 
ATOM     37  N   UNL     1       6.441  -6.470  -6.863  1.00  0.00    -0.248 NA
ATOM     38  C   UNL     1       6.049  -8.278  -5.436  1.00  0.00     0.031 C 
ATOM     39  C   UNL     1       2.396  -4.856  -5.838  1.00  0.00     0.029 A 
ATOM     40  N   UNL     1       4.232  -4.560  -7.085  1.00  0.00    -0.354 N 
ATOM     41  C   UNL     1       7.529  -7.332  -6.902  1.00  0.00     0.074 A 
ATOM     42  C   UNL     1       7.247  -8.415  -5.985  1.00  0.00     0.031 C 
ATOM     43  C   UNL     1       2.212  -3.749  -6.578  1.00  0.00     0.029 A 
ATOM     44  C   UNL     1       3.414  -3.494  -7.369  1.00  0.00     0.049 A 
ATOM     45  H   UNL     1       5.104  -4.703  -7.520  1.00  0.00     0.167 HD
ATOM     46  C   UNL     1       8.663  -7.232  -7.636  1.00  0.00     0.031 A 
ATOM     47  C   UNL     1       3.626  -2.420  -8.154  1.00  0.00     0.031 A 
ATOM     48  C   UNL     1       8.949  -6.154  -8.543  1.00  0.00     0.049 A 
ATOM     49  C   UNL     1       4.931  -2.284  -8.892  1.00  0.00     0.074 A 
ATOM     50  C   UNL     1      10.068  -5.969  -9.335  1.00  0.00     0.029 A 
ATOM     51  N   UNL     1       8.109  -5.078  -8.775  1.00  0.00    -0.354 N 
ATOM     52  N   UNL     1       5.953  -3.106  -8.922  1.00  0.00    -0.248 NA
ATOM     53  C   UNL     1       5.112  -1.072  -9.705  1.00  0.00     0.031 C 
ATOM     54  C   UNL     1       9.927  -4.752 -10.010  1.00  0.00     0.029 A 
ATOM     55  C   UNL     1       8.696  -4.210  -9.679  1.00  0.00     0.049 A 
ATOM     56  H   UNL     1       7.226  -4.949  -8.359  1.00  0.00     0.167 HD
ATOM     57  C   UNL     1       6.880  -2.527  -9.780  1.00  0.00     0.074 A 
ATOM     58  C   UNL     1       6.301  -1.287 -10.252  1.00  0.00     0.031 C 
ATOM     59  C   UNL     1       8.101  -2.986 -10.148  1.00  0.00     0.031 A 
BRANCH  46  60
ATOM     60  C   UNL     1       9.700  -8.303  -7.452  1.00  0.00    -0.014 A 
ATOM     61  C   UNL     1       9.518  -9.594  -7.970  1.00  0.00     0.009 A 
ATOM     62  C   UNL     1      10.894  -8.002  -6.777  1.00  0.00     0.009 A 
ATOM     63  C   UNL     1      10.498 -10.572  -7.788  1.00  0.00     0.001 A 
ATOM     64  C   UNL     1      11.883  -8.974  -6.619  1.00  0.00     0.001 A 
ATOM     65  C   UNL     1      11.680 -10.260  -7.116  1.00  0.00     0.000 A 
ENDBRANCH  46  60
BRANCH  47  66
ATOM     66  C   UNL     1       2.588  -1.361  -8.259  1.00  0.00    -0.014 A 
ATOM     67  C   UNL     1       1.871  -1.178  -9.450  1.00  0.00     0.009 A 
ATOM     68  C   UNL     1       2.325  -0.515  -7.170  1.00  0.00     0.009 A 
ATOM     69  C   UNL     1       0.925  -0.155  -9.556  1.00  0.00     0.001 A 
ATOM     70  C   UNL     1       1.359   0.489  -7.270  1.00  0.00     0.001 A 
ATOM     71  C   UNL     1       0.667   0.674  -8.465  1.00  0.00     0.000 A 
ENDBRANCH  47  66
BRANCH  59  72
ATOM     72  C   UNL     1       8.878  -2.174 -11.145  1.00  0.00    -0.014 A 
ATOM     73  C   UNL     1       9.518  -0.982 -10.777  1.00  0.00     0.009 A 
ATOM     74  C   UNL     1       9.028  -2.652 -12.457  1.00  0.00     0.009 A 
ATOM     75  C   UNL     1      10.276  -0.272 -11.711  1.00  0.00     0.001 A 
ATOM     76  C   UNL     1       9.806  -1.954 -13.381  1.00  0.00     0.001 A 
ATOM     77  C   UNL     1      10.425  -0.762 -13.009  1.00  0.00     0.000 A 
ENDBRANCH  59  72
ENDBRANCH  33  34
ENDBRANCH  26  28
ENDBRANCH  25  26
ENDBRANCH  24  25
ENDBRANCH  23  24
ENDBRANCH  22  23
ENDBRANCH   1  22
TORSDOF 17
