REMARK SMILES COC(=O)c1c(NC(=O)CCC(=O)OCCOCCOC(=O)c2ccc(-c3c4nc(c(-c5ccccc5)c5ccc([nH]5)c(-c5ccccc5)c5nc(c(-c6ccccc6)c6ccc3[nH]6)C=C5)C=C4)cc2)sc2c1CCCCCC2
REMARK SMILES IDX 15 1 14 2 12 3 13 4 11 5 10 6 8 7 7 8 9 10 6 11 5 12 73 13
REMARK SMILES IDX 71 14 72 15 3 16 4 17 2 18 1 19 74 20 75 21 76 22 79 24
REMARK SMILES IDX 78 25 77 26 16 28 17 29 18 30 19 31 20 32 21 33 22 34 23 35
REMARK SMILES IDX 24 36 70 37 25 38 69 39 26 40 27 41 28 42 63 43 29 44 68 45
REMARK SMILES IDX 62 46 64 47 30 48 67 49 61 50 60 51 31 53 53 54 38 55 52 56
REMARK SMILES IDX 39 57 42 58 51 59 65 60 40 61 41 62 50 64 66 65 43 66 32 67
REMARK SMILES IDX 33 68 37 69 34 70 36 71 35 72 54 73 55 74 59 75 56 76 58 77
REMARK SMILES IDX 57 78 44 79 45 80 49 81 46 82 48 83 47 84
REMARK H PARENT 7 9 64 52 42 63
REMARK Flexibility Score: 100.00
ROOT
ATOM      1  C   UNL     1       0.596  -4.896  -1.912  1.00  0.00     0.261 C 
ENDROOT
BRANCH   1   2
ATOM      2  O   UNL     1      -0.298  -4.451  -0.873  1.00  0.00    -0.463 OA
BRANCH   2   3
ATOM      3  C   UNL     1       0.266  -3.697   0.095  1.00  0.00     0.306 C 
ATOM      4  O   UNL     1       1.471  -3.610   0.289  1.00  0.00    -0.252 OA
BRANCH   3   5
ATOM      5  C   UNL     1      -0.764  -2.935   0.890  1.00  0.00     0.132 C 
BRANCH   5   6
ATOM      6  C   UNL     1      -1.654  -1.938   0.156  1.00  0.00     0.112 C 
BRANCH   6   7
ATOM      7  C   UNL     1      -2.612  -2.497  -0.845  1.00  0.00     0.225 C 
ATOM      8  N   UNL     1      -2.263  -2.749  -2.129  1.00  0.00    -0.317 N 
ATOM      9  H   UNL     1      -3.036  -2.915  -2.716  1.00  0.00     0.170 HD
ATOM     10  O   UNL     1      -3.787  -2.690  -0.514  1.00  0.00    -0.275 OA
BRANCH   8  11
ATOM     11  C   UNL     1      -1.052  -2.822  -2.789  1.00  0.00     0.110 A 
ATOM     12  C   UNL     1       0.714  -2.541  -2.690  1.00  0.00     0.098 A 
ATOM     13  C   UNL     1       1.651  -3.324  -4.215  1.00  0.00    -0.017 A 
ATOM     14  S   UNL     1      -1.633  -3.852  -4.796  1.00  0.00    -0.122 S 
ATOM     15  C   UNL     1       0.561  -3.961  -5.448  1.00  0.00     0.011 A 
BRANCH  12  16
ATOM     16  C   UNL     1       1.472  -1.563  -1.871  1.00  0.00     0.341 C 
ATOM     17  O   UNL     1       2.607  -1.209  -2.162  1.00  0.00    -0.246 OA
BRANCH  16  18
ATOM     18  O   UNL     1       0.774  -0.988  -0.874  1.00  0.00    -0.465 OA
ATOM     19  C   UNL     1       1.413   0.073  -0.152  1.00  0.00     0.282 C 
ENDBRANCH  16  18
ENDBRANCH  12  16
BRANCH  13  20
ATOM     20  C   UNL     1       3.110  -3.115  -4.508  1.00  0.00     0.037 C 
BRANCH  20  21
ATOM     21  C   UNL     1       3.910  -4.396  -4.465  1.00  0.00     0.005 C 
BRANCH  21  22
ATOM     22  C   UNL     1       3.370  -5.557  -5.301  1.00  0.00     0.000 CG0
ATOM     23  G   UNL     1       3.232  -5.334  -6.810  1.00  0.00     0.000 G0
ENDBRANCH  21  22
ENDBRANCH  20  21
ENDBRANCH  13  20
BRANCH  15  24
ATOM     24  C   UNL     1       0.737  -4.570  -6.801  1.00  0.00     0.047 C 
BRANCH  24  25
ATOM     25  C   UNL     1       2.143  -4.401  -7.365  1.00  0.00     0.006 C 
BRANCH  25  26
ATOM     26  C   UNL     1       3.232  -5.334  -6.810  1.00  0.00     0.000 CG0
ATOM     27  G   UNL     1       3.370  -5.557  -5.301  1.00  0.00     0.000 G0
ENDBRANCH  25  26
ENDBRANCH  24  25
ENDBRANCH  15  24
ENDBRANCH   8  11
ENDBRANCH   6   7
ENDBRANCH   5   6
ENDBRANCH   3   5
ENDBRANCH   2   3
ENDBRANCH   1   2
BRANCH   1  28
ATOM     28  C   UNL     1       0.136  -4.431  -3.420  1.00  0.00     0.202 C 
BRANCH  28  29
ATOM     29  O   UNL     1      -0.117  -2.603  -4.338  1.00  0.00    -0.374 OA
BRANCH  29  30
ATOM     30  C   UNL     1       0.642  -1.353  -4.927  1.00  0.00     0.202 C 
BRANCH  30  31
ATOM     31  C   UNL     1      -0.200  -0.075  -4.856  1.00  0.00     0.261 C 
BRANCH  31  32
ATOM     32  O   UNL     1      -1.378  -0.059  -5.641  1.00  0.00    -0.460 OA
BRANCH  32  33
ATOM     33  C   UNL     1      -1.500  -1.022  -6.578  1.00  0.00     0.338 C 
ATOM     34  O   UNL     1      -0.739  -1.274  -7.490  1.00  0.00    -0.246 OA
BRANCH  33  35
ATOM     35  C   UNL     1      -2.847  -1.553  -6.386  1.00  0.00     0.060 A 
ATOM     36  C   UNL     1      -3.520  -1.988  -7.512  1.00  0.00     0.016 A 
ATOM     37  C   UNL     1      -3.490  -1.344  -5.147  1.00  0.00     0.016 A 
ATOM     38  C   UNL     1      -4.840  -1.651  -7.543  1.00  0.00     0.010 A 
ATOM     39  C   UNL     1      -4.830  -1.188  -5.137  1.00  0.00     0.010 A 
ATOM     40  C   UNL     1      -5.364  -1.042  -6.396  1.00  0.00    -0.014 A 
BRANCH  40  41
ATOM     41  C   UNL     1      -6.433  -0.095  -6.533  1.00  0.00     0.031 A 
ATOM     42  C   UNL     1      -7.694  -0.829  -6.525  1.00  0.00     0.074 A 
ATOM     43  C   UNL     1      -6.225   1.235  -6.623  1.00  0.00     0.049 A 
ATOM     44  N   UNL     1      -8.258  -1.316  -7.576  1.00  0.00    -0.248 NA
ATOM     45  C   UNL     1      -8.133  -1.426  -5.253  1.00  0.00     0.031 C 
ATOM     46  C   UNL     1      -5.020   2.048  -6.404  1.00  0.00     0.029 A 
ATOM     47  N   UNL     1      -7.151   2.177  -6.923  1.00  0.00    -0.354 N 
ATOM     48  C   UNL     1      -9.298  -2.076  -7.082  1.00  0.00     0.074 A 
ATOM     49  C   UNL     1      -8.968  -2.359  -5.711  1.00  0.00     0.031 C 
ATOM     50  C   UNL     1      -5.362   3.364  -6.353  1.00  0.00     0.029 A 
ATOM     51  C   UNL     1      -6.766   3.495  -6.695  1.00  0.00     0.049 A 
ATOM     52  H   UNL     1      -8.039   1.945  -7.279  1.00  0.00     0.167 HD
ATOM     53  C   UNL     1     -10.497  -2.067  -7.717  1.00  0.00     0.031 A 
ATOM     54  C   UNL     1      -7.609   4.562  -6.747  1.00  0.00     0.031 A 
ATOM     55  C   UNL     1     -10.370  -1.517  -9.049  1.00  0.00     0.049 A 
ATOM     56  C   UNL     1      -8.795   4.124  -7.540  1.00  0.00     0.074 A 
ATOM     57  C   UNL     1      -9.715  -1.914 -10.197  1.00  0.00     0.029 A 
ATOM     58  N   UNL     1     -10.568  -0.157  -9.164  1.00  0.00    -0.354 N 
ATOM     59  N   UNL     1      -8.714   3.827  -8.809  1.00  0.00    -0.248 NA
ATOM     60  C   UNL     1      -9.886   3.479  -6.820  1.00  0.00     0.031 C 
ATOM     61  C   UNL     1      -9.176  -0.717 -10.754  1.00  0.00     0.029 A 
ATOM     62  C   UNL     1      -9.603   0.371  -9.987  1.00  0.00     0.049 A 
ATOM     63  H   UNL     1     -11.287   0.354  -8.727  1.00  0.00     0.167 HD
ATOM     64  C   UNL     1      -9.451   2.656  -8.956  1.00  0.00     0.074 A 
ATOM     65  C   UNL     1     -10.194   2.519  -7.701  1.00  0.00     0.031 C 
ATOM     66  C   UNL     1      -9.145   1.747  -9.931  1.00  0.00     0.031 A 
BRANCH  53  67
ATOM     67  C   UNL     1     -11.796  -2.086  -6.961  1.00  0.00    -0.014 A 
ATOM     68  C   UNL     1     -12.986  -2.087  -7.698  1.00  0.00     0.009 A 
ATOM     69  C   UNL     1     -11.907  -1.847  -5.575  1.00  0.00     0.009 A 
ATOM     70  C   UNL     1     -14.211  -1.795  -7.089  1.00  0.00     0.001 A 
ATOM     71  C   UNL     1     -13.129  -1.588  -4.958  1.00  0.00     0.001 A 
ATOM     72  C   UNL     1     -14.280  -1.537  -5.723  1.00  0.00     0.000 A 
ENDBRANCH  53  67
BRANCH  54  73
ATOM     73  C   UNL     1      -7.665   5.724  -5.823  1.00  0.00    -0.014 A 
ATOM     74  C   UNL     1      -8.329   6.916  -6.161  1.00  0.00     0.009 A 
ATOM     75  C   UNL     1      -7.297   5.551  -4.475  1.00  0.00     0.009 A 
ATOM     76  C   UNL     1      -8.620   7.887  -5.184  1.00  0.00     0.001 A 
ATOM     77  C   UNL     1      -7.594   6.513  -3.501  1.00  0.00     0.001 A 
ATOM     78  C   UNL     1      -8.263   7.679  -3.854  1.00  0.00     0.000 A 
ENDBRANCH  54  73
BRANCH  66  79
ATOM     79  C   UNL     1      -8.101   2.146 -10.956  1.00  0.00    -0.014 A 
ATOM     80  C   UNL     1      -6.735   2.335 -10.662  1.00  0.00     0.009 A 
ATOM     81  C   UNL     1      -8.495   2.176 -12.300  1.00  0.00     0.009 A 
ATOM     82  C   UNL     1      -5.805   2.568 -11.686  1.00  0.00     0.001 A 
ATOM     83  C   UNL     1      -7.566   2.389 -13.321  1.00  0.00     0.001 A 
ATOM     84  C   UNL     1      -6.223   2.591 -13.015  1.00  0.00     0.000 A 
ENDBRANCH  66  79
ENDBRANCH  40  41
ENDBRANCH  33  35
ENDBRANCH  32  33
ENDBRANCH  31  32
ENDBRANCH  30  31
ENDBRANCH  29  30
ENDBRANCH  28  29
ENDBRANCH   1  28
TORSDOF 19
