REMARK SMILES CC1(C)CCC[C@@H]1[C@H](O)C(=O)OCCOCCOC(=O)c1ccc(-c2c3nc(c(-c4ccccc4)c4ccc([nH]4)c(-c4ccccc4)c4nc(c(-c5ccccc5)c5ccc2[nH]5)C=C4)C=C3)cc1
REMARK SMILES IDX 16 1 15 2 14 3 13 4 12 5 10 6 11 7 8 8 7 9 1 10 2 11 3 12
REMARK SMILES IDX 4 13 5 14 6 15 9 16 17 18 18 19 19 20 20 21 21 22 22 23
REMARK SMILES IDX 68 24 23 25 67 26 24 27 25 28 26 29 61 30 27 31 66 32 60 33
REMARK SMILES IDX 62 34 28 35 65 36 59 37 58 38 29 40 51 41 36 42 50 43 37 44
REMARK SMILES IDX 40 45 49 46 63 47 38 48 39 49 48 51 64 52 41 53 30 54 31 55
REMARK SMILES IDX 35 56 32 57 34 58 33 59 52 60 53 61 57 62 54 63 56 64 55 65
REMARK SMILES IDX 42 66 43 67 47 68 44 69 46 70 45 71
REMARK H PARENT 9 17 62 39 40 50
REMARK Flexibility Score: inf
ROOT
ATOM      1  C   UNL     1      -1.842   5.192   0.274  1.00  0.00     0.202 C 
ENDROOT
BRANCH   1   2
ATOM      2  O   UNL     1      -2.632   5.671  -0.815  1.00  0.00    -0.374 OA
BRANCH   2   3
ATOM      3  C   UNL     1      -3.260   4.694  -1.650  1.00  0.00     0.202 C 
BRANCH   3   4
ATOM      4  C   UNL     1      -2.314   3.912  -2.562  1.00  0.00     0.261 C 
BRANCH   4   5
ATOM      5  O   UNL     1      -1.576   2.966  -1.768  1.00  0.00    -0.461 OA
BRANCH   5   6
ATOM      6  C   UNL     1      -0.244   2.892  -1.996  1.00  0.00     0.335 C 
ATOM      7  O   UNL     1       0.337   3.453  -2.921  1.00  0.00    -0.249 OA
BRANCH   6   8
ATOM      8  C   UNL     1       0.530   2.197  -0.865  1.00  0.00     0.227 C 
BRANCH   8   9
ATOM      9  C   UNL     1      -0.085   1.021  -0.072  1.00  0.00     0.035 C 
ATOM     10  C   UNL     1       2.076  -0.141   0.670  1.00  0.00     0.011 C 
ATOM     11  C   UNL     1       0.771  -0.280  -0.124  1.00  0.00    -0.030 C 
ATOM     12  C   UNL     1       1.094  -0.736  -1.563  1.00  0.00     0.011 C 
ATOM     13  C   UNL     1      -0.172  -1.289   0.551  1.00  0.00     0.007 C 
ATOM     14  C   UNL     1      -1.560  -0.943   0.025  1.00  0.00     0.001 C 
ATOM     15  C   UNL     1      -1.495   0.520  -0.426  1.00  0.00     0.007 C 
ENDBRANCH   8   9
BRANCH   8  16
ATOM     16  O   UNL     1       0.959   3.188   0.088  1.00  0.00    -0.381 OA
ATOM     17  H   UNL     1       0.184   3.563   0.536  1.00  0.00     0.211 HD
ENDBRANCH   8  16
ENDBRANCH   6   8
ENDBRANCH   5   6
ENDBRANCH   4   5
ENDBRANCH   3   4
ENDBRANCH   2   3
ENDBRANCH   1   2
BRANCH   1  18
ATOM     18  C   UNL     1      -2.603   4.829   1.552  1.00  0.00     0.261 C 
BRANCH  18  19
ATOM     19  O   UNL     1      -3.501   3.723   1.363  1.00  0.00    -0.460 OA
BRANCH  19  20
ATOM     20  C   UNL     1      -4.805   4.065   1.258  1.00  0.00     0.338 C 
ATOM     21  O   UNL     1      -5.293   5.184   1.340  1.00  0.00    -0.246 OA
BRANCH  20  22
ATOM     22  C   UNL     1      -5.598   2.886   0.869  1.00  0.00     0.060 A 
ATOM     23  C   UNL     1      -6.470   3.012  -0.221  1.00  0.00     0.016 A 
ATOM     24  C   UNL     1      -5.550   1.705   1.611  1.00  0.00     0.016 A 
ATOM     25  C   UNL     1      -7.337   1.970  -0.545  1.00  0.00     0.010 A 
ATOM     26  C   UNL     1      -6.428   0.667   1.293  1.00  0.00     0.010 A 
ATOM     27  C   UNL     1      -7.349   0.810   0.238  1.00  0.00    -0.014 A 
BRANCH  27  28
ATOM     28  C   UNL     1      -8.431  -0.188   0.083  1.00  0.00     0.031 A 
ATOM     29  C   UNL     1      -9.588  -0.145   1.041  1.00  0.00     0.074 A 
ATOM     30  C   UNL     1      -8.375  -1.131  -0.873  1.00  0.00     0.049 A 
ATOM     31  N   UNL     1     -10.567  -0.998   1.199  1.00  0.00    -0.248 NA
ATOM     32  C   UNL     1      -9.645   1.015   1.947  1.00  0.00     0.031 C 
ATOM     33  C   UNL     1      -7.340  -1.239  -1.899  1.00  0.00     0.029 A 
ATOM     34  N   UNL     1      -9.207  -2.195  -1.116  1.00  0.00    -0.354 N 
ATOM     35  C   UNL     1     -11.340  -0.492   2.236  1.00  0.00     0.074 A 
ATOM     36  C   UNL     1     -10.713   0.734   2.678  1.00  0.00     0.031 C 
ATOM     37  C   UNL     1      -7.587  -2.326  -2.650  1.00  0.00     0.029 A 
ATOM     38  C   UNL     1      -8.768  -3.012  -2.127  1.00  0.00     0.049 A 
ATOM     39  H   UNL     1     -10.039  -2.356  -0.614  1.00  0.00     0.167 HD
ATOM     40  C   UNL     1     -12.470  -1.007   2.776  1.00  0.00     0.031 A 
ATOM     41  C   UNL     1      -9.242  -4.199  -2.553  1.00  0.00     0.031 A 
ATOM     42  C   UNL     1     -13.085  -2.230   2.340  1.00  0.00     0.049 A 
ATOM     43  C   UNL     1     -10.449  -4.797  -1.880  1.00  0.00     0.074 A 
ATOM     44  C   UNL     1     -14.235  -2.834   2.817  1.00  0.00     0.029 A 
ATOM     45  N   UNL     1     -12.595  -3.039   1.327  1.00  0.00    -0.354 N 
ATOM     46  N   UNL     1     -11.175  -4.313  -0.902  1.00  0.00    -0.248 NA
ATOM     47  C   UNL     1     -10.902  -6.109  -2.370  1.00  0.00     0.031 C 
ATOM     48  C   UNL     1     -14.414  -4.035   2.125  1.00  0.00     0.029 A 
ATOM     49  C   UNL     1     -13.408  -4.149   1.179  1.00  0.00     0.049 A 
ATOM     50  H   UNL     1     -11.790  -2.851   0.792  1.00  0.00     0.167 HD
ATOM     51  C   UNL     1     -12.188  -5.239  -0.684  1.00  0.00     0.074 A 
ATOM     52  C   UNL     1     -11.984  -6.315  -1.632  1.00  0.00     0.031 C 
ATOM     53  C   UNL     1     -13.200  -5.199   0.216  1.00  0.00     0.031 A 
BRANCH  40  54
ATOM     54  C   UNL     1     -13.086  -0.267   3.928  1.00  0.00    -0.014 A 
ATOM     55  C   UNL     1     -13.756   0.952   3.740  1.00  0.00     0.009 A 
ATOM     56  C   UNL     1     -13.022  -0.817   5.218  1.00  0.00     0.009 A 
ATOM     57  C   UNL     1     -14.322   1.620   4.827  1.00  0.00     0.001 A 
ATOM     58  C   UNL     1     -13.612  -0.159   6.298  1.00  0.00     0.001 A 
ATOM     59  C   UNL     1     -14.254   1.063   6.104  1.00  0.00     0.000 A 
ENDBRANCH  40  54
BRANCH  41  60
ATOM     60  C   UNL     1      -8.554  -4.924  -3.653  1.00  0.00    -0.014 A 
ATOM     61  C   UNL     1      -9.162  -5.062  -4.909  1.00  0.00     0.009 A 
ATOM     62  C   UNL     1      -7.289  -5.498  -3.445  1.00  0.00     0.009 A 
ATOM     63  C   UNL     1      -8.528  -5.778  -5.927  1.00  0.00     0.001 A 
ATOM     64  C   UNL     1      -6.646  -6.190  -4.473  1.00  0.00     0.001 A 
ATOM     65  C   UNL     1      -7.270  -6.337  -5.710  1.00  0.00     0.000 A 
ENDBRANCH  41  60
BRANCH  53  66
ATOM     66  C   UNL     1     -14.206  -6.314   0.187  1.00  0.00    -0.014 A 
ATOM     67  C   UNL     1     -13.908  -7.581   0.710  1.00  0.00     0.009 A 
ATOM     68  C   UNL     1     -15.500  -6.060  -0.294  1.00  0.00     0.009 A 
ATOM     69  C   UNL     1     -14.886  -8.577   0.737  1.00  0.00     0.001 A 
ATOM     70  C   UNL     1     -16.482  -7.050  -0.243  1.00  0.00     0.001 A 
ATOM     71  C   UNL     1     -16.173  -8.309   0.268  1.00  0.00     0.000 A 
ENDBRANCH  53  66
ENDBRANCH  27  28
ENDBRANCH  20  22
ENDBRANCH  19  20
ENDBRANCH  18  19
ENDBRANCH   1  18
TORSDOF 16
