REMARK SMILES C[C@H](NC(=O)N1CC[C@@H](C(=O)OCCOCCOC(=O)c2ccc(-c3c4nc(c(-c5ccccc5)c5ccc([nH]5)c(-c5ccccc5)c5nc(c(-c6ccccc6)c6ccc3[nH]6)C=C5)C=C4)cc2)[C@H]1C)c1ccc(Cl)cc1
REMARK SMILES IDX 14 1 13 2 12 3 10 4 11 5 9 6 6 7 7 8 69 9 8 10 70 11 4 12
REMARK SMILES IDX 3 13 5 15 2 16 1 17 71 18 72 19 77 20 73 21 76 22 74 23
REMARK SMILES IDX 75 24 15 25 16 26 17 27 18 28 19 29 20 30 21 31 22 32 68 33
REMARK SMILES IDX 23 34 67 35 24 36 25 37 26 38 61 39 27 40 66 41 60 42 62 43
REMARK SMILES IDX 28 44 65 45 59 46 58 47 29 49 51 50 36 51 50 52 37 53 40 54
REMARK SMILES IDX 49 55 63 56 38 57 39 58 48 60 64 61 41 62 30 63 31 64 35 65
REMARK SMILES IDX 32 66 34 67 33 68 52 69 53 70 57 71 54 72 56 73 55 74 42 75
REMARK SMILES IDX 43 76 47 77 44 78 46 79 45 80
REMARK H PARENT 3 14 62 48 40 59
REMARK Flexibility Score: inf
ROOT
ATOM      1  C   UNL     1       1.885  -6.811  -3.368  1.00  0.00     0.202 C 
ENDROOT
BRANCH   1   2
ATOM      2  C   UNL     1       3.077  -7.026  -2.414  1.00  0.00     0.261 C 
BRANCH   2   3
ATOM      3  O   UNL     1       3.332  -5.864  -1.594  1.00  0.00    -0.463 OA
BRANCH   3   4
ATOM      4  C   UNL     1       4.212  -4.952  -2.068  1.00  0.00     0.311 C 
ATOM      5  O   UNL     1       5.024  -5.179  -2.956  1.00  0.00    -0.252 OA
BRANCH   4   6
ATOM      6  C   UNL     1       4.065  -3.579  -1.429  1.00  0.00     0.123 C 
ATOM      7  N   UNL     1       2.912  -1.839  -0.274  1.00  0.00    -0.321 N 
ATOM      8  C   UNL     1       4.214  -2.067   0.350  1.00  0.00     0.122 C 
ATOM      9  C   UNL     1       2.676  -2.880  -1.326  1.00  0.00     0.098 C 
ATOM     10  C   UNL     1       4.582  -3.499  -0.002  1.00  0.00     0.039 C 
ATOM     11  C   UNL     1       1.540  -3.853  -0.985  1.00  0.00     0.032 C 
BRANCH   7  12
ATOM     12  C   UNL     1       2.448  -0.533  -0.270  1.00  0.00     0.318 C 
ATOM     13  N   UNL     1       1.110  -0.295  -0.126  1.00  0.00    -0.331 N 
ATOM     14  H   UNL     1       0.792   0.619  -0.309  1.00  0.00     0.165 HD
ATOM     15  O   UNL     1       3.207   0.437  -0.243  1.00  0.00    -0.249 OA
BRANCH  13  16
ATOM     16  C   UNL     1       0.127  -1.267   0.270  1.00  0.00     0.111 C 
ATOM     17  C   UNL     1       0.407  -1.861   1.653  1.00  0.00     0.036 C 
BRANCH  16  18
ATOM     18  C   UNL     1      -1.351  -0.980   0.091  1.00  0.00    -0.026 A 
ATOM     19  C   UNL     1      -1.929   0.286   0.005  1.00  0.00     0.007 A 
ATOM     20  C   UNL     1      -2.200  -2.113   0.037  1.00  0.00     0.007 A 
ATOM     21  C   UNL     1      -3.323   0.410  -0.109  1.00  0.00     0.021 A 
ATOM     22  C   UNL     1      -3.582  -1.988  -0.064  1.00  0.00     0.021 A 
ATOM     23  C   UNL     1      -4.140  -0.722  -0.133  1.00  0.00     0.041 A 
ATOM     24  Cl  UNL     1      -5.848  -0.562  -0.240  1.00  0.00    -0.084 Cl
ENDBRANCH  16  18
ENDBRANCH  13  16
ENDBRANCH   7  12
ENDBRANCH   4   6
ENDBRANCH   3   4
ENDBRANCH   2   3
ENDBRANCH   1   2
BRANCH   1  25
ATOM     25  O   UNL     1       2.180  -6.098  -4.571  1.00  0.00    -0.374 OA
BRANCH  25  26
ATOM     26  C   UNL     1       2.042  -4.680  -4.545  1.00  0.00     0.202 C 
BRANCH  26  27
ATOM     27  C   UNL     1       0.632  -4.129  -4.800  1.00  0.00     0.261 C 
BRANCH  27  28
ATOM     28  O   UNL     1      -0.310  -4.560  -3.802  1.00  0.00    -0.460 OA
BRANCH  28  29
ATOM     29  C   UNL     1      -1.106  -5.582  -4.190  1.00  0.00     0.338 C 
ATOM     30  O   UNL     1      -1.146  -6.113  -5.294  1.00  0.00    -0.246 OA
BRANCH  29  31
ATOM     31  C   UNL     1      -1.851  -6.114  -3.035  1.00  0.00     0.060 A 
ATOM     32  C   UNL     1      -1.854  -7.502  -2.851  1.00  0.00     0.016 A 
ATOM     33  C   UNL     1      -2.598  -5.288  -2.192  1.00  0.00     0.016 A 
ATOM     34  C   UNL     1      -2.646  -8.075  -1.858  1.00  0.00     0.010 A 
ATOM     35  C   UNL     1      -3.386  -5.867  -1.190  1.00  0.00     0.010 A 
ATOM     36  C   UNL     1      -3.447  -7.265  -1.043  1.00  0.00    -0.014 A 
BRANCH  36  37
ATOM     37  C   UNL     1      -4.459  -7.881  -0.145  1.00  0.00     0.031 A 
ATOM     38  C   UNL     1      -5.915  -7.818  -0.528  1.00  0.00     0.074 A 
ATOM     39  C   UNL     1      -4.094  -8.510   0.987  1.00  0.00     0.049 A 
ATOM     40  N   UNL     1      -6.964  -8.258   0.121  1.00  0.00    -0.248 NA
ATOM     41  C   UNL     1      -6.232  -7.165  -1.810  1.00  0.00     0.031 C 
ATOM     42  C   UNL     1      -2.721  -8.675   1.462  1.00  0.00     0.029 A 
ATOM     43  N   UNL     1      -4.859  -9.127   1.947  1.00  0.00    -0.354 N 
ATOM     44  C   UNL     1      -8.061  -7.924  -0.665  1.00  0.00     0.074 A 
ATOM     45  C   UNL     1      -7.556  -7.211  -1.817  1.00  0.00     0.031 C 
ATOM     46  C   UNL     1      -2.741  -9.352   2.623  1.00  0.00     0.029 A 
ATOM     47  C   UNL     1      -4.127  -9.637   2.991  1.00  0.00     0.049 A 
ATOM     48  H   UNL     1      -5.839  -9.197   1.892  1.00  0.00     0.167 HD
ATOM     49  C   UNL     1      -9.372  -8.196  -0.457  1.00  0.00     0.031 A 
ATOM     50  C   UNL     1      -4.528 -10.249   4.123  1.00  0.00     0.031 A 
ATOM     51  C   UNL     1      -9.883  -8.905   0.685  1.00  0.00     0.049 A 
ATOM     52  C   UNL     1      -5.997 -10.477   4.366  1.00  0.00     0.074 A 
ATOM     53  C   UNL     1     -11.194  -9.249   0.969  1.00  0.00     0.029 A 
ATOM     54  N   UNL     1      -9.110  -9.375   1.734  1.00  0.00    -0.354 N 
ATOM     55  N   UNL     1      -7.019 -10.186   3.598  1.00  0.00    -0.248 NA
ATOM     56  C   UNL     1      -6.366 -11.130   5.632  1.00  0.00     0.031 C 
ATOM     57  C   UNL     1     -11.221  -9.875   2.219  1.00  0.00     0.029 A 
ATOM     58  C   UNL     1      -9.919  -9.981   2.680  1.00  0.00     0.049 A 
ATOM     59  H   UNL     1      -8.131  -9.290   1.798  1.00  0.00     0.167 HD
ATOM     60  C   UNL     1      -8.144 -10.651   4.270  1.00  0.00     0.074 A 
ATOM     61  C   UNL     1      -7.679 -11.255   5.500  1.00  0.00     0.031 C 
ATOM     62  C   UNL     1      -9.446 -10.586   3.898  1.00  0.00     0.031 A 
BRANCH  49  63
ATOM     63  C   UNL     1     -10.354  -7.699  -1.482  1.00  0.00    -0.014 A 
ATOM     64  C   UNL     1     -10.426  -8.271  -2.762  1.00  0.00     0.009 A 
ATOM     65  C   UNL     1     -11.250  -6.671  -1.146  1.00  0.00     0.009 A 
ATOM     66  C   UNL     1     -11.352  -7.799  -3.696  1.00  0.00     0.001 A 
ATOM     67  C   UNL     1     -12.194  -6.223  -2.071  1.00  0.00     0.001 A 
ATOM     68  C   UNL     1     -12.238  -6.780  -3.348  1.00  0.00     0.000 A 
ENDBRANCH  49  63
BRANCH  50  69
ATOM     69  C   UNL     1      -3.527 -10.682   5.135  1.00  0.00    -0.014 A 
ATOM     70  C   UNL     1      -3.307 -12.046   5.388  1.00  0.00     0.009 A 
ATOM     71  C   UNL     1      -2.814  -9.732   5.883  1.00  0.00     0.009 A 
ATOM     72  C   UNL     1      -2.419 -12.446   6.389  1.00  0.00     0.001 A 
ATOM     73  C   UNL     1      -1.903 -10.136   6.862  1.00  0.00     0.001 A 
ATOM     74  C   UNL     1      -1.716 -11.492   7.122  1.00  0.00     0.000 A 
ENDBRANCH  50  69
BRANCH  62  75
ATOM     75  C   UNL     1     -10.461 -11.227   4.805  1.00  0.00    -0.014 A 
ATOM     76  C   UNL     1     -10.795 -10.667   6.048  1.00  0.00     0.009 A 
ATOM     77  C   UNL     1     -11.131 -12.387   4.383  1.00  0.00     0.009 A 
ATOM     78  C   UNL     1     -11.752 -11.275   6.863  1.00  0.00     0.001 A 
ATOM     79  C   UNL     1     -12.110 -12.975   5.185  1.00  0.00     0.001 A 
ATOM     80  C   UNL     1     -12.412 -12.425   6.429  1.00  0.00     0.000 A 
ENDBRANCH  62  75
ENDBRANCH  36  37
ENDBRANCH  29  31
ENDBRANCH  28  29
ENDBRANCH  27  28
ENDBRANCH  26  27
ENDBRANCH  25  26
ENDBRANCH   1  25
TORSDOF 17
