REMARK SMILES C[C@H]([C@@H](C)C(=O)OCCOCCOC(=O)c1ccc(-c2c3nc(c(-c4ccccc4)c4ccc([nH]4)c(-c4ccccc4)c4nc(c(-c5ccccc5)c5ccc2[nH]5)C=C4)C=C3)cc1)n1c(CC#N)nc2ccccc21
REMARK SMILES IDX 9 1 8 2 7 3 5 4 6 5 3 6 4 7 2 8 1 9 64 10 65 11 75 12 69 13
REMARK SMILES IDX 70 14 74 15 71 16 73 17 72 18 66 19 67 20 68 21 10 22 11 23
REMARK SMILES IDX 12 24 13 25 14 26 15 27 16 28 17 29 63 30 18 31 62 32 19 33
REMARK SMILES IDX 20 34 21 35 56 36 22 37 61 38 55 39 57 40 23 41 60 42 54 43
REMARK SMILES IDX 53 44 24 46 46 47 31 48 45 49 32 50 35 51 44 52 58 53 33 54
REMARK SMILES IDX 34 55 43 57 59 58 36 59 25 60 26 61 30 62 27 63 29 64 28 65
REMARK SMILES IDX 47 66 48 67 52 68 49 69 51 70 50 71 37 72 38 73 42 74 39 75
REMARK SMILES IDX 41 76 40 77
REMARK H PARENT 57 45 35 56
REMARK Flexibility Score: inf
ROOT
ATOM      1  C   UNL     1      -0.611   0.336  -4.063  1.00  0.00     0.202 C 
ENDROOT
BRANCH   1   2
ATOM      2  C   UNL     1       0.726   0.103  -3.350  1.00  0.00     0.261 C 
BRANCH   2   3
ATOM      3  O   UNL     1       0.620  -0.225  -1.954  1.00  0.00    -0.463 OA
BRANCH   3   4
ATOM      4  C   UNL     1       0.948   0.792  -1.107  1.00  0.00     0.310 C 
ATOM      5  O   UNL     1       1.235   1.929  -1.458  1.00  0.00    -0.252 OA
BRANCH   4   6
ATOM      6  C   UNL     1       1.026   0.346   0.340  1.00  0.00     0.119 C 
ATOM      7  C   UNL     1       2.348  -0.424   0.464  1.00  0.00     0.022 C 
BRANCH   6   8
ATOM      8  C   UNL     1      -0.261  -0.374   0.849  1.00  0.00     0.100 C 
ATOM      9  C   UNL     1       0.051  -1.710   1.565  1.00  0.00     0.032 C 
BRANCH   8  10
ATOM     10  N   UNL     1      -1.075   0.517   1.731  1.00  0.00    -0.323 N 
ATOM     11  C   UNL     1      -0.942   0.480   3.115  1.00  0.00     0.124 A 
ATOM     12  C   UNL     1      -2.439   0.760   1.617  1.00  0.00     0.068 A 
ATOM     13  N   UNL     1      -1.948  -0.243   3.586  1.00  0.00    -0.232 NA
ATOM     14  C   UNL     1      -2.963   0.067   2.712  1.00  0.00     0.089 A 
ATOM     15  C   UNL     1      -3.224   1.638   0.865  1.00  0.00     0.028 A 
ATOM     16  C   UNL     1      -4.349  -0.034   2.884  1.00  0.00     0.030 A 
ATOM     17  C   UNL     1      -4.596   1.664   1.159  1.00  0.00     0.002 A 
ATOM     18  C   UNL     1      -5.158   0.802   2.106  1.00  0.00     0.002 A 
BRANCH  11  19
ATOM     19  C   UNL     1      -0.136   1.488   3.870  1.00  0.00     0.195 C 
BRANCH  19  20
ATOM     20  C   UNL     1      -0.149   2.797   3.176  1.00  0.00     0.070 C 
ATOM     21  N   UNL     1      -0.153   3.791   2.595  1.00  0.00    -0.198 NA
ENDBRANCH  19  20
ENDBRANCH  11  19
ENDBRANCH   8  10
ENDBRANCH   6   8
ENDBRANCH   4   6
ENDBRANCH   3   4
ENDBRANCH   2   3
ENDBRANCH   1   2
BRANCH   1  22
ATOM     22  O   UNL     1      -1.542   1.261  -3.524  1.00  0.00    -0.374 OA
BRANCH  22  23
ATOM     23  C   UNL     1      -2.145   0.984  -2.269  1.00  0.00     0.202 C 
BRANCH  23  24
ATOM     24  C   UNL     1      -3.105  -0.206  -2.127  1.00  0.00     0.261 C 
BRANCH  24  25
ATOM     25  O   UNL     1      -2.593  -1.440  -2.641  1.00  0.00    -0.460 OA
BRANCH  25  26
ATOM     26  C   UNL     1      -3.201  -1.835  -3.786  1.00  0.00     0.338 C 
ATOM     27  O   UNL     1      -4.109  -1.279  -4.380  1.00  0.00    -0.246 OA
BRANCH  26  28
ATOM     28  C   UNL     1      -2.500  -2.996  -4.351  1.00  0.00     0.060 A 
ATOM     29  C   UNL     1      -2.034  -2.880  -5.665  1.00  0.00     0.016 A 
ATOM     30  C   UNL     1      -2.413  -4.203  -3.657  1.00  0.00     0.016 A 
ATOM     31  C   UNL     1      -1.538  -3.998  -6.322  1.00  0.00     0.010 A 
ATOM     32  C   UNL     1      -1.918  -5.328  -4.320  1.00  0.00     0.010 A 
ATOM     33  C   UNL     1      -1.525  -5.237  -5.667  1.00  0.00    -0.014 A 
BRANCH  33  34
ATOM     34  C   UNL     1      -1.248  -6.458  -6.454  1.00  0.00     0.031 A 
ATOM     35  C   UNL     1      -2.401  -7.312  -6.902  1.00  0.00     0.074 A 
ATOM     36  C   UNL     1       0.012  -6.764  -6.808  1.00  0.00     0.049 A 
ATOM     37  N   UNL     1      -2.389  -8.416  -7.604  1.00  0.00    -0.248 NA
ATOM     38  C   UNL     1      -3.747  -6.864  -6.508  1.00  0.00     0.031 C 
ATOM     39  C   UNL     1       1.199  -5.978  -6.473  1.00  0.00     0.029 A 
ATOM     40  N   UNL     1       0.498  -7.819  -7.535  1.00  0.00    -0.354 N 
ATOM     41  C   UNL     1      -3.720  -8.799  -7.724  1.00  0.00     0.074 A 
ATOM     42  C   UNL     1      -4.510  -7.829  -7.000  1.00  0.00     0.031 C 
ATOM     43  C   UNL     1       2.280  -6.577  -6.999  1.00  0.00     0.029 A 
ATOM     44  C   UNL     1       1.864  -7.804  -7.674  1.00  0.00     0.049 A 
ATOM     45  H   UNL     1      -0.076  -8.519  -7.921  1.00  0.00     0.167 HD
ATOM     46  C   UNL     1      -4.236  -9.863  -8.384  1.00  0.00     0.031 A 
ATOM     47  C   UNL     1       2.684  -8.693  -8.265  1.00  0.00     0.031 A 
ATOM     48  C   UNL     1      -3.442 -10.828  -9.096  1.00  0.00     0.049 A 
ATOM     49  C   UNL     1       2.090  -9.908  -8.925  1.00  0.00     0.074 A 
ATOM     50  C   UNL     1      -3.865 -11.932  -9.816  1.00  0.00     0.029 A 
ATOM     51  N   UNL     1      -2.057 -10.808  -9.170  1.00  0.00    -0.354 N 
ATOM     52  N   UNL     1       0.829 -10.245  -9.056  1.00  0.00    -0.248 NA
ATOM     53  C   UNL     1       3.034 -10.860  -9.525  1.00  0.00     0.031 C 
ATOM     54  C   UNL     1      -2.733 -12.614 -10.271  1.00  0.00     0.029 A 
ATOM     55  C   UNL     1      -1.607 -11.898  -9.894  1.00  0.00     0.049 A 
ATOM     56  H   UNL     1      -1.480 -10.119  -8.768  1.00  0.00     0.167 HD
ATOM     57  C   UNL     1       0.827 -11.431  -9.780  1.00  0.00     0.074 A 
ATOM     58  C   UNL     1       2.211 -11.744 -10.072  1.00  0.00     0.031 C 
ATOM     59  C   UNL     1      -0.225 -12.192 -10.171  1.00  0.00     0.031 A 
BRANCH  46  60
ATOM     60  C   UNL     1      -5.726 -10.061  -8.329  1.00  0.00    -0.014 A 
ATOM     61  C   UNL     1      -6.607  -9.203  -9.008  1.00  0.00     0.009 A 
ATOM     62  C   UNL     1      -6.254 -11.146  -7.612  1.00  0.00     0.009 A 
ATOM     63  C   UNL     1      -7.987  -9.411  -8.941  1.00  0.00     0.001 A 
ATOM     64  C   UNL     1      -7.632 -11.368  -7.572  1.00  0.00     0.001 A 
ATOM     65  C   UNL     1      -8.498 -10.495  -8.228  1.00  0.00     0.000 A 
ENDBRANCH  46  60
BRANCH  47  66
ATOM     66  C   UNL     1       4.154  -8.477  -8.248  1.00  0.00    -0.014 A 
ATOM     67  C   UNL     1       4.852  -8.197  -9.432  1.00  0.00     0.009 A 
ATOM     68  C   UNL     1       4.871  -8.565  -7.043  1.00  0.00     0.009 A 
ATOM     69  C   UNL     1       6.240  -8.037  -9.414  1.00  0.00     0.001 A 
ATOM     70  C   UNL     1       6.254  -8.373  -7.024  1.00  0.00     0.001 A 
ATOM     71  C   UNL     1       6.939  -8.120  -8.211  1.00  0.00     0.000 A 
ENDBRANCH  47  66
BRANCH  59  72
ATOM     72  C   UNL     1       0.080 -13.415 -10.991  1.00  0.00    -0.014 A 
ATOM     73  C   UNL     1       0.687 -14.545 -10.423  1.00  0.00     0.009 A 
ATOM     74  C   UNL     1      -0.286 -13.448 -12.347  1.00  0.00     0.009 A 
ATOM     75  C   UNL     1       0.956 -15.670 -11.206  1.00  0.00     0.001 A 
ATOM     76  C   UNL     1      -0.046 -14.585 -13.118  1.00  0.00     0.001 A 
ATOM     77  C   UNL     1       0.584 -15.691 -12.550  1.00  0.00     0.000 A 
ENDBRANCH  59  72
ENDBRANCH  33  34
ENDBRANCH  26  28
ENDBRANCH  25  26
ENDBRANCH  24  25
ENDBRANCH  23  24
ENDBRANCH  22  23
ENDBRANCH   1  22
TORSDOF 18
