REMARK SMILES C[C@]([NH2+]Cc1nc(-c2ccsc2)no1)(C(=O)OCCOCCOC(=O)c1ccc(-c2c3nc(c(-c4ccccc4)c4ccc([nH]4)c(-c4ccccc4)c4nc(c(-c5ccccc5)c5ccc2[nH]5)C=C4)C=C3)cc1)C(F)(F)F
REMARK SMILES IDX 19 1 18 2 17 3 15 4 16 5 2 6 1 7 74 8 75 9 76 10 77 11 3 12
REMARK SMILES IDX 4 15 5 16 6 17 14 18 7 19 13 20 8 21 9 22 12 23 10 24 11 25
REMARK SMILES IDX 20 26 21 27 22 28 23 29 24 30 25 31 26 32 27 33 73 34 28 35
REMARK SMILES IDX 72 36 29 37 30 38 31 39 66 40 32 41 71 42 65 43 67 44 33 45
REMARK SMILES IDX 70 46 64 47 63 48 34 50 56 51 41 52 55 53 42 54 45 55 54 56
REMARK SMILES IDX 68 57 43 58 44 59 53 61 69 62 46 63 35 64 36 65 40 66 37 67
REMARK SMILES IDX 39 68 38 69 57 70 58 71 62 72 59 73 61 74 60 75 47 76 48 77
REMARK SMILES IDX 52 78 49 79 51 80 50 81
REMARK H PARENT 3 13 3 14 67 49 45 60
REMARK Flexibility Score: inf
ROOT
ATOM      1  C   UNL     1      -3.692   0.805  -0.036  1.00  0.00     0.202 C 
ENDROOT
BRANCH   1   2
ATOM      2  C   UNL     1      -2.914   1.444  -1.188  1.00  0.00     0.261 C 
BRANCH   2   3
ATOM      3  O   UNL     1      -1.503   1.157  -1.139  1.00  0.00    -0.458 OA
BRANCH   3   4
ATOM      4  C   UNL     1      -0.712   2.235  -0.846  1.00  0.00     0.377 C 
ATOM      5  O   UNL     1      -1.147   3.371  -0.700  1.00  0.00    -0.244 OA
BRANCH   4   6
ATOM      6  C   UNL     1       0.782   1.889  -0.808  1.00  0.00     0.287 C 
ATOM      7  C   UNL     1       1.396   2.590  -2.032  1.00  0.00     0.103 C 
BRANCH   6   8
ATOM      8  C   UNL     1       1.291   2.591   0.479  1.00  0.00     0.455 C 
ATOM      9  F   UNL     1       0.676   2.116   1.589  1.00  0.00    -0.164 F 
ATOM     10  F   UNL     1       2.622   2.369   0.641  1.00  0.00    -0.164 F 
ATOM     11  F   UNL     1       1.134   3.932   0.460  1.00  0.00    -0.164 F 
ENDBRANCH   6   8
BRANCH   6  12
ATOM     12  N   UNL     1       1.032   0.399  -0.721  1.00  0.00    -0.317 N 
ATOM     13  H   UNL     1       0.122  -0.050  -0.624  1.00  0.00     0.347 HD
ATOM     14  H   UNL     1       1.679   0.311   0.063  1.00  0.00     0.347 HD
BRANCH  12  15
ATOM     15  C   UNL     1       1.725  -0.281  -1.812  1.00  0.00     0.363 C 
BRANCH  15  16
ATOM     16  C   UNL     1       2.725  -1.311  -1.369  1.00  0.00     0.282 A 
ATOM     17  N   UNL     1       2.967  -1.889  -0.207  1.00  0.00    -0.186 NA
ATOM     18  O   UNL     1       3.629  -1.658  -2.336  1.00  0.00    -0.333 OA
ATOM     19  C   UNL     1       4.140  -2.561  -0.467  1.00  0.00     0.203 A 
ATOM     20  N   UNL     1       4.575  -2.473  -1.730  1.00  0.00    -0.057 NA
BRANCH  19  21
ATOM     21  C   UNL     1       4.896  -3.258   0.575  1.00  0.00     0.033 A 
ATOM     22  C   UNL     1       4.308  -4.135   1.532  1.00  0.00     0.024 A 
ATOM     23  C   UNL     1       6.266  -3.176   0.726  1.00  0.00     0.077 A 
ATOM     24  C   UNL     1       5.255  -4.707   2.358  1.00  0.00     0.065 A 
ATOM     25  S   UNL     1       6.837  -4.154   2.008  1.00  0.00    -0.152 S 
ENDBRANCH  19  21
ENDBRANCH  15  16
ENDBRANCH  12  15
ENDBRANCH   6  12
ENDBRANCH   4   6
ENDBRANCH   3   4
ENDBRANCH   2   3
ENDBRANCH   1   2
BRANCH   1  26
ATOM     26  O   UNL     1      -3.263   1.118   1.283  1.00  0.00    -0.374 OA
BRANCH  26  27
ATOM     27  C   UNL     1      -2.087   0.478   1.780  1.00  0.00     0.202 C 
BRANCH  27  28
ATOM     28  C   UNL     1      -2.186  -1.019   2.098  1.00  0.00     0.261 C 
BRANCH  28  29
ATOM     29  O   UNL     1      -2.336  -1.817   0.908  1.00  0.00    -0.460 OA
BRANCH  29  30
ATOM     30  C   UNL     1      -3.511  -2.482   0.811  1.00  0.00     0.338 C 
ATOM     31  O   UNL     1      -4.420  -2.513   1.630  1.00  0.00    -0.246 OA
BRANCH  30  32
ATOM     32  C   UNL     1      -3.656  -3.047  -0.541  1.00  0.00     0.060 A 
ATOM     33  C   UNL     1      -4.804  -2.712  -1.275  1.00  0.00     0.016 A 
ATOM     34  C   UNL     1      -2.726  -3.955  -1.048  1.00  0.00     0.016 A 
ATOM     35  C   UNL     1      -5.050  -3.321  -2.504  1.00  0.00     0.010 A 
ATOM     36  C   UNL     1      -2.982  -4.575  -2.273  1.00  0.00     0.010 A 
ATOM     37  C   UNL     1      -4.160  -4.286  -2.988  1.00  0.00    -0.014 A 
BRANCH  37  38
ATOM     38  C   UNL     1      -4.521  -5.119  -4.157  1.00  0.00     0.031 A 
ATOM     39  C   UNL     1      -5.069  -6.497  -3.920  1.00  0.00     0.074 A 
ATOM     40  C   UNL     1      -4.325  -4.674  -5.409  1.00  0.00     0.049 A 
ATOM     41  N   UNL     1      -5.313  -7.452  -4.779  1.00  0.00    -0.248 NA
ATOM     42  C   UNL     1      -5.372  -6.846  -2.523  1.00  0.00     0.031 C 
ATOM     43  C   UNL     1      -3.844  -3.342  -5.767  1.00  0.00     0.029 A 
ATOM     44  N   UNL     1      -4.482  -5.316  -6.611  1.00  0.00    -0.354 N 
ATOM     45  C   UNL     1      -5.771  -8.525  -4.026  1.00  0.00     0.074 A 
ATOM     46  C   UNL     1      -5.759  -8.107  -2.640  1.00  0.00     0.031 C 
ATOM     47  C   UNL     1      -3.709  -3.276  -7.103  1.00  0.00     0.029 A 
ATOM     48  C   UNL     1      -4.057  -4.572  -7.683  1.00  0.00     0.049 A 
ATOM     49  H   UNL     1      -4.863  -6.220  -6.696  1.00  0.00     0.167 HD
ATOM     50  C   UNL     1      -6.158  -9.751  -4.449  1.00  0.00     0.031 A 
ATOM     51  C   UNL     1      -3.921  -4.913  -8.979  1.00  0.00     0.031 A 
ATOM     52  C   UNL     1      -6.154 -10.168  -5.825  1.00  0.00     0.049 A 
ATOM     53  C   UNL     1      -4.295  -6.300  -9.424  1.00  0.00     0.074 A 
ATOM     54  C   UNL     1      -6.554 -11.378  -6.362  1.00  0.00     0.029 A 
ATOM     55  N   UNL     1      -5.713  -9.386  -6.882  1.00  0.00    -0.354 N 
ATOM     56  N   UNL     1      -4.749  -7.301  -8.709  1.00  0.00    -0.248 NA
ATOM     57  C   UNL     1      -4.140  -6.603 -10.854  1.00  0.00     0.031 C 
ATOM     58  C   UNL     1      -6.302 -11.348  -7.738  1.00  0.00     0.029 A 
ATOM     59  C   UNL     1      -5.801 -10.098  -8.065  1.00  0.00     0.049 A 
ATOM     60  H   UNL     1      -5.385  -8.461  -6.802  1.00  0.00     0.167 HD
ATOM     61  C   UNL     1      -4.958  -8.344  -9.604  1.00  0.00     0.074 A 
ATOM     62  C   UNL     1      -4.585  -7.851 -10.914  1.00  0.00     0.031 C 
ATOM     63  C   UNL     1      -5.424  -9.594  -9.361  1.00  0.00     0.031 A 
BRANCH  50  64
ATOM     64  C   UNL     1      -6.561 -10.743  -3.395  1.00  0.00    -0.014 A 
ATOM     65  C   UNL     1      -7.757 -10.605  -2.672  1.00  0.00     0.009 A 
ATOM     66  C   UNL     1      -5.724 -11.836  -3.119  1.00  0.00     0.009 A 
ATOM     67  C   UNL     1      -8.082 -11.514  -1.663  1.00  0.00     0.001 A 
ATOM     68  C   UNL     1      -6.065 -12.759  -2.130  1.00  0.00     0.001 A 
ATOM     69  C   UNL     1      -7.237 -12.591  -1.394  1.00  0.00     0.000 A 
ENDBRANCH  50  64
BRANCH  51  70
ATOM     70  C   UNL     1      -3.369  -3.923  -9.937  1.00  0.00    -0.014 A 
ATOM     71  C   UNL     1      -4.197  -3.296 -10.879  1.00  0.00     0.009 A 
ATOM     72  C   UNL     1      -2.008  -3.578  -9.891  1.00  0.00     0.009 A 
ATOM     73  C   UNL     1      -3.672  -2.348 -11.760  1.00  0.00     0.001 A 
ATOM     74  C   UNL     1      -1.491  -2.613 -10.757  1.00  0.00     0.001 A 
ATOM     75  C   UNL     1      -2.322  -2.002 -11.693  1.00  0.00     0.000 A 
ENDBRANCH  51  70
BRANCH  63  76
ATOM     76  C   UNL     1      -5.596 -10.511 -10.539  1.00  0.00    -0.014 A 
ATOM     77  C   UNL     1      -4.493 -11.115 -11.161  1.00  0.00     0.009 A 
ATOM     78  C   UNL     1      -6.889 -10.828 -10.985  1.00  0.00     0.009 A 
ATOM     79  C   UNL     1      -4.683 -12.003 -12.222  1.00  0.00     0.001 A 
ATOM     80  C   UNL     1      -7.076 -11.735 -12.028  1.00  0.00     0.001 A 
ATOM     81  C   UNL     1      -5.973 -12.318 -12.650  1.00  0.00     0.000 A 
ENDBRANCH  63  76
ENDBRANCH  37  38
ENDBRANCH  30  32
ENDBRANCH  29  30
ENDBRANCH  28  29
ENDBRANCH  27  28
ENDBRANCH  26  27
ENDBRANCH   1  26
TORSDOF 19
