REMARK SMILES CC(C)C[C@H](NC(=O)[C@H](Cc1ccccc1)NC(=O)CNC(=O)C[NH3+])C(=O)OCCOCCOC(=O)c1ccc(-c2c3nc(c(-c4ccccc4)c4ccc([nH]4)c(-c4ccccc4)c4nc(c(-c5ccccc5)c5ccc2[nH]5)C=C4)C=C3)cc1
REMARK SMILES IDX 29 1 28 2 26 3 27 4 5 5 4 6 2 7 1 8 3 9 6 10 7 11 8 13 9 14
REMARK SMILES IDX 17 15 18 16 19 18 20 19 21 20 22 21 23 23 24 24 25 25 10 29
REMARK SMILES IDX 11 30 12 31 16 32 13 33 15 34 14 35 30 36 31 37 32 38 33 39
REMARK SMILES IDX 34 40 35 41 36 42 37 43 38 44 84 45 39 46 83 47 40 48 41 49
REMARK SMILES IDX 42 50 77 51 43 52 82 53 76 54 78 55 44 56 81 57 75 58 74 59
REMARK SMILES IDX 45 61 67 62 52 63 66 64 53 65 56 66 65 67 79 68 54 69 55 70
REMARK SMILES IDX 64 72 80 73 57 74 46 75 47 76 51 77 48 78 50 79 49 80 68 81
REMARK SMILES IDX 69 82 73 83 70 84 72 85 71 86 58 87 59 88 63 89 60 90 62 91
REMARK SMILES IDX 61 92
REMARK H PARENT 6 12 17 17 21 22 25 26 25 27 25 28 78 60 56 71
REMARK Flexibility Score: inf
ROOT
ATOM      1  C   UNL     1      -5.835  -5.487   0.169  1.00  0.00     0.261 C 
ENDROOT
BRANCH   1   2
ATOM      2  O   UNL     1      -4.882  -4.948   1.054  1.00  0.00    -0.462 OA
BRANCH   2   3
ATOM      3  C   UNL     1      -5.401  -4.753   2.285  1.00  0.00     0.328 C 
ATOM      4  O   UNL     1      -6.572  -4.524   2.535  1.00  0.00    -0.250 OA
BRANCH   3   5
ATOM      5  C   UNL     1      -4.266  -4.737   3.277  1.00  0.00     0.192 C 
BRANCH   5   6
ATOM      6  C   UNL     1      -3.825  -3.279   3.482  1.00  0.00     0.040 C 
BRANCH   6   7
ATOM      7  C   UNL     1      -2.416  -2.968   4.011  1.00  0.00    -0.015 C 
ATOM      8  C   UNL     1      -1.293  -3.601   3.199  1.00  0.00     0.007 C 
ATOM      9  C   UNL     1      -2.213  -1.449   4.008  1.00  0.00     0.007 C 
ENDBRANCH   6   7
ENDBRANCH   5   6
BRANCH   5  10
ATOM     10  N   UNL     1      -3.220  -5.779   3.087  1.00  0.00    -0.341 N 
ATOM     11  C   UNL     1      -2.374  -6.382   2.221  1.00  0.00     0.243 C 
ATOM     12  H   UNL     1      -3.087  -6.211   3.961  1.00  0.00     0.164 HD
ATOM     13  O   UNL     1      -1.434  -6.880   2.879  1.00  0.00    -0.273 OA
BRANCH  11  14
ATOM     14  C   UNL     1      -2.345  -6.563   0.598  1.00  0.00     0.175 C 
BRANCH  14  15
ATOM     15  N   UNL     1      -0.879  -6.433   0.441  1.00  0.00    -0.342 N 
ATOM     16  C   UNL     1      -0.115  -5.324   0.319  1.00  0.00     0.240 C 
ATOM     17  H   UNL     1      -0.385  -7.285   0.423  1.00  0.00     0.164 HD
ATOM     18  O   UNL     1       0.935  -5.282   0.966  1.00  0.00    -0.273 OA
BRANCH  16  19
ATOM     19  C   UNL     1      -0.550  -4.144  -0.523  1.00  0.00     0.216 C 
BRANCH  19  20
ATOM     20  N   UNL     1      -1.563  -4.439  -1.516  1.00  0.00    -0.342 N 
ATOM     21  C   UNL     1      -2.567  -3.648  -1.979  1.00  0.00     0.275 C 
ATOM     22  H   UNL     1      -1.518  -5.339  -1.911  1.00  0.00     0.164 HD
ATOM     23  O   UNL     1      -3.116  -3.982  -3.032  1.00  0.00    -0.268 OA
BRANCH  21  24
ATOM     24  C   UNL     1      -3.010  -2.374  -1.253  1.00  0.00     0.360 C 
BRANCH  24  25
ATOM     25  N   UNL     1      -2.945  -2.481   0.206  1.00  0.00    -0.350 N 
ATOM     26  H   UNL     1      -3.579  -3.216   0.522  1.00  0.00     0.344 HD
ATOM     27  H   UNL     1      -3.220  -1.592   0.625  1.00  0.00     0.344 HD
ATOM     28  H   UNL     1      -1.992  -2.709   0.489  1.00  0.00     0.344 HD
ENDBRANCH  24  25
ENDBRANCH  21  24
ENDBRANCH  19  20
ENDBRANCH  16  19
ENDBRANCH  14  15
BRANCH  14  29
ATOM     29  C   UNL     1      -2.746  -8.002  -0.002  1.00  0.00     0.070 C 
BRANCH  29  30
ATOM     30  C   UNL     1      -3.010  -8.461  -1.449  1.00  0.00    -0.045 A 
ATOM     31  C   UNL     1      -4.309  -8.801  -1.892  1.00  0.00     0.004 A 
ATOM     32  C   UNL     1      -1.977  -8.836  -2.311  1.00  0.00     0.004 A 
ATOM     33  C   UNL     1      -4.593  -9.228  -3.191  1.00  0.00     0.000 A 
ATOM     34  C   UNL     1      -2.244  -9.385  -3.580  1.00  0.00     0.000 A 
ATOM     35  C   UNL     1      -3.549  -9.514  -4.046  1.00  0.00     0.000 A 
ENDBRANCH  29  30
ENDBRANCH  14  29
ENDBRANCH  11  14
ENDBRANCH   5  10
ENDBRANCH   3   5
ENDBRANCH   2   3
ENDBRANCH   1   2
BRANCH   1  36
ATOM     36  C   UNL     1      -5.758  -7.014   0.225  1.00  0.00     0.202 C 
BRANCH  36  37
ATOM     37  O   UNL     1      -5.943  -7.934   1.310  1.00  0.00    -0.374 OA
BRANCH  37  38
ATOM     38  C   UNL     1      -5.130  -8.216   2.480  1.00  0.00     0.202 C 
BRANCH  38  39
ATOM     39  C   UNL     1      -3.994  -9.396   2.647  1.00  0.00     0.261 C 
BRANCH  39  40
ATOM     40  O   UNL     1      -2.565  -9.054   2.407  1.00  0.00    -0.460 OA
BRANCH  40  41
ATOM     41  C   UNL     1      -1.510  -9.936   2.584  1.00  0.00     0.338 C 
ATOM     42  O   UNL     1      -1.623 -11.047   3.074  1.00  0.00    -0.246 OA
BRANCH  41  43
ATOM     43  C   UNL     1      -0.176  -9.462   1.952  1.00  0.00     0.060 A 
ATOM     44  C   UNL     1       0.054  -9.669   0.580  1.00  0.00     0.016 A 
ATOM     45  C   UNL     1       0.878  -8.855   2.654  1.00  0.00     0.016 A 
ATOM     46  C   UNL     1       1.175  -9.129  -0.108  1.00  0.00     0.010 A 
ATOM     47  C   UNL     1       2.064  -8.399   1.979  1.00  0.00     0.010 A 
ATOM     48  C   UNL     1       2.223  -8.503   0.578  1.00  0.00    -0.014 A 
BRANCH  48  49
ATOM     49  C   UNL     1       3.570  -8.383  -0.117  1.00  0.00     0.031 A 
ATOM     50  C   UNL     1       4.447  -9.619  -0.056  1.00  0.00     0.074 A 
ATOM     51  C   UNL     1       4.023  -7.356  -0.879  1.00  0.00     0.049 A 
ATOM     52  N   UNL     1       5.676  -9.815  -0.467  1.00  0.00    -0.248 NA
ATOM     53  C   UNL     1       3.823 -10.806   0.548  1.00  0.00     0.031 C 
ATOM     54  C   UNL     1       3.292  -6.141  -1.220  1.00  0.00     0.029 A 
ATOM     55  N   UNL     1       5.237  -7.184  -1.533  1.00  0.00    -0.354 N 
ATOM     56  C   UNL     1       5.979 -11.128  -0.122  1.00  0.00     0.074 A 
ATOM     57  C   UNL     1       4.808 -11.683   0.514  1.00  0.00     0.031 C 
ATOM     58  C   UNL     1       4.061  -5.349  -1.996  1.00  0.00     0.029 A 
ATOM     59  C   UNL     1       5.370  -5.974  -2.187  1.00  0.00     0.049 A 
ATOM     60  H   UNL     1       5.944  -7.868  -1.530  1.00  0.00     0.167 HD
ATOM     61  C   UNL     1       7.127 -11.825  -0.295  1.00  0.00     0.031 A 
ATOM     62  C   UNL     1       6.421  -5.419  -2.839  1.00  0.00     0.031 A 
ATOM     63  C   UNL     1       8.307 -11.313  -0.930  1.00  0.00     0.049 A 
ATOM     64  C   UNL     1       7.737  -6.165  -2.924  1.00  0.00     0.074 A 
ATOM     65  C   UNL     1       9.526 -11.941  -1.115  1.00  0.00     0.029 A 
ATOM     66  N   UNL     1       8.414 -10.052  -1.488  1.00  0.00    -0.354 N 
ATOM     67  N   UNL     1       8.031  -7.379  -2.526  1.00  0.00    -0.248 NA
ATOM     68  C   UNL     1       8.873  -5.455  -3.545  1.00  0.00     0.031 C 
ATOM     69  C   UNL     1      10.389 -11.040  -1.745  1.00  0.00     0.029 A 
ATOM     70  C   UNL     1       9.685  -9.876  -2.007  1.00  0.00     0.049 A 
ATOM     71  H   UNL     1       7.694  -9.380  -1.513  1.00  0.00     0.167 HD
ATOM     72  C   UNL     1       9.362  -7.587  -2.878  1.00  0.00     0.074 A 
ATOM     73  C   UNL     1       9.821  -6.382  -3.532  1.00  0.00     0.031 C 
ATOM     74  C   UNL     1      10.134  -8.684  -2.676  1.00  0.00     0.031 A 
BRANCH  61  75
ATOM     75  C   UNL     1       7.172 -13.199   0.312  1.00  0.00    -0.014 A 
ATOM     76  C   UNL     1       6.436 -14.270  -0.220  1.00  0.00     0.009 A 
ATOM     77  C   UNL     1       7.931 -13.403   1.475  1.00  0.00     0.009 A 
ATOM     78  C   UNL     1       6.416 -15.503   0.436  1.00  0.00     0.001 A 
ATOM     79  C   UNL     1       7.938 -14.646   2.106  1.00  0.00     0.001 A 
ATOM     80  C   UNL     1       7.168 -15.690   1.596  1.00  0.00     0.000 A 
ENDBRANCH  61  75
BRANCH  62  81
ATOM     81  C   UNL     1       6.338  -4.045  -3.433  1.00  0.00    -0.014 A 
ATOM     82  C   UNL     1       6.458  -3.845  -4.821  1.00  0.00     0.009 A 
ATOM     83  C   UNL     1       6.248  -2.913  -2.606  1.00  0.00     0.009 A 
ATOM     84  C   UNL     1       6.512  -2.552  -5.359  1.00  0.00     0.001 A 
ATOM     85  C   UNL     1       6.273  -1.623  -3.148  1.00  0.00     0.001 A 
ATOM     86  C   UNL     1       6.415  -1.442  -4.523  1.00  0.00     0.000 A 
ENDBRANCH  62  81
BRANCH  74  87
ATOM     87  C   UNL     1      11.536  -8.673  -3.223  1.00  0.00    -0.014 A 
ATOM     88  C   UNL     1      12.549  -7.895  -2.643  1.00  0.00     0.009 A 
ATOM     89  C   UNL     1      11.859  -9.510  -4.304  1.00  0.00     0.009 A 
ATOM     90  C   UNL     1      13.849  -7.931  -3.157  1.00  0.00     0.001 A 
ATOM     91  C   UNL     1      13.164  -9.566  -4.797  1.00  0.00     0.001 A 
ATOM     92  C   UNL     1      14.156  -8.770  -4.229  1.00  0.00     0.000 A 
ENDBRANCH  74  87
ENDBRANCH  48  49
ENDBRANCH  41  43
ENDBRANCH  40  41
ENDBRANCH  39  40
ENDBRANCH  38  39
ENDBRANCH  37  38
ENDBRANCH  36  37
ENDBRANCH   1  36
TORSDOF 25
