REMARK SMILES O=C(OCCOCCOC(=O)c1ccc(-c2c3nc(c(-c4ccccc4)c4ccc([nH]4)c(-c4ccccc4)c4nc(c(-c5ccccc5)c5ccc2[nH]5)C=C4)C=C3)cc1)C1=Cc2cc(S(F)(F)(F)(F)F)cc(Br)c2O[C@H]1C(F)(F)F
REMARK SMILES IDX 7 1 6 2 5 3 4 4 3 5 2 6 1 7 60 8 61 9 76 10 62 11 75 12
REMARK SMILES IDX 63 13 74 14 64 15 72 16 71 17 73 18 77 19 78 20 79 21 80 22
REMARK SMILES IDX 65 23 66 24 67 25 68 26 69 27 70 28 8 29 9 30 10 31 11 32
REMARK SMILES IDX 12 33 13 34 59 35 14 36 58 37 15 38 16 39 17 40 52 41 18 42
REMARK SMILES IDX 57 43 51 44 53 45 19 46 56 47 50 48 49 49 20 51 42 52 27 53
REMARK SMILES IDX 41 54 28 55 31 56 40 57 54 58 29 59 30 60 39 62 55 63 32 64
REMARK SMILES IDX 21 65 22 66 26 67 23 68 25 69 24 70 43 71 44 72 48 73 45 74
REMARK SMILES IDX 47 75 46 76 33 77 34 78 38 79 35 80 37 81 36 82
REMARK H PARENT 53 50 31 61
REMARK Flexibility Score: inf
ROOT
ATOM      1  C   UNL     1       2.986  -1.327   0.431  1.00  0.00     0.202 C 
ENDROOT
BRANCH   1   2
ATOM      2  O   UNL     1       4.406  -1.327   0.431  1.00  0.00    -0.374 OA
BRANCH   2   3
ATOM      3  C   UNL     1       4.880  -0.272   1.255  1.00  0.00     0.202 C 
BRANCH   3   4
ATOM      4  C   UNL     1       4.373   1.057   0.718  1.00  0.00     0.261 C 
BRANCH   4   5
ATOM      5  O   UNL     1       2.953   1.057   0.718  1.00  0.00    -0.460 OA
BRANCH   5   6
ATOM      6  C   UNL     1       2.243   0.087  -0.039  1.00  0.00     0.338 C 
ATOM      7  O   UNL     1       0.972   0.087  -0.039  1.00  0.00    -0.246 OA
BRANCH   6   8
ATOM      8  C   UNL     1       3.003  -0.950  -0.850  1.00  0.00     0.087 C 
ATOM      9  C   UNL     1       4.363  -0.950  -0.850  1.00  0.00     0.027 C 
ATOM     10  C   UNL     1       2.243  -1.987  -1.660  1.00  0.00     0.316 C 
ATOM     11  C   UNL     1       5.123   0.087  -0.039  1.00  0.00     0.020 A 
ATOM     12  O   UNL     1       3.422  -0.199   1.595  1.00  0.00    -0.474 OA
ATOM     13  C   UNL     1       6.278   0.690  -0.510  1.00  0.00     0.036 A 
ATOM     14  C   UNL     1       4.689   0.303   1.197  1.00  0.00     0.142 A 
ATOM     15  C   UNL     1       7.069   1.283   0.502  1.00  0.00     0.109 A 
ATOM     16  C   UNL     1       5.454   1.008   2.094  1.00  0.00     0.062 A 
ATOM     17  C   UNL     1       6.636   1.581   1.713  1.00  0.00     0.044 A 
ATOM     18  Br  UNL     1       4.843   1.194   3.947  1.00  0.00    -0.047 Br
BRANCH  10  19
ATOM     19  C   UNL     1       0.749  -1.768  -1.489  1.00  0.00     0.430 C 
ATOM     20  F   UNL     1       0.490  -1.397  -0.238  1.00  0.00    -0.167 F 
ATOM     21  F   UNL     1       0.340  -0.820  -2.327  1.00  0.00    -0.167 F 
ATOM     22  F   UNL     1       0.107  -2.903  -1.756  1.00  0.00    -0.167 F 
ENDBRANCH  10  19
BRANCH  15  23
ATOM     23  S   UNL     1       8.796   1.659   0.110  1.00  0.00     0.310 S 
ATOM     24  F   UNL     1       9.209   1.681   1.641  1.00  0.00    -0.094 F 
ATOM     25  F   UNL     1       8.460   3.192   0.249  1.00  0.00    -0.094 F 
ATOM     26  F   UNL     1      10.277   1.986  -0.231  1.00  0.00    -0.094 F 
ATOM     27  F   UNL     1       9.144   0.118   0.112  1.00  0.00    -0.094 F 
ATOM     28  F   UNL     1       7.322   1.311   0.565  1.00  0.00    -0.094 F 
ENDBRANCH  15  23
ENDBRANCH   6   8
ENDBRANCH   5   6
ENDBRANCH   4   5
ENDBRANCH   3   4
ENDBRANCH   2   3
ENDBRANCH   1   2
BRANCH   1  29
ATOM     29  C   UNL     1       2.480  -1.526   1.850  1.00  0.00     0.261 C 
BRANCH  29  30
ATOM     30  O   UNL     1       2.953  -0.471   2.674  1.00  0.00    -0.460 OA
BRANCH  30  31
ATOM     31  C   UNL     1       4.349  -0.266   2.833  1.00  0.00     0.338 C 
ATOM     32  O   UNL     1       5.175  -1.028   2.239  1.00  0.00    -0.246 OA
BRANCH  31  33
ATOM     33  C   UNL     1       4.856   0.863   3.716  1.00  0.00     0.060 A 
ATOM     34  C   UNL     1       5.987   1.585   3.373  1.00  0.00     0.016 A 
ATOM     35  C   UNL     1       4.270   1.019   4.897  1.00  0.00     0.016 A 
ATOM     36  C   UNL     1       6.599   2.244   4.465  1.00  0.00     0.010 A 
ATOM     37  C   UNL     1       4.858   1.788   5.873  1.00  0.00     0.010 A 
ATOM     38  C   UNL     1       6.009   2.482   5.622  1.00  0.00    -0.014 A 
BRANCH  38  39
ATOM     39  C   UNL     1       6.578   3.476   6.622  1.00  0.00     0.031 A 
ATOM     40  C   UNL     1       6.901   2.928   7.865  1.00  0.00     0.074 A 
ATOM     41  C   UNL     1       6.890   4.770   6.242  1.00  0.00     0.049 A 
ATOM     42  N   UNL     1       7.571   3.509   8.861  1.00  0.00    -0.248 NA
ATOM     43  C   UNL     1       6.541   1.565   8.283  1.00  0.00     0.031 C 
ATOM     44  C   UNL     1       6.575   5.327   4.988  1.00  0.00     0.029 A 
ATOM     45  N   UNL     1       7.542   5.733   6.980  1.00  0.00    -0.354 N 
ATOM     46  C   UNL     1       7.702   2.663   9.885  1.00  0.00     0.074 A 
ATOM     47  C   UNL     1       7.036   1.402   9.530  1.00  0.00     0.031 C 
ATOM     48  C   UNL     1       7.020   6.611   4.973  1.00  0.00     0.029 A 
ATOM     49  C   UNL     1       7.621   6.878   6.218  1.00  0.00     0.049 A 
ATOM     50  H   UNL     1       7.890   5.623   7.894  1.00  0.00     0.167 HD
ATOM     51  C   UNL     1       8.352   2.892  11.098  1.00  0.00     0.031 A 
ATOM     52  C   UNL     1       8.179   8.096   6.572  1.00  0.00     0.031 A 
ATOM     53  C   UNL     1       8.948   4.096  11.435  1.00  0.00     0.049 A 
ATOM     54  C   UNL     1       8.778   8.344   7.809  1.00  0.00     0.074 A 
ATOM     55  C   UNL     1       9.614   4.341  12.652  1.00  0.00     0.029 A 
ATOM     56  N   UNL     1       9.006   5.249  10.683  1.00  0.00    -0.354 N 
ATOM     57  N   UNL     1       8.944   7.485   8.816  1.00  0.00    -0.248 NA
ATOM     58  C   UNL     1       9.345   9.640   8.207  1.00  0.00     0.031 C 
ATOM     59  C   UNL     1      10.059   5.626  12.637  1.00  0.00     0.029 A 
ATOM     60  C   UNL     1       9.677   6.205  11.412  1.00  0.00     0.049 A 
ATOM     61  H   UNL     1       8.632   5.368   9.780  1.00  0.00     0.167 HD
ATOM     62  C   UNL     1       9.577   8.081   9.829  1.00  0.00     0.074 A 
ATOM     63  C   UNL     1       9.837   9.477   9.454  1.00  0.00     0.031 C 
ATOM     64  C   UNL     1       9.951   7.515  11.049  1.00  0.00     0.031 A 
BRANCH  51  65
ATOM     65  C   UNL     1       8.408   1.756  12.108  1.00  0.00    -0.014 A 
ATOM     66  C   UNL     1       9.002   0.547  11.787  1.00  0.00     0.009 A 
ATOM     67  C   UNL     1       7.854   1.957  13.298  1.00  0.00     0.009 A 
ATOM     68  C   UNL     1       8.704  -0.497  12.694  1.00  0.00     0.001 A 
ATOM     69  C   UNL     1       7.718   0.921  14.190  1.00  0.00     0.001 A 
ATOM     70  C   UNL     1       8.229  -0.316  13.913  1.00  0.00     0.000 A 
ENDBRANCH  51  65
BRANCH  52  71
ATOM     71  C   UNL     1       8.137   9.226   5.556  1.00  0.00    -0.014 A 
ATOM     72  C   UNL     1       9.340   9.757   5.120  1.00  0.00     0.009 A 
ATOM     73  C   UNL     1       6.977   9.681   5.097  1.00  0.00     0.009 A 
ATOM     74  C   UNL     1       9.206  10.972   4.408  1.00  0.00     0.001 A 
ATOM     75  C   UNL     1       6.931  10.795   4.294  1.00  0.00     0.001 A 
ATOM     76  C   UNL     1       8.080  11.406   3.873  1.00  0.00     0.000 A 
ENDBRANCH  52  71
BRANCH  64  77
ATOM     77  C   UNL     1      10.706   8.387  12.039  1.00  0.00    -0.014 A 
ATOM     78  C   UNL     1      10.217   9.617  12.446  1.00  0.00     0.009 A 
ATOM     79  C   UNL     1      11.916   7.975  12.396  1.00  0.00     0.009 A 
ATOM     80  C   UNL     1      11.201  10.473  12.994  1.00  0.00     0.001 A 
ATOM     81  C   UNL     1      12.779   8.820  13.050  1.00  0.00     0.001 A 
ATOM     82  C   UNL     1      12.382  10.072  13.431  1.00  0.00     0.000 A 
ENDBRANCH  64  77
ENDBRANCH  38  39
ENDBRANCH  31  33
ENDBRANCH  30  31
ENDBRANCH  29  30
ENDBRANCH   1  29
TORSDOF 16
