REMARK SMILES CC[C@@](C)([NH2+]CC(=O)Nc1ccc(Br)cc1F)C(=O)OCCOCCOC(=O)c1ccc(-c2c3nc(c(-c4ccccc4)c4ccc([nH]4)c(-c4ccccc4)c4nc(c(-c5ccccc5)c5ccc2[nH]5)C=C4)C=C3)cc1
REMARK SMILES IDX 22 1 21 2 20 3 18 4 19 5 3 6 4 7 2 8 1 9 5 10 6 13 7 14 8 15
REMARK SMILES IDX 9 16 10 18 11 19 16 20 12 21 15 22 17 23 13 24 14 25 23 26
REMARK SMILES IDX 24 27 25 28 26 29 27 30 28 31 29 32 30 33 76 34 31 35 75 36
REMARK SMILES IDX 32 37 33 38 34 39 69 40 35 41 74 42 68 43 70 44 36 45 73 46
REMARK SMILES IDX 67 47 66 48 37 50 59 51 44 52 58 53 45 54 48 55 57 56 71 57
REMARK SMILES IDX 46 58 47 59 56 61 72 62 49 63 38 64 39 65 43 66 40 67 42 68
REMARK SMILES IDX 41 69 60 70 61 71 65 72 62 73 64 74 63 75 50 76 51 77 55 78
REMARK SMILES IDX 52 79 54 80 53 81
REMARK H PARENT 5 11 5 12 9 17 70 49 48 60
REMARK Flexibility Score: inf
ROOT
ATOM      1  C   UNL     1       5.195  -2.249   2.214  1.00  0.00     0.202 C 
ENDROOT
BRANCH   1   2
ATOM      2  C   UNL     1       4.386  -0.956   2.247  1.00  0.00     0.261 C 
BRANCH   2   3
ATOM      3  O   UNL     1       2.995  -1.187   2.523  1.00  0.00    -0.459 OA
BRANCH   3   4
ATOM      4  C   UNL     1       2.035  -0.811   1.622  1.00  0.00     0.367 C 
ATOM      5  O   UNL     1       2.318  -0.259   0.567  1.00  0.00    -0.245 OA
BRANCH   4   6
ATOM      6  C   UNL     1       0.573  -1.290   2.044  1.00  0.00     0.191 C 
ATOM      7  C   UNL     1      -0.627  -0.356   2.332  1.00  0.00     0.092 C 
BRANCH   6   8
ATOM      8  C   UNL     1       0.098  -2.127   0.798  1.00  0.00     0.077 C 
ATOM      9  C   UNL     1      -0.043  -1.293  -0.503  1.00  0.00     0.011 C 
ENDBRANCH   6   8
BRANCH   6  10
ATOM     10  N   UNL     1       0.676  -2.100   3.296  1.00  0.00    -0.325 N 
ATOM     11  H   UNL     1       1.253  -2.915   3.087  1.00  0.00     0.347 HD
ATOM     12  H   UNL     1      -0.288  -2.307   3.555  1.00  0.00     0.347 HD
BRANCH  10  13
ATOM     13  C   UNL     1       1.266  -1.427   4.506  1.00  0.00     0.363 C 
BRANCH  13  14
ATOM     14  C   UNL     1       0.827  -0.005   4.937  1.00  0.00     0.279 C 
ATOM     15  O   UNL     1      -0.052   0.083   5.813  1.00  0.00    -0.268 OA
ATOM     16  N   UNL     1       1.342   1.206   4.527  1.00  0.00    -0.319 N 
ATOM     17  H   UNL     1       1.062   1.948   5.111  1.00  0.00     0.170 HD
BRANCH  16  18
ATOM     18  C   UNL     1       2.174   1.640   3.473  1.00  0.00     0.077 A 
ATOM     19  C   UNL     1       3.520   1.894   3.730  1.00  0.00     0.030 A 
ATOM     20  C   UNL     1       1.667   2.098   2.239  1.00  0.00     0.147 A 
ATOM     21  C   UNL     1       4.365   2.371   2.709  1.00  0.00     0.018 A 
ATOM     22  C   UNL     1       2.503   2.508   1.197  1.00  0.00     0.057 A 
ATOM     23  F   UNL     1       0.352   2.113   1.990  1.00  0.00    -0.205 F 
ATOM     24  C   UNL     1       3.864   2.602   1.428  1.00  0.00     0.021 A 
ATOM     25  Br  UNL     1       5.037   3.000   0.002  1.00  0.00    -0.051 Br
ENDBRANCH  16  18
ENDBRANCH  13  14
ENDBRANCH  10  13
ENDBRANCH   6  10
ENDBRANCH   4   6
ENDBRANCH   3   4
ENDBRANCH   2   3
ENDBRANCH   1   2
BRANCH   1  26
ATOM     26  O   UNL     1       4.888  -3.176   1.180  1.00  0.00    -0.374 OA
BRANCH  26  27
ATOM     27  C   UNL     1       3.637  -3.853   1.264  1.00  0.00     0.202 C 
BRANCH  27  28
ATOM     28  C   UNL     1       3.525  -5.011   2.261  1.00  0.00     0.261 C 
BRANCH  28  29
ATOM     29  O   UNL     1       3.782  -4.626   3.622  1.00  0.00    -0.460 OA
BRANCH  29  30
ATOM     30  C   UNL     1       4.997  -5.008   4.087  1.00  0.00     0.338 C 
ATOM     31  O   UNL     1       5.849  -5.647   3.501  1.00  0.00    -0.246 OA
BRANCH  30  32
ATOM     32  C   UNL     1       5.247  -4.399   5.407  1.00  0.00     0.060 A 
ATOM     33  C   UNL     1       6.439  -3.682   5.570  1.00  0.00     0.016 A 
ATOM     34  C   UNL     1       4.396  -4.626   6.490  1.00  0.00     0.016 A 
ATOM     35  C   UNL     1       6.822  -3.248   6.836  1.00  0.00     0.010 A 
ATOM     36  C   UNL     1       4.786  -4.197   7.762  1.00  0.00     0.010 A 
ATOM     37  C   UNL     1       6.023  -3.552   7.945  1.00  0.00    -0.014 A 
BRANCH  37  38
ATOM     38  C   UNL     1       6.571  -3.358   9.308  1.00  0.00     0.031 A 
ATOM     39  C   UNL     1       7.125  -4.550  10.041  1.00  0.00     0.074 A 
ATOM     40  C   UNL     1       6.609  -2.138   9.869  1.00  0.00     0.049 A 
ATOM     41  N   UNL     1       7.622  -4.623  11.249  1.00  0.00    -0.248 NA
ATOM     42  C   UNL     1       7.116  -5.831   9.315  1.00  0.00     0.031 C 
ATOM     43  C   UNL     1       6.152  -0.901   9.238  1.00  0.00     0.029 A 
ATOM     44  N   UNL     1       7.053  -1.744  11.106  1.00  0.00    -0.354 N 
ATOM     45  C   UNL     1       7.969  -5.957  11.432  1.00  0.00     0.074 A 
ATOM     46  C   UNL     1       7.603  -6.662  10.224  1.00  0.00     0.031 C 
ATOM     47  C   UNL     1       6.331   0.116  10.097  1.00  0.00     0.029 A 
ATOM     48  C   UNL     1       6.878  -0.404  11.349  1.00  0.00     0.049 A 
ATOM     49  H   UNL     1       7.458  -2.362  11.756  1.00  0.00     0.167 HD
ATOM     50  C   UNL     1       8.543  -6.541  12.511  1.00  0.00     0.031 A 
ATOM     51  C   UNL     1       7.109   0.314  12.464  1.00  0.00     0.031 A 
ATOM     52  C   UNL     1       8.897  -5.838  13.715  1.00  0.00     0.049 A 
ATOM     53  C   UNL     1       7.678  -0.373  13.678  1.00  0.00     0.074 A 
ATOM     54  C   UNL     1       9.502  -6.334  14.856  1.00  0.00     0.029 A 
ATOM     55  N   UNL     1       8.668  -4.489  13.936  1.00  0.00    -0.354 N 
ATOM     56  N   UNL     1       8.024  -1.629  13.832  1.00  0.00    -0.248 NA
ATOM     57  C   UNL     1       7.895   0.461  14.868  1.00  0.00     0.031 C 
ATOM     58  C   UNL     1       9.578  -5.300  15.793  1.00  0.00     0.029 A 
ATOM     59  C   UNL     1       9.089  -4.142  15.209  1.00  0.00     0.049 A 
ATOM     60  H   UNL     1       8.266  -3.869  13.285  1.00  0.00     0.167 HD
ATOM     61  C   UNL     1       8.526  -1.729  15.124  1.00  0.00     0.074 A 
ATOM     62  C   UNL     1       8.454  -0.403  15.704  1.00  0.00     0.031 C 
ATOM     63  C   UNL     1       9.007  -2.819  15.772  1.00  0.00     0.031 A 
BRANCH  50  64
ATOM     64  C   UNL     1       8.784  -8.024  12.453  1.00  0.00    -0.014 A 
ATOM     65  C   UNL     1       9.766  -8.579  11.617  1.00  0.00     0.009 A 
ATOM     66  C   UNL     1       8.036  -8.879  13.278  1.00  0.00     0.009 A 
ATOM     67  C   UNL     1       9.971  -9.961  11.586  1.00  0.00     0.001 A 
ATOM     68  C   UNL     1       8.264 -10.256  13.269  1.00  0.00     0.001 A 
ATOM     69  C   UNL     1       9.225 -10.797  12.416  1.00  0.00     0.000 A 
ENDBRANCH  50  64
BRANCH  51  70
ATOM     70  C   UNL     1       6.778   1.763  12.496  1.00  0.00    -0.014 A 
ATOM     71  C   UNL     1       7.789   2.731  12.579  1.00  0.00     0.009 A 
ATOM     72  C   UNL     1       5.439   2.184  12.457  1.00  0.00     0.009 A 
ATOM     73  C   UNL     1       7.465   4.089  12.646  1.00  0.00     0.001 A 
ATOM     74  C   UNL     1       5.119   3.542  12.493  1.00  0.00     0.001 A 
ATOM     75  C   UNL     1       6.132   4.493  12.597  1.00  0.00     0.000 A 
ENDBRANCH  51  70
BRANCH  63  76
ATOM     76  C   UNL     1       9.531  -2.618  17.168  1.00  0.00    -0.014 A 
ATOM     77  C   UNL     1       8.671  -2.350  18.244  1.00  0.00     0.009 A 
ATOM     78  C   UNL     1      10.908  -2.743  17.414  1.00  0.00     0.009 A 
ATOM     79  C   UNL     1       9.184  -2.176  19.531  1.00  0.00     0.001 A 
ATOM     80  C   UNL     1      11.414  -2.601  18.707  1.00  0.00     0.001 A 
ATOM     81  C   UNL     1      10.553  -2.307  19.762  1.00  0.00     0.000 A 
ENDBRANCH  63  76
ENDBRANCH  37  38
ENDBRANCH  30  32
ENDBRANCH  29  30
ENDBRANCH  28  29
ENDBRANCH  27  28
ENDBRANCH  26  27
ENDBRANCH   1  26
TORSDOF 19
