REMARK SMILES Cc1cccc(C(=O)OCCOCCOC(=O)c2ccc(-c3c4nc(c(-c5ccccc5)c5ccc([nH]5)c(-c5ccccc5)c5nc(c(-c6ccccc6)c6ccc3[nH]6)C=C5)C=C4)cc2)c1OC[C@@H]1C[C@H]2CC[C@@H]1C2
REMARK SMILES IDX 11 1 10 2 9 3 7 4 8 5 6 6 1 7 2 8 3 9 66 10 4 11 5 12 67 13
REMARK SMILES IDX 68 14 69 15 70 16 74 17 71 18 73 19 75 20 72 21 12 22 13 23
REMARK SMILES IDX 14 24 15 25 16 26 17 27 18 28 19 29 65 30 20 31 64 32 21 33
REMARK SMILES IDX 22 34 23 35 58 36 24 37 63 38 57 39 59 40 25 41 62 42 56 43
REMARK SMILES IDX 55 44 26 46 48 47 33 48 47 49 34 50 37 51 46 52 60 53 35 54
REMARK SMILES IDX 36 55 45 57 61 58 38 59 27 60 28 61 32 62 29 63 31 64 30 65
REMARK SMILES IDX 49 66 50 67 54 68 51 69 53 70 52 71 39 72 40 73 44 74 41 75
REMARK SMILES IDX 43 76 42 77
REMARK H PARENT 59 45 37 56
REMARK Flexibility Score: inf
ROOT
ATOM      1  C   UNL     1      -0.802   3.519  -1.944  1.00  0.00     0.202 C 
ENDROOT
BRANCH   1   2
ATOM      2  C   UNL     1      -0.412   3.968  -0.558  1.00  0.00     0.261 C 
BRANCH   2   3
ATOM      3  O   UNL     1      -0.164   2.874   0.347  1.00  0.00    -0.460 OA
BRANCH   3   4
ATOM      4  C   UNL     1      -1.129   1.937   0.509  1.00  0.00     0.342 C 
ATOM      5  O   UNL     1      -2.304   2.138   0.737  1.00  0.00    -0.246 OA
BRANCH   4   6
ATOM      6  C   UNL     1      -0.561   0.582   0.310  1.00  0.00     0.102 A 
ATOM      7  C   UNL     1       2.213  -1.278  -1.526  1.00  0.00     0.048 C 
ATOM      8  C   UNL     1       1.010  -0.968  -0.681  1.00  0.00    -0.008 A 
ATOM      9  C   UNL     1       0.108  -2.018  -0.425  1.00  0.00     0.007 A 
ATOM     10  C   UNL     1       0.706   0.338  -0.264  1.00  0.00     0.136 A 
ATOM     11  C   UNL     1      -1.123  -1.778   0.176  1.00  0.00     0.001 A 
ATOM     12  C   UNL     1      -1.461  -0.480   0.535  1.00  0.00     0.019 A 
BRANCH  10  13
ATOM     13  O   UNL     1       1.490   1.350  -0.747  1.00  0.00    -0.492 OA
BRANCH  13  14
ATOM     14  C   UNL     1       2.616   1.879  -0.021  1.00  0.00     0.233 C 
BRANCH  14  15
ATOM     15  C   UNL     1       3.010   1.343   1.361  1.00  0.00     0.030 C 
ATOM     16  C   UNL     1       4.027   2.276   2.085  1.00  0.00     0.011 C 
ATOM     17  C   UNL     1       3.814   0.021   1.311  1.00  0.00    -0.004 C 
ATOM     18  C   UNL     1       5.157   1.319   2.511  1.00  0.00    -0.010 C 
ATOM     19  C   UNL     1       3.743  -0.623   2.701  1.00  0.00     0.004 C 
ATOM     20  C   UNL     1       5.279   0.465   1.258  1.00  0.00     0.007 C 
ATOM     21  C   UNL     1       4.628   0.305   3.543  1.00  0.00     0.004 C 
ENDBRANCH  14  15
ENDBRANCH  13  14
ENDBRANCH  10  13
ENDBRANCH   4   6
ENDBRANCH   3   4
ENDBRANCH   2   3
ENDBRANCH   1   2
BRANCH   1  22
ATOM     22  O   UNL     1      -2.122   3.006  -1.863  1.00  0.00    -0.374 OA
BRANCH  22  23
ATOM     23  C   UNL     1      -2.641   2.441  -3.052  1.00  0.00     0.202 C 
BRANCH  23  24
ATOM     24  C   UNL     1      -2.749   3.466  -4.189  1.00  0.00     0.261 C 
BRANCH  24  25
ATOM     25  O   UNL     1      -3.690   4.506  -3.837  1.00  0.00    -0.460 OA
BRANCH  25  26
ATOM     26  C   UNL     1      -3.156   5.653  -3.329  1.00  0.00     0.338 C 
ATOM     27  O   UNL     1      -2.286   6.322  -3.863  1.00  0.00    -0.246 OA
BRANCH  26  28
ATOM     28  C   UNL     1      -3.588   5.832  -1.911  1.00  0.00     0.060 A 
ATOM     29  C   UNL     1      -2.966   6.795  -1.092  1.00  0.00     0.016 A 
ATOM     30  C   UNL     1      -4.336   4.814  -1.331  1.00  0.00     0.016 A 
ATOM     31  C   UNL     1      -2.943   6.628   0.303  1.00  0.00     0.010 A 
ATOM     32  C   UNL     1      -4.180   4.577   0.015  1.00  0.00     0.010 A 
ATOM     33  C   UNL     1      -3.464   5.459   0.845  1.00  0.00    -0.014 A 
BRANCH  33  34
ATOM     34  C   UNL     1      -3.336   4.979   2.227  1.00  0.00     0.031 A 
ATOM     35  C   UNL     1      -4.597   4.737   2.966  1.00  0.00     0.074 A 
ATOM     36  C   UNL     1      -2.183   4.415   2.671  1.00  0.00     0.049 A 
ATOM     37  N   UNL     1      -4.654   4.284   4.166  1.00  0.00    -0.248 NA
ATOM     38  C   UNL     1      -5.930   5.015   2.416  1.00  0.00     0.031 C 
ATOM     39  C   UNL     1      -2.023   3.317   3.634  1.00  0.00     0.029 A 
ATOM     40  N   UNL     1      -0.862   4.710   2.334  1.00  0.00    -0.354 N 
ATOM     41  C   UNL     1      -5.938   3.852   4.379  1.00  0.00     0.074 A 
ATOM     42  C   UNL     1      -6.721   4.449   3.331  1.00  0.00     0.031 C 
ATOM     43  C   UNL     1      -0.734   3.217   4.003  1.00  0.00     0.029 A 
ATOM     44  C   UNL     1      -0.036   4.343   3.412  1.00  0.00     0.049 A 
ATOM     45  H   UNL     1      -0.559   5.106   1.485  1.00  0.00     0.167 HD
ATOM     46  C   UNL     1      -6.144   2.914   5.341  1.00  0.00     0.031 A 
ATOM     47  C   UNL     1       0.719   5.277   4.052  1.00  0.00     0.031 A 
ATOM     48  C   UNL     1      -4.933   2.713   6.143  1.00  0.00     0.049 A 
ATOM     49  C   UNL     1       0.206   5.403   5.458  1.00  0.00     0.074 A 
ATOM     50  C   UNL     1      -4.005   1.690   6.231  1.00  0.00     0.029 A 
ATOM     51  N   UNL     1      -4.350   3.824   6.756  1.00  0.00    -0.354 N 
ATOM     52  N   UNL     1      -1.016   5.079   5.788  1.00  0.00    -0.248 NA
ATOM     53  C   UNL     1       1.019   5.774   6.610  1.00  0.00     0.031 C 
ATOM     54  C   UNL     1      -2.816   2.237   6.803  1.00  0.00     0.029 A 
ATOM     55  C   UNL     1      -3.039   3.572   7.109  1.00  0.00     0.049 A 
ATOM     56  H   UNL     1      -4.814   4.677   6.915  1.00  0.00     0.167 HD
ATOM     57  C   UNL     1      -1.128   5.059   7.141  1.00  0.00     0.074 A 
ATOM     58  C   UNL     1       0.150   5.564   7.617  1.00  0.00     0.031 C 
ATOM     59  C   UNL     1      -2.241   4.598   7.777  1.00  0.00     0.031 A 
BRANCH  46  60
ATOM     60  C   UNL     1      -7.379   2.053   5.446  1.00  0.00    -0.014 A 
ATOM     61  C   UNL     1      -7.491   1.141   6.510  1.00  0.00     0.009 A 
ATOM     62  C   UNL     1      -8.420   2.018   4.496  1.00  0.00     0.009 A 
ATOM     63  C   UNL     1      -8.582   0.266   6.628  1.00  0.00     0.001 A 
ATOM     64  C   UNL     1      -9.529   1.168   4.623  1.00  0.00     0.001 A 
ATOM     65  C   UNL     1      -9.607   0.287   5.690  1.00  0.00     0.000 A 
ENDBRANCH  46  60
BRANCH  47  66
ATOM     66  C   UNL     1       1.174   6.347   3.107  1.00  0.00    -0.014 A 
ATOM     67  C   UNL     1       2.160   5.973   2.163  1.00  0.00     0.009 A 
ATOM     68  C   UNL     1       0.312   7.405   2.774  1.00  0.00     0.009 A 
ATOM     69  C   UNL     1       2.155   6.502   0.866  1.00  0.00     0.001 A 
ATOM     70  C   UNL     1       0.318   7.935   1.474  1.00  0.00     0.001 A 
ATOM     71  C   UNL     1       1.200   7.448   0.508  1.00  0.00     0.000 A 
ENDBRANCH  47  66
BRANCH  59  72
ATOM     72  C   UNL     1      -2.642   5.068   9.145  1.00  0.00    -0.014 A 
ATOM     73  C   UNL     1      -2.124   6.229   9.735  1.00  0.00     0.009 A 
ATOM     74  C   UNL     1      -3.720   4.442   9.802  1.00  0.00     0.009 A 
ATOM     75  C   UNL     1      -2.608   6.702  10.956  1.00  0.00     0.001 A 
ATOM     76  C   UNL     1      -4.250   4.948  10.987  1.00  0.00     0.001 A 
ATOM     77  C   UNL     1      -3.679   6.068  11.575  1.00  0.00     0.000 A 
ENDBRANCH  59  72
ENDBRANCH  33  34
ENDBRANCH  26  28
ENDBRANCH  25  26
ENDBRANCH  24  25
ENDBRANCH  23  24
ENDBRANCH  22  23
ENDBRANCH   1  22
TORSDOF 17
