REMARK SMILES CC1([C@](C)(Nc2cccc(Cl)c2)C(=O)OCCOCCOC(=O)c2ccc(-c3c4nc(c(-c5ccccc5)c5ccc([nH]5)c(-c5ccccc5)c5nc(c(-c6ccccc6)c6ccc3[nH]6)C=C5)C=C4)cc2)CC1
REMARK SMILES IDX 18 1 17 2 16 3 15 4 13 5 14 6 3 7 4 8 2 9 1 10 72 11 73 12
REMARK SMILES IDX 5 13 6 15 7 16 12 17 8 18 10 19 9 20 11 21 19 22 20 23 21 24
REMARK SMILES IDX 22 25 23 26 24 27 25 28 71 29 26 30 70 31 27 32 28 33 29 34
REMARK SMILES IDX 64 35 30 36 69 37 63 38 65 39 31 40 68 41 62 42 61 43 32 45
REMARK SMILES IDX 54 46 39 47 53 48 40 49 43 50 52 51 66 52 41 53 42 54 51 56
REMARK SMILES IDX 67 57 44 58 33 59 34 60 38 61 35 62 37 63 36 64 55 65 56 66
REMARK SMILES IDX 60 67 57 68 59 69 58 70 45 71 46 72 50 73 47 74 49 75 48 76
REMARK H PARENT 5 14 65 44 43 55
REMARK Flexibility Score: inf
ROOT
ATOM      1  O   UNL     1      -3.001   1.841  -4.271  1.00  0.00    -0.374 OA
ENDROOT
BRANCH   1   2
ATOM      2  C   UNL     1      -3.581   0.547  -4.439  1.00  0.00     0.202 C 
BRANCH   2   3
ATOM      3  C   UNL     1      -2.584  -0.608  -4.449  1.00  0.00     0.261 C 
BRANCH   3   4
ATOM      4  O   UNL     1      -2.038  -0.806  -3.134  1.00  0.00    -0.461 OA
BRANCH   4   5
ATOM      5  C   UNL     1      -0.770  -0.347  -2.937  1.00  0.00     0.332 C 
ATOM      6  O   UNL     1      -0.074   0.110  -3.841  1.00  0.00    -0.249 OA
BRANCH   5   7
ATOM      7  C   UNL     1      -0.266  -0.565  -1.472  1.00  0.00     0.138 C 
ATOM      8  C   UNL     1       1.044   0.300  -1.366  1.00  0.00     0.048 C 
BRANCH   7   9
ATOM      9  C   UNL     1       0.062  -2.068  -1.178  1.00  0.00     0.001 C 
ATOM     10  C   UNL     1      -0.190  -2.549   0.234  1.00  0.00     0.014 C 
ATOM     11  C   UNL     1       1.276  -2.692  -1.871  1.00  0.00     0.010 C 
ATOM     12  C   UNL     1      -0.092  -3.130  -2.272  1.00  0.00     0.010 C 
ENDBRANCH   7   9
BRANCH   7  13
ATOM     13  N   UNL     1      -1.132   0.046  -0.421  1.00  0.00    -0.370 N 
ATOM     14  H   UNL     1      -0.619   0.656   0.158  1.00  0.00     0.161 HD
BRANCH  13  15
ATOM     15  C   UNL     1      -2.450  -0.013  -0.043  1.00  0.00     0.036 A 
ATOM     16  C   UNL     1      -3.383  -0.949  -0.478  1.00  0.00     0.026 A 
ATOM     17  C   UNL     1      -2.909   1.003   0.821  1.00  0.00     0.046 A 
ATOM     18  C   UNL     1      -4.710  -0.912  -0.022  1.00  0.00     0.004 A 
ATOM     19  C   UNL     1      -4.232   1.059   1.255  1.00  0.00     0.043 A 
ATOM     20  C   UNL     1      -5.133   0.088   0.852  1.00  0.00     0.020 A 
ATOM     21  Cl  UNL     1      -4.748   2.346   2.273  1.00  0.00    -0.084 Cl
ENDBRANCH  13  15
ENDBRANCH   7  13
ENDBRANCH   5   7
ENDBRANCH   4   5
ENDBRANCH   3   4
ENDBRANCH   2   3
ENDBRANCH   1   2
BRANCH   1  22
ATOM     22  C   UNL     1      -2.852   2.276  -2.917  1.00  0.00     0.202 C 
BRANCH  22  23
ATOM     23  C   UNL     1      -4.101   2.920  -2.300  1.00  0.00     0.261 C 
BRANCH  23  24
ATOM     24  O   UNL     1      -5.162   1.962  -2.117  1.00  0.00    -0.460 OA
BRANCH  24  25
ATOM     25  C   UNL     1      -6.147   1.994  -3.050  1.00  0.00     0.338 C 
ATOM     26  O   UNL     1      -6.299   2.805  -3.939  1.00  0.00    -0.246 OA
BRANCH  25  27
ATOM     27  C   UNL     1      -6.936   0.743  -2.955  1.00  0.00     0.060 A 
ATOM     28  C   UNL     1      -7.190   0.030  -4.132  1.00  0.00     0.016 A 
ATOM     29  C   UNL     1      -7.428   0.275  -1.738  1.00  0.00     0.016 A 
ATOM     30  C   UNL     1      -7.979  -1.123  -4.098  1.00  0.00     0.010 A 
ATOM     31  C   UNL     1      -8.170  -0.911  -1.697  1.00  0.00     0.010 A 
ATOM     32  C   UNL     1      -8.505  -1.588  -2.884  1.00  0.00    -0.014 A 
BRANCH  32  33
ATOM     33  C   UNL     1      -9.550  -2.654  -2.877  1.00  0.00     0.031 A 
ATOM     34  C   UNL     1     -10.957  -2.294  -2.457  1.00  0.00     0.074 A 
ATOM     35  C   UNL     1      -9.283  -3.916  -3.267  1.00  0.00     0.049 A 
ATOM     36  N   UNL     1     -12.021  -3.054  -2.369  1.00  0.00    -0.248 NA
ATOM     37  C   UNL     1     -11.191  -0.896  -2.061  1.00  0.00     0.031 C 
ATOM     38  C   UNL     1      -7.981  -4.415  -3.709  1.00  0.00     0.029 A 
ATOM     39  N   UNL     1     -10.108  -5.012  -3.364  1.00  0.00    -0.354 N 
ATOM     40  C   UNL     1     -13.033  -2.231  -1.887  1.00  0.00     0.074 A 
ATOM     41  C   UNL     1     -12.441  -0.937  -1.634  1.00  0.00     0.031 C 
ATOM     42  C   UNL     1      -8.102  -5.708  -4.058  1.00  0.00     0.029 A 
ATOM     43  C   UNL     1      -9.480  -6.141  -3.833  1.00  0.00     0.049 A 
ATOM     44  H   UNL     1     -11.062  -4.989  -3.119  1.00  0.00     0.167 HD
ATOM     45  C   UNL     1     -14.347  -2.503  -1.700  1.00  0.00     0.031 A 
ATOM     46  C   UNL     1      -9.959  -7.382  -4.057  1.00  0.00     0.031 A 
ATOM     47  C   UNL     1     -14.956  -3.777  -1.969  1.00  0.00     0.049 A 
ATOM     48  C   UNL     1     -11.413  -7.680  -3.795  1.00  0.00     0.074 A 
ATOM     49  C   UNL     1     -16.286  -4.138  -1.851  1.00  0.00     0.029 A 
ATOM     50  N   UNL     1     -14.273  -4.897  -2.414  1.00  0.00    -0.354 N 
ATOM     51  N   UNL     1     -12.365  -6.876  -3.386  1.00  0.00    -0.248 NA
ATOM     52  C   UNL     1     -11.861  -9.060  -4.042  1.00  0.00     0.031 C 
ATOM     53  C   UNL     1     -16.399  -5.496  -2.166  1.00  0.00     0.029 A 
ATOM     54  C   UNL     1     -15.150  -5.960  -2.549  1.00  0.00     0.049 A 
ATOM     55  H   UNL     1     -13.308  -4.933  -2.605  1.00  0.00     0.167 HD
ATOM     56  C   UNL     1     -13.526  -7.641  -3.361  1.00  0.00     0.074 A 
ATOM     57  C   UNL     1     -13.163  -8.969  -3.810  1.00  0.00     0.031 C 
ATOM     58  C   UNL     1     -14.781  -7.276  -3.001  1.00  0.00     0.031 A 
BRANCH  45  59
ATOM     59  C   UNL     1     -15.211  -1.392  -1.165  1.00  0.00    -0.014 A 
ATOM     60  C   UNL     1     -15.482  -0.243  -1.928  1.00  0.00     0.009 A 
ATOM     61  C   UNL     1     -15.768  -1.498   0.119  1.00  0.00     0.009 A 
ATOM     62  C   UNL     1     -16.245   0.798  -1.395  1.00  0.00     0.001 A 
ATOM     63  C   UNL     1     -16.563  -0.472   0.634  1.00  0.00     0.001 A 
ATOM     64  C   UNL     1     -16.789   0.680  -0.117  1.00  0.00     0.000 A 
ENDBRANCH  45  59
BRANCH  46  65
ATOM     65  C   UNL     1      -9.061  -8.450  -4.578  1.00  0.00    -0.014 A 
ATOM     66  C   UNL     1      -9.237  -8.960  -5.874  1.00  0.00     0.009 A 
ATOM     67  C   UNL     1      -8.043  -8.987  -3.773  1.00  0.00     0.009 A 
ATOM     68  C   UNL     1      -8.433 -10.003  -6.342  1.00  0.00     0.001 A 
ATOM     69  C   UNL     1      -7.221 -10.008  -4.256  1.00  0.00     0.001 A 
ATOM     70  C   UNL     1      -7.423 -10.522  -5.535  1.00  0.00     0.000 A 
ENDBRANCH  46  65
BRANCH  58  71
ATOM     71  C   UNL     1     -15.869  -8.309  -3.119  1.00  0.00    -0.014 A 
ATOM     72  C   UNL     1     -15.936  -9.410  -2.250  1.00  0.00     0.009 A 
ATOM     73  C   UNL     1     -16.875  -8.147  -4.085  1.00  0.00     0.009 A 
ATOM     74  C   UNL     1     -16.966 -10.345  -2.372  1.00  0.00     0.001 A 
ATOM     75  C   UNL     1     -17.922  -9.065  -4.183  1.00  0.00     0.001 A 
ATOM     76  C   UNL     1     -17.961 -10.168  -3.333  1.00  0.00     0.000 A 
ENDBRANCH  58  71
ENDBRANCH  32  33
ENDBRANCH  25  27
ENDBRANCH  24  25
ENDBRANCH  23  24
ENDBRANCH  22  23
ENDBRANCH   1  22
TORSDOF 17
