REMARK SMILES CN(CC1CCC1)C(=O)N(CC(=O)OCCOCCOC(=O)c1ccc(-c2c3nc(c(-c4ccccc4)c4ccc([nH]4)c(-c4ccccc4)c4nc(c(-c5ccccc5)c5ccc2[nH]5)C=C4)C=C3)cc1)C(C)(C)C
REMARK SMILES IDX 15 1 14 2 12 3 13 4 11 5 10 6 8 7 9 8 2 9 1 10 3 11 4 12
REMARK SMILES IDX 5 13 7 14 6 15 71 16 72 17 73 18 74 19 16 20 17 21 18 22
REMARK SMILES IDX 19 23 20 24 21 25 22 26 23 27 24 28 70 29 25 30 69 31 26 32
REMARK SMILES IDX 27 33 28 34 63 35 29 36 68 37 62 38 64 39 30 40 67 41 61 42
REMARK SMILES IDX 60 43 31 45 53 46 38 47 52 48 39 49 42 50 51 51 65 52 40 53
REMARK SMILES IDX 41 54 50 56 66 57 43 58 32 59 33 60 37 61 34 62 36 63 35 64
REMARK SMILES IDX 54 65 55 66 59 67 56 68 58 69 57 70 44 71 45 72 49 73 46 74
REMARK SMILES IDX 48 75 47 76
REMARK H PARENT 64 44 42 55
REMARK Flexibility Score: inf
ROOT
ATOM      1  C   UNL     1      -3.376   4.037  -3.178  1.00  0.00     0.261 C 
ENDROOT
BRANCH   1   2
ATOM      2  O   UNL     1      -1.969   3.843  -2.875  1.00  0.00    -0.462 OA
BRANCH   2   3
ATOM      3  C   UNL     1      -1.305   3.066  -3.778  1.00  0.00     0.325 C 
ATOM      4  O   UNL     1      -1.833   2.607  -4.789  1.00  0.00    -0.250 OA
BRANCH   3   5
ATOM      5  C   UNL     1       0.197   2.867  -3.497  1.00  0.00     0.244 C 
BRANCH   5   6
ATOM      6  N   UNL     1       0.776   3.152  -2.174  1.00  0.00    -0.309 N 
BRANCH   6   7
ATOM      7  C   UNL     1       1.018   2.183  -1.201  1.00  0.00     0.320 C 
ATOM      8  O   UNL     1       1.744   2.451  -0.235  1.00  0.00    -0.248 OA
BRANCH   7   9
ATOM      9  N   UNL     1       0.490   0.903  -1.256  1.00  0.00    -0.327 N 
ATOM     10  C   UNL     1       1.075  -0.034  -0.293  1.00  0.00     0.148 C 
BRANCH   9  11
ATOM     11  C   UNL     1      -0.723   0.403  -1.903  1.00  0.00     0.124 C 
BRANCH  11  12
ATOM     12  C   UNL     1      -1.973   0.990  -1.268  1.00  0.00     0.008 C 
ATOM     13  C   UNL     1      -2.764   0.074  -0.289  1.00  0.00     0.005 C 
ATOM     14  C   UNL     1      -1.983   2.033  -0.102  1.00  0.00     0.005 C 
ATOM     15  C   UNL     1      -3.307   1.377   0.342  1.00  0.00     0.001 C 
ENDBRANCH  11  12
ENDBRANCH   9  11
ENDBRANCH   7   9
ENDBRANCH   6   7
BRANCH   6  16
ATOM     16  C   UNL     1       1.382   4.531  -1.939  1.00  0.00     0.037 C 
ATOM     17  C   UNL     1       0.814   5.147  -0.639  1.00  0.00     0.034 C 
ATOM     18  C   UNL     1       2.929   4.462  -1.862  1.00  0.00     0.034 C 
ATOM     19  C   UNL     1       1.105   5.549  -3.073  1.00  0.00     0.034 C 
ENDBRANCH   6  16
ENDBRANCH   5   6
ENDBRANCH   3   5
ENDBRANCH   2   3
ENDBRANCH   1   2
BRANCH   1  20
ATOM     20  C   UNL     1      -3.994   5.171  -2.347  1.00  0.00     0.202 C 
BRANCH  20  21
ATOM     21  O   UNL     1      -3.805   6.490  -2.877  1.00  0.00    -0.374 OA
BRANCH  21  22
ATOM     22  C   UNL     1      -2.456   6.931  -2.973  1.00  0.00     0.202 C 
BRANCH  22  23
ATOM     23  C   UNL     1      -1.868   7.553  -1.701  1.00  0.00     0.261 C 
BRANCH  23  24
ATOM     24  O   UNL     1      -2.197   6.819  -0.512  1.00  0.00    -0.460 OA
BRANCH  24  25
ATOM     25  C   UNL     1      -3.152   7.405   0.242  1.00  0.00     0.338 C 
ATOM     26  O   UNL     1      -3.651   8.515   0.072  1.00  0.00    -0.246 OA
BRANCH  25  27
ATOM     27  C   UNL     1      -3.648   6.500   1.292  1.00  0.00     0.060 A 
ATOM     28  C   UNL     1      -5.037   6.408   1.430  1.00  0.00     0.016 A 
ATOM     29  C   UNL     1      -2.800   5.878   2.213  1.00  0.00     0.016 A 
ATOM     30  C   UNL     1      -5.585   5.779   2.542  1.00  0.00     0.010 A 
ATOM     31  C   UNL     1      -3.355   5.241   3.332  1.00  0.00     0.010 A 
ATOM     32  C   UNL     1      -4.748   5.241   3.529  1.00  0.00    -0.014 A 
BRANCH  32  33
ATOM     33  C   UNL     1      -5.358   4.842   4.821  1.00  0.00     0.031 A 
ATOM     34  C   UNL     1      -5.316   5.799   5.984  1.00  0.00     0.074 A 
ATOM     35  C   UNL     1      -6.033   3.685   4.930  1.00  0.00     0.049 A 
ATOM     36  N   UNL     1      -5.903   5.710   7.151  1.00  0.00    -0.248 NA
ATOM     37  C   UNL     1      -4.510   7.017   5.806  1.00  0.00     0.031 C 
ATOM     38  C   UNL     1      -6.166   2.683   3.874  1.00  0.00     0.029 A 
ATOM     39  N   UNL     1      -6.748   3.169   5.981  1.00  0.00    -0.354 N 
ATOM     40  C   UNL     1      -5.539   6.858   7.845  1.00  0.00     0.074 A 
ATOM     41  C   UNL     1      -4.653   7.610   6.982  1.00  0.00     0.031 C 
ATOM     42  C   UNL     1      -6.926   1.672   4.330  1.00  0.00     0.029 A 
ATOM     43  C   UNL     1      -7.320   1.952   5.710  1.00  0.00     0.049 A 
ATOM     44  H   UNL     1      -6.841   3.628   6.847  1.00  0.00     0.167 HD
ATOM     45  C   UNL     1      -5.914   7.259   9.083  1.00  0.00     0.031 A 
ATOM     46  C   UNL     1      -8.078   1.152   6.484  1.00  0.00     0.031 A 
ATOM     47  C   UNL     1      -6.786   6.512   9.949  1.00  0.00     0.049 A 
ATOM     48  C   UNL     1      -8.456   1.599   7.869  1.00  0.00     0.074 A 
ATOM     49  C   UNL     1      -7.251   6.851  11.208  1.00  0.00     0.029 A 
ATOM     50  N   UNL     1      -7.313   5.266   9.649  1.00  0.00    -0.354 N 
ATOM     51  N   UNL     1      -8.154   2.715   8.487  1.00  0.00    -0.248 NA
ATOM     52  C   UNL     1      -9.295   0.683   8.655  1.00  0.00     0.031 C 
ATOM     53  C   UNL     1      -8.018   5.784  11.692  1.00  0.00     0.029 A 
ATOM     54  C   UNL     1      -8.072   4.806  10.712  1.00  0.00     0.049 A 
ATOM     55  H   UNL     1      -7.169   4.779   8.806  1.00  0.00     0.167 HD
ATOM     56  C   UNL     1      -8.777   2.643   9.727  1.00  0.00     0.074 A 
ATOM     57  C   UNL     1      -9.490   1.382   9.765  1.00  0.00     0.031 C 
ATOM     58  C   UNL     1      -8.762   3.542  10.742  1.00  0.00     0.031 A 
BRANCH  45  59
ATOM     59  C   UNL     1      -5.348   8.559   9.585  1.00  0.00    -0.014 A 
ATOM     60  C   UNL     1      -5.776   9.791   9.066  1.00  0.00     0.009 A 
ATOM     61  C   UNL     1      -4.380   8.548  10.601  1.00  0.00     0.009 A 
ATOM     62  C   UNL     1      -5.216  10.985   9.528  1.00  0.00     0.001 A 
ATOM     63  C   UNL     1      -3.841   9.744  11.079  1.00  0.00     0.001 A 
ATOM     64  C   UNL     1      -4.251  10.960  10.535  1.00  0.00     0.000 A 
ENDBRANCH  45  59
BRANCH  46  65
ATOM     65  C   UNL     1      -8.525  -0.163   5.958  1.00  0.00    -0.014 A 
ATOM     66  C   UNL     1      -9.863  -0.382   5.602  1.00  0.00     0.009 A 
ATOM     67  C   UNL     1      -7.598  -1.204   5.794  1.00  0.00     0.009 A 
ATOM     68  C   UNL     1     -10.267  -1.623   5.104  1.00  0.00     0.001 A 
ATOM     69  C   UNL     1      -7.999  -2.436   5.273  1.00  0.00     0.001 A 
ATOM     70  C   UNL     1      -9.334  -2.646   4.934  1.00  0.00     0.000 A 
ENDBRANCH  46  65
BRANCH  58  71
ATOM     71  C   UNL     1      -9.547   3.197  11.976  1.00  0.00    -0.014 A 
ATOM     72  C   UNL     1      -9.093   2.220  12.876  1.00  0.00     0.009 A 
ATOM     73  C   UNL     1     -10.737   3.885  12.262  1.00  0.00     0.009 A 
ATOM     74  C   UNL     1      -9.831   1.918  14.022  1.00  0.00     0.001 A 
ATOM     75  C   UNL     1     -11.460   3.599  13.421  1.00  0.00     0.001 A 
ATOM     76  C   UNL     1     -11.011   2.609  14.295  1.00  0.00     0.000 A 
ENDBRANCH  58  71
ENDBRANCH  32  33
ENDBRANCH  25  27
ENDBRANCH  24  25
ENDBRANCH  23  24
ENDBRANCH  22  23
ENDBRANCH  21  22
ENDBRANCH  20  21
ENDBRANCH   1  20
TORSDOF 20
