REMARK SMILES CS(=O)(=O)c1ccc(/C=C(/C(=O)OCCOCCOC(=O)c2ccc(-c3c4nc(c(-c5ccccc5)c5ccc([nH]5)c(-c5ccccc5)c5nc(c(-c6ccccc6)c6ccc3[nH]6)C=C5)C=C4)cc2)c2ccc(O)cc2)cc1
REMARK SMILES IDX 16 1 15 2 14 3 13 4 11 5 12 6 10 7 9 8 8 9 5 10 6 11 78 12
REMARK SMILES IDX 7 13 77 14 2 15 1 16 3 17 4 18 70 19 71 20 76 21 72 22 75 23
REMARK SMILES IDX 73 24 74 25 17 27 18 28 19 29 20 30 21 31 22 32 23 33 69 34
REMARK SMILES IDX 24 35 68 36 25 37 26 38 27 39 62 40 28 41 67 42 61 43 63 44
REMARK SMILES IDX 29 45 66 46 60 47 59 48 30 50 52 51 37 52 51 53 38 54 41 55
REMARK SMILES IDX 50 56 64 57 39 58 40 59 49 61 65 62 42 63 31 64 32 65 36 66
REMARK SMILES IDX 33 67 35 68 34 69 53 70 54 71 58 72 55 73 57 74 56 75 43 76
REMARK SMILES IDX 44 77 48 78 45 79 47 80 46 81
REMARK H PARENT 74 26 63 49 41 60
REMARK Flexibility Score: inf
ROOT
ATOM      1  O   UNL     1       1.048  -9.742   6.411  1.00  0.00    -0.374 OA
ENDROOT
BRANCH   1   2
ATOM      2  C   UNL     1       2.118  -9.216   7.197  1.00  0.00     0.202 C 
BRANCH   2   3
ATOM      3  C   UNL     1       3.217  -8.451   6.454  1.00  0.00     0.261 C 
BRANCH   3   4
ATOM      4  O   UNL     1       2.707  -7.238   5.868  1.00  0.00    -0.460 OA
BRANCH   4   5
ATOM      5  C   UNL     1       2.894  -7.134   4.527  1.00  0.00     0.338 C 
ATOM      6  O   UNL     1       3.590  -7.874   3.846  1.00  0.00    -0.246 OA
BRANCH   5   7
ATOM      7  C   UNL     1       2.045  -6.056   3.925  1.00  0.00     0.067 C 
ATOM      8  C   UNL     1       1.887  -4.875   4.568  1.00  0.00     0.024 C 
BRANCH   8   9
ATOM      9  C   UNL     1       1.308  -3.615   4.033  1.00  0.00    -0.025 A 
ATOM     10  C   UNL     1       0.618  -1.190   2.792  1.00  0.00     0.067 A 
ATOM     11  C   UNL     1      -0.057  -2.358   2.448  1.00  0.00     0.021 A 
ATOM     12  C   UNL     1       1.545  -1.191   3.832  1.00  0.00     0.021 A 
ATOM     13  C   UNL     1       0.271  -3.555   3.091  1.00  0.00     0.009 A 
ATOM     14  C   UNL     1       1.887  -2.403   4.446  1.00  0.00     0.009 A 
BRANCH  10  15
ATOM     15  S   UNL     1       0.301   0.293   1.867  1.00  0.00     0.175 S 
ATOM     16  C   UNL     1       1.043  -0.043   0.287  1.00  0.00     0.163 C 
ATOM     17  O   UNL     1       1.050   1.369   2.485  1.00  0.00    -0.224 OA
ATOM     18  O   UNL     1      -1.136   0.385   1.687  1.00  0.00    -0.224 OA
ENDBRANCH  10  15
ENDBRANCH   8   9
BRANCH   7  19
ATOM     19  C   UNL     1       1.494  -6.336   2.585  1.00  0.00    -0.011 A 
ATOM     20  C   UNL     1       0.303  -7.070   2.468  1.00  0.00     0.013 A 
ATOM     21  C   UNL     1       2.105  -5.830   1.431  1.00  0.00     0.013 A 
ATOM     22  C   UNL     1      -0.289  -7.263   1.222  1.00  0.00     0.047 A 
ATOM     23  C   UNL     1       1.508  -6.020   0.182  1.00  0.00     0.047 A 
ATOM     24  C   UNL     1       0.310  -6.724   0.092  1.00  0.00     0.115 A 
BRANCH  24  25
ATOM     25  O   UNL     1      -0.326  -6.898  -1.100  1.00  0.00    -0.508 OA
ATOM     26  H   UNL     1      -1.131  -7.376  -1.137  1.00  0.00     0.293 HD
ENDBRANCH  24  25
ENDBRANCH   7  19
ENDBRANCH   5   7
ENDBRANCH   4   5
ENDBRANCH   3   4
ENDBRANCH   2   3
ENDBRANCH   1   2
BRANCH   1  27
ATOM     27  C   UNL     1       0.106  -8.816   5.878  1.00  0.00     0.202 C 
BRANCH  27  28
ATOM     28  C   UNL     1      -0.985  -8.289   6.819  1.00  0.00     0.261 C 
BRANCH  28  29
ATOM     29  O   UNL     1      -0.452  -7.698   8.012  1.00  0.00    -0.460 OA
BRANCH  29  30
ATOM     30  C   UNL     1      -0.566  -8.479   9.110  1.00  0.00     0.338 C 
ATOM     31  O   UNL     1      -1.146  -9.556   9.202  1.00  0.00    -0.246 OA
BRANCH  30  32
ATOM     32  C   UNL     1       0.266  -7.946  10.200  1.00  0.00     0.060 A 
ATOM     33  C   UNL     1       1.153  -8.835  10.820  1.00  0.00     0.016 A 
ATOM     34  C   UNL     1       0.136  -6.632  10.657  1.00  0.00     0.016 A 
ATOM     35  C   UNL     1       1.866  -8.433  11.945  1.00  0.00     0.010 A 
ATOM     36  C   UNL     1       0.849  -6.232  11.791  1.00  0.00     0.010 A 
ATOM     37  C   UNL     1       1.680  -7.146  12.464  1.00  0.00    -0.014 A 
BRANCH  37  38
ATOM     38  C   UNL     1       2.225  -6.830  13.805  1.00  0.00     0.031 A 
ATOM     39  C   UNL     1       1.310  -6.907  14.997  1.00  0.00     0.074 A 
ATOM     40  C   UNL     1       3.528  -6.542  13.968  1.00  0.00     0.049 A 
ATOM     41  N   UNL     1       1.579  -6.712  16.263  1.00  0.00    -0.248 NA
ATOM     42  C   UNL     1      -0.095  -7.253  14.725  1.00  0.00     0.031 C 
ATOM     43  C   UNL     1       4.522  -6.480  12.898  1.00  0.00     0.029 A 
ATOM     44  N   UNL     1       4.237  -6.256  15.107  1.00  0.00    -0.354 N 
ATOM     45  C   UNL     1       0.379  -6.907  16.936  1.00  0.00     0.074 A 
ATOM     46  C   UNL     1      -0.625  -7.202  15.938  1.00  0.00     0.031 C 
ATOM     47  C   UNL     1       5.718  -6.177  13.433  1.00  0.00     0.029 A 
ATOM     48  C   UNL     1       5.566  -5.999  14.876  1.00  0.00     0.049 A 
ATOM     49  H   UNL     1       3.832  -6.236  16.004  1.00  0.00     0.167 HD
ATOM     50  C   UNL     1       0.136  -6.856  18.267  1.00  0.00     0.031 A 
ATOM     51  C   UNL     1       6.545  -5.652  15.732  1.00  0.00     0.031 A 
ATOM     52  C   UNL     1       1.131  -6.552  19.259  1.00  0.00     0.049 A 
ATOM     53  C   UNL     1       6.234  -5.533  17.200  1.00  0.00     0.074 A 
ATOM     54  C   UNL     1       0.988  -6.488  20.634  1.00  0.00     0.029 A 
ATOM     55  N   UNL     1       2.455  -6.252  18.980  1.00  0.00    -0.354 N 
ATOM     56  N   UNL     1       5.103  -5.750  17.827  1.00  0.00    -0.248 NA
ATOM     57  C   UNL     1       7.342  -5.133  18.079  1.00  0.00     0.031 C 
ATOM     58  C   UNL     1       2.213  -6.096  21.183  1.00  0.00     0.029 A 
ATOM     59  C   UNL     1       3.134  -5.976  20.154  1.00  0.00     0.049 A 
ATOM     60  H   UNL     1       2.854  -6.238  18.079  1.00  0.00     0.167 HD
ATOM     61  C   UNL     1       5.370  -5.542  19.175  1.00  0.00     0.074 A 
ATOM     62  C   UNL     1       6.773  -5.197  19.275  1.00  0.00     0.031 C 
ATOM     63  C   UNL     1       4.530  -5.632  20.235  1.00  0.00     0.031 A 
BRANCH  50  64
ATOM     64  C   UNL     1      -1.276  -7.102  18.720  1.00  0.00    -0.014 A 
ATOM     65  C   UNL     1      -1.849  -8.383  18.662  1.00  0.00     0.009 A 
ATOM     66  C   UNL     1      -2.037  -6.040  19.233  1.00  0.00     0.009 A 
ATOM     67  C   UNL     1      -3.167  -8.586  19.077  1.00  0.00     0.001 A 
ATOM     68  C   UNL     1      -3.344  -6.252  19.673  1.00  0.00     0.001 A 
ATOM     69  C   UNL     1      -3.912  -7.523  19.586  1.00  0.00     0.000 A 
ENDBRANCH  50  64
BRANCH  51  70
ATOM     70  C   UNL     1       7.915  -5.381  15.225  1.00  0.00    -0.014 A 
ATOM     71  C   UNL     1       8.976  -6.249  15.522  1.00  0.00     0.009 A 
ATOM     72  C   UNL     1       8.171  -4.236  14.453  1.00  0.00     0.009 A 
ATOM     73  C   UNL     1      10.270  -5.963  15.078  1.00  0.00     0.001 A 
ATOM     74  C   UNL     1       9.460  -3.968  13.987  1.00  0.00     0.001 A 
ATOM     75  C   UNL     1      10.510  -4.826  14.308  1.00  0.00     0.000 A 
ENDBRANCH  51  70
BRANCH  63  76
ATOM     76  C   UNL     1       5.116  -5.389  21.599  1.00  0.00    -0.014 A 
ATOM     77  C   UNL     1       5.493  -4.103  22.015  1.00  0.00     0.009 A 
ATOM     78  C   UNL     1       5.259  -6.463  22.492  1.00  0.00     0.009 A 
ATOM     79  C   UNL     1       6.036  -3.904  23.286  1.00  0.00     0.001 A 
ATOM     80  C   UNL     1       5.774  -6.255  23.773  1.00  0.00     0.001 A 
ATOM     81  C   UNL     1       6.172  -4.979  24.165  1.00  0.00     0.000 A 
ENDBRANCH  63  76
ENDBRANCH  37  38
ENDBRANCH  30  32
ENDBRANCH  29  30
ENDBRANCH  28  29
ENDBRANCH  27  28
ENDBRANCH   1  27
TORSDOF 18
