REMARK SMILES N#Cc1ccc(C(=O)OCCOCCOC(=O)c2ccc(-c3c4nc(c(-c5ccccc5)c5ccc([nH]5)c(-c5ccccc5)c5nc(c(-c6ccccc6)c6ccc3[nH]6)C=C5)C=C4)cc2)nc1/C=C/c1ccc(O)c(Cl)c1
REMARK SMILES IDX 11 1 10 2 9 3 7 4 8 5 6 6 3 7 4 8 67 9 5 10 66 11 2 12 1 13
REMARK SMILES IDX 68 14 69 15 70 16 71 17 77 18 72 19 75 20 73 21 76 22 74 23
REMARK SMILES IDX 12 25 13 26 14 27 15 28 16 29 17 30 18 31 19 32 65 33 20 34
REMARK SMILES IDX 64 35 21 36 22 37 23 38 58 39 24 40 63 41 57 42 59 43 25 44
REMARK SMILES IDX 62 45 56 46 55 47 26 49 48 50 33 51 47 52 34 53 37 54 46 55
REMARK SMILES IDX 60 56 35 57 36 58 45 60 61 61 38 62 27 63 28 64 32 65 29 66
REMARK SMILES IDX 31 67 30 68 49 69 50 70 54 71 51 72 53 73 52 74 39 75 40 76
REMARK SMILES IDX 44 77 41 78 43 79 42 80
REMARK H PARENT 74 24 59 48 37 59
REMARK Flexibility Score: inf
ROOT
ATOM      1  C   UNL     1      -6.273   0.407  -0.806  1.00  0.00     0.202 C 
ENDROOT
BRANCH   1   2
ATOM      2  C   UNL     1      -5.676   0.841   0.537  1.00  0.00     0.261 C 
BRANCH   2   3
ATOM      3  O   UNL     1      -4.252   1.008   0.472  1.00  0.00    -0.459 OA
BRANCH   3   4
ATOM      4  C   UNL     1      -3.544   0.022   1.088  1.00  0.00     0.357 C 
ATOM      5  O   UNL     1      -4.005  -0.872   1.778  1.00  0.00    -0.244 OA
BRANCH   4   6
ATOM      6  C   UNL     1      -2.110   0.102   0.677  1.00  0.00     0.149 A 
ATOM      7  C   UNL     1       0.557   0.059   0.042  1.00  0.00     0.078 A 
ATOM      8  C   UNL     1      -0.127   1.282   0.087  1.00  0.00     0.024 A 
ATOM      9  C   UNL     1      -0.160  -1.118   0.266  1.00  0.00     0.082 A 
ATOM     10  C   UNL     1      -1.485   1.309   0.403  1.00  0.00     0.037 A 
ATOM     11  N   UNL     1      -1.477  -1.097   0.584  1.00  0.00    -0.240 NA
BRANCH   7  12
ATOM     12  C   UNL     1       1.969   0.058  -0.199  1.00  0.00     0.101 C 
ATOM     13  N   UNL     1       3.114   0.063  -0.368  1.00  0.00    -0.192 NA
ENDBRANCH   7  12
BRANCH   9  14
ATOM     14  C   UNL     1       0.454  -2.460   0.236  1.00  0.00     0.030 C 
ATOM     15  C   UNL     1      -0.238  -3.614   0.245  1.00  0.00     0.010 C 
BRANCH  15  16
ATOM     16  C   UNL     1       0.417  -4.927   0.337  1.00  0.00    -0.024 A 
ATOM     17  C   UNL     1      -0.046  -6.005  -0.431  1.00  0.00     0.012 A 
ATOM     18  C   UNL     1       1.460  -5.141   1.252  1.00  0.00     0.032 A 
ATOM     19  C   UNL     1       0.541  -7.269  -0.307  1.00  0.00     0.048 A 
ATOM     20  C   UNL     1       2.042  -6.401   1.375  1.00  0.00     0.083 A 
ATOM     21  C   UNL     1       1.583  -7.461   0.594  1.00  0.00     0.134 A 
ATOM     22  Cl  UNL     1       3.322  -6.635   2.506  1.00  0.00    -0.080 Cl
BRANCH  21  23
ATOM     23  O   UNL     1       2.121  -8.714   0.686  1.00  0.00    -0.506 OA
ATOM     24  H   UNL     1       1.791  -9.407   0.148  1.00  0.00     0.293 HD
ENDBRANCH  21  23
ENDBRANCH  15  16
ENDBRANCH   9  14
ENDBRANCH   4   6
ENDBRANCH   3   4
ENDBRANCH   2   3
ENDBRANCH   1   2
BRANCH   1  25
ATOM     25  O   UNL     1      -5.804  -0.792  -1.413  1.00  0.00    -0.374 OA
BRANCH  25  26
ATOM     26  C   UNL     1      -4.509  -0.802  -2.009  1.00  0.00     0.202 C 
BRANCH  26  27
ATOM     27  C   UNL     1      -4.280  -0.020  -3.311  1.00  0.00     0.261 C 
BRANCH  27  28
ATOM     28  O   UNL     1      -4.576   1.382  -3.209  1.00  0.00    -0.460 OA
BRANCH  28  29
ATOM     29  C   UNL     1      -5.742   1.747  -3.799  1.00  0.00     0.338 C 
ATOM     30  O   UNL     1      -6.525   1.033  -4.401  1.00  0.00    -0.246 OA
BRANCH  29  31
ATOM     31  C   UNL     1      -6.054   3.147  -3.462  1.00  0.00     0.060 A 
ATOM     32  C   UNL     1      -7.263   3.411  -2.803  1.00  0.00     0.016 A 
ATOM     33  C   UNL     1      -5.220   4.188  -3.865  1.00  0.00     0.016 A 
ATOM     34  C   UNL     1      -7.662   4.726  -2.581  1.00  0.00     0.010 A 
ATOM     35  C   UNL     1      -5.625   5.507  -3.646  1.00  0.00     0.010 A 
ATOM     36  C   UNL     1      -6.863   5.784  -3.034  1.00  0.00    -0.014 A 
BRANCH  36  37
ATOM     37  C   UNL     1      -7.370   7.176  -2.976  1.00  0.00     0.031 A 
ATOM     38  C   UNL     1      -7.819   7.851  -4.243  1.00  0.00     0.074 A 
ATOM     39  C   UNL     1      -7.435   7.831  -1.803  1.00  0.00     0.049 A 
ATOM     40  N   UNL     1      -8.233   9.079  -4.425  1.00  0.00    -0.248 NA
ATOM     41  C   UNL     1      -7.790   7.037  -5.468  1.00  0.00     0.031 C 
ATOM     42  C   UNL     1      -7.072   7.272  -0.501  1.00  0.00     0.029 A 
ATOM     43  N   UNL     1      -7.824   9.116  -1.522  1.00  0.00    -0.354 N 
ATOM     44  C   UNL     1      -8.498   9.190  -5.785  1.00  0.00     0.074 A 
ATOM     45  C   UNL     1      -8.164   7.917  -6.386  1.00  0.00     0.031 C 
ATOM     46  C   UNL     1      -7.255   8.212   0.442  1.00  0.00     0.029 A 
ATOM     47  C   UNL     1      -7.700   9.449  -0.196  1.00  0.00     0.049 A 
ATOM     48  H   UNL     1      -8.161   9.739  -2.205  1.00  0.00     0.167 HD
ATOM     49  C   UNL     1      -8.979  10.255  -6.470  1.00  0.00     0.031 A 
ATOM     50  C   UNL     1      -7.895  10.626   0.430  1.00  0.00     0.031 A 
ATOM     51  C   UNL     1      -9.295  11.525  -5.871  1.00  0.00     0.049 A 
ATOM     52  C   UNL     1      -8.346  11.820  -0.369  1.00  0.00     0.074 A 
ATOM     53  C   UNL     1      -9.808  12.659  -6.477  1.00  0.00     0.029 A 
ATOM     54  N   UNL     1      -9.117  11.834  -4.531  1.00  0.00    -0.354 N 
ATOM     55  N   UNL     1      -8.620  11.905  -1.649  1.00  0.00    -0.248 NA
ATOM     56  C   UNL     1      -8.523  13.080   0.367  1.00  0.00     0.031 C 
ATOM     57  C   UNL     1      -9.867  13.677  -5.521  1.00  0.00     0.029 A 
ATOM     58  C   UNL     1      -9.476  13.152  -4.299  1.00  0.00     0.049 A 
ATOM     59  H   UNL     1      -8.786  11.210  -3.846  1.00  0.00     0.167 HD
ATOM     60  C   UNL     1      -9.040  13.213  -1.862  1.00  0.00     0.074 A 
ATOM     61  C   UNL     1      -8.996  13.880  -0.577  1.00  0.00     0.031 C 
ATOM     62  C   UNL     1      -9.431  13.807  -3.016  1.00  0.00     0.031 A 
BRANCH  49  63
ATOM     63  C   UNL     1      -9.155  10.106  -7.958  1.00  0.00    -0.014 A 
ATOM     64  C   UNL     1     -10.132   9.258  -8.503  1.00  0.00     0.009 A 
ATOM     65  C   UNL     1      -8.355  10.863  -8.829  1.00  0.00     0.009 A 
ATOM     66  C   UNL     1     -10.277   9.143  -9.888  1.00  0.00     0.001 A 
ATOM     67  C   UNL     1      -8.527  10.774 -10.212  1.00  0.00     0.001 A 
ATOM     68  C   UNL     1      -9.480   9.905 -10.740  1.00  0.00     0.000 A 
ENDBRANCH  49  63
BRANCH  50  69
ATOM     69  C   UNL     1      -7.644  10.745   1.892  1.00  0.00    -0.014 A 
ATOM     70  C   UNL     1      -8.698  11.001   2.782  1.00  0.00     0.009 A 
ATOM     71  C   UNL     1      -6.341  10.628   2.402  1.00  0.00     0.009 A 
ATOM     72  C   UNL     1      -8.448  11.171   4.146  1.00  0.00     0.001 A 
ATOM     73  C   UNL     1      -6.099  10.760   3.771  1.00  0.00     0.001 A 
ATOM     74  C   UNL     1      -7.150  11.045   4.640  1.00  0.00     0.000 A 
ENDBRANCH  50  69
BRANCH  62  75
ATOM     75  C   UNL     1      -9.900  15.236  -2.940  1.00  0.00    -0.014 A 
ATOM     76  C   UNL     1      -9.017  16.291  -2.666  1.00  0.00     0.009 A 
ATOM     77  C   UNL     1     -11.250  15.532  -3.195  1.00  0.00     0.009 A 
ATOM     78  C   UNL     1      -9.484  17.607  -2.609  1.00  0.00     0.001 A 
ATOM     79  C   UNL     1     -11.706  16.850  -3.176  1.00  0.00     0.001 A 
ATOM     80  C   UNL     1     -10.825  17.886  -2.871  1.00  0.00     0.000 A 
ENDBRANCH  62  75
ENDBRANCH  36  37
ENDBRANCH  29  31
ENDBRANCH  28  29
ENDBRANCH  27  28
ENDBRANCH  26  27
ENDBRANCH  25  26
ENDBRANCH   1  25
TORSDOF 18
