REMARK SMILES CC[C@@H](C)Nc1cc(OC)c(C(=O)OCCOCCOC(=O)c2ccc(-c3c4nc(c(-c5ccccc5)c5ccc([nH]5)c(-c5ccccc5)c5nc(c(-c6ccccc6)c6ccc3[nH]6)C=C5)C=C4)cc2)cc1Cl
REMARK SMILES IDX 16 1 15 2 14 3 12 4 13 5 11 6 6 7 7 8 72 9 8 10 71 11 73 12
REMARK SMILES IDX 5 13 3 15 4 16 2 17 1 18 9 19 10 20 17 21 18 22 19 23 20 24
REMARK SMILES IDX 21 25 22 26 23 27 24 28 70 29 25 30 69 31 26 32 27 33 28 34
REMARK SMILES IDX 63 35 29 36 68 37 62 38 64 39 30 40 67 41 61 42 60 43 31 45
REMARK SMILES IDX 53 46 38 47 52 48 39 49 42 50 51 51 65 52 40 53 41 54 50 56
REMARK SMILES IDX 66 57 43 58 32 59 33 60 37 61 34 62 36 63 35 64 54 65 55 66
REMARK SMILES IDX 59 67 56 68 58 69 57 70 44 71 45 72 49 73 46 74 48 75 47 76
REMARK H PARENT 5 14 64 44 42 55
REMARK Flexibility Score: inf
ROOT
ATOM      1  C   UNL     1       5.780   8.923   5.159  1.00  0.00     0.202 C 
ENDROOT
BRANCH   1   2
ATOM      2  C   UNL     1       6.226   7.477   4.932  1.00  0.00     0.261 C 
BRANCH   2   3
ATOM      3  O   UNL     1       5.283   6.792   4.097  1.00  0.00    -0.460 OA
BRANCH   3   4
ATOM      4  C   UNL     1       4.791   5.633   4.592  1.00  0.00     0.342 C 
ATOM      5  O   UNL     1       5.215   5.009   5.554  1.00  0.00    -0.246 OA
BRANCH   4   6
ATOM      6  C   UNL     1       3.603   5.252   3.806  1.00  0.00     0.103 A 
ATOM      7  C   UNL     1       1.559   4.256   2.102  1.00  0.00     0.057 A 
ATOM      8  C   UNL     1       1.382   4.377   3.492  1.00  0.00     0.074 A 
ATOM      9  C   UNL     1       2.765   4.741   1.571  1.00  0.00     0.065 A 
ATOM     10  C   UNL     1       2.373   4.882   4.358  1.00  0.00     0.135 A 
ATOM     11  C   UNL     1       3.775   5.218   2.411  1.00  0.00     0.042 A 
ATOM     12  Cl  UNL     1       3.068   4.865  -0.130  1.00  0.00    -0.082 Cl
BRANCH   7  13
ATOM     13  N   UNL     1       0.564   3.597   1.385  1.00  0.00    -0.381 N 
ATOM     14  H   UNL     1      -0.375   3.861   1.516  1.00  0.00     0.160 HD
BRANCH  13  15
ATOM     15  C   UNL     1       0.878   2.523   0.440  1.00  0.00     0.075 C 
ATOM     16  C   UNL     1       0.205   2.843  -0.893  1.00  0.00     0.031 C 
BRANCH  15  17
ATOM     17  C   UNL     1       0.392   1.183   1.024  1.00  0.00     0.021 C 
ATOM     18  C   UNL     1       0.837  -0.018   0.199  1.00  0.00     0.006 C 
ENDBRANCH  15  17
ENDBRANCH  13  15
ENDBRANCH   7  13
BRANCH  10  19
ATOM     19  O   UNL     1       1.930   4.911   5.650  1.00  0.00    -0.496 OA
ATOM     20  C   UNL     1       2.625   5.630   6.656  1.00  0.00     0.278 C 
ENDBRANCH  10  19
ENDBRANCH   4   6
ENDBRANCH   3   4
ENDBRANCH   2   3
ENDBRANCH   1   2
BRANCH   1  21
ATOM     21  O   UNL     1       4.496   9.106   5.755  1.00  0.00    -0.374 OA
BRANCH  21  22
ATOM     22  C   UNL     1       3.346   8.942   4.921  1.00  0.00     0.202 C 
BRANCH  22  23
ATOM     23  C   UNL     1       3.000  10.081   3.957  1.00  0.00     0.261 C 
BRANCH  23  24
ATOM     24  O   UNL     1       4.002  10.270   2.947  1.00  0.00    -0.460 OA
BRANCH  24  25
ATOM     25  C   UNL     1       4.761  11.380   3.106  1.00  0.00     0.338 C 
ATOM     26  O   UNL     1       4.652  12.241   3.965  1.00  0.00    -0.246 OA
BRANCH  25  27
ATOM     27  C   UNL     1       5.901  11.327   2.177  1.00  0.00     0.060 A 
ATOM     28  C   UNL     1       7.185  11.490   2.712  1.00  0.00     0.016 A 
ATOM     29  C   UNL     1       5.713  11.180   0.801  1.00  0.00     0.016 A 
ATOM     30  C   UNL     1       8.288  11.555   1.866  1.00  0.00     0.010 A 
ATOM     31  C   UNL     1       6.818  11.256  -0.047  1.00  0.00     0.010 A 
ATOM     32  C   UNL     1       8.103  11.480   0.480  1.00  0.00    -0.014 A 
BRANCH  32  33
ATOM     33  C   UNL     1       9.227  11.794  -0.428  1.00  0.00     0.031 A 
ATOM     34  C   UNL     1       9.299  13.165  -1.038  1.00  0.00     0.074 A 
ATOM     35  C   UNL     1      10.169  10.874  -0.698  1.00  0.00     0.049 A 
ATOM     36  N   UNL     1      10.153  13.643  -1.906  1.00  0.00    -0.248 NA
ATOM     37  C   UNL     1       8.267  14.126  -0.614  1.00  0.00     0.031 C 
ATOM     38  C   UNL     1      10.226   9.529  -0.128  1.00  0.00     0.029 A 
ATOM     39  N   UNL     1      11.255  10.936  -1.532  1.00  0.00    -0.354 N 
ATOM     40  C   UNL     1       9.753  14.952  -2.143  1.00  0.00     0.074 A 
ATOM     41  C   UNL     1       8.567  15.186  -1.349  1.00  0.00     0.031 C 
ATOM     42  C   UNL     1      11.290   8.886  -0.640  1.00  0.00     0.029 A 
ATOM     43  C   UNL     1      11.962   9.761  -1.597  1.00  0.00     0.049 A 
ATOM     44  H   UNL     1      11.505  11.745  -2.034  1.00  0.00     0.167 HD
ATOM     45  C   UNL     1      10.326  15.876  -2.949  1.00  0.00     0.031 A 
ATOM     46  C   UNL     1      13.016   9.425  -2.365  1.00  0.00     0.031 A 
ATOM     47  C   UNL     1      11.497  15.631  -3.747  1.00  0.00     0.049 A 
ATOM     48  C   UNL     1      13.588  10.446  -3.312  1.00  0.00     0.074 A 
ATOM     49  C   UNL     1      12.167  16.504  -4.585  1.00  0.00     0.029 A 
ATOM     50  N   UNL     1      12.166  14.418  -3.811  1.00  0.00    -0.354 N 
ATOM     51  N   UNL     1      13.219  11.689  -3.510  1.00  0.00    -0.248 NA
ATOM     52  C   UNL     1      14.726  10.018  -4.137  1.00  0.00     0.031 C 
ATOM     53  C   UNL     1      13.208  15.801  -5.201  1.00  0.00     0.029 A 
ATOM     54  C   UNL     1      13.225  14.510  -4.697  1.00  0.00     0.049 A 
ATOM     55  H   UNL     1      11.923  13.612  -3.301  1.00  0.00     0.167 HD
ATOM     56  C   UNL     1      14.097  12.200  -4.458  1.00  0.00     0.074 A 
ATOM     57  C   UNL     1      15.024  11.136  -4.785  1.00  0.00     0.031 C 
ATOM     58  C   UNL     1      14.136  13.439  -5.006  1.00  0.00     0.031 A 
BRANCH  45  59
ATOM     59  C   UNL     1       9.665  17.224  -3.036  1.00  0.00    -0.014 A 
ATOM     60  C   UNL     1       9.699  18.127  -1.962  1.00  0.00     0.009 A 
ATOM     61  C   UNL     1       9.021  17.605  -4.223  1.00  0.00     0.009 A 
ATOM     62  C   UNL     1       9.070  19.370  -2.063  1.00  0.00     0.001 A 
ATOM     63  C   UNL     1       8.418  18.860  -4.332  1.00  0.00     0.001 A 
ATOM     64  C   UNL     1       8.435  19.737  -3.249  1.00  0.00     0.000 A 
ENDBRANCH  45  59
BRANCH  46  65
ATOM     65  C   UNL     1      13.588   8.056  -2.287  1.00  0.00    -0.014 A 
ATOM     66  C   UNL     1      14.864   7.841  -1.744  1.00  0.00     0.009 A 
ATOM     67  C   UNL     1      12.862   6.954  -2.768  1.00  0.00     0.009 A 
ATOM     68  C   UNL     1      15.410   6.556  -1.707  1.00  0.00     0.001 A 
ATOM     69  C   UNL     1      13.399   5.666  -2.702  1.00  0.00     0.001 A 
ATOM     70  C   UNL     1      14.676   5.470  -2.181  1.00  0.00     0.000 A 
ENDBRANCH  46  65
BRANCH  58  71
ATOM     71  C   UNL     1      15.241  13.726  -5.985  1.00  0.00    -0.014 A 
ATOM     72  C   UNL     1      15.235  13.179  -7.277  1.00  0.00     0.009 A 
ATOM     73  C   UNL     1      16.276  14.602  -5.621  1.00  0.00     0.009 A 
ATOM     74  C   UNL     1      16.262  13.480  -8.174  1.00  0.00     0.001 A 
ATOM     75  C   UNL     1      17.284  14.925  -6.530  1.00  0.00     0.001 A 
ATOM     76  C   UNL     1      17.281  14.357  -7.802  1.00  0.00     0.000 A 
ENDBRANCH  58  71
ENDBRANCH  32  33
ENDBRANCH  25  27
ENDBRANCH  24  25
ENDBRANCH  23  24
ENDBRANCH  22  23
ENDBRANCH  21  22
ENDBRANCH   1  21
TORSDOF 18
