REMARK SMILES C[C@](NC(=O)c1ccc(Br)o1)(C(=O)OCCOCCOC(=O)c1ccc(-c2c3nc(c(-c4ccccc4)c4ccc([nH]4)c(-c4ccccc4)c4nc(c(-c5ccccc5)c5ccc2[nH]5)C=C4)C=C3)cc1)C(F)(F)F
REMARK SMILES IDX 17 1 16 2 15 3 14 4 12 5 13 6 2 7 1 8 71 9 72 10 73 11 74 12
REMARK SMILES IDX 3 13 4 14 5 16 6 17 7 18 11 19 8 20 9 21 10 22 18 23 19 24
REMARK SMILES IDX 20 25 21 26 22 27 23 28 24 29 70 30 25 31 69 32 26 33 27 34
REMARK SMILES IDX 28 35 63 36 29 37 68 38 62 39 64 40 30 41 67 42 61 43 60 44
REMARK SMILES IDX 31 46 53 47 38 48 52 49 39 50 42 51 51 52 65 53 40 54 41 55
REMARK SMILES IDX 50 57 66 58 43 59 32 60 33 61 37 62 34 63 36 64 35 65 54 66
REMARK SMILES IDX 55 67 59 68 56 69 58 70 57 71 44 72 45 73 49 74 46 75 48 76
REMARK SMILES IDX 47 77
REMARK H PARENT 3 15 64 45 42 56
REMARK Flexibility Score: inf
ROOT
ATOM      1  O   UNL     1      -3.395   1.563  -0.651  1.00  0.00    -0.374 OA
ENDROOT
BRANCH   1   2
ATOM      2  C   UNL     1      -3.760   0.185  -0.693  1.00  0.00     0.202 C 
BRANCH   2   3
ATOM      3  C   UNL     1      -3.000  -0.689  -1.694  1.00  0.00     0.261 C 
BRANCH   3   4
ATOM      4  O   UNL     1      -1.579  -0.658  -1.465  1.00  0.00    -0.461 OA
BRANCH   4   5
ATOM      5  C   UNL     1      -0.827  -0.149  -2.480  1.00  0.00     0.341 C 
ATOM      6  O   UNL     1      -1.280   0.160  -3.576  1.00  0.00    -0.249 OA
BRANCH   5   7
ATOM      7  C   UNL     1       0.664  -0.064  -2.133  1.00  0.00     0.231 C 
ATOM      8  C   UNL     1       1.403  -0.919  -3.162  1.00  0.00     0.058 C 
BRANCH   7   9
ATOM      9  C   UNL     1       1.033   1.414  -2.377  1.00  0.00     0.422 C 
ATOM     10  F   UNL     1       0.410   2.227  -1.489  1.00  0.00    -0.168 F 
ATOM     11  F   UNL     1       2.367   1.595  -2.181  1.00  0.00    -0.168 F 
ATOM     12  F   UNL     1       0.761   1.863  -3.616  1.00  0.00    -0.168 F 
ENDBRANCH   7   9
BRANCH   7  13
ATOM     13  N   UNL     1       0.967  -0.402  -0.694  1.00  0.00    -0.326 N 
ATOM     14  C   UNL     1       1.188  -1.547   0.019  1.00  0.00     0.288 C 
ATOM     15  H   UNL     1       1.018   0.402  -0.127  1.00  0.00     0.165 HD
ATOM     16  O   UNL     1       1.113  -1.449   1.244  1.00  0.00    -0.266 OA
BRANCH  14  17
ATOM     17  C   UNL     1       1.529  -2.775  -0.642  1.00  0.00     0.192 A 
ATOM     18  C   UNL     1       2.658  -3.174  -1.336  1.00  0.00     0.057 A 
ATOM     19  O   UNL     1       0.670  -3.831  -0.524  1.00  0.00    -0.444 OA
ATOM     20  C   UNL     1       2.449  -4.525  -1.708  1.00  0.00     0.059 A 
ATOM     21  C   UNL     1       1.234  -4.885  -1.171  1.00  0.00     0.170 A 
ATOM     22  Br  UNL     1       0.464  -6.578  -1.294  1.00  0.00    -0.008 Br
ENDBRANCH  14  17
ENDBRANCH   7  13
ENDBRANCH   5   7
ENDBRANCH   4   5
ENDBRANCH   3   4
ENDBRANCH   2   3
ENDBRANCH   1   2
BRANCH   1  23
ATOM     23  C   UNL     1      -2.188   1.905   0.029  1.00  0.00     0.202 C 
BRANCH  23  24
ATOM     24  C   UNL     1      -2.217   1.885   1.560  1.00  0.00     0.261 C 
BRANCH  24  25
ATOM     25  O   UNL     1      -2.416   0.555   2.071  1.00  0.00    -0.460 OA
BRANCH  25  26
ATOM     26  C   UNL     1      -3.591   0.374   2.711  1.00  0.00     0.338 C 
ATOM     27  O   UNL     1      -4.428   1.231   2.976  1.00  0.00    -0.246 OA
BRANCH  26  28
ATOM     28  C   UNL     1      -3.864  -1.059   2.918  1.00  0.00     0.060 A 
ATOM     29  C   UNL     1      -5.133  -1.520   2.545  1.00  0.00     0.016 A 
ATOM     30  C   UNL     1      -2.962  -1.905   3.568  1.00  0.00     0.016 A 
ATOM     31  C   UNL     1      -5.546  -2.795   2.912  1.00  0.00     0.010 A 
ATOM     32  C   UNL     1      -3.382  -3.187   3.943  1.00  0.00     0.010 A 
ATOM     33  C   UNL     1      -4.696  -3.609   3.672  1.00  0.00    -0.014 A 
BRANCH  33  34
ATOM     34  C   UNL     1      -5.284  -4.781   4.364  1.00  0.00     0.031 A 
ATOM     35  C   UNL     1      -5.729  -4.622   5.795  1.00  0.00     0.074 A 
ATOM     36  C   UNL     1      -5.511  -5.934   3.711  1.00  0.00     0.049 A 
ATOM     37  N   UNL     1      -6.349  -5.474   6.572  1.00  0.00    -0.248 NA
ATOM     38  C   UNL     1      -5.441  -3.326   6.432  1.00  0.00     0.031 C 
ATOM     39  C   UNL     1      -5.177  -6.195   2.312  1.00  0.00     0.029 A 
ATOM     40  N   UNL     1      -6.098  -7.096   4.143  1.00  0.00    -0.354 N 
ATOM     41  C   UNL     1      -6.518  -4.820   7.786  1.00  0.00     0.074 A 
ATOM     42  C   UNL     1      -5.910  -3.514   7.655  1.00  0.00     0.031 C 
ATOM     43  C   UNL     1      -5.578  -7.439   1.996  1.00  0.00     0.029 A 
ATOM     44  C   UNL     1      -6.176  -8.065   3.174  1.00  0.00     0.049 A 
ATOM     45  H   UNL     1      -6.432  -7.222   5.061  1.00  0.00     0.167 HD
ATOM     46  C   UNL     1      -7.131  -5.260   8.911  1.00  0.00     0.031 A 
ATOM     47  C   UNL     1      -6.675  -9.314   3.234  1.00  0.00     0.031 A 
ATOM     48  C   UNL     1      -7.731  -6.559   9.049  1.00  0.00     0.049 A 
ATOM     49  C   UNL     1      -7.296  -9.803   4.515  1.00  0.00     0.074 A 
ATOM     50  C   UNL     1      -8.388  -7.094  10.143  1.00  0.00     0.029 A 
ATOM     51  N   UNL     1      -7.739  -7.529   8.060  1.00  0.00    -0.354 N 
ATOM     52  N   UNL     1      -7.476  -9.165   5.646  1.00  0.00    -0.248 NA
ATOM     53  C   UNL     1      -7.797 -11.185   4.518  1.00  0.00     0.031 C 
ATOM     54  C   UNL     1      -8.752  -8.409   9.832  1.00  0.00     0.029 A 
ATOM     55  C   UNL     1      -8.370  -8.670   8.525  1.00  0.00     0.049 A 
ATOM     56  H   UNL     1      -7.354  -7.423   7.161  1.00  0.00     0.167 HD
ATOM     57  C   UNL     1      -8.145 -10.052   6.481  1.00  0.00     0.074 A 
ATOM     58  C   UNL     1      -8.343 -11.271   5.723  1.00  0.00     0.031 C 
ATOM     59  C   UNL     1      -8.565  -9.872   7.757  1.00  0.00     0.031 A 
BRANCH  46  60
ATOM     60  C   UNL     1      -7.141  -4.333  10.094  1.00  0.00    -0.014 A 
ATOM     61  C   UNL     1      -7.947  -3.184  10.118  1.00  0.00     0.009 A 
ATOM     62  C   UNL     1      -6.336  -4.622  11.207  1.00  0.00     0.009 A 
ATOM     63  C   UNL     1      -7.917  -2.323  11.217  1.00  0.00     0.001 A 
ATOM     64  C   UNL     1      -6.329  -3.774  12.315  1.00  0.00     0.001 A 
ATOM     65  C   UNL     1      -7.111  -2.620  12.315  1.00  0.00     0.000 A 
ENDBRANCH  46  60
BRANCH  47  66
ATOM     66  C   UNL     1      -6.621 -10.194   2.038  1.00  0.00    -0.014 A 
ATOM     67  C   UNL     1      -7.793 -10.528   1.344  1.00  0.00     0.009 A 
ATOM     68  C   UNL     1      -5.397 -10.720   1.598  1.00  0.00     0.009 A 
ATOM     69  C   UNL     1      -7.744 -11.392   0.247  1.00  0.00     0.001 A 
ATOM     70  C   UNL     1      -5.347 -11.563   0.486  1.00  0.00     0.001 A 
ATOM     71  C   UNL     1      -6.521 -11.905  -0.183  1.00  0.00     0.000 A 
ENDBRANCH  47  66
BRANCH  59  72
ATOM     72  C   UNL     1      -9.326 -10.999   8.396  1.00  0.00    -0.014 A 
ATOM     73  C   UNL     1      -8.688 -12.182   8.797  1.00  0.00     0.009 A 
ATOM     74  C   UNL     1     -10.704 -10.856   8.630  1.00  0.00     0.009 A 
ATOM     75  C   UNL     1      -9.422 -13.215   9.384  1.00  0.00     0.001 A 
ATOM     76  C   UNL     1     -11.429 -11.878   9.242  1.00  0.00     0.001 A 
ATOM     77  C   UNL     1     -10.790 -13.061   9.609  1.00  0.00     0.000 A 
ENDBRANCH  59  72
ENDBRANCH  33  34
ENDBRANCH  26  28
ENDBRANCH  25  26
ENDBRANCH  24  25
ENDBRANCH  23  24
ENDBRANCH   1  23
TORSDOF 17
