REMARK SMILES Cc1c(C(=O)Nc2ccc(C(=O)Nc3ccccc3C(=O)OCCOCCOC(=O)c3ccc(-c4c5nc(c(-c6ccccc6)c6ccc([nH]6)c(-c6ccccc6)c6nc(c(-c7ccccc7)c7ccc4[nH]7)C=C6)C=C5)cc3)cc2)cccc1[N+](=O)[O-]
REMARK SMILES IDX 23 1 22 2 20 3 21 4 19 5 14 6 15 7 16 8 18 9 17 10 13 11
REMARK SMILES IDX 11 12 12 13 10 15 7 16 8 17 80 18 9 19 79 20 6 21 4 22 5 23
REMARK SMILES IDX 3 25 1 26 2 27 84 28 81 29 83 30 82 31 85 32 86 33 87 34
REMARK SMILES IDX 24 35 25 36 26 37 27 38 28 39 29 40 30 41 31 42 32 43 78 44
REMARK SMILES IDX 33 45 77 46 34 47 35 48 36 49 71 50 37 51 76 52 70 53 72 54
REMARK SMILES IDX 38 55 75 56 69 57 68 58 39 60 61 61 46 62 60 63 47 64 50 65
REMARK SMILES IDX 59 66 73 67 48 68 49 69 58 71 74 72 51 73 40 74 41 75 45 76
REMARK SMILES IDX 42 77 44 78 43 79 62 80 63 81 67 82 64 83 66 84 65 85 52 86
REMARK SMILES IDX 53 87 57 88 54 89 56 90 55 91
REMARK H PARENT 13 14 6 24 72 59 50 70
REMARK Flexibility Score: inf
ROOT
ATOM      1  C   UNL     1       3.743  -0.580   2.643  1.00  0.00     0.261 C 
ENDROOT
BRANCH   1   2
ATOM      2  O   UNL     1       3.780   0.742   3.219  1.00  0.00    -0.460 OA
BRANCH   2   3
ATOM      3  C   UNL     1       4.397   1.807   2.621  1.00  0.00     0.340 C 
ATOM      4  O   UNL     1       5.415   1.801   2.004  1.00  0.00    -0.246 OA
BRANCH   3   5
ATOM      5  C   UNL     1       3.469   2.989   2.714  1.00  0.00     0.083 A 
ATOM      6  C   UNL     1       3.437   3.974   1.700  1.00  0.00     0.056 A 
ATOM      7  C   UNL     1       2.483   5.005   1.760  1.00  0.00     0.027 A 
ATOM      8  C   UNL     1       1.507   5.012   2.754  1.00  0.00     0.002 A 
ATOM      9  C   UNL     1       2.527   3.065   3.758  1.00  0.00     0.018 A 
ATOM     10  C   UNL     1       1.534   4.050   3.757  1.00  0.00     0.001 A 
BRANCH   6  11
ATOM     11  N   UNL     1       4.213   3.982   0.531  1.00  0.00    -0.321 N 
ATOM     12  C   UNL     1       4.337   3.064  -0.491  1.00  0.00     0.255 C 
ATOM     13  O   UNL     1       5.146   3.312  -1.390  1.00  0.00    -0.269 OA
ATOM     14  H   UNL     1       4.768   4.788   0.420  1.00  0.00     0.170 HD
BRANCH  12  15
ATOM     15  C   UNL     1       3.501   1.827  -0.619  1.00  0.00     0.040 A 
ATOM     16  C   UNL     1       2.200  -0.676  -0.814  1.00  0.00     0.041 A 
ATOM     17  C   UNL     1       1.783   0.280   0.109  1.00  0.00     0.027 A 
ATOM     18  C   UNL     1       3.256  -0.371  -1.667  1.00  0.00     0.027 A 
ATOM     19  C   UNL     1       2.385   1.536   0.161  1.00  0.00     0.016 A 
ATOM     20  C   UNL     1       3.884   0.879  -1.584  1.00  0.00     0.016 A 
BRANCH  16  21
ATOM     21  N   UNL     1       1.524  -1.895  -0.982  1.00  0.00    -0.322 N 
ATOM     22  C   UNL     1       0.164  -2.146  -0.874  1.00  0.00     0.256 C 
ATOM     23  O   UNL     1      -0.250  -3.302  -0.860  1.00  0.00    -0.269 OA
ATOM     24  H   UNL     1       2.087  -2.671  -1.204  1.00  0.00     0.170 HD
BRANCH  22  25
ATOM     25  C   UNL     1      -0.814  -1.013  -0.778  1.00  0.00     0.049 A 
ATOM     26  C   UNL     1       0.125   0.286  -2.758  1.00  0.00     0.053 C 
ATOM     27  C   UNL     1      -0.661   0.212  -1.472  1.00  0.00     0.039 A 
ATOM     28  C   UNL     1      -1.277   1.344  -0.897  1.00  0.00     0.273 A 
ATOM     29  C   UNL     1      -1.825  -1.161   0.184  1.00  0.00     0.014 A 
ATOM     30  C   UNL     1      -2.264   1.198   0.094  1.00  0.00     0.086 A 
ATOM     31  C   UNL     1      -2.591  -0.066   0.574  1.00  0.00     0.008 A 
BRANCH  28  32
ATOM     32  N   UNL     1      -0.755   2.709  -1.119  1.00  0.00     0.063 N 
ATOM     33  O   UNL     1      -0.877   3.514  -0.181  1.00  0.00    -0.258 OA
ATOM     34  O   UNL     1      -0.184   2.969  -2.183  1.00  0.00    -0.258 OA
ENDBRANCH  28  32
ENDBRANCH  22  25
ENDBRANCH  16  21
ENDBRANCH  12  15
ENDBRANCH   6  11
ENDBRANCH   3   5
ENDBRANCH   2   3
ENDBRANCH   1   2
BRANCH   1  35
ATOM     35  C   UNL     1       4.979  -1.416   2.359  1.00  0.00     0.202 C 
BRANCH  35  36
ATOM     36  O   UNL     1       6.094  -0.789   1.774  1.00  0.00    -0.374 OA
BRANCH  36  37
ATOM     37  C   UNL     1       6.176  -0.651   0.366  1.00  0.00     0.202 C 
BRANCH  37  38
ATOM     38  C   UNL     1       5.830  -1.893  -0.473  1.00  0.00     0.261 C 
BRANCH  38  39
ATOM     39  O   UNL     1       6.824  -2.933  -0.374  1.00  0.00    -0.460 OA
BRANCH  39  40
ATOM     40  C   UNL     1       6.700  -3.778   0.688  1.00  0.00     0.338 C 
ATOM     41  O   UNL     1       5.751  -4.517   0.886  1.00  0.00    -0.246 OA
BRANCH  40  42
ATOM     42  C   UNL     1       7.745  -3.426   1.696  1.00  0.00     0.060 A 
ATOM     43  C   UNL     1       7.414  -3.547   3.049  1.00  0.00     0.016 A 
ATOM     44  C   UNL     1       8.765  -2.563   1.312  1.00  0.00     0.016 A 
ATOM     45  C   UNL     1       7.796  -2.526   3.926  1.00  0.00     0.010 A 
ATOM     46  C   UNL     1       9.129  -1.556   2.191  1.00  0.00     0.010 A 
ATOM     47  C   UNL     1       8.461  -1.412   3.421  1.00  0.00    -0.014 A 
BRANCH  47  48
ATOM     48  C   UNL     1       8.272  -0.033   3.954  1.00  0.00     0.031 A 
ATOM     49  C   UNL     1       9.316   0.939   3.650  1.00  0.00     0.074 A 
ATOM     50  C   UNL     1       7.193   0.507   4.569  1.00  0.00     0.049 A 
ATOM     51  N   UNL     1      10.322   1.204   4.416  1.00  0.00    -0.248 NA
ATOM     52  C   UNL     1       9.304   1.611   2.348  1.00  0.00     0.031 C 
ATOM     53  C   UNL     1       6.981   1.905   4.958  1.00  0.00     0.029 A 
ATOM     54  N   UNL     1       6.028  -0.117   4.996  1.00  0.00    -0.354 N 
ATOM     55  C   UNL     1      10.940   2.262   3.792  1.00  0.00     0.074 A 
ATOM     56  C   UNL     1      10.466   2.261   2.412  1.00  0.00     0.031 C 
ATOM     57  C   UNL     1       5.923   1.981   5.789  1.00  0.00     0.029 A 
ATOM     58  C   UNL     1       5.425   0.631   6.017  1.00  0.00     0.049 A 
ATOM     59  H   UNL     1       5.676  -0.962   4.634  1.00  0.00     0.167 HD
ATOM     60  C   UNL     1      11.245   3.411   4.457  1.00  0.00     0.031 A 
ATOM     61  C   UNL     1       5.156   0.033   7.210  1.00  0.00     0.031 A 
ATOM     62  C   UNL     1      10.418   3.593   5.654  1.00  0.00     0.049 A 
ATOM     63  C   UNL     1       6.201   0.464   8.204  1.00  0.00     0.074 A 
ATOM     64  C   UNL     1       9.374   4.470   5.912  1.00  0.00     0.029 A 
ATOM     65  N   UNL     1      10.381   2.640   6.668  1.00  0.00    -0.354 N 
ATOM     66  N   UNL     1       7.255   1.141   7.842  1.00  0.00    -0.248 NA
ATOM     67  C   UNL     1       6.171   0.225   9.642  1.00  0.00     0.031 C 
ATOM     68  C   UNL     1       8.706   4.036   7.085  1.00  0.00     0.029 A 
ATOM     69  C   UNL     1       9.353   2.906   7.557  1.00  0.00     0.049 A 
ATOM     70  H   UNL     1      11.002   1.880   6.744  1.00  0.00     0.167 HD
ATOM     71  C   UNL     1       8.025   1.427   8.918  1.00  0.00     0.074 A 
ATOM     72  C   UNL     1       7.312   0.827  10.033  1.00  0.00     0.031 C 
ATOM     73  C   UNL     1       9.186   2.121   8.777  1.00  0.00     0.031 A 
BRANCH  60  74
ATOM     74  C   UNL     1      11.972   4.525   3.742  1.00  0.00    -0.014 A 
ATOM     75  C   UNL     1      11.946   5.836   4.236  1.00  0.00     0.009 A 
ATOM     76  C   UNL     1      12.765   4.302   2.594  1.00  0.00     0.009 A 
ATOM     77  C   UNL     1      12.595   6.883   3.570  1.00  0.00     0.001 A 
ATOM     78  C   UNL     1      13.377   5.350   1.899  1.00  0.00     0.001 A 
ATOM     79  C   UNL     1      13.289   6.645   2.388  1.00  0.00     0.000 A 
ENDBRANCH  60  74
BRANCH  61  80
ATOM     80  C   UNL     1       4.545  -1.323   7.026  1.00  0.00    -0.014 A 
ATOM     81  C   UNL     1       3.195  -1.360   6.611  1.00  0.00     0.009 A 
ATOM     82  C   UNL     1       5.332  -2.459   6.784  1.00  0.00     0.009 A 
ATOM     83  C   UNL     1       2.695  -2.428   5.852  1.00  0.00     0.001 A 
ATOM     84  C   UNL     1       4.832  -3.518   6.004  1.00  0.00     0.001 A 
ATOM     85  C   UNL     1       3.530  -3.484   5.506  1.00  0.00     0.000 A 
ENDBRANCH  61  80
BRANCH  73  86
ATOM     86  C   UNL     1      10.252   2.189   9.822  1.00  0.00    -0.014 A 
ATOM     87  C   UNL     1      10.456   1.176  10.766  1.00  0.00     0.009 A 
ATOM     88  C   UNL     1      11.213   3.218   9.751  1.00  0.00     0.009 A 
ATOM     89  C   UNL     1      11.555   1.209  11.627  1.00  0.00     0.001 A 
ATOM     90  C   UNL     1      12.336   3.227  10.574  1.00  0.00     0.001 A 
ATOM     91  C   UNL     1      12.500   2.225  11.521  1.00  0.00     0.000 A 
ENDBRANCH  73  86
ENDBRANCH  47  48
ENDBRANCH  40  42
ENDBRANCH  39  40
ENDBRANCH  38  39
ENDBRANCH  37  38
ENDBRANCH  36  37
ENDBRANCH  35  36
ENDBRANCH   1  35
TORSDOF 19
