REMARK SMILES C[C@@H](C(=O)OCCOCCOC(=O)c1ccc(-c2c3nc(c(-c4ccccc4)c4ccc([nH]4)c(-c4ccccc4)c4nc(c(-c5ccccc5)c5ccc2[nH]5)C=C4)C=C3)cc1)c1cc(/C=C/S(C)(=O)=O)cc(C(=O)c2ccccc2)c1
REMARK SMILES IDX 7 1 6 2 5 3 3 4 4 5 2 6 1 7 62 8 63 9 81 10 64 11 72 12
REMARK SMILES IDX 71 13 65 14 66 15 67 16 68 17 69 18 70 19 73 20 74 21 75 22
REMARK SMILES IDX 76 23 80 24 77 25 79 26 78 27 8 28 9 29 10 30 11 31 12 32
REMARK SMILES IDX 13 33 14 34 15 35 61 36 16 37 60 38 17 39 18 40 19 41 54 42
REMARK SMILES IDX 20 43 59 44 53 45 55 46 21 47 58 48 52 49 51 50 22 52 44 53
REMARK SMILES IDX 29 54 43 55 30 56 33 57 42 58 56 59 31 60 32 61 41 63 57 64
REMARK SMILES IDX 34 65 23 66 24 67 28 68 25 69 27 70 26 71 45 72 46 73 50 74
REMARK SMILES IDX 47 75 49 76 48 77 35 78 36 79 40 80 37 81 39 82 38 83
REMARK H PARENT 55 51 33 62
REMARK Flexibility Score: inf
ROOT
ATOM      1  C   UNL     1       2.092   1.082  -4.531  1.00  0.00     0.202 C 
ENDROOT
BRANCH   1   2
ATOM      2  C   UNL     1       2.227   2.231  -3.529  1.00  0.00     0.261 C 
BRANCH   2   3
ATOM      3  O   UNL     1       1.991   1.770  -2.188  1.00  0.00    -0.463 OA
BRANCH   3   4
ATOM      4  C   UNL     1       1.080   2.484  -1.474  1.00  0.00     0.313 C 
ATOM      5  O   UNL     1       0.627   3.570  -1.823  1.00  0.00    -0.252 OA
BRANCH   4   6
ATOM      6  C   UNL     1       0.648   1.777  -0.181  1.00  0.00     0.126 C 
ATOM      7  C   UNL     1       1.454   0.521   0.163  1.00  0.00     0.025 C 
BRANCH   6   8
ATOM      8  C   UNL     1      -0.870   1.587  -0.143  1.00  0.00    -0.033 A 
ATOM      9  C   UNL     1      -1.665   2.731   0.046  1.00  0.00     0.012 A 
ATOM     10  C   UNL     1      -1.519   0.355  -0.308  1.00  0.00     0.016 A 
ATOM     11  C   UNL     1      -3.065   2.683   0.063  1.00  0.00    -0.024 A 
ATOM     12  C   UNL     1      -2.920   0.266  -0.237  1.00  0.00     0.023 A 
ATOM     13  C   UNL     1      -3.682   1.434  -0.066  1.00  0.00     0.020 A 
BRANCH  11  14
ATOM     14  C   UNL     1      -3.882   3.890   0.286  1.00  0.00     0.020 C 
ATOM     15  C   UNL     1      -3.419   5.145   0.160  1.00  0.00     0.106 C 
BRANCH  15  16
ATOM     16  S   UNL     1      -4.409   6.503   0.587  1.00  0.00     0.168 S 
ATOM     17  C   UNL     1      -3.544   7.108   2.019  1.00  0.00     0.163 C 
ATOM     18  O   UNL     1      -4.266   7.513  -0.450  1.00  0.00    -0.225 OA
ATOM     19  O   UNL     1      -5.717   6.071   1.024  1.00  0.00    -0.225 OA
ENDBRANCH  15  16
ENDBRANCH  11  14
BRANCH  12  20
ATOM     20  C   UNL     1      -3.649  -1.032  -0.378  1.00  0.00     0.193 C 
ATOM     21  O   UNL     1      -4.853  -1.031  -0.626  1.00  0.00    -0.289 OA
BRANCH  20  22
ATOM     22  C   UNL     1      -2.964  -2.343  -0.259  1.00  0.00     0.022 A 
ATOM     23  C   UNL     1      -3.263  -3.334  -1.200  1.00  0.00     0.012 A 
ATOM     24  C   UNL     1      -2.066  -2.615   0.780  1.00  0.00     0.012 A 
ATOM     25  C   UNL     1      -2.622  -4.572  -1.138  1.00  0.00     0.001 A 
ATOM     26  C   UNL     1      -1.422  -3.853   0.834  1.00  0.00     0.001 A 
ATOM     27  C   UNL     1      -1.694  -4.826  -0.128  1.00  0.00     0.000 A 
ENDBRANCH  20  22
ENDBRANCH  12  20
ENDBRANCH   6   8
ENDBRANCH   4   6
ENDBRANCH   3   4
ENDBRANCH   2   3
ENDBRANCH   1   2
BRANCH   1  28
ATOM     28  O   UNL     1       0.809   0.465  -4.624  1.00  0.00    -0.374 OA
BRANCH  28  29
ATOM     29  C   UNL     1       0.389  -0.371  -3.548  1.00  0.00     0.202 C 
BRANCH  29  30
ATOM     30  C   UNL     1       1.067  -1.743  -3.426  1.00  0.00     0.261 C 
BRANCH  30  31
ATOM     31  O   UNL     1       2.474  -1.641  -3.131  1.00  0.00    -0.460 OA
BRANCH  31  32
ATOM     32  C   UNL     1       3.289  -2.118  -4.104  1.00  0.00     0.338 C 
ATOM     33  O   UNL     1       2.960  -2.682  -5.136  1.00  0.00    -0.246 OA
BRANCH  32  34
ATOM     34  C   UNL     1       4.683  -1.710  -3.853  1.00  0.00     0.060 A 
ATOM     35  C   UNL     1       5.334  -0.985  -4.861  1.00  0.00     0.016 A 
ATOM     36  C   UNL     1       5.375  -2.112  -2.709  1.00  0.00     0.016 A 
ATOM     37  C   UNL     1       6.694  -0.703  -4.751  1.00  0.00     0.010 A 
ATOM     38  C   UNL     1       6.744  -1.837  -2.606  1.00  0.00     0.010 A 
ATOM     39  C   UNL     1       7.416  -1.164  -3.643  1.00  0.00    -0.014 A 
BRANCH  39  40
ATOM     40  C   UNL     1       8.896  -1.072  -3.652  1.00  0.00     0.031 A 
ATOM     41  C   UNL     1       9.702  -2.282  -4.042  1.00  0.00     0.074 A 
ATOM     42  C   UNL     1       9.518   0.085  -3.363  1.00  0.00     0.049 A 
ATOM     43  N   UNL     1      11.001  -2.426  -4.111  1.00  0.00    -0.248 NA
ATOM     44  C   UNL     1       8.941  -3.489  -4.405  1.00  0.00     0.031 C 
ATOM     45  C   UNL     1       8.853   1.340  -3.020  1.00  0.00     0.029 A 
ATOM     46  N   UNL     1      10.856   0.386  -3.314  1.00  0.00    -0.354 N 
ATOM     47  C   UNL     1      11.214  -3.737  -4.520  1.00  0.00     0.074 A 
ATOM     48  C   UNL     1       9.912  -4.355  -4.654  1.00  0.00     0.031 C 
ATOM     49  C   UNL     1       9.789   2.278  -2.789  1.00  0.00     0.029 A 
ATOM     50  C   UNL     1      11.114   1.681  -2.939  1.00  0.00     0.049 A 
ATOM     51  H   UNL     1      11.564  -0.265  -3.527  1.00  0.00     0.167 HD
ATOM     52  C   UNL     1      12.385  -4.369  -4.769  1.00  0.00     0.031 A 
ATOM     53  C   UNL     1      12.286   2.308  -2.723  1.00  0.00     0.031 A 
ATOM     54  C   UNL     1      13.681  -3.763  -4.624  1.00  0.00     0.049 A 
ATOM     55  C   UNL     1      13.577   1.560  -2.927  1.00  0.00     0.074 A 
ATOM     56  C   UNL     1      14.926  -4.321  -4.859  1.00  0.00     0.029 A 
ATOM     57  N   UNL     1      13.900  -2.463  -4.197  1.00  0.00    -0.354 N 
ATOM     58  N   UNL     1      13.763   0.327  -3.331  1.00  0.00    -0.248 NA
ATOM     59  C   UNL     1      14.819   2.297  -2.652  1.00  0.00     0.031 C 
ATOM     60  C   UNL     1      15.900  -3.374  -4.525  1.00  0.00     0.029 A 
ATOM     61  C   UNL     1      15.260  -2.209  -4.137  1.00  0.00     0.049 A 
ATOM     62  H   UNL     1      13.193  -1.816  -3.972  1.00  0.00     0.167 HD
ATOM     63  C   UNL     1      15.140   0.148  -3.384  1.00  0.00     0.074 A 
ATOM     64  C   UNL     1      15.741   1.404  -2.984  1.00  0.00     0.031 C 
ATOM     65  C   UNL     1      15.844  -0.956  -3.734  1.00  0.00     0.031 A 
BRANCH  52  66
ATOM     66  C   UNL     1      12.315  -5.809  -5.194  1.00  0.00    -0.014 A 
ATOM     67  C   UNL     1      11.862  -6.171  -6.473  1.00  0.00     0.009 A 
ATOM     68  C   UNL     1      12.736  -6.816  -4.312  1.00  0.00     0.009 A 
ATOM     69  C   UNL     1      11.802  -7.515  -6.846  1.00  0.00     0.001 A 
ATOM     70  C   UNL     1      12.700  -8.157  -4.698  1.00  0.00     0.001 A 
ATOM     71  C   UNL     1      12.225  -8.506  -5.961  1.00  0.00     0.000 A 
ENDBRANCH  52  66
BRANCH  53  72
ATOM     72  C   UNL     1      12.299   3.721  -2.263  1.00  0.00    -0.014 A 
ATOM     73  C   UNL     1      12.749   4.748  -3.106  1.00  0.00     0.009 A 
ATOM     74  C   UNL     1      11.876   4.046  -0.964  1.00  0.00     0.009 A 
ATOM     75  C   UNL     1      12.797   6.068  -2.649  1.00  0.00     0.001 A 
ATOM     76  C   UNL     1      11.899   5.369  -0.520  1.00  0.00     0.001 A 
ATOM     77  C   UNL     1      12.368   6.378  -1.359  1.00  0.00     0.000 A 
ENDBRANCH  53  72
BRANCH  65  78
ATOM     78  C   UNL     1      17.343  -0.847  -3.735  1.00  0.00    -0.014 A 
ATOM     79  C   UNL     1      18.071  -0.795  -2.536  1.00  0.00     0.009 A 
ATOM     80  C   UNL     1      18.038  -0.839  -4.954  1.00  0.00     0.009 A 
ATOM     81  C   UNL     1      19.465  -0.705  -2.561  1.00  0.00     0.001 A 
ATOM     82  C   UNL     1      19.433  -0.778  -4.975  1.00  0.00     0.001 A 
ATOM     83  C   UNL     1      20.144  -0.702  -3.779  1.00  0.00     0.000 A 
ENDBRANCH  65  78
ENDBRANCH  39  40
ENDBRANCH  32  34
ENDBRANCH  31  32
ENDBRANCH  30  31
ENDBRANCH  29  30
ENDBRANCH  28  29
ENDBRANCH   1  28
TORSDOF 19
