REMARK SMILES CS(=O)(=O)c1ccc(/C=C(/C(=O)OCCOCCOC(=O)c2ccc(-c3c4nc(c(-c5ccccc5)c5ccc([nH]5)c(-c5ccccc5)c5nc(c(-c6ccccc6)c6ccc3[nH]6)C=C5)C=C4)cc2)c2cccc(-c3ccc(S(C)(=O)=O)cc3)c2)cc1
REMARK SMILES IDX 15 1 14 2 13 3 11 4 12 5 10 6 9 7 8 8 5 9 6 10 87 11 7 12
REMARK SMILES IDX 86 13 2 14 1 15 3 16 4 17 70 18 71 19 85 20 72 21 74 22
REMARK SMILES IDX 73 23 75 24 76 25 84 26 77 27 83 28 78 29 79 30 80 31 81 32
REMARK SMILES IDX 82 33 16 34 17 35 18 36 19 37 20 38 21 39 22 40 23 41 69 42
REMARK SMILES IDX 24 43 68 44 25 45 26 46 27 47 62 48 28 49 67 50 61 51 63 52
REMARK SMILES IDX 29 53 66 54 60 55 59 56 30 58 52 59 37 60 51 61 38 62 41 63
REMARK SMILES IDX 50 64 64 65 39 66 40 67 49 69 65 70 42 71 31 72 32 73 36 74
REMARK SMILES IDX 33 75 35 76 34 77 53 78 54 79 58 80 55 81 57 82 56 83 43 84
REMARK SMILES IDX 44 85 48 86 45 87 47 88 46 89
REMARK H PARENT 63 57 41 68
REMARK Flexibility Score: inf
ROOT
ATOM      1  C   UNL     1       3.794   5.700  -9.996  1.00  0.00     0.202 C 
ENDROOT
BRANCH   1   2
ATOM      2  C   UNL     1       2.460   4.959  -9.873  1.00  0.00     0.261 C 
BRANCH   2   3
ATOM      3  O   UNL     1       2.342   4.322  -8.588  1.00  0.00    -0.460 OA
BRANCH   3   4
ATOM      4  C   UNL     1       2.119   2.985  -8.649  1.00  0.00     0.338 C 
ATOM      5  O   UNL     1       1.837   2.356  -9.659  1.00  0.00    -0.246 OA
BRANCH   4   6
ATOM      6  C   UNL     1       2.381   2.313  -7.337  1.00  0.00     0.067 C 
ATOM      7  C   UNL     1       1.932   2.876  -6.189  1.00  0.00     0.024 C 
BRANCH   7   8
ATOM      8  C   UNL     1       1.754   2.218  -4.867  1.00  0.00    -0.025 A 
ATOM      9  C   UNL     1       0.945   0.693  -2.648  1.00  0.00     0.067 A 
ATOM     10  C   UNL     1       2.137   0.387  -3.302  1.00  0.00     0.021 A 
ATOM     11  C   UNL     1       0.204   1.813  -3.023  1.00  0.00     0.021 A 
ATOM     12  C   UNL     1       2.558   1.178  -4.376  1.00  0.00     0.009 A 
ATOM     13  C   UNL     1       0.614   2.572  -4.125  1.00  0.00     0.009 A 
BRANCH   9  14
ATOM     14  S   UNL     1       0.281  -0.443  -1.452  1.00  0.00     0.175 S 
ATOM     15  C   UNL     1       0.940   0.125   0.088  1.00  0.00     0.163 C 
ATOM     16  O   UNL     1       0.855  -1.748  -1.728  1.00  0.00    -0.224 OA
ATOM     17  O   UNL     1      -1.155  -0.252  -1.423  1.00  0.00    -0.224 OA
ENDBRANCH   9  14
ENDBRANCH   7   8
BRANCH   6  18
ATOM     18  C   UNL     1       2.971   0.966  -7.420  1.00  0.00    -0.010 A 
ATOM     19  C   UNL     1       4.354   0.793  -7.564  1.00  0.00     0.009 A 
ATOM     20  C   UNL     1       2.151  -0.155  -7.294  1.00  0.00     0.017 A 
ATOM     21  C   UNL     1       4.907  -0.485  -7.569  1.00  0.00     0.001 A 
ATOM     22  C   UNL     1       2.695  -1.446  -7.247  1.00  0.00    -0.018 A 
ATOM     23  C   UNL     1       4.082  -1.597  -7.403  1.00  0.00     0.009 A 
BRANCH  22  24
ATOM     24  C   UNL     1       1.816  -2.580  -6.950  1.00  0.00    -0.018 A 
ATOM     25  C   UNL     1       2.097  -3.431  -5.869  1.00  0.00     0.010 A 
ATOM     26  C   UNL     1       0.623  -2.772  -7.669  1.00  0.00     0.010 A 
ATOM     27  C   UNL     1       1.208  -4.441  -5.505  1.00  0.00     0.021 A 
ATOM     28  C   UNL     1      -0.271  -3.781  -7.315  1.00  0.00     0.021 A 
ATOM     29  C   UNL     1       0.033  -4.613  -6.238  1.00  0.00     0.067 A 
BRANCH  29  30
ATOM     30  S   UNL     1      -1.085  -5.911  -5.783  1.00  0.00     0.175 S 
ATOM     31  C   UNL     1      -0.188  -7.374  -6.232  1.00  0.00     0.163 C 
ATOM     32  O   UNL     1      -1.215  -5.884  -4.335  1.00  0.00    -0.224 OA
ATOM     33  O   UNL     1      -2.246  -5.824  -6.641  1.00  0.00    -0.224 OA
ENDBRANCH  29  30
ENDBRANCH  22  24
ENDBRANCH   6  18
ENDBRANCH   4   6
ENDBRANCH   3   4
ENDBRANCH   2   3
ENDBRANCH   1   2
BRANCH   1  34
ATOM     34  O   UNL     1       4.985   4.913 -10.006  1.00  0.00    -0.374 OA
BRANCH  34  35
ATOM     35  C   UNL     1       5.364   4.265  -8.796  1.00  0.00     0.202 C 
BRANCH  35  36
ATOM     36  C   UNL     1       6.031   5.110  -7.705  1.00  0.00     0.261 C 
BRANCH  36  37
ATOM     37  O   UNL     1       5.264   6.266  -7.340  1.00  0.00    -0.460 OA
BRANCH  37  38
ATOM     38  C   UNL     1       5.744   7.428  -7.842  1.00  0.00     0.338 C 
ATOM     39  O   UNL     1       6.779   7.596  -8.472  1.00  0.00    -0.246 OA
BRANCH  38  40
ATOM     40  C   UNL     1       4.740   8.491  -7.679  1.00  0.00     0.060 A 
ATOM     41  C   UNL     1       4.350   9.190  -8.829  1.00  0.00     0.016 A 
ATOM     42  C   UNL     1       4.229   8.835  -6.426  1.00  0.00     0.016 A 
ATOM     43  C   UNL     1       3.476  10.267  -8.724  1.00  0.00     0.010 A 
ATOM     44  C   UNL     1       3.361   9.925  -6.321  1.00  0.00     0.010 A 
ATOM     45  C   UNL     1       3.008  10.664  -7.465  1.00  0.00    -0.014 A 
BRANCH  45  46
ATOM     46  C   UNL     1       2.267  11.939  -7.337  1.00  0.00     0.031 A 
ATOM     47  C   UNL     1       3.007  13.171  -6.899  1.00  0.00     0.074 A 
ATOM     48  C   UNL     1       0.959  12.004  -7.640  1.00  0.00     0.049 A 
ATOM     49  N   UNL     1       2.558  14.386  -6.719  1.00  0.00    -0.248 NA
ATOM     50  C   UNL     1       4.446  13.012  -6.630  1.00  0.00     0.031 C 
ATOM     51  C   UNL     1       0.144  10.886  -8.114  1.00  0.00     0.029 A 
ATOM     52  N   UNL     1       0.089  13.062  -7.592  1.00  0.00    -0.354 N 
ATOM     53  C   UNL     1       3.655  15.134  -6.310  1.00  0.00     0.074 A 
ATOM     54  C   UNL     1       4.784  14.232  -6.240  1.00  0.00     0.031 C 
ATOM     55  C   UNL     1      -1.114  11.319  -8.310  1.00  0.00     0.029 A 
ATOM     56  C   UNL     1      -1.196  12.732  -7.947  1.00  0.00     0.049 A 
ATOM     57  H   UNL     1       0.359  13.971  -7.328  1.00  0.00     0.167 HD
ATOM     58  C   UNL     1       3.718  16.456  -6.023  1.00  0.00     0.031 A 
ATOM     59  C   UNL     1      -2.313  13.483  -7.959  1.00  0.00     0.031 A 
ATOM     60  C   UNL     1       2.592  17.350  -6.079  1.00  0.00     0.049 A 
ATOM     61  C   UNL     1      -2.232  14.933  -7.565  1.00  0.00     0.074 A 
ATOM     62  C   UNL     1       2.558  18.710  -5.825  1.00  0.00     0.029 A 
ATOM     63  N   UNL     1       1.300  16.969  -6.403  1.00  0.00    -0.354 N 
ATOM     64  N   UNL     1      -1.184  15.637  -7.211  1.00  0.00    -0.248 NA
ATOM     65  C   UNL     1      -3.490  15.694  -7.582  1.00  0.00     0.031 C 
ATOM     66  C   UNL     1       1.232  19.141  -5.941  1.00  0.00     0.029 A 
ATOM     67  C   UNL     1       0.453  18.061  -6.325  1.00  0.00     0.049 A 
ATOM     68  H   UNL     1       1.025  16.057  -6.651  1.00  0.00     0.167 HD
ATOM     69  C   UNL     1      -1.649  16.927  -6.988  1.00  0.00     0.074 A 
ATOM     70  C   UNL     1      -3.072  16.911  -7.261  1.00  0.00     0.031 C 
ATOM     71  C   UNL     1      -0.961  18.027  -6.596  1.00  0.00     0.031 A 
BRANCH  58  72
ATOM     72  C   UNL     1       5.047  17.005  -5.586  1.00  0.00    -0.014 A 
ATOM     73  C   UNL     1       6.109  17.157  -6.491  1.00  0.00     0.009 A 
ATOM     74  C   UNL     1       5.229  17.401  -4.251  1.00  0.00     0.009 A 
ATOM     75  C   UNL     1       7.337  17.664  -6.060  1.00  0.00     0.001 A 
ATOM     76  C   UNL     1       6.449  17.932  -3.830  1.00  0.00     0.001 A 
ATOM     77  C   UNL     1       7.504  18.055  -4.732  1.00  0.00     0.000 A 
ENDBRANCH  58  72
BRANCH  59  78
ATOM     78  C   UNL     1      -3.613  12.873  -8.343  1.00  0.00    -0.014 A 
ATOM     79  C   UNL     1      -4.242  13.223  -9.546  1.00  0.00     0.009 A 
ATOM     80  C   UNL     1      -4.237  11.944  -7.495  1.00  0.00     0.009 A 
ATOM     81  C   UNL     1      -5.481  12.671  -9.882  1.00  0.00     0.001 A 
ATOM     82  C   UNL     1      -5.461  11.373  -7.846  1.00  0.00     0.001 A 
ATOM     83  C   UNL     1      -6.087  11.744  -9.035  1.00  0.00     0.000 A 
ENDBRANCH  59  78
BRANCH  71  84
ATOM     84  C   UNL     1      -1.731  19.311  -6.469  1.00  0.00    -0.014 A 
ATOM     85  C   UNL     1      -2.630  19.522  -5.412  1.00  0.00     0.009 A 
ATOM     86  C   UNL     1      -1.519  20.342  -7.399  1.00  0.00     0.009 A 
ATOM     87  C   UNL     1      -3.327  20.729  -5.309  1.00  0.00     0.001 A 
ATOM     88  C   UNL     1      -2.195  21.557  -7.276  1.00  0.00     0.001 A 
ATOM     89  C   UNL     1      -3.105  21.745  -6.237  1.00  0.00     0.000 A 
ENDBRANCH  71  84
ENDBRANCH  45  46
ENDBRANCH  38  40
ENDBRANCH  37  38
ENDBRANCH  36  37
ENDBRANCH  35  36
ENDBRANCH  34  35
ENDBRANCH   1  34
TORSDOF 19
