REMARK SMILES C[NH2+][C@]1(C(=O)OCCOCCOC(=O)c2ccc(-c3c4nc(c(-c5ccccc5)c5ccc([nH]5)c(-c5ccccc5)c5nc(c(-c6ccccc6)c6ccc3[nH]6)C=C5)C=C4)cc2)CCC[C@@H](Sc2nccn2C)C1
REMARK SMILES IDX 9 1 8 2 7 3 6 4 4 5 5 6 3 7 63 8 74 9 64 10 66 11 65 12 2 13
REMARK SMILES IDX 1 14 67 17 68 18 69 19 72 20 70 21 71 22 73 23 10 24 11 25
REMARK SMILES IDX 12 26 13 27 14 28 15 29 16 30 62 31 17 32 61 33 18 34 19 35
REMARK SMILES IDX 20 36 55 37 21 38 60 39 54 40 56 41 22 42 59 43 53 44 52 45
REMARK SMILES IDX 23 47 45 48 30 49 44 50 31 51 34 52 43 53 57 54 32 55 33 56
REMARK SMILES IDX 42 58 58 59 35 60 24 61 25 62 29 63 26 64 28 65 27 66 46 67
REMARK SMILES IDX 47 68 51 69 48 70 50 71 49 72 36 73 37 74 41 75 38 76 40 77
REMARK SMILES IDX 39 78
REMARK H PARENT 2 15 2 16 56 46 34 57
REMARK Flexibility Score: inf
ROOT
ATOM      1  O   UNL     1       2.946  -2.300  -2.090  1.00  0.00    -0.374 OA
ENDROOT
BRANCH   1   2
ATOM      2  C   UNL     1       3.271  -1.715  -0.830  1.00  0.00     0.202 C 
BRANCH   2   3
ATOM      3  C   UNL     1       2.528  -0.427  -0.458  1.00  0.00     0.261 C 
BRANCH   3   4
ATOM      4  O   UNL     1       1.121  -0.649  -0.262  1.00  0.00    -0.459 OA
BRANCH   4   5
ATOM      5  C   UNL     1       0.316  -0.250  -1.284  1.00  0.00     0.368 C 
ATOM      6  O   UNL     1       0.714   0.300  -2.308  1.00  0.00    -0.245 OA
BRANCH   5   7
ATOM      7  C   UNL     1      -1.195  -0.575  -1.040  1.00  0.00     0.195 C 
ATOM      8  C   UNL     1      -1.391  -1.863  -0.198  1.00  0.00     0.081 C 
ATOM      9  C   UNL     1      -1.745   0.626  -0.244  1.00  0.00     0.096 C 
ATOM     10  C   UNL     1      -2.820  -2.097   0.291  1.00  0.00     0.008 C 
ATOM     11  C   UNL     1      -3.201   0.416   0.183  1.00  0.00     0.061 C 
ATOM     12  C   UNL     1      -3.396  -0.874   0.993  1.00  0.00     0.015 C 
BRANCH   7  13
ATOM     13  N   UNL     1      -1.862  -0.528  -2.378  1.00  0.00    -0.335 N 
ATOM     14  C   UNL     1      -2.398  -1.745  -2.947  1.00  0.00     0.331 C 
ATOM     15  H   UNL     1      -2.637   0.131  -2.301  1.00  0.00     0.347 HD
ATOM     16  H   UNL     1      -1.106  -0.278  -3.015  1.00  0.00     0.347 HD
ENDBRANCH   7  13
BRANCH  11  17
ATOM     17  S   UNL     1      -3.861   1.878   1.072  1.00  0.00    -0.084 SA
BRANCH  17  18
ATOM     18  C   UNL     1      -3.028   1.782   2.586  1.00  0.00     0.167 A 
ATOM     19  N   UNL     1      -1.722   1.770   2.728  1.00  0.00    -0.231 NA
ATOM     20  N   UNL     1      -3.664   1.648   3.790  1.00  0.00    -0.329 N 
ATOM     21  C   UNL     1      -1.500   1.613   4.069  1.00  0.00     0.132 A 
ATOM     22  C   UNL     1      -2.690   1.528   4.750  1.00  0.00     0.108 A 
ATOM     23  C   UNL     1      -5.078   1.598   4.067  1.00  0.00     0.152 C 
ENDBRANCH  17  18
ENDBRANCH  11  17
ENDBRANCH   5   7
ENDBRANCH   4   5
ENDBRANCH   3   4
ENDBRANCH   2   3
ENDBRANCH   1   2
BRANCH   1  24
ATOM     24  C   UNL     1       1.754  -3.080  -2.163  1.00  0.00     0.202 C 
BRANCH  24  25
ATOM     25  C   UNL     1       1.836  -4.502  -1.598  1.00  0.00     0.261 C 
BRANCH  25  26
ATOM     26  O   UNL     1       2.018  -4.497  -0.170  1.00  0.00    -0.460 OA
BRANCH  26  27
ATOM     27  C   UNL     1       3.210  -4.976   0.248  1.00  0.00     0.338 C 
ATOM     28  O   UNL     1       4.081  -5.502  -0.439  1.00  0.00    -0.246 OA
BRANCH  27  29
ATOM     29  C   UNL     1       3.437  -4.638   1.663  1.00  0.00     0.060 A 
ATOM     30  C   UNL     1       4.648  -4.012   1.986  1.00  0.00     0.016 A 
ATOM     31  C   UNL     1       2.537  -5.003   2.667  1.00  0.00     0.016 A 
ATOM     32  C   UNL     1       4.994  -3.807   3.319  1.00  0.00     0.010 A 
ATOM     33  C   UNL     1       2.891  -4.804   4.007  1.00  0.00     0.010 A 
ATOM     34  C   UNL     1       4.139  -4.245   4.338  1.00  0.00    -0.014 A 
BRANCH  34  35
ATOM     35  C   UNL     1       4.632  -4.266   5.735  1.00  0.00     0.031 A 
ATOM     36  C   UNL     1       5.181  -5.551   6.295  1.00  0.00     0.074 A 
ATOM     37  C   UNL     1       4.644  -3.148   6.482  1.00  0.00     0.049 A 
ATOM     38  N   UNL     1       5.670  -5.796   7.484  1.00  0.00    -0.248 NA
ATOM     39  C   UNL     1       5.180  -6.713   5.392  1.00  0.00     0.031 C 
ATOM     40  C   UNL     1       4.189  -1.830   6.041  1.00  0.00     0.029 A 
ATOM     41  N   UNL     1       5.062  -2.948   7.773  1.00  0.00    -0.354 N 
ATOM     42  C   UNL     1       6.033  -7.137   7.472  1.00  0.00     0.074 A 
ATOM     43  C   UNL     1       5.680  -7.661   6.170  1.00  0.00     0.031 C 
ATOM     44  C   UNL     1       4.348  -0.956   7.050  1.00  0.00     0.029 A 
ATOM     45  C   UNL     1       4.890  -1.659   8.212  1.00  0.00     0.049 A 
ATOM     46  H   UNL     1       5.447  -3.661   8.332  1.00  0.00     0.167 HD
ATOM     47  C   UNL     1       6.614  -7.867   8.453  1.00  0.00     0.031 A 
ATOM     48  C   UNL     1       5.128  -1.111   9.420  1.00  0.00     0.031 A 
ATOM     49  C   UNL     1       6.954  -7.355   9.753  1.00  0.00     0.049 A 
ATOM     50  C   UNL     1       5.700  -1.963  10.521  1.00  0.00     0.074 A 
ATOM     51  C   UNL     1       7.552  -8.017  10.811  1.00  0.00     0.029 A 
ATOM     52  N   UNL     1       6.720  -6.056  10.173  1.00  0.00    -0.354 N 
ATOM     53  N   UNL     1       6.055  -3.225  10.491  1.00  0.00    -0.248 NA
ATOM     54  C   UNL     1       5.911  -1.310  11.821  1.00  0.00     0.031 C 
ATOM     55  C   UNL     1       7.634  -7.130  11.890  1.00  0.00     0.029 A 
ATOM     56  C   UNL     1       7.136  -5.902  11.484  1.00  0.00     0.049 A 
ATOM     57  H   UNL     1       6.316  -5.348   9.621  1.00  0.00     0.167 HD
ATOM     58  C   UNL     1       6.553  -3.510  11.756  1.00  0.00     0.074 A 
ATOM     59  C   UNL     1       6.467  -2.286  12.526  1.00  0.00     0.031 C 
ATOM     60  C   UNL     1       7.040  -4.679  12.237  1.00  0.00     0.031 A 
BRANCH  47  61
ATOM     61  C   UNL     1       6.889  -9.315   8.162  1.00  0.00    -0.014 A 
ATOM     62  C   UNL     1       7.925  -9.700   7.297  1.00  0.00     0.009 A 
ATOM     63  C   UNL     1       6.116 -10.308   8.784  1.00  0.00     0.009 A 
ATOM     64  C   UNL     1       8.162 -11.052   7.037  1.00  0.00     0.001 A 
ATOM     65  C   UNL     1       6.371 -11.659   8.541  1.00  0.00     0.001 A 
ATOM     66  C   UNL     1       7.388 -12.029   7.661  1.00  0.00     0.000 A 
ENDBRANCH  47  61
BRANCH  48  67
ATOM     67  C   UNL     1       4.804   0.318   9.664  1.00  0.00    -0.014 A 
ATOM     68  C   UNL     1       5.824   1.265   9.838  1.00  0.00     0.009 A 
ATOM     69  C   UNL     1       3.466   0.737   9.741  1.00  0.00     0.009 A 
ATOM     70  C   UNL     1       5.509   2.600  10.107  1.00  0.00     0.001 A 
ATOM     71  C   UNL     1       3.155   2.076   9.983  1.00  0.00     0.001 A 
ATOM     72  C   UNL     1       4.176   3.004  10.175  1.00  0.00     0.000 A 
ENDBRANCH  48  67
BRANCH  60  73
ATOM     73  C   UNL     1       7.547  -4.684  13.652  1.00  0.00    -0.014 A 
ATOM     74  C   UNL     1       6.663  -4.651  14.742  1.00  0.00     0.009 A 
ATOM     75  C   UNL     1       8.927  -4.768  13.896  1.00  0.00     0.009 A 
ATOM     76  C   UNL     1       7.154  -4.670  16.049  1.00  0.00     0.001 A 
ATOM     77  C   UNL     1       9.413  -4.814  15.203  1.00  0.00     0.001 A 
ATOM     78  C   UNL     1       8.528  -4.756  16.278  1.00  0.00     0.000 A 
ENDBRANCH  60  73
ENDBRANCH  34  35
ENDBRANCH  27  29
ENDBRANCH  26  27
ENDBRANCH  25  26
ENDBRANCH  24  25
ENDBRANCH   1  24
TORSDOF 17
