REMARK SMILES COC(=O)[C@H]1Sc2nnc(CCC(=O)OCCOCCOC(=O)c3ccc(-c4c5nc(c(-c6ccccc6)c6ccc([nH]6)c(-c6ccccc6)c6nc(c(-c7ccccc7)c7ccc4[nH]7)C=C6)C=C5)cc3)c(=O)n2N=C1C
REMARK SMILES IDX 17 1 16 2 15 3 13 4 14 5 12 6 11 7 10 8 5 9 6 10 76 11 7 12
REMARK SMILES IDX 75 13 77 14 8 15 74 16 9 17 72 18 73 19 3 20 4 21 2 22 1 23
REMARK SMILES IDX 18 24 19 25 20 26 21 27 22 28 23 29 24 30 25 31 71 32 26 33
REMARK SMILES IDX 70 34 27 35 28 36 29 37 64 38 30 39 69 40 63 41 65 42 31 43
REMARK SMILES IDX 68 44 62 45 61 46 32 48 54 49 39 50 53 51 40 52 43 53 52 54
REMARK SMILES IDX 66 55 41 56 42 57 51 59 67 60 44 61 33 62 34 63 38 64 35 65
REMARK SMILES IDX 37 66 36 67 55 68 56 69 60 70 57 71 59 72 58 73 45 74 46 75
REMARK SMILES IDX 50 76 47 77 49 78 48 79
REMARK H PARENT 65 47 43 58
REMARK Flexibility Score: inf
ROOT
ATOM      1  C   UNL     1       2.575   7.908   4.981  1.00  0.00     0.202 C 
ENDROOT
BRANCH   1   2
ATOM      2  C   UNL     1       1.228   8.623   5.100  1.00  0.00     0.261 C 
BRANCH   2   3
ATOM      3  O   UNL     1       0.576   8.752   3.817  1.00  0.00    -0.463 OA
BRANCH   3   4
ATOM      4  C   UNL     1       0.514   9.998   3.277  1.00  0.00     0.306 C 
ATOM      5  O   UNL     1       1.043  11.001   3.730  1.00  0.00    -0.252 OA
BRANCH   4   6
ATOM      6  C   UNL     1      -0.334   9.988   2.025  1.00  0.00     0.129 C 
BRANCH   6   7
ATOM      7  C   UNL     1       0.435   9.549   0.782  1.00  0.00     0.076 C 
BRANCH   7   8
ATOM      8  C   UNL     1       0.179   8.089   0.498  1.00  0.00     0.131 A 
ATOM      9  C   UNL     1      -0.771   3.367   2.305  1.00  0.00     0.210 C 
ATOM     10  S   UNL     1      -1.006   3.855   0.593  1.00  0.00    -0.063 SA
ATOM     11  C   UNL     1      -0.134   4.406   3.184  1.00  0.00     0.061 C 
ATOM     12  C   UNL     1      -0.579   5.536   0.609  1.00  0.00     0.214 A 
ATOM     13  N   UNL     1       0.469   5.484   2.808  1.00  0.00    -0.171 NA
ATOM     14  C   UNL     1      -0.142   4.195   4.675  1.00  0.00     0.065 C 
ATOM     15  N   UNL     1      -1.041   6.299  -0.333  1.00  0.00    -0.123 NA
ATOM     16  N   UNL     1       0.303   5.970   1.554  1.00  0.00    -0.169 N 
ATOM     17  N   UNL     1      -0.798   7.693  -0.258  1.00  0.00    -0.147 NA
ATOM     18  C   UNL     1       1.007   7.102   1.250  1.00  0.00     0.296 A 
ATOM     19  O   UNL     1       2.169   7.364   1.512  1.00  0.00    -0.265 OA
BRANCH   9  20
ATOM     20  C   UNL     1      -2.078   2.829   2.843  1.00  0.00     0.325 C 
ATOM     21  O   UNL     1      -2.368   1.639   2.861  1.00  0.00    -0.250 OA
BRANCH  20  22
ATOM     22  O   UNL     1      -2.864   3.836   3.314  1.00  0.00    -0.468 OA
ATOM     23  C   UNL     1      -4.097   3.445   3.924  1.00  0.00     0.282 C 
ENDBRANCH  20  22
ENDBRANCH   9  20
ENDBRANCH   7   8
ENDBRANCH   6   7
ENDBRANCH   4   6
ENDBRANCH   3   4
ENDBRANCH   2   3
ENDBRANCH   1   2
BRANCH   1  24
ATOM     24  O   UNL     1       3.664   8.815   4.788  1.00  0.00    -0.374 OA
BRANCH  24  25
ATOM     25  C   UNL     1       3.994   9.061   3.421  1.00  0.00     0.202 C 
BRANCH  25  26
ATOM     26  C   UNL     1       5.039   8.084   2.862  1.00  0.00     0.261 C 
BRANCH  26  27
ATOM     27  O   UNL     1       4.610   6.714   2.967  1.00  0.00    -0.460 OA
BRANCH  27  28
ATOM     28  C   UNL     1       5.137   6.008   3.994  1.00  0.00     0.338 C 
ATOM     29  O   UNL     1       6.036   6.362   4.739  1.00  0.00    -0.246 OA
BRANCH  28  30
ATOM     30  C   UNL     1       4.403   4.729   4.182  1.00  0.00     0.060 A 
ATOM     31  C   UNL     1       4.427   4.151   5.460  1.00  0.00     0.016 A 
ATOM     32  C   UNL     1       3.729   4.076   3.145  1.00  0.00     0.016 A 
ATOM     33  C   UNL     1       3.825   2.911   5.695  1.00  0.00     0.010 A 
ATOM     34  C   UNL     1       3.121   2.834   3.383  1.00  0.00     0.010 A 
ATOM     35  C   UNL     1       3.188   2.228   4.654  1.00  0.00    -0.014 A 
BRANCH  35  36
ATOM     36  C   UNL     1       2.704   0.836   4.845  1.00  0.00     0.031 A 
ATOM     37  C   UNL     1       3.495  -0.302   4.266  1.00  0.00     0.074 A 
ATOM     38  C   UNL     1       1.578   0.551   5.525  1.00  0.00     0.049 A 
ATOM     39  N   UNL     1       3.254  -1.585   4.352  1.00  0.00    -0.248 NA
ATOM     40  C   UNL     1       4.735   0.036   3.550  1.00  0.00     0.031 C 
ATOM     41  C   UNL     1       0.749   1.503   6.251  1.00  0.00     0.029 A 
ATOM     42  N   UNL     1       0.896  -0.636   5.651  1.00  0.00    -0.354 N 
ATOM     43  C   UNL     1       4.370  -2.206   3.816  1.00  0.00     0.074 A 
ATOM     44  C   UNL     1       5.217  -1.166   3.273  1.00  0.00     0.031 C 
ATOM     45  C   UNL     1      -0.417   0.916   6.575  1.00  0.00     0.029 A 
ATOM     46  C   UNL     1      -0.374  -0.478   6.152  1.00  0.00     0.049 A 
ATOM     47  H   UNL     1       1.278  -1.510   5.408  1.00  0.00     0.167 HD
ATOM     48  C   UNL     1       4.705  -3.515   3.866  1.00  0.00     0.031 A 
ATOM     49  C   UNL     1      -1.392  -1.353   6.244  1.00  0.00     0.031 A 
ATOM     50  C   UNL     1       3.854  -4.557   4.367  1.00  0.00     0.049 A 
ATOM     51  C   UNL     1      -1.145  -2.805   5.961  1.00  0.00     0.074 A 
ATOM     52  C   UNL     1       4.140  -5.899   4.549  1.00  0.00     0.029 A 
ATOM     53  N   UNL     1       2.530  -4.378   4.729  1.00  0.00    -0.354 N 
ATOM     54  N   UNL     1      -0.033  -3.386   5.588  1.00  0.00    -0.248 NA
ATOM     55  C   UNL     1      -2.264  -3.731   6.191  1.00  0.00     0.031 C 
ATOM     56  C   UNL     1       2.968  -6.542   4.966  1.00  0.00     0.029 A 
ATOM     57  C   UNL     1       1.967  -5.592   5.080  1.00  0.00     0.049 A 
ATOM     58  H   UNL     1       2.059  -3.513   4.736  1.00  0.00     0.167 HD
ATOM     59  C   UNL     1      -0.287  -4.749   5.636  1.00  0.00     0.074 A 
ATOM     60  C   UNL     1      -1.677  -4.907   6.009  1.00  0.00     0.031 C 
ATOM     61  C   UNL     1       0.586  -5.767   5.449  1.00  0.00     0.031 A 
BRANCH  48  62
ATOM     62  C   UNL     1       6.096  -3.864   3.436  1.00  0.00    -0.014 A 
ATOM     63  C   UNL     1       7.184  -3.537   4.264  1.00  0.00     0.009 A 
ATOM     64  C   UNL     1       6.330  -4.531   2.228  1.00  0.00     0.009 A 
ATOM     65  C   UNL     1       8.486  -3.843   3.874  1.00  0.00     0.001 A 
ATOM     66  C   UNL     1       7.635  -4.851   1.849  1.00  0.00     0.001 A 
ATOM     67  C   UNL     1       8.710  -4.502   2.667  1.00  0.00     0.000 A 
ENDBRANCH  48  62
BRANCH  49  68
ATOM     68  C   UNL     1      -2.744  -0.887   6.630  1.00  0.00    -0.014 A 
ATOM     69  C   UNL     1      -3.201  -0.991   7.950  1.00  0.00     0.009 A 
ATOM     70  C   UNL     1      -3.600  -0.368   5.646  1.00  0.00     0.009 A 
ATOM     71  C   UNL     1      -4.502  -0.599   8.274  1.00  0.00     0.001 A 
ATOM     72  C   UNL     1      -4.899   0.025   5.974  1.00  0.00     0.001 A 
ATOM     73  C   UNL     1      -5.350  -0.094   7.287  1.00  0.00     0.000 A 
ENDBRANCH  49  68
BRANCH  61  74
ATOM     74  C   UNL     1       0.098  -7.158   5.723  1.00  0.00    -0.014 A 
ATOM     75  C   UNL     1      -0.727  -7.840   4.818  1.00  0.00     0.009 A 
ATOM     76  C   UNL     1       0.516  -7.812   6.894  1.00  0.00     0.009 A 
ATOM     77  C   UNL     1      -1.134  -9.148   5.088  1.00  0.00     0.001 A 
ATOM     78  C   UNL     1       0.126  -9.126   7.150  1.00  0.00     0.001 A 
ATOM     79  C   UNL     1      -0.702  -9.792   6.249  1.00  0.00     0.000 A 
ENDBRANCH  61  74
ENDBRANCH  35  36
ENDBRANCH  28  30
ENDBRANCH  27  28
ENDBRANCH  26  27
ENDBRANCH  25  26
ENDBRANCH  24  25
ENDBRANCH   1  24
TORSDOF 18
