REMARK SMILES COC(=O)[C@H]1CN(C(=O)[C@@H]2CC=CC[C@@H]2C(=O)OCCOCCOC(=O)c2ccc(-c3c4nc(c(-c5ccccc5)c5ccc([nH]5)c(-c5ccccc5)c5nc(c(-c6ccccc6)c6ccc3[nH]6)C=C5)C=C4)cc2)C[C@H]1C
REMARK SMILES IDX 20 1 19 2 18 3 16 4 17 5 15 6 10 7 11 8 12 9 14 10 13 11
REMARK SMILES IDX 8 12 9 13 7 14 5 15 6 16 76 17 75 18 77 19 3 20 4 21 2 22
REMARK SMILES IDX 1 23 21 24 22 25 23 26 24 27 25 28 26 29 27 30 28 31 74 32
REMARK SMILES IDX 29 33 73 34 30 35 31 36 32 37 67 38 33 39 72 40 66 41 68 42
REMARK SMILES IDX 34 43 71 44 65 45 64 46 35 48 57 49 42 50 56 51 43 52 46 53
REMARK SMILES IDX 55 54 69 55 44 56 45 57 54 59 70 60 47 61 36 62 37 63 41 64
REMARK SMILES IDX 38 65 40 66 39 67 58 68 59 69 63 70 60 71 62 72 61 73 48 74
REMARK SMILES IDX 49 75 53 76 50 77 52 78 51 79
REMARK H PARENT 68 47 46 58
REMARK Flexibility Score: inf
ROOT
ATOM      1  C   UNL     1       2.772  10.314  -5.355  1.00  0.00     0.202 C 
ENDROOT
BRANCH   1   2
ATOM      2  C   UNL     1       1.261  10.162  -5.527  1.00  0.00     0.261 C 
BRANCH   2   3
ATOM      3  O   UNL     1       0.683   9.079  -4.760  1.00  0.00    -0.463 OA
BRANCH   3   4
ATOM      4  C   UNL     1      -0.113   8.223  -5.463  1.00  0.00     0.310 C 
ATOM      5  O   UNL     1      -0.316   8.307  -6.669  1.00  0.00    -0.252 OA
BRANCH   4   6
ATOM      6  C   UNL     1      -0.773   7.150  -4.621  1.00  0.00     0.115 C 
ATOM      7  C   UNL     1      -1.931   7.625  -3.734  1.00  0.00     0.097 C 
ATOM      8  C   UNL     1      -1.525   8.253  -2.397  1.00  0.00     0.041 C 
ATOM      9  C   UNL     1      -0.305   7.620  -1.790  1.00  0.00    -0.030 C 
ATOM     10  C   UNL     1       0.228   6.287  -3.840  1.00  0.00     0.043 C 
ATOM     11  C   UNL     1       0.473   6.737  -2.431  1.00  0.00    -0.030 C 
BRANCH   7  12
ATOM     12  C   UNL     1      -3.074   8.294  -4.503  1.00  0.00     0.226 C 
ATOM     13  O   UNL     1      -4.041   7.584  -4.810  1.00  0.00    -0.275 OA
BRANCH  12  14
ATOM     14  N   UNL     1      -3.058   9.614  -4.877  1.00  0.00    -0.341 N 
ATOM     15  C   UNL     1      -4.133  11.649  -5.419  1.00  0.00     0.123 C 
ATOM     16  C   UNL     1      -4.138  10.148  -5.692  1.00  0.00     0.135 C 
ATOM     17  C   UNL     1      -2.754  11.961  -4.801  1.00  0.00     0.021 C 
ATOM     18  C   UNL     1      -2.024  10.618  -4.798  1.00  0.00     0.123 C 
ATOM     19  C   UNL     1      -1.910  13.042  -5.467  1.00  0.00     0.010 C 
BRANCH  15  20
ATOM     20  C   UNL     1      -4.483  12.425  -6.665  1.00  0.00     0.310 C 
ATOM     21  O   UNL     1      -3.906  12.323  -7.738  1.00  0.00    -0.252 OA
BRANCH  20  22
ATOM     22  O   UNL     1      -5.506  13.282  -6.399  1.00  0.00    -0.469 OA
ATOM     23  C   UNL     1      -5.912  14.112  -7.489  1.00  0.00     0.282 C 
ENDBRANCH  20  22
ENDBRANCH  15  20
ENDBRANCH  12  14
ENDBRANCH   7  12
ENDBRANCH   4   6
ENDBRANCH   3   4
ENDBRANCH   2   3
ENDBRANCH   1   2
BRANCH   1  24
ATOM     24  O   UNL     1       3.587   9.260  -5.853  1.00  0.00    -0.374 OA
BRANCH  24  25
ATOM     25  C   UNL     1       3.467   7.990  -5.223  1.00  0.00     0.202 C 
BRANCH  25  26
ATOM     26  C   UNL     1       4.050   7.867  -3.809  1.00  0.00     0.261 C 
BRANCH  26  27
ATOM     27  O   UNL     1       3.431   8.748  -2.851  1.00  0.00    -0.460 OA
BRANCH  27  28
ATOM     28  C   UNL     1       4.265   9.679  -2.330  1.00  0.00     0.338 C 
ATOM     29  O   UNL     1       5.462   9.805  -2.553  1.00  0.00    -0.246 OA
BRANCH  28  30
ATOM     30  C   UNL     1       3.543  10.671  -1.511  1.00  0.00     0.060 A 
ATOM     31  C   UNL     1       3.744  12.022  -1.822  1.00  0.00     0.016 A 
ATOM     32  C   UNL     1       2.865  10.306  -0.345  1.00  0.00     0.016 A 
ATOM     33  C   UNL     1       3.359  13.012  -0.921  1.00  0.00     0.010 A 
ATOM     34  C   UNL     1       2.483  11.304   0.563  1.00  0.00     0.010 A 
ATOM     35  C   UNL     1       2.789  12.654   0.307  1.00  0.00    -0.014 A 
BRANCH  35  36
ATOM     36  C   UNL     1       2.745  13.670   1.391  1.00  0.00     0.031 A 
ATOM     37  C   UNL     1       3.865  13.700   2.402  1.00  0.00     0.074 A 
ATOM     38  C   UNL     1       1.785  14.610   1.433  1.00  0.00     0.049 A 
ATOM     39  N   UNL     1       4.068  14.533   3.392  1.00  0.00    -0.248 NA
ATOM     40  C   UNL     1       4.895  12.656   2.274  1.00  0.00     0.031 C 
ATOM     41  C   UNL     1       0.676  14.733   0.490  1.00  0.00     0.029 A 
ATOM     42  N   UNL     1       1.605  15.654   2.306  1.00  0.00    -0.354 N 
ATOM     43  C   UNL     1       5.245  14.113   4.002  1.00  0.00     0.074 A 
ATOM     44  C   UNL     1       5.693  12.935   3.294  1.00  0.00     0.031 C 
ATOM     45  C   UNL     1      -0.070  15.798   0.833  1.00  0.00     0.029 A 
ATOM     46  C   UNL     1       0.499  16.419   2.029  1.00  0.00     0.049 A 
ATOM     47  H   UNL     1       2.211  15.837   3.060  1.00  0.00     0.167 HD
ATOM     48  C   UNL     1       5.903  14.660   5.051  1.00  0.00     0.031 A 
ATOM     49  C   UNL     1      -0.000  17.494   2.668  1.00  0.00     0.031 A 
ATOM     50  C   UNL     1       5.468  15.828   5.768  1.00  0.00     0.049 A 
ATOM     51  C   UNL     1       0.712  18.046   3.874  1.00  0.00     0.074 A 
ATOM     52  C   UNL     1       6.075  16.458   6.840  1.00  0.00     0.029 A 
ATOM     53  N   UNL     1       4.314  16.539   5.484  1.00  0.00    -0.354 N 
ATOM     54  N   UNL     1       1.832  17.648   4.427  1.00  0.00    -0.248 NA
ATOM     55  C   UNL     1       0.093  19.204   4.537  1.00  0.00     0.031 C 
ATOM     56  C   UNL     1       5.264  17.529   7.233  1.00  0.00     0.029 A 
ATOM     57  C   UNL     1       4.178  17.590   6.375  1.00  0.00     0.049 A 
ATOM     58  H   UNL     1       3.685  16.329   4.757  1.00  0.00     0.167 HD
ATOM     59  C   UNL     1       2.065  18.521   5.482  1.00  0.00     0.074 A 
ATOM     60  C   UNL     1       0.977  19.476   5.487  1.00  0.00     0.031 C 
ATOM     61  C   UNL     1       3.092  18.533   6.367  1.00  0.00     0.031 A 
BRANCH  48  62
ATOM     62  C   UNL     1       7.160  13.976   5.506  1.00  0.00    -0.014 A 
ATOM     63  C   UNL     1       8.350  14.075   4.767  1.00  0.00     0.009 A 
ATOM     64  C   UNL     1       7.160  13.242   6.702  1.00  0.00     0.009 A 
ATOM     65  C   UNL     1       9.507  13.426   5.203  1.00  0.00     0.001 A 
ATOM     66  C   UNL     1       8.324  12.613   7.146  1.00  0.00     0.001 A 
ATOM     67  C   UNL     1       9.494  12.699   6.393  1.00  0.00     0.000 A 
ENDBRANCH  48  62
BRANCH  49  68
ATOM     68  C   UNL     1      -1.255  18.127   2.186  1.00  0.00    -0.014 A 
ATOM     69  C   UNL     1      -1.232  19.385   1.566  1.00  0.00     0.009 A 
ATOM     70  C   UNL     1      -2.487  17.479   2.367  1.00  0.00     0.009 A 
ATOM     71  C   UNL     1      -2.422  19.991   1.156  1.00  0.00     0.001 A 
ATOM     72  C   UNL     1      -3.672  18.078   1.934  1.00  0.00     0.001 A 
ATOM     73  C   UNL     1      -3.639  19.336   1.337  1.00  0.00     0.000 A 
ENDBRANCH  49  68
BRANCH  61  74
ATOM     74  C   UNL     1       3.107  19.630   7.393  1.00  0.00    -0.014 A 
ATOM     75  C   UNL     1       2.236  19.608   8.493  1.00  0.00     0.009 A 
ATOM     76  C   UNL     1       4.038  20.675   7.280  1.00  0.00     0.009 A 
ATOM     77  C   UNL     1       2.279  20.629   9.446  1.00  0.00     0.001 A 
ATOM     78  C   UNL     1       4.093  21.681   8.246  1.00  0.00     0.001 A 
ATOM     79  C   UNL     1       3.209  21.661   9.323  1.00  0.00     0.000 A 
ENDBRANCH  61  74
ENDBRANCH  35  36
ENDBRANCH  28  30
ENDBRANCH  27  28
ENDBRANCH  26  27
ENDBRANCH  25  26
ENDBRANCH  24  25
ENDBRANCH   1  24
TORSDOF 18
