REMARK SMILES CC1(C)[C@@]2(C(=O)OCCOCCOC(=O)c3ccc(-c4c5nc(c(-c6ccccc6)c6ccc([nH]6)c(-c6ccccc6)c6nc(c(-c7ccccc7)c7ccc4[nH]7)C=C6)C=C5)cc3)CC[C@]1(C)/C(=N/NC(=O)c1ccc(Cl)cc1)C2
REMARK SMILES IDX 10 1 9 2 8 3 7 4 5 5 6 6 4 7 1 8 2 9 3 10 66 11 64 12 80 13
REMARK SMILES IDX 65 14 67 15 68 16 69 17 70 18 71 19 72 21 73 22 74 23 79 24
REMARK SMILES IDX 75 25 78 26 76 27 77 28 11 29 12 30 13 31 14 32 15 33 16 34
REMARK SMILES IDX 17 35 63 36 18 37 62 38 19 39 20 40 21 41 56 42 22 43 61 44
REMARK SMILES IDX 55 45 57 46 23 47 60 48 54 49 53 50 24 52 46 53 31 54 45 55
REMARK SMILES IDX 32 56 35 57 44 58 58 59 33 60 34 61 43 63 59 64 36 65 25 66
REMARK SMILES IDX 26 67 30 68 27 69 29 70 28 71 47 72 48 73 52 74 49 75 51 76
REMARK SMILES IDX 50 77 37 78 38 79 42 80 39 81 41 82 40 83
REMARK H PARENT 70 20 57 51 35 62
REMARK Flexibility Score: inf
ROOT
ATOM      1  O   UNL     1       3.046   3.404   3.400  1.00  0.00    -0.374 OA
ENDROOT
BRANCH   1   2
ATOM      2  C   UNL     1       1.973   4.314   3.154  1.00  0.00     0.202 C 
BRANCH   2   3
ATOM      3  C   UNL     1       1.192   4.092   1.853  1.00  0.00     0.261 C 
BRANCH   3   4
ATOM      4  O   UNL     1       0.458   2.853   1.877  1.00  0.00    -0.463 OA
BRANCH   4   5
ATOM      5  C   UNL     1       0.983   1.839   1.134  1.00  0.00     0.313 C 
ATOM      6  O   UNL     1       1.968   1.935   0.419  1.00  0.00    -0.252 OA
BRANCH   5   7
ATOM      7  C   UNL     1       0.165   0.572   1.295  1.00  0.00     0.079 C 
ATOM      8  C   UNL     1       1.230  -0.710  -0.695  1.00  0.00     0.013 C 
ATOM      9  C   UNL     1       0.816  -0.746   0.793  1.00  0.00    -0.008 C 
ATOM     10  C   UNL     1       2.054  -1.203   1.597  1.00  0.00     0.013 C 
ATOM     11  C   UNL     1      -0.482  -1.570   1.093  1.00  0.00     0.014 C 
ATOM     12  C   UNL     1      -1.161   0.651   0.475  1.00  0.00     0.021 C 
ATOM     13  C   UNL     1      -0.210   0.224   2.757  1.00  0.00     0.073 C 
ATOM     14  C   UNL     1      -1.568  -0.826   0.295  1.00  0.00     0.014 C 
ATOM     15  C   UNL     1      -0.399  -3.062   0.860  1.00  0.00     0.018 C 
ATOM     16  C   UNL     1      -0.768  -1.153   2.553  1.00  0.00     0.046 C 
ATOM     17  N   UNL     1      -1.366  -1.964   3.366  1.00  0.00    -0.181 NA
BRANCH  17  18
ATOM     18  N   UNL     1      -1.582  -1.765   4.696  1.00  0.00    -0.243 N 
ATOM     19  C   UNL     1      -1.989  -0.707   5.481  1.00  0.00     0.271 C 
ATOM     20  H   UNL     1      -1.404  -2.575   5.227  1.00  0.00     0.194 HD
ATOM     21  O   UNL     1      -2.002  -0.818   6.707  1.00  0.00    -0.267 OA
BRANCH  19  22
ATOM     22  C   UNL     1      -2.422   0.574   4.913  1.00  0.00     0.041 A 
ATOM     23  C   UNL     1      -1.740   1.726   5.331  1.00  0.00     0.015 A 
ATOM     24  C   UNL     1      -3.417   0.647   3.934  1.00  0.00     0.015 A 
ATOM     25  C   UNL     1      -1.965   2.934   4.670  1.00  0.00     0.021 A 
ATOM     26  C   UNL     1      -3.663   1.872   3.303  1.00  0.00     0.021 A 
ATOM     27  C   UNL     1      -2.911   2.998   3.649  1.00  0.00     0.041 A 
ATOM     28  Cl  UNL     1      -3.092   4.461   2.762  1.00  0.00    -0.084 Cl
ENDBRANCH  19  22
ENDBRANCH  17  18
ENDBRANCH   5   7
ENDBRANCH   4   5
ENDBRANCH   3   4
ENDBRANCH   2   3
ENDBRANCH   1   2
BRANCH   1  29
ATOM     29  C   UNL     1       2.678   2.149   3.967  1.00  0.00     0.202 C 
BRANCH  29  30
ATOM     30  C   UNL     1       2.599   2.096   5.495  1.00  0.00     0.261 C 
BRANCH  30  31
ATOM     31  O   UNL     1       1.533   2.926   5.994  1.00  0.00    -0.460 OA
BRANCH  31  32
ATOM     32  C   UNL     1       1.944   4.114   6.502  1.00  0.00     0.338 C 
ATOM     33  O   UNL     1       3.088   4.494   6.653  1.00  0.00    -0.246 OA
BRANCH  32  34
ATOM     34  C   UNL     1       0.782   5.005   6.696  1.00  0.00     0.060 A 
ATOM     35  C   UNL     1       0.894   6.307   6.196  1.00  0.00     0.016 A 
ATOM     36  C   UNL     1      -0.367   4.610   7.385  1.00  0.00     0.016 A 
ATOM     37  C   UNL     1      -0.111   7.237   6.444  1.00  0.00     0.010 A 
ATOM     38  C   UNL     1      -1.391   5.541   7.609  1.00  0.00     0.010 A 
ATOM     39  C   UNL     1      -1.243   6.875   7.187  1.00  0.00    -0.014 A 
BRANCH  39  40
ATOM     40  C   UNL     1      -2.169   7.943   7.645  1.00  0.00     0.031 A 
ATOM     41  C   UNL     1      -2.130   8.386   9.085  1.00  0.00     0.074 A 
ATOM     42  C   UNL     1      -2.969   8.584   6.772  1.00  0.00     0.049 A 
ATOM     43  N   UNL     1      -2.774   9.366   9.669  1.00  0.00    -0.248 NA
ATOM     44  C   UNL     1      -1.248   7.627   9.986  1.00  0.00     0.031 C 
ATOM     45  C   UNL     1      -3.081   8.281   5.346  1.00  0.00     0.029 A 
ATOM     46  N   UNL     1      -3.823   9.643   6.960  1.00  0.00    -0.354 N 
ATOM     47  C   UNL     1      -2.376   9.339  11.001  1.00  0.00     0.074 A 
ATOM     48  C   UNL     1      -1.473   8.219  11.149  1.00  0.00     0.031 C 
ATOM     49  C   UNL     1      -3.937   9.152   4.783  1.00  0.00     0.029 A 
ATOM     50  C   UNL     1      -4.456  10.051   5.812  1.00  0.00     0.049 A 
ATOM     51  H   UNL     1      -3.967  10.070   7.836  1.00  0.00     0.167 HD
ATOM     52  C   UNL     1      -2.716  10.177  12.010  1.00  0.00     0.031 A 
ATOM     53  C   UNL     1      -5.356  11.033   5.611  1.00  0.00     0.031 A 
ATOM     54  C   UNL     1      -3.624  11.285  11.875  1.00  0.00     0.049 A 
ATOM     55  C   UNL     1      -5.776  11.903   6.766  1.00  0.00     0.074 A 
ATOM     56  C   UNL     1      -4.011  12.203  12.836  1.00  0.00     0.029 A 
ATOM     57  N   UNL     1      -4.296  11.619  10.710  1.00  0.00    -0.354 N 
ATOM     58  N   UNL     1      -5.356  11.894   8.008  1.00  0.00    -0.248 NA
ATOM     59  C   UNL     1      -6.791  12.930   6.483  1.00  0.00     0.031 C 
ATOM     60  C   UNL     1      -4.973  13.048  12.272  1.00  0.00     0.029 A 
ATOM     61  C   UNL     1      -5.127  12.704  10.939  1.00  0.00     0.049 A 
ATOM     62  H   UNL     1      -4.198  11.154   9.848  1.00  0.00     0.167 HD
ATOM     63  C   UNL     1      -6.035  12.925   8.647  1.00  0.00     0.074 A 
ATOM     64  C   UNL     1      -6.874  13.556   7.649  1.00  0.00     0.031 C 
ATOM     65  C   UNL     1      -5.970  13.316   9.944  1.00  0.00     0.031 A 
BRANCH  52  66
ATOM     66  C   UNL     1      -2.126   9.900  13.367  1.00  0.00    -0.014 A 
ATOM     67  C   UNL     1      -0.759  10.094  13.627  1.00  0.00     0.009 A 
ATOM     68  C   UNL     1      -2.958   9.469  14.412  1.00  0.00     0.009 A 
ATOM     69  C   UNL     1      -0.234   9.825  14.893  1.00  0.00     0.001 A 
ATOM     70  C   UNL     1      -2.437   9.233  15.685  1.00  0.00     0.001 A 
ATOM     71  C   UNL     1      -1.074   9.400  15.922  1.00  0.00     0.000 A 
ENDBRANCH  52  66
BRANCH  53  72
ATOM     72  C   UNL     1      -5.937  11.245   4.258  1.00  0.00    -0.014 A 
ATOM     73  C   UNL     1      -5.661  12.413   3.529  1.00  0.00     0.009 A 
ATOM     74  C   UNL     1      -6.796  10.286   3.698  1.00  0.00     0.009 A 
ATOM     75  C   UNL     1      -6.254  12.625   2.281  1.00  0.00     0.001 A 
ATOM     76  C   UNL     1      -7.360  10.485   2.437  1.00  0.00     0.001 A 
ATOM     77  C   UNL     1      -7.098  11.659   1.734  1.00  0.00     0.000 A 
ENDBRANCH  53  72
BRANCH  65  78
ATOM     78  C   UNL     1      -6.813  14.495  10.352  1.00  0.00    -0.014 A 
ATOM     79  C   UNL     1      -8.213  14.414  10.404  1.00  0.00     0.009 A 
ATOM     80  C   UNL     1      -6.193  15.703  10.713  1.00  0.00     0.009 A 
ATOM     81  C   UNL     1      -8.976  15.528  10.761  1.00  0.00     0.001 A 
ATOM     82  C   UNL     1      -6.955  16.804  11.105  1.00  0.00     0.001 A 
ATOM     83  C   UNL     1      -8.346  16.721  11.115  1.00  0.00     0.000 A 
ENDBRANCH  65  78
ENDBRANCH  39  40
ENDBRANCH  32  34
ENDBRANCH  31  32
ENDBRANCH  30  31
ENDBRANCH  29  30
ENDBRANCH   1  29
TORSDOF 16
