REMARK SMILES COc1cccc(OCC(=O)N/N=C/c2ccccc2C(=O)OCCOCCOC(=O)c2ccc(-c3c4nc(c(-c5ccccc5)c5ccc([nH]5)c(-c5ccccc5)c5nc(c(-c6ccccc6)c6ccc3[nH]6)C=C5)C=C4)cc2)c1
REMARK SMILES IDX 24 1 23 2 21 3 22 4 20 5 15 6 16 7 17 8 19 9 18 10 14 11
REMARK SMILES IDX 13 12 12 13 10 14 11 15 9 17 8 18 7 19 3 20 4 21 80 22 5 23
REMARK SMILES IDX 6 24 2 25 1 26 25 27 26 28 27 29 28 30 29 31 30 32 31 33
REMARK SMILES IDX 32 34 33 35 79 36 34 37 78 38 35 39 36 40 37 41 72 42 38 43
REMARK SMILES IDX 77 44 71 45 73 46 39 47 76 48 70 49 69 50 40 52 62 53 47 54
REMARK SMILES IDX 61 55 48 56 51 57 60 58 74 59 49 60 50 61 59 63 75 64 52 65
REMARK SMILES IDX 41 66 42 67 46 68 43 69 45 70 44 71 63 72 64 73 68 74 65 75
REMARK SMILES IDX 67 76 66 77 53 78 54 79 58 80 55 81 57 82 56 83
REMARK H PARENT 12 16 73 51 51 62
REMARK Flexibility Score: inf
ROOT
ATOM      1  C   UNL     1       6.170   1.842  -7.147  1.00  0.00     0.261 C 
ENDROOT
BRANCH   1   2
ATOM      2  O   UNL     1       5.676   0.494  -7.131  1.00  0.00    -0.460 OA
BRANCH   2   3
ATOM      3  C   UNL     1       5.366  -0.059  -8.322  1.00  0.00     0.338 C 
ATOM      4  O   UNL     1       5.336   0.522  -9.397  1.00  0.00    -0.246 OA
BRANCH   3   5
ATOM      5  C   UNL     1       5.203  -1.534  -8.206  1.00  0.00     0.068 A 
ATOM      6  C   UNL     1       4.887  -2.226  -7.030  1.00  0.00     0.009 A 
ATOM      7  C   UNL     1       4.746  -3.620  -7.023  1.00  0.00     0.010 A 
ATOM      8  C   UNL     1       4.966  -4.342  -8.194  1.00  0.00     0.001 A 
ATOM      9  C   UNL     1       5.438  -2.282  -9.371  1.00  0.00     0.016 A 
ATOM     10  C   UNL     1       5.335  -3.676  -9.361  1.00  0.00     0.001 A 
BRANCH   6  11
ATOM     11  C   UNL     1       4.872  -1.571  -5.724  1.00  0.00     0.142 C 
ATOM     12  N   UNL     1       3.816  -0.999  -5.255  1.00  0.00    -0.181 NA
BRANCH  12  13
ATOM     13  N   UNL     1       3.954  -0.439  -4.021  1.00  0.00    -0.244 N 
ATOM     14  C   UNL     1       4.338  -1.052  -2.853  1.00  0.00     0.277 C 
ATOM     15  O   UNL     1       4.325  -0.401  -1.804  1.00  0.00    -0.269 OA
ATOM     16  H   UNL     1       3.754   0.523  -3.958  1.00  0.00     0.193 HD
BRANCH  14  17
ATOM     17  C   UNL     1       4.748  -2.537  -2.842  1.00  0.00     0.331 C 
BRANCH  17  18
ATOM     18  O   UNL     1       3.834  -3.485  -3.391  1.00  0.00    -0.484 OA
BRANCH  18  19
ATOM     19  C   UNL     1       2.550  -3.345  -2.930  1.00  0.00     0.123 A 
ATOM     20  C   UNL     1       0.932  -2.581  -1.306  1.00  0.00     0.122 A 
ATOM     21  C   UNL     1      -0.100  -2.865  -2.196  1.00  0.00     0.046 A 
ATOM     22  C   UNL     1       2.243  -2.898  -1.647  1.00  0.00     0.092 A 
ATOM     23  C   UNL     1       0.193  -3.407  -3.451  1.00  0.00     0.008 A 
ATOM     24  C   UNL     1       1.521  -3.633  -3.823  1.00  0.00     0.047 A 
BRANCH  20  25
ATOM     25  O   UNL     1       0.609  -2.023  -0.100  1.00  0.00    -0.497 OA
ATOM     26  C   UNL     1       1.468  -0.933   0.253  1.00  0.00     0.278 C 
ENDBRANCH  20  25
ENDBRANCH  18  19
ENDBRANCH  17  18
ENDBRANCH  14  17
ENDBRANCH  12  13
ENDBRANCH   6  11
ENDBRANCH   3   5
ENDBRANCH   2   3
ENDBRANCH   1   2
BRANCH   1  27
ATOM     27  C   UNL     1       7.531   1.884  -6.451  1.00  0.00     0.202 C 
BRANCH  27  28
ATOM     28  O   UNL     1       8.578   1.207  -7.148  1.00  0.00    -0.374 OA
BRANCH  28  29
ATOM     29  C   UNL     1       8.650  -0.210  -6.989  1.00  0.00     0.202 C 
BRANCH  29  30
ATOM     30  C   UNL     1       9.374  -0.696  -5.729  1.00  0.00     0.261 C 
BRANCH  30  31
ATOM     31  O   UNL     1       8.627  -0.414  -4.530  1.00  0.00    -0.460 OA
BRANCH  31  32
ATOM     32  C   UNL     1       9.115   0.605  -3.781  1.00  0.00     0.338 C 
ATOM     33  O   UNL     1      10.116   1.273  -3.995  1.00  0.00    -0.246 OA
BRANCH  32  34
ATOM     34  C   UNL     1       8.172   0.917  -2.694  1.00  0.00     0.060 A 
ATOM     35  C   UNL     1       7.696   2.230  -2.581  1.00  0.00     0.016 A 
ATOM     36  C   UNL     1       7.826  -0.047  -1.748  1.00  0.00     0.016 A 
ATOM     37  C   UNL     1       6.884   2.593  -1.504  1.00  0.00     0.010 A 
ATOM     38  C   UNL     1       7.023   0.322  -0.665  1.00  0.00     0.010 A 
ATOM     39  C   UNL     1       6.561   1.647  -0.524  1.00  0.00    -0.014 A 
BRANCH  39  40
ATOM     40  C   UNL     1       5.886   2.044   0.740  1.00  0.00     0.031 A 
ATOM     41  C   UNL     1       6.720   2.106   1.993  1.00  0.00     0.074 A 
ATOM     42  C   UNL     1       4.569   2.323   0.790  1.00  0.00     0.049 A 
ATOM     43  N   UNL     1       6.345   2.238   3.239  1.00  0.00    -0.248 NA
ATOM     44  C   UNL     1       8.180   2.000   1.812  1.00  0.00     0.031 C 
ATOM     45  C   UNL     1       3.665   2.393  -0.358  1.00  0.00     0.029 A 
ATOM     46  N   UNL     1       3.753   2.586   1.866  1.00  0.00    -0.354 N 
ATOM     47  C   UNL     1       7.516   2.205   3.988  1.00  0.00     0.074 A 
ATOM     48  C   UNL     1       8.611   2.018   3.064  1.00  0.00     0.031 C 
ATOM     49  C   UNL     1       2.420   2.667   0.074  1.00  0.00     0.029 A 
ATOM     50  C   UNL     1       2.426   2.737   1.532  1.00  0.00     0.049 A 
ATOM     51  H   UNL     1       4.087   2.659   2.789  1.00  0.00     0.167 HD
ATOM     52  C   UNL     1       7.662   2.327   5.328  1.00  0.00     0.031 A 
ATOM     53  C   UNL     1       1.339   2.872   2.318  1.00  0.00     0.031 A 
ATOM     54  C   UNL     1       6.568   2.519   6.239  1.00  0.00     0.049 A 
ATOM     55  C   UNL     1       1.519   2.845   3.814  1.00  0.00     0.074 A 
ATOM     56  C   UNL     1       6.605   2.678   7.613  1.00  0.00     0.029 A 
ATOM     57  N   UNL     1       5.235   2.576   5.862  1.00  0.00    -0.354 N 
ATOM     58  N   UNL     1       2.626   2.783   4.515  1.00  0.00    -0.248 NA
ATOM     59  C   UNL     1       0.294   2.890   4.626  1.00  0.00     0.031 C 
ATOM     60  C   UNL     1       5.290   2.779   8.074  1.00  0.00     0.029 A 
ATOM     61  C   UNL     1       4.438   2.740   6.980  1.00  0.00     0.049 A 
ATOM     62  H   UNL     1       4.905   2.509   4.937  1.00  0.00     0.167 HD
ATOM     63  C   UNL     1       2.233   2.833   5.847  1.00  0.00     0.074 A 
ATOM     64  C   UNL     1       0.787   2.913   5.856  1.00  0.00     0.031 C 
ATOM     65  C   UNL     1       3.002   2.833   6.962  1.00  0.00     0.031 A 
BRANCH  52  66
ATOM     66  C   UNL     1       9.052   2.224   5.892  1.00  0.00    -0.014 A 
ATOM     67  C   UNL     1       9.994   3.248   5.707  1.00  0.00     0.009 A 
ATOM     68  C   UNL     1       9.410   1.102   6.656  1.00  0.00     0.009 A 
ATOM     69  C   UNL     1      11.276   3.136   6.251  1.00  0.00     0.001 A 
ATOM     70  C   UNL     1      10.683   1.005   7.221  1.00  0.00     0.001 A 
ATOM     71  C   UNL     1      11.617   2.018   7.011  1.00  0.00     0.000 A 
ENDBRANCH  52  66
BRANCH  53  72
ATOM     72  C   UNL     1      -0.028   2.998   1.739  1.00  0.00    -0.014 A 
ATOM     73  C   UNL     1      -0.724   4.214   1.794  1.00  0.00     0.009 A 
ATOM     74  C   UNL     1      -0.681   1.886   1.192  1.00  0.00     0.009 A 
ATOM     75  C   UNL     1      -2.040   4.301   1.322  1.00  0.00     0.001 A 
ATOM     76  C   UNL     1      -1.981   1.978   0.692  1.00  0.00     0.001 A 
ATOM     77  C   UNL     1      -2.664   3.186   0.765  1.00  0.00     0.000 A 
ENDBRANCH  53  72
BRANCH  65  78
ATOM     78  C   UNL     1       2.306   3.001   8.281  1.00  0.00    -0.014 A 
ATOM     79  C   UNL     1       1.601   1.947   8.880  1.00  0.00     0.009 A 
ATOM     80  C   UNL     1       2.419   4.224   8.963  1.00  0.00     0.009 A 
ATOM     81  C   UNL     1       1.005   2.123  10.130  1.00  0.00     0.001 A 
ATOM     82  C   UNL     1       1.845   4.388  10.223  1.00  0.00     0.001 A 
ATOM     83  C   UNL     1       1.134   3.339  10.803  1.00  0.00     0.000 A 
ENDBRANCH  65  78
ENDBRANCH  39  40
ENDBRANCH  32  34
ENDBRANCH  31  32
ENDBRANCH  30  31
ENDBRANCH  29  30
ENDBRANCH  28  29
ENDBRANCH  27  28
ENDBRANCH   1  27
TORSDOF 20
