REMARK SMILES C=CCN1C(=O)/C(=C/c2ccccn2)S/C1=[NH+]\c1ccc(C(=O)OCCOCCOC(=O)c2ccc(-c3c4nc(c(-c5ccccc5)c5ccc([nH]5)c(-c5ccccc5)c5nc(c(-c6ccccc6)c6ccc3[nH]6)C=C5)C=C4)cc2)cc1
REMARK SMILES IDX 26 1 25 2 24 3 22 4 23 5 21 6 18 7 19 8 82 9 20 10 81 11
REMARK SMILES IDX 17 12 4 13 5 14 16 15 6 16 7 17 15 18 8 19 3 21 2 22 1 23
REMARK SMILES IDX 9 24 10 25 14 26 11 27 13 28 12 29 27 30 28 31 29 32 30 33
REMARK SMILES IDX 31 34 32 35 33 36 34 37 80 38 35 39 79 40 36 41 37 42 38 43
REMARK SMILES IDX 73 44 39 45 78 46 72 47 74 48 40 49 77 50 71 51 70 52 41 54
REMARK SMILES IDX 63 55 48 56 62 57 49 58 52 59 61 60 75 61 50 62 51 63 60 65
REMARK SMILES IDX 76 66 53 67 42 68 43 69 47 70 44 71 46 72 45 73 64 74 65 75
REMARK SMILES IDX 69 76 66 77 68 78 67 79 54 80 55 81 59 82 56 83 58 84 57 85
REMARK H PARENT 17 20 74 53 52 64
REMARK Flexibility Score: inf
ROOT
ATOM      1  C   UNL     1      -3.409  -9.418   4.514  1.00  0.00     0.202 C 
ENDROOT
BRANCH   1   2
ATOM      2  C   UNL     1      -3.010  -8.352   5.537  1.00  0.00     0.261 C 
BRANCH   2   3
ATOM      3  O   UNL     1      -3.072  -7.039   4.958  1.00  0.00    -0.460 OA
BRANCH   3   4
ATOM      4  C   UNL     1      -1.872  -6.436   4.786  1.00  0.00     0.338 C 
ATOM      5  O   UNL     1      -0.795  -6.822   5.216  1.00  0.00    -0.246 OA
BRANCH   4   6
ATOM      6  C   UNL     1      -1.998  -5.268   3.882  1.00  0.00     0.060 A 
ATOM      7  C   UNL     1      -2.024  -2.950   2.318  1.00  0.00     0.125 A 
ATOM      8  C   UNL     1      -0.862  -3.717   2.411  1.00  0.00     0.052 A 
ATOM      9  C   UNL     1      -3.208  -3.417   2.905  1.00  0.00     0.052 A 
ATOM     10  C   UNL     1      -0.846  -4.868   3.195  1.00  0.00     0.020 A 
ATOM     11  C   UNL     1      -3.195  -4.565   3.704  1.00  0.00     0.020 A 
BRANCH   7  12
ATOM     12  N   UNL     1      -1.940  -1.686   1.715  1.00  0.00    -0.234 N 
ATOM     13  N   UNL     1      -1.761   0.638   2.014  1.00  0.00    -0.182 N 
ATOM     14  C   UNL     1      -1.920   1.662   2.927  1.00  0.00     0.349 C 
ATOM     15  C   UNL     1      -1.924  -0.640   2.480  1.00  0.00     0.324 C 
ATOM     16  O   UNL     1      -1.837   2.860   2.697  1.00  0.00    -0.240 OA
ATOM     17  C   UNL     1      -2.196   1.100   4.278  1.00  0.00     0.111 C 
ATOM     18  S   UNL     1      -2.090  -0.610   4.226  1.00  0.00     0.007 SA
ATOM     19  C   UNL     1      -2.514   1.858   5.335  1.00  0.00     0.052 C 
ATOM     20  H   UNL     1      -1.895  -1.596   0.735  1.00  0.00     0.313 HD
BRANCH  13  21
ATOM     21  C   UNL     1      -1.381   0.920   0.644  1.00  0.00     0.275 C 
BRANCH  21  22
ATOM     22  C   UNL     1       0.124   0.940   0.569  1.00  0.00     0.011 C 
ATOM     23  C   UNL     1       0.869   0.039  -0.087  1.00  0.00     0.008 C 
ENDBRANCH  21  22
ENDBRANCH  13  21
BRANCH  19  24
ATOM     24  C   UNL     1      -2.810   1.356   6.678  1.00  0.00     0.064 A 
ATOM     25  C   UNL     1      -1.878   0.631   7.417  1.00  0.00     0.028 A 
ATOM     26  N   UNL     1      -4.035   1.671   7.152  1.00  0.00    -0.257 NA
ATOM     27  C   UNL     1      -2.233   0.177   8.684  1.00  0.00     0.004 A 
ATOM     28  C   UNL     1      -4.353   1.216   8.385  1.00  0.00     0.111 A 
ATOM     29  C   UNL     1      -3.497   0.470   9.179  1.00  0.00     0.020 A 
ENDBRANCH  19  24
ENDBRANCH   7  12
ENDBRANCH   4   6
ENDBRANCH   3   4
ENDBRANCH   2   3
ENDBRANCH   1   2
BRANCH   1  30
ATOM     30  O   UNL     1      -2.558  -9.540   3.375  1.00  0.00    -0.374 OA
BRANCH  30  31
ATOM     31  C   UNL     1      -2.761  -8.613   2.307  1.00  0.00     0.202 C 
BRANCH  31  32
ATOM     32  C   UNL     1      -3.929  -8.917   1.362  1.00  0.00     0.261 C 
BRANCH  32  33
ATOM     33  O   UNL     1      -5.201  -8.753   2.017  1.00  0.00    -0.460 OA
BRANCH  33  34
ATOM     34  C   UNL     1      -5.881  -9.901   2.237  1.00  0.00     0.338 C 
ATOM     35  O   UNL     1      -5.579 -11.027   1.866  1.00  0.00    -0.246 OA
BRANCH  34  36
ATOM     36  C   UNL     1      -6.998  -9.654   3.168  1.00  0.00     0.060 A 
ATOM     37  C   UNL     1      -7.100 -10.487   4.290  1.00  0.00     0.016 A 
ATOM     38  C   UNL     1      -7.965  -8.678   2.919  1.00  0.00     0.016 A 
ATOM     39  C   UNL     1      -8.198 -10.382   5.140  1.00  0.00     0.010 A 
ATOM     40  C   UNL     1      -9.072  -8.580   3.769  1.00  0.00     0.010 A 
ATOM     41  C   UNL     1      -9.211  -9.455   4.862  1.00  0.00    -0.014 A 
BRANCH  41  42
ATOM     42  C   UNL     1     -10.479  -9.505   5.627  1.00  0.00     0.031 A 
ATOM     43  C   UNL     1     -11.664 -10.214   5.031  1.00  0.00     0.074 A 
ATOM     44  C   UNL     1     -10.567  -8.960   6.853  1.00  0.00     0.049 A 
ATOM     45  N   UNL     1     -12.871 -10.363   5.514  1.00  0.00    -0.248 NA
ATOM     46  C   UNL     1     -11.459 -10.843   3.715  1.00  0.00     0.031 C 
ATOM     47  C   UNL     1      -9.478  -8.292   7.564  1.00  0.00     0.029 A 
ATOM     48  N   UNL     1     -11.631  -8.886   7.717  1.00  0.00    -0.354 N 
ATOM     49  C   UNL     1     -13.568 -11.100   4.565  1.00  0.00     0.074 A 
ATOM     50  C   UNL     1     -12.661 -11.340   3.463  1.00  0.00     0.031 C 
ATOM     51  C   UNL     1      -9.932  -7.873   8.759  1.00  0.00     0.029 A 
ATOM     52  C   UNL     1     -11.348  -8.214   8.880  1.00  0.00     0.049 A 
ATOM     53  H   UNL     1     -12.512  -9.277   7.521  1.00  0.00     0.167 HD
ATOM     54  C   UNL     1     -14.846 -11.545   4.607  1.00  0.00     0.031 A 
ATOM     55  C   UNL     1     -12.146  -7.895   9.917  1.00  0.00     0.031 A 
ATOM     56  C   UNL     1     -15.758 -11.293   5.691  1.00  0.00     0.049 A 
ATOM     57  C   UNL     1     -13.591  -8.318   9.896  1.00  0.00     0.074 A 
ATOM     58  C   UNL     1     -17.074 -11.699   5.823  1.00  0.00     0.029 A 
ATOM     59  N   UNL     1     -15.447 -10.563   6.826  1.00  0.00    -0.354 N 
ATOM     60  N   UNL     1     -14.234  -9.024   8.998  1.00  0.00    -0.248 NA
ATOM     61  C   UNL     1     -14.418  -7.902  11.039  1.00  0.00     0.031 C 
ATOM     62  C   UNL     1     -17.575 -11.172   7.018  1.00  0.00     0.029 A 
ATOM     63  C   UNL     1     -16.554 -10.486   7.655  1.00  0.00     0.049 A 
ATOM     64  H   UNL     1     -14.570 -10.158   7.016  1.00  0.00     0.167 HD
ATOM     65  C   UNL     1     -15.530  -9.163   9.482  1.00  0.00     0.074 A 
ATOM     66  C   UNL     1     -15.578  -8.478  10.757  1.00  0.00     0.031 C 
ATOM     67  C   UNL     1     -16.585  -9.803   8.922  1.00  0.00     0.031 A 
BRANCH  54  68
ATOM     68  C   UNL     1     -15.341 -12.331   3.426  1.00  0.00    -0.014 A 
ATOM     69  C   UNL     1     -14.908 -13.646   3.195  1.00  0.00     0.009 A 
ATOM     70  C   UNL     1     -16.277 -11.759   2.550  1.00  0.00     0.009 A 
ATOM     71  C   UNL     1     -15.378 -14.361   2.091  1.00  0.00     0.001 A 
ATOM     72  C   UNL     1     -16.765 -12.485   1.463  1.00  0.00     0.001 A 
ATOM     73  C   UNL     1     -16.309 -13.782   1.229  1.00  0.00     0.000 A 
ENDBRANCH  54  68
BRANCH  55  74
ATOM     74  C   UNL     1     -11.609  -7.116  11.063  1.00  0.00    -0.014 A 
ATOM     75  C   UNL     1     -11.461  -7.710  12.325  1.00  0.00     0.009 A 
ATOM     76  C   UNL     1     -11.274  -5.761  10.906  1.00  0.00     0.009 A 
ATOM     77  C   UNL     1     -11.015  -6.956  13.414  1.00  0.00     0.001 A 
ATOM     78  C   UNL     1     -10.802  -5.018  11.990  1.00  0.00     0.001 A 
ATOM     79  C   UNL     1     -10.683  -5.612  13.244  1.00  0.00     0.000 A 
ENDBRANCH  55  74
BRANCH  67  80
ATOM     80  C   UNL     1     -17.869  -9.830   9.703  1.00  0.00    -0.014 A 
ATOM     81  C   UNL     1     -18.670  -8.685   9.830  1.00  0.00     0.009 A 
ATOM     82  C   UNL     1     -18.300 -11.032  10.286  1.00  0.00     0.009 A 
ATOM     83  C   UNL     1     -19.863  -8.737  10.555  1.00  0.00     0.001 A 
ATOM     84  C   UNL     1     -19.506 -11.087  10.986  1.00  0.00     0.001 A 
ATOM     85  C   UNL     1     -20.282  -9.938  11.128  1.00  0.00     0.000 A 
ENDBRANCH  67  80
ENDBRANCH  41  42
ENDBRANCH  34  36
ENDBRANCH  33  34
ENDBRANCH  32  33
ENDBRANCH  31  32
ENDBRANCH  30  31
ENDBRANCH   1  30
TORSDOF 18
