REMARK SMILES CC[C@H](NC(=O)c1nn(C)cc1C(=O)OCCOCCOC(=O)c1ccc(-c2c3nc(c(-c4ccccc4)c4ccc([nH]4)c(-c4ccccc4)c4nc(c(-c5ccccc5)c5ccc2[nH]5)C=C4)C=C3)cc1)c1ccccc1
REMARK SMILES IDX 17 1 16 2 15 3 13 4 14 5 12 6 7 7 8 8 9 9 11 10 10 11 5 12
REMARK SMILES IDX 4 13 6 15 3 16 2 17 1 18 72 19 73 20 77 21 74 22 76 23 75 24
REMARK SMILES IDX 18 25 19 26 20 27 21 28 22 29 23 30 24 31 25 32 71 33 26 34
REMARK SMILES IDX 70 35 27 36 28 37 29 38 64 39 30 40 69 41 63 42 65 43 31 44
REMARK SMILES IDX 68 45 62 46 61 47 32 49 54 50 39 51 53 52 40 53 43 54 52 55
REMARK SMILES IDX 66 56 41 57 42 58 51 60 67 61 44 62 33 63 34 64 38 65 35 66
REMARK SMILES IDX 37 67 36 68 55 69 56 70 60 71 57 72 59 73 58 74 45 75 46 76
REMARK SMILES IDX 50 77 47 78 49 79 48 80
REMARK H PARENT 4 14 65 48 43 59
REMARK Flexibility Score: inf
ROOT
ATOM      1  C   UNL     1      -1.415   0.689   5.770  1.00  0.00     0.202 C 
ENDROOT
BRANCH   1   2
ATOM      2  C   UNL     1      -2.304   0.574   4.521  1.00  0.00     0.261 C 
BRANCH   2   3
ATOM      3  O   UNL     1      -2.394  -0.798   4.076  1.00  0.00    -0.460 OA
BRANCH   3   4
ATOM      4  C   UNL     1      -2.729  -0.960   2.754  1.00  0.00     0.342 C 
ATOM      5  O   UNL     1      -2.954  -0.041   1.986  1.00  0.00    -0.246 OA
BRANCH   4   6
ATOM      6  C   UNL     1      -2.696  -2.350   2.347  1.00  0.00     0.111 A 
ATOM      7  C   UNL     1      -2.212  -2.891   1.119  1.00  0.00     0.164 A 
ATOM      8  N   UNL     1      -2.334  -4.233   1.098  1.00  0.00    -0.167 NA
ATOM      9  N   UNL     1      -2.836  -4.542   2.300  1.00  0.00    -0.274 N 
ATOM     10  C   UNL     1      -3.072  -3.456   3.089  1.00  0.00     0.125 A 
ATOM     11  C   UNL     1      -3.042  -5.932   2.629  1.00  0.00     0.173 C 
BRANCH   7  12
ATOM     12  C   UNL     1      -1.659  -2.193  -0.038  1.00  0.00     0.273 C 
ATOM     13  N   UNL     1      -0.299  -2.081  -0.201  1.00  0.00    -0.344 N 
ATOM     14  H   UNL     1      -0.041  -1.919  -1.138  1.00  0.00     0.164 HD
ATOM     15  O   UNL     1      -2.380  -1.756  -0.936  1.00  0.00    -0.267 OA
BRANCH  13  16
ATOM     16  C   UNL     1       0.850  -2.147   0.696  1.00  0.00     0.112 C 
BRANCH  16  17
ATOM     17  C   UNL     1       1.301  -0.750   1.210  1.00  0.00     0.026 C 
ATOM     18  C   UNL     1       0.263   0.365   1.245  1.00  0.00     0.006 C 
ENDBRANCH  16  17
BRANCH  16  19
ATOM     19  C   UNL     1       0.912  -3.313   1.672  1.00  0.00    -0.026 A 
ATOM     20  C   UNL     1       0.392  -3.261   2.968  1.00  0.00     0.006 A 
ATOM     21  C   UNL     1       1.518  -4.519   1.280  1.00  0.00     0.006 A 
ATOM     22  C   UNL     1       0.461  -4.350   3.845  1.00  0.00     0.000 A 
ATOM     23  C   UNL     1       1.597  -5.612   2.151  1.00  0.00     0.000 A 
ATOM     24  C   UNL     1       1.067  -5.529   3.434  1.00  0.00     0.000 A 
ENDBRANCH  16  19
ENDBRANCH  13  16
ENDBRANCH   7  12
ENDBRANCH   4   6
ENDBRANCH   3   4
ENDBRANCH   2   3
ENDBRANCH   1   2
BRANCH   1  25
ATOM     25  O   UNL     1      -0.002   0.700   5.511  1.00  0.00    -0.374 OA
BRANCH  25  26
ATOM     26  C   UNL     1       0.481  -0.515   4.944  1.00  0.00     0.202 C 
BRANCH  26  27
ATOM     27  C   UNL     1       1.996  -0.677   5.096  1.00  0.00     0.261 C 
BRANCH  27  28
ATOM     28  O   UNL     1       2.254  -1.081   6.444  1.00  0.00    -0.460 OA
BRANCH  28  29
ATOM     29  C   UNL     1       2.337  -0.022   7.279  1.00  0.00     0.338 C 
ATOM     30  O   UNL     1       2.976   0.999   7.090  1.00  0.00    -0.246 OA
BRANCH  29  31
ATOM     31  C   UNL     1       1.350  -0.209   8.364  1.00  0.00     0.060 A 
ATOM     32  C   UNL     1       0.806   0.946   8.932  1.00  0.00     0.016 A 
ATOM     33  C   UNL     1       0.926  -1.478   8.785  1.00  0.00     0.016 A 
ATOM     34  C   UNL     1      -0.098   0.839   9.979  1.00  0.00     0.010 A 
ATOM     35  C   UNL     1       0.008  -1.586   9.828  1.00  0.00     0.010 A 
ATOM     36  C   UNL     1      -0.460  -0.426  10.462  1.00  0.00    -0.014 A 
BRANCH  36  37
ATOM     37  C   UNL     1      -1.133  -0.503  11.773  1.00  0.00     0.031 A 
ATOM     38  C   UNL     1      -0.274  -0.691  12.991  1.00  0.00     0.074 A 
ATOM     39  C   UNL     1      -2.458  -0.309  11.881  1.00  0.00     0.049 A 
ATOM     40  N   UNL     1      -0.608  -0.639  14.254  1.00  0.00    -0.248 NA
ATOM     41  C   UNL     1       1.155  -0.962  12.755  1.00  0.00     0.031 C 
ATOM     42  C   UNL     1      -3.379  -0.091  10.767  1.00  0.00     0.029 A 
ATOM     43  N   UNL     1      -3.251  -0.240  12.996  1.00  0.00    -0.354 N 
ATOM     44  C   UNL     1       0.570  -0.853  14.958  1.00  0.00     0.074 A 
ATOM     45  C   UNL     1       1.617  -1.082  13.990  1.00  0.00     0.031 C 
ATOM     46  C   UNL     1      -4.615   0.107  11.258  1.00  0.00     0.029 A 
ATOM     47  C   UNL     1      -4.568   0.021  12.716  1.00  0.00     0.049 A 
ATOM     48  H   UNL     1      -2.908  -0.366  13.911  1.00  0.00     0.167 HD
ATOM     49  C   UNL     1       0.767  -0.841  16.296  1.00  0.00     0.031 A 
ATOM     50  C   UNL     1      -5.612   0.183  13.551  1.00  0.00     0.031 A 
ATOM     51  C   UNL     1      -0.276  -0.630  17.257  1.00  0.00     0.049 A 
ATOM     52  C   UNL     1      -5.377   0.124  15.037  1.00  0.00     0.074 A 
ATOM     53  C   UNL     1      -0.184  -0.591  18.636  1.00  0.00     0.029 A 
ATOM     54  N   UNL     1      -1.608  -0.431  16.933  1.00  0.00    -0.354 N 
ATOM     55  N   UNL     1      -4.250  -0.029  15.690  1.00  0.00    -0.248 NA
ATOM     56  C   UNL     1      -6.558   0.273  15.898  1.00  0.00     0.031 C 
ATOM     57  C   UNL     1      -1.473  -0.413  19.150  1.00  0.00     0.029 A 
ATOM     58  C   UNL     1      -2.357  -0.297  18.087  1.00  0.00     0.049 A 
ATOM     59  H   UNL     1      -1.968  -0.391  16.017  1.00  0.00     0.167 HD
ATOM     60  C   UNL     1      -4.583   0.028  17.038  1.00  0.00     0.074 A 
ATOM     61  C   UNL     1      -6.014   0.245  17.107  1.00  0.00     0.031 C 
ATOM     62  C   UNL     1      -3.780  -0.086  18.123  1.00  0.00     0.031 A 
BRANCH  49  63
ATOM     63  C   UNL     1       2.164  -1.088  16.782  1.00  0.00    -0.014 A 
ATOM     64  C   UNL     1       3.156  -0.102  16.668  1.00  0.00     0.009 A 
ATOM     65  C   UNL     1       2.491  -2.321  17.366  1.00  0.00     0.009 A 
ATOM     66  C   UNL     1       4.458  -0.356  17.106  1.00  0.00     0.001 A 
ATOM     67  C   UNL     1       3.788  -2.564  17.822  1.00  0.00     0.001 A 
ATOM     68  C   UNL     1       4.771  -1.585  17.685  1.00  0.00     0.000 A 
ENDBRANCH  49  63
BRANCH  50  69
ATOM     69  C   UNL     1      -6.973   0.423  13.008  1.00  0.00    -0.014 A 
ATOM     70  C   UNL     1      -7.591   1.675  13.146  1.00  0.00     0.009 A 
ATOM     71  C   UNL     1      -7.671  -0.612  12.367  1.00  0.00     0.009 A 
ATOM     72  C   UNL     1      -8.891   1.877  12.675  1.00  0.00     0.001 A 
ATOM     73  C   UNL     1      -8.961  -0.400  11.876  1.00  0.00     0.001 A 
ATOM     74  C   UNL     1      -9.573   0.841  12.039  1.00  0.00     0.000 A 
ENDBRANCH  50  69
BRANCH  62  75
ATOM     75  C   UNL     1      -4.429   0.038  19.470  1.00  0.00    -0.014 A 
ATOM     76  C   UNL     1      -5.197  -1.008  20.001  1.00  0.00     0.009 A 
ATOM     77  C   UNL     1      -4.226   1.197  20.236  1.00  0.00     0.009 A 
ATOM     78  C   UNL     1      -5.776  -0.884  21.265  1.00  0.00     0.001 A 
ATOM     79  C   UNL     1      -4.786   1.307  21.509  1.00  0.00     0.001 A 
ATOM     80  C   UNL     1      -5.567   0.270  22.018  1.00  0.00     0.000 A 
ENDBRANCH  62  75
ENDBRANCH  36  37
ENDBRANCH  29  31
ENDBRANCH  28  29
ENDBRANCH  27  28
ENDBRANCH  26  27
ENDBRANCH  25  26
ENDBRANCH   1  25
TORSDOF 18
