REMARK SMILES O=C(OCCOCCOC(=O)[C@@H](Cc1ccc(O)cc1)Nc1c2ccccc2nc2ccccc12)c1ccc(-c2c3nc(c(-c4ccccc4)c4ccc([nH]4)c(-c4ccccc4)c4nc(c(-c5ccccc5)c5ccc2[nH]5)C=C4)C=C3)cc1
REMARK SMILES IDX 7 1 6 2 5 3 4 4 3 5 2 6 1 7 36 8 37 9 83 10 38 11 82 12
REMARK SMILES IDX 39 13 40 14 41 15 76 16 42 17 81 18 75 19 77 20 43 21 80 22
REMARK SMILES IDX 74 23 73 24 44 26 66 27 51 28 65 29 52 30 55 31 64 32 78 33
REMARK SMILES IDX 53 34 54 35 63 37 79 38 56 39 45 40 46 41 50 42 47 43 49 44
REMARK SMILES IDX 48 45 67 46 68 47 72 48 69 49 71 50 70 51 57 52 58 53 62 54
REMARK SMILES IDX 59 55 61 56 60 57 8 58 9 59 10 60 11 61 12 62 13 63 14 64
REMARK SMILES IDX 15 65 20 66 16 67 19 68 17 69 18 70 21 72 22 74 23 75 35 76
REMARK SMILES IDX 24 77 28 78 30 79 34 80 25 81 27 82 29 83 31 84 33 85 26 86
REMARK SMILES IDX 32 87
REMARK H PARENT 77 25 55 36 18 71 21 73
REMARK Flexibility Score: inf
ROOT
ATOM      1  C   UNL     1       2.980  -0.323  -2.053  1.00  0.00     0.202 C 
ENDROOT
BRANCH   1   2
ATOM      2  O   UNL     1       4.332  -0.194  -1.597  1.00  0.00    -0.374 OA
BRANCH   2   3
ATOM      3  C   UNL     1       4.750  -1.061  -0.542  1.00  0.00     0.202 C 
BRANCH   3   4
ATOM      4  C   UNL     1       4.482  -0.626   0.911  1.00  0.00     0.261 C 
BRANCH   4   5
ATOM      5  O   UNL     1       3.091  -0.343   1.142  1.00  0.00    -0.460 OA
BRANCH   5   6
ATOM      6  C   UNL     1       2.435   0.837   1.051  1.00  0.00     0.338 C 
ATOM      7  O   UNL     1       1.235   0.861   1.319  1.00  0.00    -0.246 OA
BRANCH   6   8
ATOM      8  C   UNL     1       3.084   2.107   0.608  1.00  0.00     0.060 A 
ATOM      9  C   UNL     1       4.323   2.184  -0.023  1.00  0.00     0.016 A 
ATOM     10  C   UNL     1       2.368   3.305   0.787  1.00  0.00     0.016 A 
ATOM     11  C   UNL     1       4.851   3.372  -0.464  1.00  0.00     0.010 A 
ATOM     12  C   UNL     1       2.895   4.526   0.354  1.00  0.00     0.010 A 
ATOM     13  C   UNL     1       4.145   4.546  -0.264  1.00  0.00    -0.014 A 
BRANCH  13  14
ATOM     14  C   UNL     1       4.894   5.760  -0.585  1.00  0.00     0.031 A 
ATOM     15  C   UNL     1       5.692   6.378   0.515  1.00  0.00     0.074 A 
ATOM     16  C   UNL     1       5.076   6.071  -1.879  1.00  0.00     0.049 A 
ATOM     17  N   UNL     1       6.503   7.396   0.472  1.00  0.00    -0.248 NA
ATOM     18  C   UNL     1       5.598   5.731   1.839  1.00  0.00     0.031 C 
ATOM     19  C   UNL     1       4.504   5.334  -3.012  1.00  0.00     0.029 A 
ATOM     20  N   UNL     1       5.852   7.031  -2.460  1.00  0.00    -0.354 N 
ATOM     21  C   UNL     1       6.989   7.533   1.764  1.00  0.00     0.074 A 
ATOM     22  C   UNL     1       6.409   6.482   2.566  1.00  0.00     0.031 C 
ATOM     23  C   UNL     1       4.975   5.857  -4.155  1.00  0.00     0.029 A 
ATOM     24  C   UNL     1       5.815   7.004  -3.832  1.00  0.00     0.049 A 
ATOM     25  H   UNL     1       6.386   7.679  -1.946  1.00  0.00     0.167 HD
ATOM     26  C   UNL     1       7.826   8.483   2.233  1.00  0.00     0.031 A 
ATOM     27  C   UNL     1       6.374   7.850  -4.714  1.00  0.00     0.031 A 
ATOM     28  C   UNL     1       8.349   9.528   1.400  1.00  0.00     0.049 A 
ATOM     29  C   UNL     1       7.178   8.988  -4.153  1.00  0.00     0.074 A 
ATOM     30  C   UNL     1       9.088  10.639   1.754  1.00  0.00     0.029 A 
ATOM     31  N   UNL     1       8.173   9.576   0.022  1.00  0.00    -0.354 N 
ATOM     32  N   UNL     1       7.524   9.214  -2.905  1.00  0.00    -0.248 NA
ATOM     33  C   UNL     1       7.643  10.001  -5.104  1.00  0.00     0.031 C 
ATOM     34  C   UNL     1       9.319  11.384   0.591  1.00  0.00     0.029 A 
ATOM     35  C   UNL     1       8.771  10.709  -0.492  1.00  0.00     0.049 A 
ATOM     36  H   UNL     1       7.692   8.901  -0.510  1.00  0.00     0.167 HD
ATOM     37  C   UNL     1       8.247  10.396  -2.918  1.00  0.00     0.074 A 
ATOM     38  C   UNL     1       8.313  10.822  -4.305  1.00  0.00     0.031 C 
ATOM     39  C   UNL     1       8.798  11.080  -1.885  1.00  0.00     0.031 A 
BRANCH  26  40
ATOM     40  C   UNL     1       8.083   8.482   3.710  1.00  0.00    -0.014 A 
ATOM     41  C   UNL     1       8.919   7.532   4.318  1.00  0.00     0.009 A 
ATOM     42  C   UNL     1       7.402   9.404   4.520  1.00  0.00     0.009 A 
ATOM     43  C   UNL     1       9.036   7.484   5.710  1.00  0.00     0.001 A 
ATOM     44  C   UNL     1       7.537   9.368   5.908  1.00  0.00     0.001 A 
ATOM     45  C   UNL     1       8.345   8.401   6.503  1.00  0.00     0.000 A 
ENDBRANCH  26  40
BRANCH  27  46
ATOM     46  C   UNL     1       6.105   7.707  -6.169  1.00  0.00    -0.014 A 
ATOM     47  C   UNL     1       7.132   7.426  -7.080  1.00  0.00     0.009 A 
ATOM     48  C   UNL     1       4.793   7.849  -6.658  1.00  0.00     0.009 A 
ATOM     49  C   UNL     1       6.854   7.304  -8.446  1.00  0.00     0.001 A 
ATOM     50  C   UNL     1       4.513   7.697  -8.017  1.00  0.00     0.001 A 
ATOM     51  C   UNL     1       5.546   7.433  -8.912  1.00  0.00     0.000 A 
ENDBRANCH  27  46
BRANCH  39  52
ATOM     52  C   UNL     1       9.529  12.338  -2.236  1.00  0.00    -0.014 A 
ATOM     53  C   UNL     1       8.831  13.511  -2.561  1.00  0.00     0.009 A 
ATOM     54  C   UNL     1      10.931  12.358  -2.188  1.00  0.00     0.009 A 
ATOM     55  C   UNL     1       9.531  14.679  -2.860  1.00  0.00     0.001 A 
ATOM     56  C   UNL     1      11.625  13.534  -2.462  1.00  0.00     0.001 A 
ATOM     57  C   UNL     1      10.925  14.691  -2.804  1.00  0.00     0.000 A 
ENDBRANCH  39  52
ENDBRANCH  13  14
ENDBRANCH   6   8
ENDBRANCH   5   6
ENDBRANCH   4   5
ENDBRANCH   3   4
ENDBRANCH   2   3
ENDBRANCH   1   2
BRANCH   1  58
ATOM     58  C   UNL     1       2.817  -1.292  -3.229  1.00  0.00     0.261 C 
BRANCH  58  59
ATOM     59  O   UNL     1       3.057  -2.642  -2.797  1.00  0.00    -0.462 OA
BRANCH  59  60
ATOM     60  C   UNL     1       4.342  -3.064  -2.895  1.00  0.00     0.328 C 
ATOM     61  O   UNL     1       5.210  -2.480  -3.539  1.00  0.00    -0.250 OA
BRANCH  60  62
ATOM     62  C   UNL     1       4.619  -4.348  -2.094  1.00  0.00     0.194 C 
BRANCH  62  63
ATOM     63  C   UNL     1       3.930  -4.562  -0.719  1.00  0.00     0.072 C 
BRANCH  63  64
ATOM     64  C   UNL     1       2.423  -4.521  -0.621  1.00  0.00    -0.045 A 
ATOM     65  C   UNL     1       1.759  -3.363  -0.187  1.00  0.00     0.007 A 
ATOM     66  C   UNL     1       1.657  -5.652  -0.915  1.00  0.00     0.007 A 
ATOM     67  C   UNL     1       0.368  -3.299  -0.120  1.00  0.00     0.046 A 
ATOM     68  C   UNL     1       0.264  -5.606  -0.816  1.00  0.00     0.046 A 
ATOM     69  C   UNL     1      -0.370  -4.427  -0.441  1.00  0.00     0.115 A 
BRANCH  69  70
ATOM     70  O   UNL     1      -1.732  -4.415  -0.391  1.00  0.00    -0.508 OA
ATOM     71  H   UNL     1      -2.184  -3.633  -0.141  1.00  0.00     0.293 HD
ENDBRANCH  69  70
ENDBRANCH  63  64
ENDBRANCH  62  63
BRANCH  62  72
ATOM     72  N   UNL     1       4.434  -5.540  -2.933  1.00  0.00    -0.371 N 
ATOM     73  H   UNL     1       3.586  -6.040  -2.914  1.00  0.00     0.161 HD
BRANCH  72  74
ATOM     74  C   UNL     1       5.494  -5.953  -3.765  1.00  0.00     0.054 A 
ATOM     75  C   UNL     1       6.726  -6.423  -3.217  1.00  0.00     0.024 A 
ATOM     76  C   UNL     1       5.356  -5.845  -5.178  1.00  0.00     0.024 A 
ATOM     77  C   UNL     1       7.030  -6.500  -1.831  1.00  0.00     0.012 A 
ATOM     78  C   UNL     1       7.709  -6.858  -4.126  1.00  0.00     0.073 A 
ATOM     79  C   UNL     1       6.403  -6.352  -5.967  1.00  0.00     0.073 A 
ATOM     80  C   UNL     1       4.251  -5.240  -5.834  1.00  0.00     0.012 A 
ATOM     81  C   UNL     1       8.277  -6.916  -1.367  1.00  0.00     0.001 A 
ATOM     82  C   UNL     1       8.930  -7.311  -3.641  1.00  0.00     0.029 A 
ATOM     83  N   UNL     1       7.531  -6.858  -5.452  1.00  0.00    -0.248 NA
ATOM     84  C   UNL     1       6.285  -6.317  -7.351  1.00  0.00     0.029 A 
ATOM     85  C   UNL     1       4.174  -5.179  -7.225  1.00  0.00     0.001 A 
ATOM     86  C   UNL     1       9.232  -7.328  -2.278  1.00  0.00     0.002 A 
ATOM     87  C   UNL     1       5.186  -5.740  -7.987  1.00  0.00     0.002 A 
ENDBRANCH  72  74
ENDBRANCH  62  72
ENDBRANCH  60  62
ENDBRANCH  59  60
ENDBRANCH  58  59
ENDBRANCH   1  58
TORSDOF 19
