REMARK SMILES Cc1ccc(-c2cc(Cl)cc3c2O[C@@H](C(F)(F)F)C(C(=O)OCCOCCOC(=O)c2ccc(-c4c5nc(c(-c6ccccc6)c6ccc([nH]6)c(-c6ccccc6)c6nc(c(-c7ccccc7)c7ccc4[nH]7)C=C6)C=C5)cc2)=C3)cc1
REMARK SMILES IDX 26 1 25 2 24 3 23 4 22 5 20 6 21 7 19 8 6 9 7 10 12 11 8 12
REMARK SMILES IDX 11 13 13 14 9 15 10 16 79 17 14 18 5 19 1 20 2 21 3 22 81 23
REMARK SMILES IDX 4 24 80 25 15 26 16 27 17 28 18 29 27 30 28 31 29 32 30 33
REMARK SMILES IDX 31 34 32 35 78 36 33 37 77 38 34 39 35 40 36 41 71 42 37 43
REMARK SMILES IDX 76 44 70 45 72 46 38 47 75 48 69 49 68 50 39 52 61 53 46 54
REMARK SMILES IDX 60 55 47 56 50 57 59 58 73 59 48 60 49 61 58 63 74 64 51 65
REMARK SMILES IDX 40 66 41 67 45 68 42 69 44 70 43 71 62 72 63 73 67 74 64 75
REMARK SMILES IDX 66 76 65 77 52 78 53 79 57 80 54 81 56 82 55 83
REMARK H PARENT 72 51 50 62
REMARK Flexibility Score: inf
ROOT
ATOM      1  C   UNL     1      -3.030  -4.833   0.682  1.00  0.00     0.202 C 
ENDROOT
BRANCH   1   2
ATOM      2  O   UNL     1      -2.846  -3.511   1.194  1.00  0.00    -0.374 OA
BRANCH   2   3
ATOM      3  C   UNL     1      -3.463  -3.296   2.458  1.00  0.00     0.202 C 
BRANCH   3   4
ATOM      4  C   UNL     1      -3.468  -1.804   2.802  1.00  0.00     0.261 C 
BRANCH   4   5
ATOM      5  O   UNL     1      -4.695  -1.377   3.424  1.00  0.00    -0.460 OA
BRANCH   5   6
ATOM      6  C   UNL     1      -5.182  -0.168   2.993  1.00  0.00     0.338 C 
ATOM      7  O   UNL     1      -4.546   0.827   2.726  1.00  0.00    -0.246 OA
BRANCH   6   8
ATOM      8  C   UNL     1      -6.629  -0.378   2.555  1.00  0.00     0.087 C 
ATOM      9  C   UNL     1      -4.488  -0.607  -0.783  1.00  0.00     0.026 A 
ATOM     10  C   UNL     1      -4.820   0.217  -1.886  1.00  0.00     0.033 A 
ATOM     11  C   UNL     1      -5.504  -0.785   0.188  1.00  0.00     0.135 A 
ATOM     12  C   UNL     1      -5.960   1.017  -1.886  1.00  0.00     0.042 A 
ATOM     13  C   UNL     1      -6.482   0.242   0.313  1.00  0.00     0.019 A 
ATOM     14  O   UNL     1      -5.617  -1.921   1.034  1.00  0.00    -0.475 OA
ATOM     15  Cl  UNL     1      -6.275   2.046  -3.225  1.00  0.00    -0.084 Cl
ATOM     16  C   UNL     1      -6.749   1.097  -0.750  1.00  0.00     0.032 A 
ATOM     17  C   UNL     1      -7.139   0.469   1.637  1.00  0.00     0.027 C 
ATOM     18  C   UNL     1      -6.740  -1.794   2.024  1.00  0.00     0.316 C 
BRANCH   9  19
ATOM     19  C   UNL     1      -3.001  -0.633  -0.558  1.00  0.00    -0.015 A 
ATOM     20  C   UNL     1       1.347  -0.081  -0.618  1.00  0.00     0.044 C 
ATOM     21  C   UNL     1      -0.149  -0.248  -0.643  1.00  0.00    -0.051 A 
ATOM     22  C   UNL     1      -0.743  -1.440  -1.080  1.00  0.00     0.004 A 
ATOM     23  C   UNL     1      -0.986   0.750  -0.147  1.00  0.00     0.004 A 
ATOM     24  C   UNL     1      -2.146  -1.620  -1.058  1.00  0.00     0.009 A 
ATOM     25  C   UNL     1      -2.375   0.550  -0.083  1.00  0.00     0.009 A 
ENDBRANCH   9  19
BRANCH  18  26
ATOM     26  C   UNL     1      -6.991  -2.774   3.225  1.00  0.00     0.430 C 
ATOM     27  F   UNL     1      -7.210  -2.103   4.391  1.00  0.00    -0.167 F 
ATOM     28  F   UNL     1      -8.137  -3.477   3.003  1.00  0.00    -0.167 F 
ATOM     29  F   UNL     1      -6.047  -3.689   3.486  1.00  0.00    -0.167 F 
ENDBRANCH  18  26
ENDBRANCH   6   8
ENDBRANCH   5   6
ENDBRANCH   4   5
ENDBRANCH   3   4
ENDBRANCH   2   3
ENDBRANCH   1   2
BRANCH   1  30
ATOM     30  C   UNL     1      -2.133  -5.858   1.381  1.00  0.00     0.261 C 
BRANCH  30  31
ATOM     31  O   UNL     1      -0.785  -5.351   1.394  1.00  0.00    -0.460 OA
BRANCH  31  32
ATOM     32  C   UNL     1      -0.197  -5.365   2.618  1.00  0.00     0.338 C 
ATOM     33  O   UNL     1      -0.192  -6.316   3.382  1.00  0.00    -0.246 OA
BRANCH  32  34
ATOM     34  C   UNL     1       0.190  -3.979   3.017  1.00  0.00     0.060 A 
ATOM     35  C   UNL     1       0.467  -3.709   4.364  1.00  0.00     0.016 A 
ATOM     36  C   UNL     1      -0.001  -2.919   2.138  1.00  0.00     0.016 A 
ATOM     37  C   UNL     1       0.368  -2.398   4.861  1.00  0.00     0.010 A 
ATOM     38  C   UNL     1      -0.151  -1.635   2.644  1.00  0.00     0.010 A 
ATOM     39  C   UNL     1      -0.045  -1.367   4.015  1.00  0.00    -0.014 A 
BRANCH  39  40
ATOM     40  C   UNL     1      -0.692  -0.119   4.481  1.00  0.00     0.031 A 
ATOM     41  C   UNL     1      -0.309   1.228   3.990  1.00  0.00     0.074 A 
ATOM     42  C   UNL     1      -1.901  -0.224   5.095  1.00  0.00     0.049 A 
ATOM     43  N   UNL     1      -0.757   2.324   4.508  1.00  0.00    -0.248 NA
ATOM     44  C   UNL     1       0.623   1.487   2.898  1.00  0.00     0.031 C 
ATOM     45  C   UNL     1      -2.962   0.782   5.174  1.00  0.00     0.029 A 
ATOM     46  N   UNL     1      -2.472  -1.309   5.750  1.00  0.00    -0.354 N 
ATOM     47  C   UNL     1      -0.553   3.331   3.596  1.00  0.00     0.074 A 
ATOM     48  C   UNL     1       0.454   2.803   2.708  1.00  0.00     0.031 C 
ATOM     49  C   UNL     1      -3.926   0.365   6.010  1.00  0.00     0.029 A 
ATOM     50  C   UNL     1      -3.459  -0.858   6.624  1.00  0.00     0.049 A 
ATOM     51  H   UNL     1      -2.219  -2.251   5.616  1.00  0.00     0.167 HD
ATOM     52  C   UNL     1      -1.363   4.431   3.626  1.00  0.00     0.031 A 
ATOM     53  C   UNL     1      -3.376  -1.086   7.964  1.00  0.00     0.031 A 
ATOM     54  C   UNL     1      -2.261   4.428   4.797  1.00  0.00     0.049 A 
ATOM     55  C   UNL     1      -3.050   0.212   8.677  1.00  0.00     0.074 A 
ATOM     56  C   UNL     1      -3.636   4.426   4.972  1.00  0.00     0.029 A 
ATOM     57  N   UNL     1      -1.719   4.182   6.061  1.00  0.00    -0.354 N 
ATOM     58  N   UNL     1      -2.733   1.298   8.021  1.00  0.00    -0.248 NA
ATOM     59  C   UNL     1      -3.082   0.456  10.114  1.00  0.00     0.031 C 
ATOM     60  C   UNL     1      -3.905   4.066   6.329  1.00  0.00     0.029 A 
ATOM     61  C   UNL     1      -2.699   3.893   6.990  1.00  0.00     0.049 A 
ATOM     62  H   UNL     1      -0.756   4.212   6.265  1.00  0.00     0.167 HD
ATOM     63  C   UNL     1      -2.591   2.354   8.857  1.00  0.00     0.074 A 
ATOM     64  C   UNL     1      -2.775   1.770  10.175  1.00  0.00     0.031 C 
ATOM     65  C   UNL     1      -2.339   3.610   8.383  1.00  0.00     0.031 A 
BRANCH  52  66
ATOM     66  C   UNL     1      -1.458   5.468   2.516  1.00  0.00    -0.014 A 
ATOM     67  C   UNL     1      -2.274   6.606   2.679  1.00  0.00     0.009 A 
ATOM     68  C   UNL     1      -0.813   5.367   1.268  1.00  0.00     0.009 A 
ATOM     69  C   UNL     1      -2.406   7.587   1.679  1.00  0.00     0.001 A 
ATOM     70  C   UNL     1      -0.911   6.359   0.277  1.00  0.00     0.001 A 
ATOM     71  C   UNL     1      -1.709   7.473   0.484  1.00  0.00     0.000 A 
ENDBRANCH  52  66
BRANCH  53  72
ATOM     72  C   UNL     1      -3.007  -2.507   8.242  1.00  0.00    -0.014 A 
ATOM     73  C   UNL     1      -4.021  -3.440   7.915  1.00  0.00     0.009 A 
ATOM     74  C   UNL     1      -1.672  -2.946   8.190  1.00  0.00     0.009 A 
ATOM     75  C   UNL     1      -3.711  -4.685   7.355  1.00  0.00     0.001 A 
ATOM     76  C   UNL     1      -1.369  -4.205   7.635  1.00  0.00     0.001 A 
ATOM     77  C   UNL     1      -2.382  -5.047   7.172  1.00  0.00     0.000 A 
ENDBRANCH  53  72
BRANCH  65  78
ATOM     78  C   UNL     1      -1.746   4.721   9.204  1.00  0.00    -0.014 A 
ATOM     79  C   UNL     1      -1.004   4.501  10.371  1.00  0.00     0.009 A 
ATOM     80  C   UNL     1      -1.754   6.036   8.688  1.00  0.00     0.009 A 
ATOM     81  C   UNL     1      -0.329   5.548  11.008  1.00  0.00     0.001 A 
ATOM     82  C   UNL     1      -1.040   7.071   9.292  1.00  0.00     0.001 A 
ATOM     83  C   UNL     1      -0.335   6.827  10.461  1.00  0.00     0.000 A 
ENDBRANCH  65  78
ENDBRANCH  39  40
ENDBRANCH  32  34
ENDBRANCH  31  32
ENDBRANCH  30  31
ENDBRANCH   1  30
TORSDOF 16
