REMARK SMILES Cc1nc2ccccc2n1CCC(=O)N1CC[C@H](O)C[C@@H]1C(=O)OCCOCCOC(=O)c1ccc(-c2c3nc(c(-c4ccccc4)c4ccc([nH]4)c(-c4ccccc4)c4nc(c(-c5ccccc5)c5ccc2[nH]5)C=C4)C=C3)cc1
REMARK SMILES IDX 26 1 25 2 24 3 22 4 23 5 21 6 15 7 16 8 17 9 20 10 18 11
REMARK SMILES IDX 13 12 14 13 12 14 11 15 10 16 1 17 2 18 3 19 4 20 9 21 5 22
REMARK SMILES IDX 8 23 6 24 7 25 19 26 27 28 28 29 29 30 30 31 31 32 32 33
REMARK SMILES IDX 33 34 34 35 80 36 35 37 79 38 36 39 37 40 38 41 73 42 39 43
REMARK SMILES IDX 78 44 72 45 74 46 40 47 77 48 71 49 70 50 41 52 63 53 48 54
REMARK SMILES IDX 62 55 49 56 52 57 61 58 75 59 50 60 51 61 60 63 76 64 53 65
REMARK SMILES IDX 42 66 43 67 47 68 44 69 46 70 45 71 64 72 65 73 69 74 66 75
REMARK SMILES IDX 68 76 67 77 54 78 55 79 59 80 56 81 58 82 57 83
REMARK H PARENT 19 27 74 51 52 62
REMARK Flexibility Score: inf
ROOT
ATOM      1  C   UNL     1       3.989  -3.036   3.925  1.00  0.00     0.202 C 
ENDROOT
BRANCH   1   2
ATOM      2  C   UNL     1       4.705  -2.735   2.600  1.00  0.00     0.261 C 
BRANCH   2   3
ATOM      3  O   UNL     1       4.010  -1.832   1.716  1.00  0.00    -0.462 OA
BRANCH   3   4
ATOM      4  C   UNL     1       4.193  -2.099   0.389  1.00  0.00     0.329 C 
ATOM      5  O   UNL     1       4.909  -3.009  -0.029  1.00  0.00    -0.250 OA
BRANCH   4   6
ATOM      6  C   UNL     1       3.384  -1.193  -0.588  1.00  0.00     0.197 C 
ATOM      7  N   UNL     1       2.486  -0.171  -0.001  1.00  0.00    -0.329 N 
ATOM      8  C   UNL     1       1.340  -0.707   0.680  1.00  0.00     0.123 C 
ATOM      9  C   UNL     1       0.521  -1.667  -0.171  1.00  0.00     0.053 C 
ATOM     10  C   UNL     1       2.584  -2.121  -1.524  1.00  0.00     0.069 C 
ATOM     11  C   UNL     1       1.384  -2.746  -0.811  1.00  0.00     0.118 C 
BRANCH   7  12
ATOM     12  C   UNL     1       2.772   1.182  -0.056  1.00  0.00     0.225 C 
ATOM     13  O   UNL     1       3.502   1.647  -0.933  1.00  0.00    -0.275 OA
BRANCH  12  14
ATOM     14  C   UNL     1       2.270   2.095   1.077  1.00  0.00     0.122 C 
BRANCH  14  15
ATOM     15  C   UNL     1       0.956   2.874   0.892  1.00  0.00     0.134 C 
BRANCH  15  16
ATOM     16  N   UNL     1      -0.239   2.204   1.394  1.00  0.00    -0.328 N 
ATOM     17  C   UNL     1      -1.155   1.476  -0.850  1.00  0.00     0.088 C 
ATOM     18  C   UNL     1      -1.137   1.478   0.634  1.00  0.00     0.106 A 
ATOM     19  N   UNL     1      -1.838   0.665   1.401  1.00  0.00    -0.234 NA
ATOM     20  C   UNL     1      -1.497   0.975   2.693  1.00  0.00     0.089 A 
ATOM     21  C   UNL     1      -0.566   2.012   2.724  1.00  0.00     0.068 A 
ATOM     22  C   UNL     1      -1.925   0.385   3.893  1.00  0.00     0.030 A 
ATOM     23  C   UNL     1      -0.115   2.573   3.926  1.00  0.00     0.028 A 
ATOM     24  C   UNL     1      -1.459   0.909   5.103  1.00  0.00     0.002 A 
ATOM     25  C   UNL     1      -0.598   2.007   5.114  1.00  0.00     0.002 A 
ENDBRANCH  15  16
ENDBRANCH  14  15
ENDBRANCH  12  14
ENDBRANCH   7  12
BRANCH  11  26
ATOM     26  O   UNL     1       1.802  -3.654   0.201  1.00  0.00    -0.393 OA
ATOM     27  H   UNL     1       2.317  -3.176   0.871  1.00  0.00     0.210 HD
ENDBRANCH  11  26
ENDBRANCH   4   6
ENDBRANCH   3   4
ENDBRANCH   2   3
ENDBRANCH   1   2
BRANCH   1  28
ATOM     28  O   UNL     1       2.699  -3.628   3.986  1.00  0.00    -0.374 OA
BRANCH  28  29
ATOM     29  C   UNL     1       1.631  -2.852   3.461  1.00  0.00     0.202 C 
BRANCH  29  30
ATOM     30  C   UNL     1       1.211  -1.543   4.184  1.00  0.00     0.261 C 
BRANCH  30  31
ATOM     31  O   UNL     1       2.292  -0.632   4.434  1.00  0.00    -0.460 OA
BRANCH  31  32
ATOM     32  C   UNL     1       2.373  -0.165   5.712  1.00  0.00     0.338 C 
ATOM     33  O   UNL     1       1.469   0.002   6.516  1.00  0.00    -0.246 OA
BRANCH  32  34
ATOM     34  C   UNL     1       3.783  -0.350   6.096  1.00  0.00     0.060 A 
ATOM     35  C   UNL     1       4.806   0.145   5.283  1.00  0.00     0.016 A 
ATOM     36  C   UNL     1       4.014  -1.384   7.022  1.00  0.00     0.016 A 
ATOM     37  C   UNL     1       6.034  -0.503   5.311  1.00  0.00     0.010 A 
ATOM     38  C   UNL     1       5.239  -2.039   7.031  1.00  0.00     0.010 A 
ATOM     39  C   UNL     1       6.231  -1.633   6.139  1.00  0.00    -0.014 A 
BRANCH  39  40
ATOM     40  C   UNL     1       7.593  -2.159   6.231  1.00  0.00     0.031 A 
ATOM     41  C   UNL     1       8.489  -1.137   6.828  1.00  0.00     0.074 A 
ATOM     42  C   UNL     1       8.062  -3.394   5.957  1.00  0.00     0.049 A 
ATOM     43  N   UNL     1       9.433  -0.486   6.238  1.00  0.00    -0.248 NA
ATOM     44  C   UNL     1       8.139  -0.638   8.168  1.00  0.00     0.031 C 
ATOM     45  C   UNL     1       7.326  -4.619   5.650  1.00  0.00     0.029 A 
ATOM     46  N   UNL     1       9.361  -3.826   5.989  1.00  0.00    -0.354 N 
ATOM     47  C   UNL     1       9.910   0.408   7.187  1.00  0.00     0.074 A 
ATOM     48  C   UNL     1       8.966   0.399   8.274  1.00  0.00     0.031 C 
ATOM     49  C   UNL     1       8.159  -5.684   5.748  1.00  0.00     0.029 A 
ATOM     50  C   UNL     1       9.510  -5.208   5.995  1.00  0.00     0.049 A 
ATOM     51  H   UNL     1      10.127  -3.208   6.006  1.00  0.00     0.167 HD
ATOM     52  C   UNL     1      11.167   0.917   7.115  1.00  0.00     0.031 A 
ATOM     53  C   UNL     1      10.650  -5.901   6.250  1.00  0.00     0.031 A 
ATOM     54  C   UNL     1      11.729   0.767   5.799  1.00  0.00     0.049 A 
ATOM     55  C   UNL     1      11.793  -4.987   6.038  1.00  0.00     0.074 A 
ATOM     56  C   UNL     1      11.388   1.224   4.542  1.00  0.00     0.029 A 
ATOM     57  N   UNL     1      12.598  -0.279   5.605  1.00  0.00    -0.354 N 
ATOM     58  N   UNL     1      12.165  -4.547   4.873  1.00  0.00    -0.248 NA
ATOM     59  C   UNL     1      12.298  -4.247   7.182  1.00  0.00     0.031 C 
ATOM     60  C   UNL     1      11.707   0.153   3.659  1.00  0.00     0.029 A 
ATOM     61  C   UNL     1      12.287  -0.872   4.410  1.00  0.00     0.049 A 
ATOM     62  H   UNL     1      13.318  -0.555   6.218  1.00  0.00     0.167 HD
ATOM     63  C   UNL     1      12.559  -3.240   5.108  1.00  0.00     0.074 A 
ATOM     64  C   UNL     1      12.726  -3.148   6.556  1.00  0.00     0.031 C 
ATOM     65  C   UNL     1      12.438  -2.286   4.139  1.00  0.00     0.031 A 
BRANCH  52  66
ATOM     66  C   UNL     1      12.008   1.164   8.341  1.00  0.00    -0.014 A 
ATOM     67  C   UNL     1      11.675   0.681   9.623  1.00  0.00     0.009 A 
ATOM     68  C   UNL     1      13.309   1.667   8.178  1.00  0.00     0.009 A 
ATOM     69  C   UNL     1      12.586   0.680  10.680  1.00  0.00     0.001 A 
ATOM     70  C   UNL     1      14.240   1.626   9.223  1.00  0.00     0.001 A 
ATOM     71  C   UNL     1      13.879   1.129  10.472  1.00  0.00     0.000 A 
ENDBRANCH  52  66
BRANCH  53  72
ATOM     72  C   UNL     1      10.833  -7.168   6.999  1.00  0.00    -0.014 A 
ATOM     73  C   UNL     1       9.928  -7.523   8.014  1.00  0.00     0.009 A 
ATOM     74  C   UNL     1      12.066  -7.846   6.957  1.00  0.00     0.009 A 
ATOM     75  C   UNL     1      10.265  -8.472   8.987  1.00  0.00     0.001 A 
ATOM     76  C   UNL     1      12.404  -8.793   7.934  1.00  0.00     0.001 A 
ATOM     77  C   UNL     1      11.512  -9.090   8.960  1.00  0.00     0.000 A 
ENDBRANCH  53  72
BRANCH  65  78
ATOM     78  C   UNL     1      12.177  -2.724   2.715  1.00  0.00    -0.014 A 
ATOM     79  C   UNL     1      12.982  -2.168   1.708  1.00  0.00     0.009 A 
ATOM     80  C   UNL     1      11.081  -3.514   2.326  1.00  0.00     0.009 A 
ATOM     81  C   UNL     1      12.693  -2.371   0.357  1.00  0.00     0.001 A 
ATOM     82  C   UNL     1      10.809  -3.743   0.972  1.00  0.00     0.001 A 
ATOM     83  C   UNL     1      11.607  -3.160  -0.011  1.00  0.00     0.000 A 
ENDBRANCH  65  78
ENDBRANCH  39  40
ENDBRANCH  32  34
ENDBRANCH  31  32
ENDBRANCH  30  31
ENDBRANCH  29  30
ENDBRANCH  28  29
ENDBRANCH   1  28
TORSDOF 19
