REMARK SMILES NS(=O)(=O)c1ccc(-n2nc(C(=O)NCCCC(=O)OCCOCCOC(=O)c3ccc(-c4c5nc(c(-c6ccccc6)c6ccc([nH]6)c(-c6ccccc6)c6nc(c(-c7ccccc7)c7ccc4[nH]7)C=C6)C=C5)cc3)cc2-c2ccccc2)cc1
REMARK SMILES IDX 21 1 20 2 18 3 19 4 17 5 16 6 15 7 14 8 12 9 13 10 11 12
REMARK SMILES IDX 9 13 10 14 78 15 77 16 8 17 5 18 6 19 86 20 7 21 85 22 2 23
REMARK SMILES IDX 3 24 4 25 1 26 79 29 80 30 84 31 81 32 83 33 82 34 22 35
REMARK SMILES IDX 23 36 24 37 25 38 26 39 27 40 28 41 29 42 30 43 76 44 31 45
REMARK SMILES IDX 75 46 32 47 33 48 34 49 69 50 35 51 74 52 68 53 70 54 36 55
REMARK SMILES IDX 73 56 67 57 66 58 37 60 59 61 44 62 58 63 45 64 48 65 57 66
REMARK SMILES IDX 71 67 46 68 47 69 56 71 72 72 49 73 38 74 39 75 43 76 40 77
REMARK SMILES IDX 42 78 41 79 60 80 61 81 65 82 62 83 64 84 63 85 50 86 51 87
REMARK SMILES IDX 55 88 52 89 54 90 53 91
REMARK H PARENT 14 11 1 27 1 28 70 59 48 70
REMARK Flexibility Score: inf
ROOT
ATOM      1  C   UNL     1       6.219  -4.407 -14.201  1.00  0.00     0.261 C 
ENDROOT
BRANCH   1   2
ATOM      2  O   UNL     1       5.739  -3.295 -13.425  1.00  0.00    -0.463 OA
BRANCH   2   3
ATOM      3  C   UNL     1       5.700  -2.084 -14.029  1.00  0.00     0.305 C 
ATOM      4  O   UNL     1       6.136  -1.844 -15.146  1.00  0.00    -0.252 OA
BRANCH   3   5
ATOM      5  C   UNL     1       5.058  -1.026 -13.152  1.00  0.00     0.124 C 
BRANCH   5   6
ATOM      6  C   UNL     1       3.947  -1.470 -12.190  1.00  0.00     0.033 C 
BRANCH   6   7
ATOM      7  C   UNL     1       4.384  -2.368 -11.031  1.00  0.00     0.117 C 
BRANCH   7   8
ATOM      8  N   UNL     1       5.296  -1.695 -10.127  1.00  0.00    -0.351 N 
ATOM      9  C   UNL     1       5.245  -1.302  -8.807  1.00  0.00     0.271 C 
ATOM     10  O   UNL     1       6.290  -0.812  -8.369  1.00  0.00    -0.267 OA
ATOM     11  H   UNL     1       6.151  -1.465 -10.557  1.00  0.00     0.163 HD
BRANCH   9  12
ATOM     12  C   UNL     1       4.047  -1.477  -7.959  1.00  0.00     0.151 A 
ATOM     13  N   UNL     1       2.911  -1.647  -6.139  1.00  0.00    -0.232 N 
ATOM     14  N   UNL     1       4.099  -1.233  -6.623  1.00  0.00    -0.162 NA
ATOM     15  C   UNL     1       2.043  -1.977  -7.144  1.00  0.00     0.075 A 
ATOM     16  C   UNL     1       2.738  -1.861  -8.318  1.00  0.00     0.065 A 
BRANCH  13  17
ATOM     17  C   UNL     1       2.567  -1.637  -4.768  1.00  0.00     0.065 A 
ATOM     18  C   UNL     1       1.287  -1.554  -2.308  1.00  0.00     0.082 A 
ATOM     19  C   UNL     1       1.483  -2.787  -2.932  1.00  0.00     0.024 A 
ATOM     20  C   UNL     1       1.742  -0.366  -2.899  1.00  0.00     0.024 A 
ATOM     21  C   UNL     1       2.120  -2.827  -4.168  1.00  0.00     0.030 A 
ATOM     22  C   UNL     1       2.398  -0.407  -4.132  1.00  0.00     0.030 A 
BRANCH  18  23
ATOM     23  S   UNL     1       0.521  -1.539  -0.716  1.00  0.00     0.238 S 
ATOM     24  O   UNL     1       1.024  -2.678   0.038  1.00  0.00    -0.207 OA
ATOM     25  O   UNL     1      -0.876  -1.271  -0.879  1.00  0.00    -0.207 OA
BRANCH  23  26
ATOM     26  N   UNL     1       1.196  -0.195   0.028  1.00  0.00    -0.225 NA
ATOM     27  H   UNL     1       0.812  -0.098   0.968  1.00  0.00     0.137 HD
ATOM     28  H   UNL     1       0.979   0.640  -0.516  1.00  0.00     0.137 HD
ENDBRANCH  23  26
ENDBRANCH  18  23
ENDBRANCH  13  17
BRANCH  15  29
ATOM     29  C   UNL     1       0.689  -2.412  -6.959  1.00  0.00     0.000 A 
ATOM     30  C   UNL     1      -0.375  -1.511  -6.901  1.00  0.00     0.010 A 
ATOM     31  C   UNL     1       0.478  -3.776  -6.860  1.00  0.00     0.010 A 
ATOM     32  C   UNL     1      -1.674  -1.994  -6.895  1.00  0.00     0.001 A 
ATOM     33  C   UNL     1      -0.808  -4.241  -6.814  1.00  0.00     0.001 A 
ATOM     34  C   UNL     1      -1.880  -3.361  -6.934  1.00  0.00     0.000 A 
ENDBRANCH  15  29
ENDBRANCH   9  12
ENDBRANCH   7   8
ENDBRANCH   6   7
ENDBRANCH   5   6
ENDBRANCH   3   5
ENDBRANCH   2   3
ENDBRANCH   1   2
BRANCH   1  35
ATOM     35  C   UNL     1       5.077  -5.370 -14.521  1.00  0.00     0.202 C 
BRANCH  35  36
ATOM     36  O   UNL     1       4.125  -4.914 -15.484  1.00  0.00    -0.374 OA
BRANCH  36  37
ATOM     37  C   UNL     1       3.139  -3.974 -15.074  1.00  0.00     0.202 C 
BRANCH  37  38
ATOM     38  C   UNL     1       1.958  -4.525 -14.287  1.00  0.00     0.261 C 
BRANCH  38  39
ATOM     39  O   UNL     1       2.364  -5.052 -13.028  1.00  0.00    -0.460 OA
BRANCH  39  40
ATOM     40  C   UNL     1       2.482  -6.403 -12.989  1.00  0.00     0.338 C 
ATOM     41  O   UNL     1       2.510  -7.172 -13.932  1.00  0.00    -0.246 OA
BRANCH  40  42
ATOM     42  C   UNL     1       2.359  -6.822 -11.587  1.00  0.00     0.060 A 
ATOM     43  C   UNL     1       2.044  -8.162 -11.363  1.00  0.00     0.016 A 
ATOM     44  C   UNL     1       2.203  -5.857 -10.590  1.00  0.00     0.016 A 
ATOM     45  C   UNL     1       1.304  -8.478 -10.241  1.00  0.00     0.010 A 
ATOM     46  C   UNL     1       1.437  -6.170  -9.496  1.00  0.00     0.010 A 
ATOM     47  C   UNL     1       0.906  -7.450  -9.379  1.00  0.00    -0.014 A 
BRANCH  47  48
ATOM     48  C   UNL     1       0.112  -7.780  -8.208  1.00  0.00     0.031 A 
ATOM     49  C   UNL     1       0.967  -8.447  -7.199  1.00  0.00     0.074 A 
ATOM     50  C   UNL     1      -1.182  -7.435  -8.016  1.00  0.00     0.049 A 
ATOM     51  N   UNL     1       1.030  -9.720  -6.999  1.00  0.00    -0.248 NA
ATOM     52  C   UNL     1       2.053  -7.689  -6.548  1.00  0.00     0.031 C 
ATOM     53  C   UNL     1      -2.026  -6.553  -8.833  1.00  0.00     0.029 A 
ATOM     54  N   UNL     1      -1.988  -7.685  -6.940  1.00  0.00    -0.354 N 
ATOM     55  C   UNL     1       1.964  -9.886  -5.986  1.00  0.00     0.074 A 
ATOM     56  C   UNL     1       2.731  -8.671  -5.949  1.00  0.00     0.031 C 
ATOM     57  C   UNL     1      -3.100  -6.149  -8.100  1.00  0.00     0.029 A 
ATOM     58  C   UNL     1      -3.096  -6.834  -6.811  1.00  0.00     0.049 A 
ATOM     59  H   UNL     1      -1.804  -8.411  -6.301  1.00  0.00     0.167 HD
ATOM     60  C   UNL     1       1.757 -10.831  -5.029  1.00  0.00     0.031 A 
ATOM     61  C   UNL     1      -3.856  -6.698  -5.683  1.00  0.00     0.031 A 
ATOM     62  C   UNL     1       0.670 -11.703  -5.414  1.00  0.00     0.049 A 
ATOM     63  C   UNL     1      -3.746  -7.979  -4.962  1.00  0.00     0.074 A 
ATOM     64  C   UNL     1       0.450 -12.691  -6.347  1.00  0.00     0.029 A 
ATOM     65  N   UNL     1      -0.555 -11.215  -5.035  1.00  0.00    -0.354 N 
ATOM     66  N   UNL     1      -4.168  -9.099  -5.472  1.00  0.00    -0.248 NA
ATOM     67  C   UNL     1      -2.833  -8.099  -3.834  1.00  0.00     0.031 C 
ATOM     68  C   UNL     1      -0.946 -12.641  -6.650  1.00  0.00     0.029 A 
ATOM     69  C   UNL     1      -1.551 -11.675  -5.848  1.00  0.00     0.049 A 
ATOM     70  H   UNL     1      -0.698 -10.610  -4.272  1.00  0.00     0.167 HD
ATOM     71  C   UNL     1      -3.231 -10.021  -5.059  1.00  0.00     0.074 A 
ATOM     72  C   UNL     1      -2.575  -9.409  -3.906  1.00  0.00     0.031 C 
ATOM     73  C   UNL     1      -2.837 -11.018  -5.904  1.00  0.00     0.031 A 
BRANCH  60  74
ATOM     74  C   UNL     1       2.070 -10.614  -3.560  1.00  0.00    -0.014 A 
ATOM     75  C   UNL     1       1.711 -11.630  -2.655  1.00  0.00     0.009 A 
ATOM     76  C   UNL     1       2.409  -9.368  -2.997  1.00  0.00     0.009 A 
ATOM     77  C   UNL     1       1.623 -11.389  -1.279  1.00  0.00     0.001 A 
ATOM     78  C   UNL     1       2.352  -9.131  -1.621  1.00  0.00     0.001 A 
ATOM     79  C   UNL     1       1.934 -10.136  -0.763  1.00  0.00     0.000 A 
ENDBRANCH  60  74
BRANCH  61  80
ATOM     80  C   UNL     1      -4.492  -5.547  -4.982  1.00  0.00    -0.014 A 
ATOM     81  C   UNL     1      -5.753  -5.626  -4.374  1.00  0.00     0.009 A 
ATOM     82  C   UNL     1      -3.689  -4.463  -4.586  1.00  0.00     0.009 A 
ATOM     83  C   UNL     1      -6.199  -4.630  -3.477  1.00  0.00     0.001 A 
ATOM     84  C   UNL     1      -4.143  -3.435  -3.747  1.00  0.00     0.001 A 
ATOM     85  C   UNL     1      -5.404  -3.523  -3.183  1.00  0.00     0.000 A 
ENDBRANCH  61  80
BRANCH  73  86
ATOM     86  C   UNL     1      -3.724 -11.334  -7.079  1.00  0.00    -0.014 A 
ATOM     87  C   UNL     1      -3.904 -10.487  -8.188  1.00  0.00     0.009 A 
ATOM     88  C   UNL     1      -4.312 -12.604  -7.110  1.00  0.00     0.009 A 
ATOM     89  C   UNL     1      -4.659 -10.904  -9.291  1.00  0.00     0.001 A 
ATOM     90  C   UNL     1      -5.048 -13.027  -8.217  1.00  0.00     0.001 A 
ATOM     91  C   UNL     1      -5.223 -12.177  -9.307  1.00  0.00     0.000 A 
ENDBRANCH  73  86
ENDBRANCH  47  48
ENDBRANCH  40  42
ENDBRANCH  39  40
ENDBRANCH  38  39
ENDBRANCH  37  38
ENDBRANCH  36  37
ENDBRANCH  35  36
ENDBRANCH   1  35
TORSDOF 22
