REMARK SMILES C#CC[NH2+]CC(=O)N[C@H](CC)C(=O)OCCOCCOC(=O)c1ccc(-c2c3nc(c(-c4ccccc4)c4ccc([nH]4)c(-c4ccccc4)c4nc(c(-c5ccccc5)c5ccc2[nH]5)C=C4)C=C3)cc1
REMARK SMILES IDX 15 1 14 2 12 3 13 4 9 5 8 6 6 7 7 8 5 10 4 11 3 14 2 15 1 16
REMARK SMILES IDX 10 17 11 18 16 19 17 20 18 21 19 22 20 23 21 24 22 25 23 26
REMARK SMILES IDX 24 27 70 28 25 29 69 30 26 31 27 32 28 33 63 34 29 35 68 36
REMARK SMILES IDX 62 37 64 38 30 39 67 40 61 41 60 42 31 44 53 45 38 46 52 47
REMARK SMILES IDX 39 48 42 49 51 50 65 51 40 52 41 53 50 55 66 56 43 57 32 58
REMARK SMILES IDX 33 59 37 60 34 61 36 62 35 63 54 64 55 65 59 66 56 67 58 68
REMARK SMILES IDX 57 69 44 70 45 71 49 72 46 73 48 74 47 75
REMARK H PARENT 8 9 4 12 4 13 64 43 42 54
REMARK Flexibility Score: inf
ROOT
ATOM      1  C   UNL     1      -4.393   2.132  -4.353  1.00  0.00     0.261 C 
ENDROOT
BRANCH   1   2
ATOM      2  O   UNL     1      -4.204   0.859  -3.706  1.00  0.00    -0.462 OA
BRANCH   2   3
ATOM      3  C   UNL     1      -2.904   0.478  -3.585  1.00  0.00     0.328 C 
ATOM      4  O   UNL     1      -1.973   1.049  -4.143  1.00  0.00    -0.250 OA
BRANCH   3   5
ATOM      5  C   UNL     1      -2.709  -0.648  -2.534  1.00  0.00     0.192 C 
BRANCH   5   6
ATOM      6  N   UNL     1      -1.264  -0.933  -2.505  1.00  0.00    -0.338 N 
ATOM      7  C   UNL     1      -0.333  -0.584  -1.563  1.00  0.00     0.275 C 
ATOM      8  O   UNL     1       0.834  -0.430  -1.931  1.00  0.00    -0.268 OA
ATOM      9  H   UNL     1      -0.918  -1.445  -3.271  1.00  0.00     0.164 HD
BRANCH   7  10
ATOM     10  C   UNL     1      -0.716  -0.441  -0.082  1.00  0.00     0.362 C 
BRANCH  10  11
ATOM     11  N   UNL     1      -0.924   0.960   0.349  1.00  0.00    -0.328 N 
ATOM     12  H   UNL     1      -0.919   1.006   1.368  1.00  0.00     0.347 HD
ATOM     13  H   UNL     1      -0.174   1.543  -0.024  1.00  0.00     0.347 HD
BRANCH  11  14
ATOM     14  C   UNL     1      -2.191   1.440  -0.145  1.00  0.00     0.352 C 
BRANCH  14  15
ATOM     15  C   UNL     1      -2.566   2.863   0.234  1.00  0.00    -0.047 C 
ATOM     16  C   UNL     1      -2.888   4.084   0.559  1.00  0.00     0.010 C 
ENDBRANCH  14  15
ENDBRANCH  11  14
ENDBRANCH  10  11
ENDBRANCH   7  10
ENDBRANCH   5   6
BRANCH   5  17
ATOM     17  C   UNL     1      -3.549  -1.909  -2.701  1.00  0.00     0.033 C 
ATOM     18  C   UNL     1      -4.992  -1.698  -2.245  1.00  0.00     0.007 C 
ENDBRANCH   5  17
ENDBRANCH   3   5
ENDBRANCH   2   3
ENDBRANCH   1   2
BRANCH   1  19
ATOM     19  C   UNL     1      -5.665   2.820  -3.856  1.00  0.00     0.202 C 
BRANCH  19  20
ATOM     20  O   UNL     1      -5.690   3.132  -2.466  1.00  0.00    -0.374 OA
BRANCH  20  21
ATOM     21  C   UNL     1      -5.896   2.057  -1.546  1.00  0.00     0.202 C 
BRANCH  21  22
ATOM     22  C   UNL     1      -7.295   1.425  -1.549  1.00  0.00     0.261 C 
BRANCH  22  23
ATOM     23  O   UNL     1      -7.481   0.567  -2.693  1.00  0.00    -0.460 OA
BRANCH  23  24
ATOM     24  C   UNL     1      -8.475   0.926  -3.544  1.00  0.00     0.338 C 
ATOM     25  O   UNL     1      -9.288   1.818  -3.397  1.00  0.00    -0.246 OA
BRANCH  24  26
ATOM     26  C   UNL     1      -8.288   0.216  -4.828  1.00  0.00     0.060 A 
ATOM     27  C   UNL     1      -8.189   0.990  -5.993  1.00  0.00     0.016 A 
ATOM     28  C   UNL     1      -8.252  -1.177  -4.899  1.00  0.00     0.016 A 
ATOM     29  C   UNL     1      -8.094   0.374  -7.240  1.00  0.00     0.010 A 
ATOM     30  C   UNL     1      -8.172  -1.794  -6.152  1.00  0.00     0.010 A 
ATOM     31  C   UNL     1      -8.127  -1.022  -7.329  1.00  0.00    -0.014 A 
BRANCH  31  32
ATOM     32  C   UNL     1      -8.305  -1.675  -8.649  1.00  0.00     0.031 A 
ATOM     33  C   UNL     1      -9.680  -2.144  -9.039  1.00  0.00     0.074 A 
ATOM     34  C   UNL     1      -7.274  -1.841  -9.498  1.00  0.00     0.049 A 
ATOM     35  N   UNL     1     -10.060  -2.822 -10.091  1.00  0.00    -0.248 NA
ATOM     36  C   UNL     1     -10.774  -1.804  -8.113  1.00  0.00     0.031 C 
ATOM     37  C   UNL     1      -5.909  -1.369  -9.277  1.00  0.00     0.029 A 
ATOM     38  N   UNL     1      -7.223  -2.466 -10.719  1.00  0.00    -0.354 N 
ATOM     39  C   UNL     1     -11.430  -3.005  -9.945  1.00  0.00     0.074 A 
ATOM     40  C   UNL     1     -11.811  -2.388  -8.694  1.00  0.00     0.031 C 
ATOM     41  C   UNL     1      -5.148  -1.737 -10.324  1.00  0.00     0.029 A 
ATOM     42  C   UNL     1      -5.963  -2.506 -11.264  1.00  0.00     0.049 A 
ATOM     43  H   UNL     1      -8.014  -2.850 -11.162  1.00  0.00     0.167 HD
ATOM     44  C   UNL     1     -12.295  -3.629 -10.779  1.00  0.00     0.031 A 
ATOM     45  C   UNL     1      -5.512  -3.121 -12.376  1.00  0.00     0.031 A 
ATOM     46  C   UNL     1     -11.916  -4.252 -12.018  1.00  0.00     0.049 A 
ATOM     47  C   UNL     1      -6.474  -3.899 -13.236  1.00  0.00     0.074 A 
ATOM     48  C   UNL     1     -12.723  -4.902 -12.935  1.00  0.00     0.029 A 
ATOM     49  N   UNL     1     -10.622  -4.307 -12.510  1.00  0.00    -0.354 N 
ATOM     50  N   UNL     1      -7.768  -4.060 -13.093  1.00  0.00    -0.248 NA
ATOM     51  C   UNL     1      -5.913  -4.580 -14.414  1.00  0.00     0.031 C 
ATOM     52  C   UNL     1     -11.906  -5.408 -13.951  1.00  0.00     0.029 A 
ATOM     53  C   UNL     1     -10.603  -5.009 -13.702  1.00  0.00     0.049 A 
ATOM     54  H   UNL     1      -9.834  -3.907 -12.076  1.00  0.00     0.167 HD
ATOM     55  C   UNL     1      -8.179  -4.824 -14.180  1.00  0.00     0.074 A 
ATOM     56  C   UNL     1      -7.000  -5.094 -14.975  1.00  0.00     0.031 C 
ATOM     57  C   UNL     1      -9.425  -5.257 -14.493  1.00  0.00     0.031 A 
BRANCH  44  58
ATOM     58  C   UNL     1     -13.734  -3.711 -10.351  1.00  0.00    -0.014 A 
ATOM     59  C   UNL     1     -14.561  -2.577 -10.336  1.00  0.00     0.009 A 
ATOM     60  C   UNL     1     -14.279  -4.954  -9.993  1.00  0.00     0.009 A 
ATOM     61  C   UNL     1     -15.895  -2.682  -9.938  1.00  0.00     0.001 A 
ATOM     62  C   UNL     1     -15.620  -5.062  -9.626  1.00  0.00     0.001 A 
ATOM     63  C   UNL     1     -16.425  -3.924  -9.589  1.00  0.00     0.000 A 
ENDBRANCH  44  58
BRANCH  45  64
ATOM     64  C   UNL     1      -4.068  -3.060 -12.729  1.00  0.00    -0.014 A 
ATOM     65  C   UNL     1      -3.636  -2.366 -13.869  1.00  0.00     0.009 A 
ATOM     66  C   UNL     1      -3.114  -3.720 -11.937  1.00  0.00     0.009 A 
ATOM     67  C   UNL     1      -2.284  -2.355 -14.222  1.00  0.00     0.001 A 
ATOM     68  C   UNL     1      -1.760  -3.681 -12.274  1.00  0.00     0.001 A 
ATOM     69  C   UNL     1      -1.347  -3.007 -13.422  1.00  0.00     0.000 A 
ENDBRANCH  45  64
BRANCH  57  70
ATOM     70  C   UNL     1      -9.603  -6.018 -15.778  1.00  0.00    -0.014 A 
ATOM     71  C   UNL     1      -9.163  -7.343 -15.915  1.00  0.00     0.009 A 
ATOM     72  C   UNL     1     -10.302  -5.421 -16.840  1.00  0.00     0.009 A 
ATOM     73  C   UNL     1      -9.403  -8.047 -17.098  1.00  0.00     0.001 A 
ATOM     74  C   UNL     1     -10.566  -6.136 -18.008  1.00  0.00     0.001 A 
ATOM     75  C   UNL     1     -10.112  -7.446 -18.139  1.00  0.00     0.000 A 
ENDBRANCH  57  70
ENDBRANCH  31  32
ENDBRANCH  24  26
ENDBRANCH  23  24
ENDBRANCH  22  23
ENDBRANCH  21  22
ENDBRANCH  20  21
ENDBRANCH  19  20
ENDBRANCH   1  19
TORSDOF 20
