REMARK SMILES COc1cccc(-n2cc(C(=O)OCCOCCOC(=O)c3ccc(-c4c5nc(c(-c6ccccc6)c6ccc([nH]6)c(-c6ccccc6)c6nc(c(-c7ccccc7)c7ccc4[nH]7)C=C6)C=C5)cc3)c3c2[C@H](c2cc(OC)c(OC)c(OC)c2)CC(=O)N3)c1
REMARK SMILES IDX 16 1 15 2 14 3 13 4 11 5 12 6 10 7 8 8 9 9 71 10 70 11 72 12
REMARK SMILES IDX 88 13 85 14 86 15 87 17 7 18 3 19 4 20 89 21 5 22 6 23 2 24
REMARK SMILES IDX 1 25 73 26 74 27 84 28 75 29 81 30 78 31 76 32 77 33 82 34
REMARK SMILES IDX 83 35 79 36 80 37 17 38 18 39 19 40 20 41 21 42 22 43 23 44
REMARK SMILES IDX 69 45 24 46 68 47 25 48 26 49 27 50 62 51 28 52 67 53 61 54
REMARK SMILES IDX 63 55 29 56 66 57 60 58 59 59 30 61 52 62 37 63 51 64 38 65
REMARK SMILES IDX 41 66 50 67 64 68 39 69 40 70 49 72 65 73 42 74 31 75 32 76
REMARK SMILES IDX 36 77 33 78 35 79 34 80 53 81 54 82 58 83 55 84 57 85 56 86
REMARK SMILES IDX 43 87 44 88 48 89 45 90 47 91 46 92
REMARK H PARENT 88 16 63 60 41 71
REMARK Flexibility Score: inf
ROOT
ATOM      1  O   UNL     1       9.507  -1.802  -3.012  1.00  0.00    -0.374 OA
ENDROOT
BRANCH   1   2
ATOM      2  C   UNL     1      10.242  -0.991  -3.926  1.00  0.00     0.202 C 
BRANCH   2   3
ATOM      3  C   UNL     1       9.640  -0.719  -5.308  1.00  0.00     0.261 C 
BRANCH   3   4
ATOM      4  O   UNL     1       8.436   0.064  -5.251  1.00  0.00    -0.460 OA
BRANCH   4   5
ATOM      5  C   UNL     1       7.289  -0.663  -5.407  1.00  0.00     0.341 C 
ATOM      6  O   UNL     1       7.252  -1.855  -5.668  1.00  0.00    -0.246 OA
BRANCH   5   7
ATOM      7  C   UNL     1       6.094   0.097  -5.077  1.00  0.00     0.102 A 
ATOM      8  N   UNL     1       3.976   0.458  -4.371  1.00  0.00    -0.317 N 
ATOM      9  C   UNL     1       4.975  -0.481  -4.497  1.00  0.00     0.109 A 
ATOM     10  C   UNL     1       4.440   1.640  -4.920  1.00  0.00     0.055 A 
ATOM     11  C   UNL     1       5.779   1.465  -5.213  1.00  0.00     0.078 A 
ATOM     12  C   UNL     1       3.698   2.930  -5.196  1.00  0.00     0.078 C 
ATOM     13  N   UNL     1       6.541   2.523  -5.647  1.00  0.00    -0.324 N 
ATOM     14  C   UNL     1       4.720   4.066  -4.953  1.00  0.00     0.115 C 
ATOM     15  C   UNL     1       6.074   3.815  -5.624  1.00  0.00     0.225 C 
ATOM     16  H   UNL     1       7.450   2.350  -5.984  1.00  0.00     0.170 HD
ATOM     17  O   UNL     1       6.756   4.741  -6.064  1.00  0.00    -0.275 OA
BRANCH   8  18
ATOM     18  C   UNL     1       2.670   0.114  -3.974  1.00  0.00     0.049 A 
ATOM     19  C   UNL     1       0.999  -0.266  -2.281  1.00  0.00     0.120 A 
ATOM     20  C   UNL     1       0.100  -0.642  -3.288  1.00  0.00     0.046 A 
ATOM     21  C   UNL     1       2.296   0.133  -2.623  1.00  0.00     0.073 A 
ATOM     22  C   UNL     1       0.500  -0.703  -4.619  1.00  0.00     0.006 A 
ATOM     23  C   UNL     1       1.808  -0.382  -4.954  1.00  0.00     0.027 A 
BRANCH  19  24
ATOM     24  O   UNL     1       0.478  -0.385  -1.023  1.00  0.00    -0.497 OA
ATOM     25  C   UNL     1       1.173   0.223   0.052  1.00  0.00     0.278 C 
ENDBRANCH  19  24
ENDBRANCH   8  18
BRANCH  12  26
ATOM     26  C   UNL     1       3.082   2.948  -6.606  1.00  0.00    -0.031 A 
ATOM     27  C   UNL     1       1.940   2.188  -6.857  1.00  0.00     0.055 A 
ATOM     28  C   UNL     1       3.623   3.630  -7.706  1.00  0.00     0.055 A 
ATOM     29  C   UNL     1       1.496   1.912  -8.156  1.00  0.00     0.164 A 
ATOM     30  C   UNL     1       3.102   3.495  -9.012  1.00  0.00     0.164 A 
ATOM     31  C   UNL     1       2.052   2.588  -9.253  1.00  0.00     0.203 A 
BRANCH  29  32
ATOM     32  O   UNL     1       0.488   0.977  -8.203  1.00  0.00    -0.493 OA
ATOM     33  C   UNL     1       0.576   0.036  -9.274  1.00  0.00     0.278 C 
ENDBRANCH  29  32
BRANCH  30  34
ATOM     34  O   UNL     1       3.630   4.179 -10.077  1.00  0.00    -0.493 OA
ATOM     35  C   UNL     1       4.469   5.296  -9.806  1.00  0.00     0.278 C 
ENDBRANCH  30  34
BRANCH  31  36
ATOM     36  O   UNL     1       1.493   2.281 -10.465  1.00  0.00    -0.490 OA
ATOM     37  C   UNL     1       1.671   3.156 -11.565  1.00  0.00     0.278 C 
ENDBRANCH  31  36
ENDBRANCH  12  26
ENDBRANCH   5   7
ENDBRANCH   4   5
ENDBRANCH   3   4
ENDBRANCH   2   3
ENDBRANCH   1   2
BRANCH   1  38
ATOM     38  C   UNL     1       8.332  -1.300  -2.387  1.00  0.00     0.202 C 
BRANCH  38  39
ATOM     39  C   UNL     1       8.470  -0.202  -1.347  1.00  0.00     0.261 C 
BRANCH  39  40
ATOM     40  O   UNL     1       9.143   0.938  -1.851  1.00  0.00    -0.460 OA
BRANCH  40  41
ATOM     41  C   UNL     1      10.438   1.015  -1.460  1.00  0.00     0.338 C 
ATOM     42  O   UNL     1      11.142   0.113  -1.049  1.00  0.00    -0.246 OA
BRANCH  41  43
ATOM     43  C   UNL     1      10.808   2.430  -1.400  1.00  0.00     0.060 A 
ATOM     44  C   UNL     1      12.074   2.712  -0.884  1.00  0.00     0.016 A 
ATOM     45  C   UNL     1       9.799   3.399  -1.487  1.00  0.00     0.016 A 
ATOM     46  C   UNL     1      12.250   3.907  -0.227  1.00  0.00     0.010 A 
ATOM     47  C   UNL     1       9.961   4.569  -0.794  1.00  0.00     0.010 A 
ATOM     48  C   UNL     1      11.155   4.769  -0.107  1.00  0.00    -0.014 A 
BRANCH  48  49
ATOM     49  C   UNL     1      11.336   6.014   0.600  1.00  0.00     0.031 A 
ATOM     50  C   UNL     1      12.061   6.986  -0.244  1.00  0.00     0.074 A 
ATOM     51  C   UNL     1      10.788   6.261   1.803  1.00  0.00     0.049 A 
ATOM     52  N   UNL     1      13.298   7.337  -0.135  1.00  0.00    -0.248 NA
ATOM     53  C   UNL     1      11.422   7.410  -1.506  1.00  0.00     0.031 C 
ATOM     54  C   UNL     1       9.837   5.435   2.551  1.00  0.00     0.029 A 
ATOM     55  N   UNL     1      10.884   7.378   2.571  1.00  0.00    -0.354 N 
ATOM     56  C   UNL     1      13.500   8.241  -1.169  1.00  0.00     0.074 A 
ATOM     57  C   UNL     1      12.443   8.011  -2.116  1.00  0.00     0.031 C 
ATOM     58  C   UNL     1       9.264   6.186   3.523  1.00  0.00     0.029 A 
ATOM     59  C   UNL     1       9.894   7.497   3.540  1.00  0.00     0.049 A 
ATOM     60  H   UNL     1      11.595   8.047   2.451  1.00  0.00     0.167 HD
ATOM     61  C   UNL     1      14.242   9.361  -0.957  1.00  0.00     0.031 A 
ATOM     62  C   UNL     1       9.581   8.620   4.239  1.00  0.00     0.031 A 
ATOM     63  C   UNL     1      15.082   9.216   0.209  1.00  0.00     0.049 A 
ATOM     64  C   UNL     1      10.724   9.555   4.112  1.00  0.00     0.074 A 
ATOM     65  C   UNL     1      16.045   8.312   0.615  1.00  0.00     0.029 A 
ATOM     66  N   UNL     1      14.669   9.868   1.347  1.00  0.00    -0.354 N 
ATOM     67  N   UNL     1      11.883   9.348   4.664  1.00  0.00    -0.248 NA
ATOM     68  C   UNL     1      10.724  10.480   2.989  1.00  0.00     0.031 C 
ATOM     69  C   UNL     1      15.845   8.159   2.020  1.00  0.00     0.029 A 
ATOM     70  C   UNL     1      14.834   9.034   2.418  1.00  0.00     0.049 A 
ATOM     71  H   UNL     1      14.312  10.785   1.384  1.00  0.00     0.167 HD
ATOM     72  C   UNL     1      12.802   9.716   3.692  1.00  0.00     0.074 A 
ATOM     73  C   UNL     1      12.034  10.504   2.726  1.00  0.00     0.031 C 
ATOM     74  C   UNL     1      14.014   9.091   3.608  1.00  0.00     0.031 A 
BRANCH  61  75
ATOM     75  C   UNL     1      13.793  10.721  -1.456  1.00  0.00    -0.014 A 
ATOM     76  C   UNL     1      14.586  11.836  -1.140  1.00  0.00     0.009 A 
ATOM     77  C   UNL     1      12.499  10.995  -1.947  1.00  0.00     0.009 A 
ATOM     78  C   UNL     1      14.074  13.137  -1.210  1.00  0.00     0.001 A 
ATOM     79  C   UNL     1      11.998  12.293  -2.060  1.00  0.00     0.001 A 
ATOM     80  C   UNL     1      12.777  13.364  -1.658  1.00  0.00     0.000 A 
ENDBRANCH  61  75
BRANCH  62  81
ATOM     81  C   UNL     1       8.271   9.081   4.756  1.00  0.00    -0.014 A 
ATOM     82  C   UNL     1       8.197  10.153   5.664  1.00  0.00     0.009 A 
ATOM     83  C   UNL     1       7.075   8.669   4.142  1.00  0.00     0.009 A 
ATOM     84  C   UNL     1       6.985  10.816   5.908  1.00  0.00     0.001 A 
ATOM     85  C   UNL     1       5.864   9.327   4.389  1.00  0.00     0.001 A 
ATOM     86  C   UNL     1       5.822  10.412   5.258  1.00  0.00     0.000 A 
ENDBRANCH  62  81
BRANCH  74  87
ATOM     87  C   UNL     1      14.439   8.221   4.767  1.00  0.00    -0.014 A 
ATOM     88  C   UNL     1      13.721   7.094   5.207  1.00  0.00     0.009 A 
ATOM     89  C   UNL     1      15.681   8.490   5.360  1.00  0.00     0.009 A 
ATOM     90  C   UNL     1      14.218   6.288   6.239  1.00  0.00     0.001 A 
ATOM     91  C   UNL     1      16.187   7.673   6.371  1.00  0.00     0.001 A 
ATOM     92  C   UNL     1      15.452   6.578   6.817  1.00  0.00     0.000 A 
ENDBRANCH  74  87
ENDBRANCH  48  49
ENDBRANCH  41  43
ENDBRANCH  40  41
ENDBRANCH  39  40
ENDBRANCH  38  39
ENDBRANCH   1  38
TORSDOF 20
