REMARK SMILES COc1cc(OC)cc(-c2cc3nc(C)c(CCC(=O)OCCOCCOC(=O)c4ccc(-c5c6nc(c(-c7ccccc7)c7ccc([nH]7)c(-c7ccccc7)c7nc(c(-c8ccccc8)c8ccc5[nH]8)C=C7)C=C6)cc4)c(C)n3n2)c1
REMARK SMILES IDX 23 1 22 2 21 3 19 4 20 5 18 6 17 7 16 8 10 9 11 10 81 11
REMARK SMILES IDX 12 12 80 13 13 14 78 15 14 16 79 17 15 18 9 19 3 20 4 21
REMARK SMILES IDX 82 22 5 23 8 24 2 25 1 26 6 27 7 28 24 29 25 30 26 31 27 32
REMARK SMILES IDX 28 33 29 34 30 35 31 36 77 37 32 38 76 39 33 40 34 41 35 42
REMARK SMILES IDX 70 43 36 44 75 45 69 46 71 47 37 48 74 49 68 50 67 51 38 53
REMARK SMILES IDX 60 54 45 55 59 56 46 57 49 58 58 59 72 60 47 61 48 62 57 64
REMARK SMILES IDX 73 65 50 66 39 67 40 68 44 69 41 70 43 71 42 72 61 73 62 74
REMARK SMILES IDX 66 75 63 76 65 77 64 78 51 79 52 80 56 81 53 82 55 83 54 84
REMARK H PARENT 71 52 49 63
REMARK Flexibility Score: inf
ROOT
ATOM      1  C   UNL     1       8.116  -1.391  -3.952  1.00  0.00     0.202 C 
ENDROOT
BRANCH   1   2
ATOM      2  C   UNL     1       8.500  -1.328  -2.454  1.00  0.00     0.261 C 
BRANCH   2   3
ATOM      3  O   UNL     1       8.839  -0.003  -1.956  1.00  0.00    -0.463 OA
BRANCH   3   4
ATOM      4  C   UNL     1      10.120   0.421  -1.913  1.00  0.00     0.306 C 
ATOM      5  O   UNL     1      11.087  -0.274  -2.195  1.00  0.00    -0.252 OA
BRANCH   4   6
ATOM      6  C   UNL     1      10.233   1.880  -1.461  1.00  0.00     0.127 C 
BRANCH   6   7
ATOM      7  C   UNL     1       9.755   3.002  -2.421  1.00  0.00     0.051 C 
BRANCH   7   8
ATOM      8  C   UNL     1       8.359   3.588  -2.202  1.00  0.00    -0.005 A 
ATOM      9  C   UNL     1       3.854   3.598  -2.056  1.00  0.00     0.095 A 
ATOM     10  C   UNL     1       4.402   4.857  -1.691  1.00  0.00     0.080 A 
ATOM     11  N   UNL     1       4.825   2.755  -2.385  1.00  0.00    -0.166 NA
ATOM     12  C   UNL     1       5.780   4.711  -1.773  1.00  0.00     0.156 A 
ATOM     13  N   UNL     1       5.971   3.430  -2.232  1.00  0.00    -0.219 N 
ATOM     14  N   UNL     1       6.856   5.526  -1.549  1.00  0.00    -0.234 NA
ATOM     15  C   UNL     1       7.228   2.915  -2.499  1.00  0.00     0.046 A 
ATOM     16  C   UNL     1       8.055   5.026  -1.752  1.00  0.00     0.045 A 
ATOM     17  C   UNL     1       7.142   1.599  -3.165  1.00  0.00     0.067 C 
ATOM     18  C   UNL     1       9.192   6.016  -1.565  1.00  0.00     0.067 C 
BRANCH   9  19
ATOM     19  C   UNL     1       2.498   3.068  -2.145  1.00  0.00     0.009 A 
ATOM     20  C   UNL     1       0.992   1.205  -1.687  1.00  0.00     0.123 A 
ATOM     21  C   UNL     1       0.069   1.748  -2.569  1.00  0.00     0.092 A 
ATOM     22  C   UNL     1       2.211   1.850  -1.490  1.00  0.00     0.057 A 
ATOM     23  C   UNL     1       0.361   2.927  -3.253  1.00  0.00     0.123 A 
ATOM     24  C   UNL     1       1.562   3.610  -3.029  1.00  0.00     0.057 A 
BRANCH  20  25
ATOM     25  O   UNL     1       0.659  -0.005  -1.144  1.00  0.00    -0.497 OA
ATOM     26  C   UNL     1       0.999  -0.139   0.231  1.00  0.00     0.278 C 
ENDBRANCH  20  25
BRANCH  23  27
ATOM     27  O   UNL     1      -0.602   3.351  -4.126  1.00  0.00    -0.497 OA
ATOM     28  C   UNL     1      -0.097   3.624  -5.430  1.00  0.00     0.278 C 
ENDBRANCH  23  27
ENDBRANCH   9  19
ENDBRANCH   7   8
ENDBRANCH   6   7
ENDBRANCH   4   6
ENDBRANCH   3   4
ENDBRANCH   2   3
ENDBRANCH   1   2
BRANCH   1  29
ATOM     29  O   UNL     1       9.218  -1.540  -4.846  1.00  0.00    -0.374 OA
BRANCH  29  30
ATOM     30  C   UNL     1       9.958  -0.367  -5.160  1.00  0.00     0.202 C 
BRANCH  30  31
ATOM     31  C   UNL     1       9.504   0.347  -6.426  1.00  0.00     0.261 C 
BRANCH  31  32
ATOM     32  O   UNL     1       8.352   1.146  -6.161  1.00  0.00    -0.460 OA
BRANCH  32  33
ATOM     33  C   UNL     1       7.154   0.690  -6.603  1.00  0.00     0.338 C 
ATOM     34  O   UNL     1       6.899  -0.400  -7.053  1.00  0.00    -0.246 OA
BRANCH  33  35
ATOM     35  C   UNL     1       6.228   1.845  -6.571  1.00  0.00     0.060 A 
ATOM     36  C   UNL     1       5.002   1.728  -7.225  1.00  0.00     0.016 A 
ATOM     37  C   UNL     1       6.653   3.076  -6.036  1.00  0.00     0.016 A 
ATOM     38  C   UNL     1       4.324   2.889  -7.548  1.00  0.00     0.010 A 
ATOM     39  C   UNL     1       5.944   4.218  -6.289  1.00  0.00     0.010 A 
ATOM     40  C   UNL     1       4.878   4.117  -7.165  1.00  0.00    -0.014 A 
BRANCH  40  41
ATOM     41  C   UNL     1       4.438   5.326  -7.812  1.00  0.00     0.031 A 
ATOM     42  C   UNL     1       3.191   5.913  -7.309  1.00  0.00     0.074 A 
ATOM     43  C   UNL     1       5.195   5.961  -8.725  1.00  0.00     0.049 A 
ATOM     44  N   UNL     1       2.049   5.916  -7.903  1.00  0.00    -0.248 NA
ATOM     45  C   UNL     1       3.184   6.471  -5.955  1.00  0.00     0.031 C 
ATOM     46  C   UNL     1       6.591   5.743  -9.113  1.00  0.00     0.029 A 
ATOM     47  N   UNL     1       4.846   7.051  -9.445  1.00  0.00    -0.354 N 
ATOM     48  C   UNL     1       1.185   6.602  -7.066  1.00  0.00     0.074 A 
ATOM     49  C   UNL     1       1.898   6.797  -5.825  1.00  0.00     0.031 C 
ATOM     50  C   UNL     1       7.026   6.819  -9.815  1.00  0.00     0.029 A 
ATOM     51  C   UNL     1       5.899   7.705 -10.055  1.00  0.00     0.049 A 
ATOM     52  H   UNL     1       3.913   7.355  -9.528  1.00  0.00     0.167 HD
ATOM     53  C   UNL     1      -0.006   7.087  -7.512  1.00  0.00     0.031 A 
ATOM     54  C   UNL     1       5.824   8.924 -10.644  1.00  0.00     0.031 A 
ATOM     55  C   UNL     1      -0.328   6.595  -8.830  1.00  0.00     0.049 A 
ATOM     56  C   UNL     1       4.396   9.164 -10.981  1.00  0.00     0.074 A 
ATOM     57  C   UNL     1      -0.563   5.344  -9.371  1.00  0.00     0.029 A 
ATOM     58  N   UNL     1      -0.021   7.404  -9.901  1.00  0.00    -0.354 N 
ATOM     59  N   UNL     1       3.751   8.456 -11.867  1.00  0.00    -0.248 NA
ATOM     60  C   UNL     1       3.559   9.832  -9.992  1.00  0.00     0.031 C 
ATOM     61  C   UNL     1       0.121   5.354 -10.626  1.00  0.00     0.029 A 
ATOM     62  C   UNL     1       0.672   6.626 -10.797  1.00  0.00     0.049 A 
ATOM     63  H   UNL     1      -0.254   8.355 -10.005  1.00  0.00     0.167 HD
ATOM     64  C   UNL     1       2.500   8.231 -11.306  1.00  0.00     0.074 A 
ATOM     65  C   UNL     1       2.412   9.172 -10.188  1.00  0.00     0.031 C 
ATOM     66  C   UNL     1       1.768   7.114 -11.603  1.00  0.00     0.031 A 
BRANCH  53  67
ATOM     67  C   UNL     1      -0.721   8.252  -6.892  1.00  0.00    -0.014 A 
ATOM     68  C   UNL     1      -1.992   8.604  -7.375  1.00  0.00     0.009 A 
ATOM     69  C   UNL     1      -0.102   9.161  -6.013  1.00  0.00     0.009 A 
ATOM     70  C   UNL     1      -2.583   9.828  -7.039  1.00  0.00     0.001 A 
ATOM     71  C   UNL     1      -0.707  10.361  -5.640  1.00  0.00     0.001 A 
ATOM     72  C   UNL     1      -1.938  10.708  -6.175  1.00  0.00     0.000 A 
ENDBRANCH  53  67
BRANCH  54  73
ATOM     73  C   UNL     1       6.831  10.004 -10.574  1.00  0.00    -0.014 A 
ATOM     74  C   UNL     1       6.811  11.079 -11.474  1.00  0.00     0.009 A 
ATOM     75  C   UNL     1       7.665  10.110  -9.444  1.00  0.00     0.009 A 
ATOM     76  C   UNL     1       7.586  12.225 -11.240  1.00  0.00     0.001 A 
ATOM     77  C   UNL     1       8.436  11.253  -9.210  1.00  0.00     0.001 A 
ATOM     78  C   UNL     1       8.388  12.316 -10.104  1.00  0.00     0.000 A 
ENDBRANCH  54  73
BRANCH  66  79
ATOM     79  C   UNL     1       2.292   6.189 -12.677  1.00  0.00    -0.014 A 
ATOM     80  C   UNL     1       3.532   5.530 -12.582  1.00  0.00     0.009 A 
ATOM     81  C   UNL     1       1.450   5.857 -13.747  1.00  0.00     0.009 A 
ATOM     82  C   UNL     1       3.930   4.597 -13.547  1.00  0.00     0.001 A 
ATOM     83  C   UNL     1       1.840   4.914 -14.703  1.00  0.00     0.001 A 
ATOM     84  C   UNL     1       3.082   4.289 -14.607  1.00  0.00     0.000 A 
ENDBRANCH  66  79
ENDBRANCH  40  41
ENDBRANCH  33  35
ENDBRANCH  32  33
ENDBRANCH  31  32
ENDBRANCH  30  31
ENDBRANCH  29  30
ENDBRANCH   1  29
TORSDOF 19
