REMARK SMILES O=C(OCCOCCOC(=O)[C@@H]1CN(C(=O)CCC(F)(F)F)C[C@H]1c1ccc2c(c1)OCO2)c1ccc(-c2c3nc(c(-c4ccccc4)c4ccc([nH]4)c(-c4ccccc4)c4nc(c(-c5ccccc5)c5ccc2[nH]5)C=C4)C=C3)cc1
REMARK SMILES IDX 7 1 6 2 5 3 4 4 3 5 2 6 1 7 34 8 35 9 81 10 36 11 80 12
REMARK SMILES IDX 37 13 38 14 39 15 74 16 40 17 79 18 73 19 75 20 41 21 78 22
REMARK SMILES IDX 72 23 71 24 42 26 64 27 49 28 63 29 50 30 53 31 62 32 76 33
REMARK SMILES IDX 51 34 52 35 61 37 77 38 54 39 43 40 44 41 48 42 45 43 47 44
REMARK SMILES IDX 46 45 65 46 66 47 70 48 67 49 69 50 68 51 55 52 56 53 60 54
REMARK SMILES IDX 57 55 59 56 58 57 8 58 9 59 10 60 11 61 12 62 13 63 24 64
REMARK SMILES IDX 14 65 23 66 25 67 26 68 30 69 27 70 29 71 28 72 31 73 33 74
REMARK SMILES IDX 32 75 15 76 16 77 17 78 18 79 19 80 20 81 21 82 22 83
REMARK H PARENT 75 25 53 36
REMARK Flexibility Score: inf
ROOT
ATOM      1  C   UNL     1       2.424   2.058  -0.731  1.00  0.00     0.202 C 
ENDROOT
BRANCH   1   2
ATOM      2  O   UNL     1       3.615   1.429  -0.263  1.00  0.00    -0.374 OA
BRANCH   2   3
ATOM      3  C   UNL     1       3.965   0.204  -0.883  1.00  0.00     0.202 C 
BRANCH   3   4
ATOM      4  C   UNL     1       3.332  -1.050  -0.289  1.00  0.00     0.261 C 
BRANCH   4   5
ATOM      5  O   UNL     1       1.926  -0.870  -0.026  1.00  0.00    -0.460 OA
BRANCH   5   6
ATOM      6  C   UNL     1       1.389  -0.745   1.219  1.00  0.00     0.338 C 
ATOM      7  O   UNL     1       0.180  -0.773   1.404  1.00  0.00    -0.246 OA
BRANCH   6   8
ATOM      8  C   UNL     1       2.304  -0.603   2.370  1.00  0.00     0.060 A 
ATOM      9  C   UNL     1       3.260   0.401   2.370  1.00  0.00     0.016 A 
ATOM     10  C   UNL     1       2.214  -1.448   3.471  1.00  0.00     0.016 A 
ATOM     11  C   UNL     1       4.288   0.413   3.280  1.00  0.00     0.010 A 
ATOM     12  C   UNL     1       3.112  -1.279   4.531  1.00  0.00     0.010 A 
ATOM     13  C   UNL     1       4.168  -0.354   4.427  1.00  0.00    -0.014 A 
BRANCH  13  14
ATOM     14  C   UNL     1       5.140  -0.117   5.512  1.00  0.00     0.031 A 
ATOM     15  C   UNL     1       5.970  -1.255   6.002  1.00  0.00     0.074 A 
ATOM     16  C   UNL     1       5.301   1.135   5.992  1.00  0.00     0.049 A 
ATOM     17  N   UNL     1       6.718  -1.325   7.068  1.00  0.00    -0.248 NA
ATOM     18  C   UNL     1       5.944  -2.487   5.195  1.00  0.00     0.031 C 
ATOM     19  C   UNL     1       4.617   2.339   5.495  1.00  0.00     0.029 A 
ATOM     20  N   UNL     1       6.114   1.618   6.982  1.00  0.00    -0.354 N 
ATOM     21  C   UNL     1       7.184  -2.631   7.106  1.00  0.00     0.074 A 
ATOM     22  C   UNL     1       6.654  -3.314   5.947  1.00  0.00     0.031 C 
ATOM     23  C   UNL     1       5.091   3.419   6.130  1.00  0.00     0.029 A 
ATOM     24  C   UNL     1       5.993   2.974   7.176  1.00  0.00     0.049 A 
ATOM     25  H   UNL     1       6.725   1.050   7.504  1.00  0.00     0.167 HD
ATOM     26  C   UNL     1       7.964  -3.201   8.052  1.00  0.00     0.031 A 
ATOM     27  C   UNL     1       6.497   3.762   8.142  1.00  0.00     0.031 A 
ATOM     28  C   UNL     1       8.477  -2.473   9.180  1.00  0.00     0.049 A 
ATOM     29  C   UNL     1       7.304   3.093   9.213  1.00  0.00     0.074 A 
ATOM     30  C   UNL     1       9.231  -2.933  10.243  1.00  0.00     0.029 A 
ATOM     31  N   UNL     1       8.290  -1.109   9.376  1.00  0.00    -0.354 N 
ATOM     32  N   UNL     1       7.655   1.832   9.311  1.00  0.00    -0.248 NA
ATOM     33  C   UNL     1       7.757   3.940  10.321  1.00  0.00     0.031 C 
ATOM     34  C   UNL     1       9.463  -1.854  11.104  1.00  0.00     0.029 A 
ATOM     35  C   UNL     1       8.904  -0.711  10.548  1.00  0.00     0.049 A 
ATOM     36  H   UNL     1       7.794  -0.514   8.769  1.00  0.00     0.167 HD
ATOM     37  C   UNL     1       8.379   1.731  10.488  1.00  0.00     0.074 A 
ATOM     38  C   UNL     1       8.438   3.068  11.052  1.00  0.00     0.031 C 
ATOM     39  C   UNL     1       8.936   0.637  11.061  1.00  0.00     0.031 A 
BRANCH  26  40
ATOM     40  C   UNL     1       8.200  -4.679   7.938  1.00  0.00    -0.014 A 
ATOM     41  C   UNL     1       9.014  -5.229   6.935  1.00  0.00     0.009 A 
ATOM     42  C   UNL     1       7.540  -5.546   8.825  1.00  0.00     0.009 A 
ATOM     43  C   UNL     1       9.123  -6.615   6.794  1.00  0.00     0.001 A 
ATOM     44  C   UNL     1       7.673  -6.929   8.700  1.00  0.00     0.001 A 
ATOM     45  C   UNL     1       8.453  -7.463   7.676  1.00  0.00     0.000 A 
ENDBRANCH  26  40
BRANCH  27  46
ATOM     46  C   UNL     1       6.172   5.214   8.185  1.00  0.00    -0.014 A 
ATOM     47  C   UNL     1       7.174   6.181   8.018  1.00  0.00     0.009 A 
ATOM     48  C   UNL     1       4.849   5.646   8.385  1.00  0.00     0.009 A 
ATOM     49  C   UNL     1       6.862   7.543   8.069  1.00  0.00     0.001 A 
ATOM     50  C   UNL     1       4.534   7.007   8.401  1.00  0.00     0.001 A 
ATOM     51  C   UNL     1       5.543   7.955   8.254  1.00  0.00     0.000 A 
ENDBRANCH  27  46
BRANCH  39  52
ATOM     52  C   UNL     1       9.689   0.866  12.336  1.00  0.00    -0.014 A 
ATOM     53  C   UNL     1       9.018   1.111  13.542  1.00  0.00     0.009 A 
ATOM     54  C   UNL     1      11.090   0.788  12.328  1.00  0.00     0.009 A 
ATOM     55  C   UNL     1       9.743   1.303  14.718  1.00  0.00     0.001 A 
ATOM     56  C   UNL     1      11.808   0.949  13.510  1.00  0.00     0.001 A 
ATOM     57  C   UNL     1      11.135   1.215  14.702  1.00  0.00     0.000 A 
ENDBRANCH  39  52
ENDBRANCH  13  14
ENDBRANCH   6   8
ENDBRANCH   5   6
ENDBRANCH   4   5
ENDBRANCH   3   4
ENDBRANCH   2   3
ENDBRANCH   1   2
BRANCH   1  58
ATOM     58  C   UNL     1       2.821   3.351  -1.426  1.00  0.00     0.261 C 
BRANCH  58  59
ATOM     59  O   UNL     1       3.652   3.022  -2.551  1.00  0.00    -0.463 OA
BRANCH  59  60
ATOM     60  C   UNL     1       4.995   2.971  -2.326  1.00  0.00     0.311 C 
ATOM     61  O   UNL     1       5.566   3.272  -1.284  1.00  0.00    -0.252 OA
BRANCH  60  62
ATOM     62  C   UNL     1       5.736   2.572  -3.577  1.00  0.00     0.128 C 
ATOM     63  C   UNL     1       5.488   3.684  -4.569  1.00  0.00     0.135 C 
ATOM     64  C   UNL     1       5.243   1.257  -4.226  1.00  0.00     0.055 C 
ATOM     65  N   UNL     1       5.060   3.067  -5.796  1.00  0.00    -0.341 N 
ATOM     66  C   UNL     1       5.088   1.617  -5.716  1.00  0.00     0.128 C 
BRANCH  64  67
ATOM     67  C   UNL     1       6.108   0.028  -3.923  1.00  0.00    -0.038 A 
ATOM     68  C   UNL     1       6.785  -0.095  -2.681  1.00  0.00     0.008 A 
ATOM     69  C   UNL     1       6.198  -1.050  -4.825  1.00  0.00     0.054 A 
ATOM     70  C   UNL     1       7.512  -1.240  -2.333  1.00  0.00     0.051 A 
ATOM     71  C   UNL     1       6.973  -2.145  -4.481  1.00  0.00     0.166 A 
ATOM     72  C   UNL     1       7.602  -2.242  -3.265  1.00  0.00     0.165 A 
ATOM     73  O   UNL     1       7.214  -3.231  -5.267  1.00  0.00    -0.454 OA
ATOM     74  O   UNL     1       8.300  -3.399  -3.124  1.00  0.00    -0.454 OA
ATOM     75  C   UNL     1       8.171  -3.944  -4.453  1.00  0.00     0.468 C 
ENDBRANCH  64  67
BRANCH  65  76
ATOM     76  C   UNL     1       4.647   3.732  -6.926  1.00  0.00     0.222 C 
ATOM     77  O   UNL     1       4.226   3.145  -7.921  1.00  0.00    -0.275 OA
BRANCH  76  78
ATOM     78  C   UNL     1       4.730   5.252  -6.909  1.00  0.00     0.109 C 
BRANCH  78  79
ATOM     79  C   UNL     1       3.366   5.926  -6.810  1.00  0.00     0.125 C 
BRANCH  79  80
ATOM     80  C   UNL     1       2.675   5.737  -5.479  1.00  0.00     0.389 C 
ATOM     81  F   UNL     1       3.444   6.191  -4.464  1.00  0.00    -0.171 F 
ATOM     82  F   UNL     1       1.518   6.433  -5.442  1.00  0.00    -0.171 F 
ATOM     83  F   UNL     1       2.382   4.445  -5.232  1.00  0.00    -0.171 F 
ENDBRANCH  79  80
ENDBRANCH  78  79
ENDBRANCH  76  78
ENDBRANCH  65  76
ENDBRANCH  60  62
ENDBRANCH  59  60
ENDBRANCH  58  59
ENDBRANCH   1  58
TORSDOF 19
