REMARK SMILES C[C@H](NC(=O)c1cccc(NC(=O)c2ccccc2C(=O)OCCOCCOC(=O)c2ccc(-c3c4nc(c(-c5ccccc5)c5ccc([nH]5)c(-c5ccccc5)c5nc(c(-c6ccccc6)c6ccc3[nH]6)C=C5)C=C4)cc2)c1)c1ccccc1
REMARK SMILES IDX 23 1 22 2 20 3 21 4 19 5 14 6 15 7 16 8 18 9 17 10 12 11
REMARK SMILES IDX 11 12 13 14 10 15 6 16 7 17 79 18 8 19 9 20 4 21 3 22 5 24
REMARK SMILES IDX 2 25 1 26 80 27 81 28 85 29 82 30 84 31 83 32 24 33 25 34
REMARK SMILES IDX 26 35 27 36 28 37 29 38 30 39 31 40 32 41 78 42 33 43 77 44
REMARK SMILES IDX 34 45 35 46 36 47 71 48 37 49 76 50 70 51 72 52 38 53 75 54
REMARK SMILES IDX 69 55 68 56 39 58 61 59 46 60 60 61 47 62 50 63 59 64 73 65
REMARK SMILES IDX 48 66 49 67 58 69 74 70 51 71 40 72 41 73 45 74 42 75 44 76
REMARK SMILES IDX 43 77 62 78 63 79 67 80 64 81 66 82 65 83 52 84 53 85 57 86
REMARK SMILES IDX 54 87 56 88 55 89
REMARK H PARENT 11 13 3 23 72 57 50 68
REMARK Flexibility Score: inf
ROOT
ATOM      1  C   UNL     1       1.940  -4.685  -0.259  1.00  0.00     0.261 C 
ENDROOT
BRANCH   1   2
ATOM      2  O   UNL     1       3.146  -5.425  -0.193  1.00  0.00    -0.460 OA
BRANCH   2   3
ATOM      3  C   UNL     1       3.659  -5.476   1.049  1.00  0.00     0.339 C 
ATOM      4  O   UNL     1       3.083  -5.240   2.104  1.00  0.00    -0.246 OA
BRANCH   3   5
ATOM      5  C   UNL     1       5.045  -5.935   0.980  1.00  0.00     0.072 A 
ATOM      6  C   UNL     1       5.990  -5.452   0.062  1.00  0.00     0.054 A 
ATOM      7  C   UNL     1       7.263  -6.054   0.059  1.00  0.00     0.015 A 
ATOM      8  C   UNL     1       7.596  -7.056   0.979  1.00  0.00     0.001 A 
ATOM      9  C   UNL     1       5.391  -6.920   1.923  1.00  0.00     0.016 A 
ATOM     10  C   UNL     1       6.664  -7.479   1.921  1.00  0.00     0.001 A 
BRANCH   6  11
ATOM     11  C   UNL     1       5.753  -4.444  -1.007  1.00  0.00     0.256 C 
ATOM     12  N   UNL     1       5.185  -3.194  -0.856  1.00  0.00    -0.322 N 
ATOM     13  H   UNL     1       5.080  -2.720  -1.713  1.00  0.00     0.170 HD
ATOM     14  O   UNL     1       6.102  -4.766  -2.149  1.00  0.00    -0.269 OA
BRANCH  12  15
ATOM     15  C   UNL     1       4.721  -2.440   0.237  1.00  0.00     0.042 A 
ATOM     16  C   UNL     1       3.112  -0.762   1.001  1.00  0.00     0.041 A 
ATOM     17  C   UNL     1       3.366  -1.160   2.320  1.00  0.00     0.014 A 
ATOM     18  C   UNL     1       3.853  -1.356  -0.032  1.00  0.00     0.040 A 
ATOM     19  C   UNL     1       4.340  -2.120   2.597  1.00  0.00     0.003 A 
ATOM     20  C   UNL     1       5.029  -2.743   1.558  1.00  0.00     0.026 A 
BRANCH  16  21
ATOM     21  C   UNL     1       2.166   0.373   0.831  1.00  0.00     0.251 C 
ATOM     22  N   UNL     1       0.980   0.357   0.135  1.00  0.00    -0.346 N 
ATOM     23  H   UNL     1       0.432   1.147   0.349  1.00  0.00     0.164 HD
ATOM     24  O   UNL     1       2.434   1.405   1.453  1.00  0.00    -0.269 OA
BRANCH  22  25
ATOM     25  C   UNL     1       0.297  -0.513  -0.843  1.00  0.00     0.109 C 
ATOM     26  C   UNL     1       0.801  -1.927  -0.797  1.00  0.00     0.036 C 
BRANCH  25  27
ATOM     27  C   UNL     1      -1.242  -0.470  -0.741  1.00  0.00    -0.026 A 
ATOM     28  C   UNL     1      -1.926   0.748  -0.597  1.00  0.00     0.006 A 
ATOM     29  C   UNL     1      -2.042  -1.629  -0.886  1.00  0.00     0.006 A 
ATOM     30  C   UNL     1      -3.328   0.794  -0.563  1.00  0.00     0.000 A 
ATOM     31  C   UNL     1      -3.439  -1.581  -0.871  1.00  0.00     0.000 A 
ATOM     32  C   UNL     1      -4.083  -0.367  -0.701  1.00  0.00     0.000 A 
ENDBRANCH  25  27
ENDBRANCH  22  25
ENDBRANCH  16  21
ENDBRANCH  12  15
ENDBRANCH   6  11
ENDBRANCH   3   5
ENDBRANCH   2   3
ENDBRANCH   1   2
BRANCH   1  33
ATOM     33  C   UNL     1       0.600  -5.426  -0.275  1.00  0.00     0.202 C 
BRANCH  33  34
ATOM     34  O   UNL     1       0.501  -6.747   0.213  1.00  0.00    -0.374 OA
BRANCH  34  35
ATOM     35  C   UNL     1       1.442  -7.712  -0.228  1.00  0.00     0.202 C 
BRANCH  35  36
ATOM     36  C   UNL     1       1.652  -7.944  -1.733  1.00  0.00     0.261 C 
BRANCH  36  37
ATOM     37  O   UNL     1       1.925  -6.775  -2.530  1.00  0.00    -0.460 OA
BRANCH  37  38
ATOM     38  C   UNL     1       0.930  -6.422  -3.381  1.00  0.00     0.338 C 
ATOM     39  O   UNL     1      -0.183  -6.917  -3.459  1.00  0.00    -0.246 OA
BRANCH  38  40
ATOM     40  C   UNL     1       1.305  -5.250  -4.194  1.00  0.00     0.060 A 
ATOM     41  C   UNL     1       0.517  -4.095  -4.105  1.00  0.00     0.016 A 
ATOM     42  C   UNL     1       2.290  -5.357  -5.176  1.00  0.00     0.016 A 
ATOM     43  C   UNL     1       0.683  -3.058  -5.028  1.00  0.00     0.010 A 
ATOM     44  C   UNL     1       2.446  -4.323  -6.107  1.00  0.00     0.010 A 
ATOM     45  C   UNL     1       1.618  -3.186  -6.065  1.00  0.00    -0.014 A 
BRANCH  45  46
ATOM     46  C   UNL     1       1.642  -2.208  -7.185  1.00  0.00     0.031 A 
ATOM     47  C   UNL     1       1.030  -2.583  -8.510  1.00  0.00     0.074 A 
ATOM     48  C   UNL     1       2.212  -0.998  -7.037  1.00  0.00     0.049 A 
ATOM     49  N   UNL     1       1.021  -1.919  -9.639  1.00  0.00    -0.248 NA
ATOM     50  C   UNL     1       0.339  -3.881  -8.571  1.00  0.00     0.031 C 
ATOM     51  C   UNL     1       2.803  -0.486  -5.803  1.00  0.00     0.029 A 
ATOM     52  N   UNL     1       2.399   0.014  -7.947  1.00  0.00    -0.354 N 
ATOM     53  C   UNL     1       0.344  -2.724 -10.548  1.00  0.00     0.074 A 
ATOM     54  C   UNL     1      -0.024  -3.934  -9.844  1.00  0.00     0.031 C 
ATOM     55  C   UNL     1       3.303   0.740  -6.037  1.00  0.00     0.029 A 
ATOM     56  C   UNL     1       3.104   1.080  -7.445  1.00  0.00     0.049 A 
ATOM     57  H   UNL     1       2.059  -0.021  -8.871  1.00  0.00     0.167 HD
ATOM     58  C   UNL     1       0.054  -2.481 -11.849  1.00  0.00     0.031 A 
ATOM     59  C   UNL     1       3.568   2.189  -8.055  1.00  0.00     0.031 A 
ATOM     60  C   UNL     1       0.426  -1.284 -12.557  1.00  0.00     0.049 A 
ATOM     61  C   UNL     1       3.301   2.402  -9.522  1.00  0.00     0.074 A 
ATOM     62  C   UNL     1       0.150  -0.939 -13.870  1.00  0.00     0.029 A 
ATOM     63  N   UNL     1       1.164  -0.243 -12.018  1.00  0.00    -0.354 N 
ATOM     64  N   UNL     1       2.635   1.647 -10.361  1.00  0.00    -0.248 NA
ATOM     65  C   UNL     1       3.847   3.629 -10.124  1.00  0.00     0.031 C 
ATOM     66  C   UNL     1       0.778   0.280 -14.144  1.00  0.00     0.029 A 
ATOM     67  C   UNL     1       1.382   0.729 -12.981  1.00  0.00     0.049 A 
ATOM     68  H   UNL     1       1.486  -0.200 -11.089  1.00  0.00     0.167 HD
ATOM     69  C   UNL     1       2.655   2.320 -11.578  1.00  0.00     0.074 A 
ATOM     70  C   UNL     1       3.386   3.551 -11.364  1.00  0.00     0.031 C 
ATOM     71  C   UNL     1       2.111   1.952 -12.764  1.00  0.00     0.031 A 
BRANCH  58  72
ATOM     72  C   UNL     1      -0.673  -3.554 -12.615  1.00  0.00    -0.014 A 
ATOM     73  C   UNL     1      -2.023  -3.846 -12.367  1.00  0.00     0.009 A 
ATOM     74  C   UNL     1      -0.008  -4.245 -13.640  1.00  0.00     0.009 A 
ATOM     75  C   UNL     1      -2.682  -4.830 -13.108  1.00  0.00     0.001 A 
ATOM     76  C   UNL     1      -0.677  -5.207 -14.400  1.00  0.00     0.001 A 
ATOM     77  C   UNL     1      -2.010  -5.505 -14.127  1.00  0.00     0.000 A 
ENDBRANCH  58  72
BRANCH  59  78
ATOM     78  C   UNL     1       4.364   3.180  -7.284  1.00  0.00    -0.014 A 
ATOM     79  C   UNL     1       3.851   4.457  -7.012  1.00  0.00     0.009 A 
ATOM     80  C   UNL     1       5.654   2.858  -6.832  1.00  0.00     0.009 A 
ATOM     81  C   UNL     1       4.622   5.398  -6.325  1.00  0.00     0.001 A 
ATOM     82  C   UNL     1       6.410   3.789  -6.117  1.00  0.00     0.001 A 
ATOM     83  C   UNL     1       5.897   5.061  -5.873  1.00  0.00     0.000 A 
ENDBRANCH  59  78
BRANCH  71  84
ATOM     84  C   UNL     1       2.244   2.908 -13.919  1.00  0.00    -0.014 A 
ATOM     85  C   UNL     1       3.477   3.129 -14.554  1.00  0.00     0.009 A 
ATOM     86  C   UNL     1       1.103   3.562 -14.412  1.00  0.00     0.009 A 
ATOM     87  C   UNL     1       3.568   4.010 -15.635  1.00  0.00     0.001 A 
ATOM     88  C   UNL     1       1.191   4.417 -15.512  1.00  0.00     0.001 A 
ATOM     89  C   UNL     1       2.425   4.647 -16.116  1.00  0.00     0.000 A 
ENDBRANCH  71  84
ENDBRANCH  45  46
ENDBRANCH  38  40
ENDBRANCH  37  38
ENDBRANCH  36  37
ENDBRANCH  35  36
ENDBRANCH  34  35
ENDBRANCH  33  34
ENDBRANCH   1  33
TORSDOF 19
