REMARK SMILES Cc1ccc(N2C(=O)C[C@H](Sc3ccccc3C(=O)OCCOCCOC(=O)c3ccc(-c4c5nc(c(-c6ccccc6)c6ccc([nH]6)c(-c6ccccc6)c6nc(c(-c7ccccc7)c7ccc4[nH]7)C=C6)C=C5)cc3)C2=O)cc1
REMARK SMILES IDX 22 1 21 2 20 3 18 4 19 5 17 6 12 7 13 8 14 9 16 10 15 11
REMARK SMILES IDX 11 12 10 13 6 14 7 15 77 16 8 17 9 18 78 19 5 20 1 21 2 22
REMARK SMILES IDX 3 23 80 24 4 25 79 26 23 27 24 28 25 29 26 30 27 31 28 32
REMARK SMILES IDX 29 33 30 34 76 35 31 36 75 37 32 38 33 39 34 40 69 41 35 42
REMARK SMILES IDX 74 43 68 44 70 45 36 46 73 47 67 48 66 49 37 51 59 52 44 53
REMARK SMILES IDX 58 54 45 55 48 56 57 57 71 58 46 59 47 60 56 62 72 63 49 64
REMARK SMILES IDX 38 65 39 66 43 67 40 68 42 69 41 70 60 71 61 72 65 73 62 74
REMARK SMILES IDX 64 75 63 76 50 77 51 78 55 79 52 80 54 81 53 82
REMARK H PARENT 70 50 48 61
REMARK Flexibility Score: inf
ROOT
ATOM      1  C   UNL     1      -4.302   4.000  -2.181  1.00  0.00     0.202 C 
ENDROOT
BRANCH   1   2
ATOM      2  C   UNL     1      -5.444   4.476  -1.373  1.00  0.00     0.261 C 
BRANCH   2   3
ATOM      3  O   UNL     1      -5.364   4.060   0.012  1.00  0.00    -0.460 OA
BRANCH   3   4
ATOM      4  C   UNL     1      -6.030   2.978   0.521  1.00  0.00     0.339 C 
ATOM      5  O   UNL     1      -6.765   2.220  -0.048  1.00  0.00    -0.246 OA
BRANCH   4   6
ATOM      6  C   UNL     1      -5.653   2.872   1.949  1.00  0.00     0.073 A 
ATOM      7  C   UNL     1      -5.645   1.656   2.657  1.00  0.00     0.023 A 
ATOM      8  C   UNL     1      -5.088   1.673   3.948  1.00  0.00     0.016 A 
ATOM      9  C   UNL     1      -4.567   2.846   4.508  1.00  0.00     0.001 A 
ATOM     10  C   UNL     1      -5.231   4.066   2.570  1.00  0.00     0.017 A 
ATOM     11  C   UNL     1      -4.668   4.051   3.833  1.00  0.00     0.001 A 
BRANCH   7  12
ATOM     12  S   UNL     1      -6.508   0.149   2.182  1.00  0.00    -0.111 SA
BRANCH  12  13
ATOM     13  C   UNL     1      -5.275  -0.957   1.420  1.00  0.00     0.151 C 
ATOM     14  N   UNL     1      -3.139  -0.876   0.517  1.00  0.00    -0.250 N 
ATOM     15  C   UNL     1      -3.959  -1.240  -0.525  1.00  0.00     0.235 C 
ATOM     16  C   UNL     1      -3.827  -0.656   1.686  1.00  0.00     0.247 C 
ATOM     17  O   UNL     1      -3.641  -1.531  -1.669  1.00  0.00    -0.274 OA
ATOM     18  C   UNL     1      -5.378  -1.007  -0.094  1.00  0.00     0.126 C 
ATOM     19  O   UNL     1      -3.340  -0.413   2.782  1.00  0.00    -0.273 OA
BRANCH  14  20
ATOM     20  C   UNL     1      -1.750  -0.685   0.389  1.00  0.00     0.052 A 
ATOM     21  C   UNL     1       2.491  -0.052  -0.032  1.00  0.00     0.044 C 
ATOM     22  C   UNL     1       1.008  -0.254   0.082  1.00  0.00    -0.051 A 
ATOM     23  C   UNL     1       0.449  -1.513  -0.172  1.00  0.00     0.005 A 
ATOM     24  C   UNL     1       0.176   0.789   0.498  1.00  0.00     0.005 A 
ATOM     25  C   UNL     1      -0.929  -1.718  -0.061  1.00  0.00     0.027 A 
ATOM     26  C   UNL     1      -1.189   0.563   0.690  1.00  0.00     0.027 A 
ENDBRANCH  14  20
ENDBRANCH  12  13
ENDBRANCH   7  12
ENDBRANCH   4   6
ENDBRANCH   3   4
ENDBRANCH   2   3
ENDBRANCH   1   2
BRANCH   1  27
ATOM     27  O   UNL     1      -4.460   2.619  -2.000  1.00  0.00    -0.374 OA
BRANCH  27  28
ATOM     28  C   UNL     1      -3.331   1.964  -1.557  1.00  0.00     0.202 C 
BRANCH  28  29
ATOM     29  C   UNL     1      -2.498   1.615  -2.763  1.00  0.00     0.261 C 
BRANCH  29  30
ATOM     30  O   UNL     1      -3.146   1.195  -4.028  1.00  0.00    -0.460 OA
BRANCH  30  31
ATOM     31  C   UNL     1      -4.154   1.673  -4.813  1.00  0.00     0.338 C 
ATOM     32  O   UNL     1      -3.970   1.895  -6.008  1.00  0.00    -0.246 OA
BRANCH  31  33
ATOM     33  C   UNL     1      -5.560   1.765  -4.326  1.00  0.00     0.060 A 
ATOM     34  C   UNL     1      -6.414   2.772  -4.830  1.00  0.00     0.016 A 
ATOM     35  C   UNL     1      -6.039   0.910  -3.346  1.00  0.00     0.016 A 
ATOM     36  C   UNL     1      -7.624   3.085  -4.186  1.00  0.00     0.010 A 
ATOM     37  C   UNL     1      -7.218   1.252  -2.687  1.00  0.00     0.010 A 
ATOM     38  C   UNL     1      -7.970   2.393  -3.033  1.00  0.00    -0.014 A 
BRANCH  38  39
ATOM     39  C   UNL     1      -9.066   2.767  -2.115  1.00  0.00     0.031 A 
ATOM     40  C   UNL     1     -10.226   1.867  -2.047  1.00  0.00     0.074 A 
ATOM     41  C   UNL     1      -8.972   3.764  -1.192  1.00  0.00     0.049 A 
ATOM     42  N   UNL     1     -11.352   2.205  -1.527  1.00  0.00    -0.248 NA
ATOM     43  C   UNL     1     -10.252   0.520  -2.614  1.00  0.00     0.031 C 
ATOM     44  C   UNL     1      -9.695   3.974   0.070  1.00  0.00     0.029 A 
ATOM     45  N   UNL     1      -8.089   4.840  -1.152  1.00  0.00    -0.354 N 
ATOM     46  C   UNL     1     -12.045   1.045  -1.301  1.00  0.00     0.074 A 
ATOM     47  C   UNL     1     -11.428   0.072  -2.165  1.00  0.00     0.031 C 
ATOM     48  C   UNL     1      -9.450   5.222   0.534  1.00  0.00     0.029 A 
ATOM     49  C   UNL     1      -8.665   5.913  -0.482  1.00  0.00     0.049 A 
ATOM     50  H   UNL     1      -7.185   4.841  -1.544  1.00  0.00     0.167 HD
ATOM     51  C   UNL     1     -12.930   1.019  -0.267  1.00  0.00     0.031 A 
ATOM     52  C   UNL     1      -8.916   7.072  -1.148  1.00  0.00     0.031 A 
ATOM     53  C   UNL     1     -13.053   2.350   0.367  1.00  0.00     0.049 A 
ATOM     54  C   UNL     1     -10.406   7.250  -1.192  1.00  0.00     0.074 A 
ATOM     55  C   UNL     1     -12.708   2.868   1.605  1.00  0.00     0.029 A 
ATOM     56  N   UNL     1     -13.299   3.460  -0.442  1.00  0.00    -0.354 N 
ATOM     57  N   UNL     1     -11.228   6.276  -0.915  1.00  0.00    -0.248 NA
ATOM     58  C   UNL     1     -11.102   8.481  -1.517  1.00  0.00     0.031 C 
ATOM     59  C   UNL     1     -12.755   4.298   1.519  1.00  0.00     0.029 A 
ATOM     60  C   UNL     1     -13.158   4.652   0.241  1.00  0.00     0.049 A 
ATOM     61  H   UNL     1     -13.546   3.400  -1.393  1.00  0.00     0.167 HD
ATOM     62  C   UNL     1     -12.504   6.724  -0.874  1.00  0.00     0.074 A 
ATOM     63  C   UNL     1     -12.384   8.093  -1.368  1.00  0.00     0.031 C 
ATOM     64  C   UNL     1     -13.510   5.915  -0.424  1.00  0.00     0.031 A 
BRANCH  51  65
ATOM     65  C   UNL     1     -13.518  -0.251   0.319  1.00  0.00    -0.014 A 
ATOM     66  C   UNL     1     -14.278  -0.180   1.500  1.00  0.00     0.009 A 
ATOM     67  C   UNL     1     -13.341  -1.547  -0.204  1.00  0.00     0.009 A 
ATOM     68  C   UNL     1     -14.803  -1.324   2.123  1.00  0.00     0.001 A 
ATOM     69  C   UNL     1     -13.866  -2.696   0.407  1.00  0.00     0.001 A 
ATOM     70  C   UNL     1     -14.597  -2.584   1.576  1.00  0.00     0.000 A 
ENDBRANCH  51  65
BRANCH  52  71
ATOM     71  C   UNL     1      -7.918   7.381  -2.233  1.00  0.00    -0.014 A 
ATOM     72  C   UNL     1      -6.630   7.846  -1.875  1.00  0.00     0.009 A 
ATOM     73  C   UNL     1      -8.066   6.822  -3.513  1.00  0.00     0.009 A 
ATOM     74  C   UNL     1      -5.517   7.645  -2.716  1.00  0.00     0.001 A 
ATOM     75  C   UNL     1      -6.949   6.604  -4.340  1.00  0.00     0.001 A 
ATOM     76  C   UNL     1      -5.672   6.979  -3.929  1.00  0.00     0.000 A 
ENDBRANCH  52  71
BRANCH  64  77
ATOM     77  C   UNL     1     -14.969   6.209  -0.619  1.00  0.00    -0.014 A 
ATOM     78  C   UNL     1     -15.506   7.484  -0.785  1.00  0.00     0.009 A 
ATOM     79  C   UNL     1     -15.877   5.128  -0.674  1.00  0.00     0.009 A 
ATOM     80  C   UNL     1     -16.843   7.659  -1.150  1.00  0.00     0.001 A 
ATOM     81  C   UNL     1     -17.215   5.294  -1.010  1.00  0.00     0.001 A 
ATOM     82  C   UNL     1     -17.690   6.563  -1.284  1.00  0.00     0.000 A 
ENDBRANCH  64  77
ENDBRANCH  38  39
ENDBRANCH  31  33
ENDBRANCH  30  31
ENDBRANCH  29  30
ENDBRANCH  28  29
ENDBRANCH  27  28
ENDBRANCH   1  27
TORSDOF 17
