REMARK SMILES CCCCCCNC(=O)Oc1cccc(-c2ccc([C@@H](C)C(=O)OCCOCCOC(=O)c3ccc(-c4c5nc(c(-c6ccccc6)c6ccc([nH]6)c(-c6ccccc6)c6nc(c(-c7ccccc7)c7ccc4[nH]7)C=C6)C=C5)cc3)cc2)c1
REMARK SMILES IDX 22 1 23 2 20 3 21 4 19 5 16 6 17 7 82 8 18 9 81 10 15 11
REMARK SMILES IDX 11 12 12 13 83 14 13 15 14 16 10 17 8 18 7 19 9 21 6 22 5 23
REMARK SMILES IDX 4 24 3 25 2 26 1 27 24 28 25 29 26 30 27 31 28 32 29 33
REMARK SMILES IDX 30 34 31 35 32 36 33 37 34 38 80 39 35 40 79 41 36 42 37 43
REMARK SMILES IDX 38 44 73 45 39 46 78 47 72 48 74 49 40 50 77 51 71 52 70 53
REMARK SMILES IDX 41 55 63 56 48 57 62 58 49 59 52 60 61 61 75 62 50 63 51 64
REMARK SMILES IDX 60 66 76 67 53 68 42 69 43 70 47 71 44 72 46 73 45 74 64 75
REMARK SMILES IDX 65 76 69 77 66 78 68 79 67 80 54 81 55 82 59 83 56 84 58 85
REMARK SMILES IDX 57 86
REMARK H PARENT 7 20 74 54 52 65
REMARK Flexibility Score: inf
ROOT
ATOM      1  C   UNL     1      -4.406 -13.135   7.235  1.00  0.00     0.313 C 
ATOM      2  O   UNL     1      -4.204 -13.415   8.413  1.00  0.00    -0.252 OA
ENDROOT
BRANCH   1   3
ATOM      3  C   UNL     1      -5.408 -12.067   6.829  1.00  0.00     0.126 C 
ATOM      4  C   UNL     1      -6.815 -12.659   6.870  1.00  0.00     0.025 C 
BRANCH   3   5
ATOM      5  C   UNL     1      -5.156 -11.296   5.537  1.00  0.00    -0.034 A 
ATOM      6  C   UNL     1      -4.982  -9.719   3.166  1.00  0.00    -0.018 A 
ATOM      7  C   UNL     1      -5.165 -11.110   3.106  1.00  0.00     0.009 A 
ATOM      8  C   UNL     1      -4.825  -9.142   4.434  1.00  0.00     0.009 A 
ATOM      9  C   UNL     1      -5.252 -11.887   4.271  1.00  0.00     0.005 A 
ATOM     10  C   UNL     1      -4.910  -9.915   5.599  1.00  0.00     0.005 A 
BRANCH   6  11
ATOM     11  C   UNL     1      -5.038  -8.878   1.954  1.00  0.00    -0.015 A 
ATOM     12  C   UNL     1      -4.184  -7.082   0.557  1.00  0.00     0.133 A 
ATOM     13  C   UNL     1      -5.275  -7.188  -0.302  1.00  0.00     0.047 A 
ATOM     14  C   UNL     1      -4.062  -7.904   1.681  1.00  0.00     0.056 A 
ATOM     15  C   UNL     1      -6.246  -8.151  -0.051  1.00  0.00     0.004 A 
ATOM     16  C   UNL     1      -6.126  -8.987   1.065  1.00  0.00     0.009 A 
BRANCH  12  17
ATOM     17  O   UNL     1      -3.285  -6.031   0.308  1.00  0.00    -0.410 OA
BRANCH  17  18
ATOM     18  C   UNL     1      -1.947  -6.353   0.148  1.00  0.00     0.412 C 
ATOM     19  N   UNL     1      -1.159  -5.270  -0.130  1.00  0.00    -0.321 N 
ATOM     20  H   UNL     1      -0.196  -5.445  -0.233  1.00  0.00     0.167 HD
ATOM     21  O   UNL     1      -1.462  -7.478   0.225  1.00  0.00    -0.224 OA
BRANCH  19  22
ATOM     22  C   UNL     1      -1.586  -3.893  -0.288  1.00  0.00     0.119 C 
BRANCH  22  23
ATOM     23  C   UNL     1      -0.981  -2.975   0.774  1.00  0.00     0.021 C 
BRANCH  23  24
ATOM     24  C   UNL     1       0.549  -2.857   0.732  1.00  0.00     0.002 C 
BRANCH  24  25
ATOM     25  C   UNL     1       1.138  -2.318  -0.576  1.00  0.00    -0.000 C 
BRANCH  25  26
ATOM     26  C   UNL     1       0.666  -0.921  -0.987  1.00  0.00    -0.003 C 
ATOM     27  C   UNL     1       1.054   0.164   0.006  1.00  0.00     0.004 C 
ENDBRANCH  25  26
ENDBRANCH  24  25
ENDBRANCH  23  24
ENDBRANCH  22  23
ENDBRANCH  19  22
ENDBRANCH  17  18
ENDBRANCH  12  17
ENDBRANCH   6  11
ENDBRANCH   3   5
ENDBRANCH   1   3
BRANCH   1  28
ATOM     28  O   UNL     1      -3.812 -13.762   6.186  1.00  0.00    -0.463 OA
BRANCH  28  29
ATOM     29  C   UNL     1      -2.767 -14.694   6.520  1.00  0.00     0.261 C 
BRANCH  29  30
ATOM     30  C   UNL     1      -1.425 -14.242   5.944  1.00  0.00     0.202 C 
BRANCH  30  31
ATOM     31  O   UNL     1      -0.866 -13.064   6.523  1.00  0.00    -0.374 OA
BRANCH  31  32
ATOM     32  C   UNL     1      -1.405 -11.809   6.103  1.00  0.00     0.202 C 
BRANCH  32  33
ATOM     33  C   UNL     1      -0.937 -11.296   4.736  1.00  0.00     0.261 C 
BRANCH  33  34
ATOM     34  O   UNL     1      -1.466 -12.082   3.654  1.00  0.00    -0.460 OA
BRANCH  34  35
ATOM     35  C   UNL     1      -0.558 -12.832   2.988  1.00  0.00     0.338 C 
ATOM     36  O   UNL     1       0.647 -12.879   3.173  1.00  0.00    -0.246 OA
BRANCH  35  37
ATOM     37  C   UNL     1      -1.255 -13.768   2.086  1.00  0.00     0.060 A 
ATOM     38  C   UNL     1      -0.899 -15.123   2.153  1.00  0.00     0.016 A 
ATOM     39  C   UNL     1      -2.184 -13.324   1.144  1.00  0.00     0.016 A 
ATOM     40  C   UNL     1      -1.433 -16.033   1.244  1.00  0.00     0.010 A 
ATOM     41  C   UNL     1      -2.710 -14.236   0.224  1.00  0.00     0.010 A 
ATOM     42  C   UNL     1      -2.310 -15.586   0.248  1.00  0.00    -0.014 A 
BRANCH  42  43
ATOM     43  C   UNL     1      -2.682 -16.480  -0.874  1.00  0.00     0.031 A 
ATOM     44  C   UNL     1      -1.940 -16.350  -2.175  1.00  0.00     0.074 A 
ATOM     45  C   UNL     1      -3.669 -17.384  -0.746  1.00  0.00     0.049 A 
ATOM     46  N   UNL     1      -2.175 -16.928  -3.325  1.00  0.00    -0.248 NA
ATOM     47  C   UNL     1      -0.778 -15.445  -2.180  1.00  0.00     0.031 C 
ATOM     48  C   UNL     1      -4.421 -17.652   0.479  1.00  0.00     0.029 A 
ATOM     49  N   UNL     1      -4.219 -18.233  -1.674  1.00  0.00    -0.354 N 
ATOM     50  C   UNL     1      -1.208 -16.440  -4.194  1.00  0.00     0.074 A 
ATOM     51  C   UNL     1      -0.388 -15.513  -3.444  1.00  0.00     0.031 C 
ATOM     52  C   UNL     1      -5.355 -18.584   0.219  1.00  0.00     0.029 A 
ATOM     53  C   UNL     1      -5.293 -18.943  -1.197  1.00  0.00     0.049 A 
ATOM     54  H   UNL     1      -3.877 -18.323  -2.593  1.00  0.00     0.167 HD
ATOM     55  C   UNL     1      -1.023 -16.732  -5.502  1.00  0.00     0.031 A 
ATOM     56  C   UNL     1      -6.151 -19.759  -1.839  1.00  0.00     0.031 A 
ATOM     57  C   UNL     1      -1.841 -17.648  -6.249  1.00  0.00     0.049 A 
ATOM     58  C   UNL     1      -5.977 -20.004  -3.315  1.00  0.00     0.074 A 
ATOM     59  C   UNL     1      -1.724 -18.021  -7.577  1.00  0.00     0.029 A 
ATOM     60  N   UNL     1      -2.931 -18.329  -5.734  1.00  0.00    -0.354 N 
ATOM     61  N   UNL     1      -5.055 -19.545  -4.126  1.00  0.00    -0.248 NA
ATOM     62  C   UNL     1      -6.966 -20.878  -3.966  1.00  0.00     0.031 C 
ATOM     63  C   UNL     1      -2.776 -18.891  -7.878  1.00  0.00     0.029 A 
ATOM     64  C   UNL     1      -3.513 -19.100  -6.723  1.00  0.00     0.049 A 
ATOM     65  H   UNL     1      -3.244 -18.273  -4.802  1.00  0.00     0.167 HD
ATOM     66  C   UNL     1      -5.332 -20.098  -5.370  1.00  0.00     0.074 A 
ATOM     67  C   UNL     1      -6.506 -20.930  -5.209  1.00  0.00     0.031 C 
ATOM     68  C   UNL     1      -4.671 -19.935  -6.541  1.00  0.00     0.031 A 
BRANCH  55  69
ATOM     69  C   UNL     1       0.084 -16.020  -6.223  1.00  0.00    -0.014 A 
ATOM     70  C   UNL     1       1.430 -16.355  -6.009  1.00  0.00     0.009 A 
ATOM     71  C   UNL     1      -0.230 -15.027  -7.165  1.00  0.00     0.009 A 
ATOM     72  C   UNL     1       2.441 -15.690  -6.707  1.00  0.00     0.001 A 
ATOM     73  C   UNL     1       0.781 -14.381  -7.878  1.00  0.00     0.001 A 
ATOM     74  C   UNL     1       2.115 -14.708  -7.644  1.00  0.00     0.000 A 
ENDBRANCH  55  69
BRANCH  56  75
ATOM     75  C   UNL     1      -7.289 -20.370  -1.105  1.00  0.00    -0.014 A 
ATOM     76  C   UNL     1      -7.325 -21.751  -0.857  1.00  0.00     0.009 A 
ATOM     77  C   UNL     1      -8.361 -19.575  -0.668  1.00  0.00     0.009 A 
ATOM     78  C   UNL     1      -8.421 -22.325  -0.209  1.00  0.00     0.001 A 
ATOM     79  C   UNL     1      -9.442 -20.147   0.004  1.00  0.00     0.001 A 
ATOM     80  C   UNL     1      -9.476 -21.523   0.225  1.00  0.00     0.000 A 
ENDBRANCH  56  75
BRANCH  68  81
ATOM     81  C   UNL     1      -5.162 -20.705  -7.733  1.00  0.00    -0.014 A 
ATOM     82  C   UNL     1      -6.313 -20.313  -8.431  1.00  0.00     0.009 A 
ATOM     83  C   UNL     1      -4.410 -21.791  -8.210  1.00  0.00     0.009 A 
ATOM     84  C   UNL     1      -6.712 -21.007  -9.576  1.00  0.00     0.001 A 
ATOM     85  C   UNL     1      -4.797 -22.466  -9.368  1.00  0.00     0.001 A 
ATOM     86  C   UNL     1      -5.950 -22.077 -10.047  1.00  0.00     0.000 A 
ENDBRANCH  68  81
ENDBRANCH  42  43
ENDBRANCH  35  37
ENDBRANCH  34  35
ENDBRANCH  33  34
ENDBRANCH  32  33
ENDBRANCH  31  32
ENDBRANCH  30  31
ENDBRANCH  29  30
ENDBRANCH  28  29
ENDBRANCH   1  28
TORSDOF 23
