REMARK SMILES Cc1cccc(O[C@H](C)C(=O)NNC(=O)[C@H]2[C@@H]3CC[C@@H](C3)[C@@H]2C(=O)OCCOCCOC(=O)c2ccc(-c3c4nc(c(-c5ccccc5)c5ccc([nH]5)c(-c5ccccc5)c5nc(c(-c6ccccc6)c6ccc3[nH]6)C=C5)C=C4)cc2)c1
REMARK SMILES IDX 26 1 25 2 23 3 24 4 22 5 16 6 17 7 18 8 21 9 20 10 19 11
REMARK SMILES IDX 14 12 13 13 15 15 12 16 10 17 11 18 8 20 9 21 7 22 6 23 1 24
REMARK SMILES IDX 2 25 3 26 82 27 4 28 5 29 27 30 28 31 29 32 30 33 31 34
REMARK SMILES IDX 32 35 33 36 34 37 35 38 81 39 36 40 80 41 37 42 38 43 39 44
REMARK SMILES IDX 74 45 40 46 79 47 73 48 75 49 41 50 78 51 72 52 71 53 42 55
REMARK SMILES IDX 64 56 49 57 63 58 50 59 53 60 62 61 76 62 51 63 52 64 61 66
REMARK SMILES IDX 77 67 54 68 43 69 44 70 48 71 45 72 47 73 46 74 65 75 66 76
REMARK SMILES IDX 70 77 67 78 69 79 68 80 55 81 56 82 60 83 57 84 59 85 58 86
REMARK H PARENT 13 14 12 19 75 54 53 65
REMARK Flexibility Score: inf
ROOT
ATOM      1  C   UNL     1       3.834   4.815  -1.887  1.00  0.00     0.261 C 
ENDROOT
BRANCH   1   2
ATOM      2  O   UNL     1       3.135   3.862  -2.713  1.00  0.00    -0.463 OA
BRANCH   2   3
ATOM      3  C   UNL     1       3.625   2.591  -2.898  1.00  0.00     0.310 C 
ATOM      4  O   UNL     1       4.739   2.188  -2.663  1.00  0.00    -0.252 OA
BRANCH   3   5
ATOM      5  C   UNL     1       2.460   1.716  -3.279  1.00  0.00     0.115 C 
ATOM      6  C   UNL     1       2.430   0.454  -2.417  1.00  0.00     0.098 C 
ATOM      7  C   UNL     1       1.855  -0.612  -3.377  1.00  0.00     0.003 C 
ATOM      8  C   UNL     1       3.014  -1.097  -4.272  1.00  0.00     0.005 C 
ATOM      9  C   UNL     1       1.071   0.215  -4.399  1.00  0.00     0.009 C 
ATOM     10  C   UNL     1       2.251   1.161  -4.691  1.00  0.00     0.004 C 
ATOM     11  C   UNL     1       3.338   0.154  -5.104  1.00  0.00     0.005 C 
BRANCH   6  12
ATOM     12  C   UNL     1       1.812   0.547  -1.040  1.00  0.00     0.242 C 
ATOM     13  N   UNL     1       0.892   1.475  -0.664  1.00  0.00    -0.267 N 
ATOM     14  H   UNL     1       0.864   1.667   0.301  1.00  0.00     0.191 HD
ATOM     15  O   UNL     1       2.193  -0.239  -0.164  1.00  0.00    -0.273 OA
BRANCH  13  16
ATOM     16  N   UNL     1      -0.011   2.189  -1.429  1.00  0.00    -0.264 N 
ATOM     17  C   UNL     1      -0.550   3.376  -1.009  1.00  0.00     0.279 C 
ATOM     18  O   UNL     1      -0.613   4.302  -1.827  1.00  0.00    -0.269 OA
ATOM     19  H   UNL     1      -0.276   1.832  -2.308  1.00  0.00     0.191 HD
BRANCH  17  20
ATOM     20  C   UNL     1      -1.299   3.469   0.351  1.00  0.00     0.260 C 
ATOM     21  C   UNL     1      -2.694   2.847   0.206  1.00  0.00     0.064 C 
BRANCH  20  22
ATOM     22  O   UNL     1      -0.705   3.359   1.629  1.00  0.00    -0.481 OA
BRANCH  22  23
ATOM     23  C   UNL     1      -0.263   2.220   2.218  1.00  0.00     0.120 A 
ATOM     24  C   UNL     1       2.398   1.611   4.892  1.00  0.00     0.044 C 
ATOM     25  C   UNL     1       1.354   1.373   3.842  1.00  0.00    -0.047 A 
ATOM     26  C   UNL     1       1.035   0.067   3.465  1.00  0.00     0.003 A 
ATOM     27  C   UNL     1       0.696   2.439   3.216  1.00  0.00     0.049 A 
ATOM     28  C   UNL     1       0.053  -0.162   2.505  1.00  0.00     0.004 A 
ATOM     29  C   UNL     1      -0.611   0.909   1.899  1.00  0.00     0.046 A 
ENDBRANCH  22  23
ENDBRANCH  20  22
ENDBRANCH  17  20
ENDBRANCH  13  16
ENDBRANCH   6  12
ENDBRANCH   3   5
ENDBRANCH   2   3
ENDBRANCH   1   2
BRANCH   1  30
ATOM     30  C   UNL     1       3.694   4.502  -0.415  1.00  0.00     0.202 C 
BRANCH  30  31
ATOM     31  O   UNL     1       4.444   3.323  -0.171  1.00  0.00    -0.374 OA
BRANCH  31  32
ATOM     32  C   UNL     1       4.369   2.797   1.142  1.00  0.00     0.202 C 
BRANCH  32  33
ATOM     33  C   UNL     1       4.969   3.729   2.204  1.00  0.00     0.261 C 
BRANCH  33  34
ATOM     34  O   UNL     1       6.377   3.926   1.957  1.00  0.00    -0.460 OA
BRANCH  34  35
ATOM     35  C   UNL     1       6.707   5.071   1.298  1.00  0.00     0.338 C 
ATOM     36  O   UNL     1       6.366   6.196   1.625  1.00  0.00    -0.246 OA
BRANCH  35  37
ATOM     37  C   UNL     1       7.313   4.735  -0.024  1.00  0.00     0.060 A 
ATOM     38  C   UNL     1       7.441   5.727  -1.016  1.00  0.00     0.016 A 
ATOM     39  C   UNL     1       7.434   3.394  -0.369  1.00  0.00     0.016 A 
ATOM     40  C   UNL     1       7.531   5.367  -2.372  1.00  0.00     0.010 A 
ATOM     41  C   UNL     1       7.410   3.054  -1.704  1.00  0.00     0.010 A 
ATOM     42  C   UNL     1       7.440   4.022  -2.724  1.00  0.00    -0.014 A 
BRANCH  42  43
ATOM     43  C   UNL     1       7.276   3.480  -4.081  1.00  0.00     0.031 A 
ATOM     44  C   UNL     1       8.247   2.471  -4.578  1.00  0.00     0.074 A 
ATOM     45  C   UNL     1       6.134   3.643  -4.795  1.00  0.00     0.049 A 
ATOM     46  N   UNL     1       8.315   2.091  -5.809  1.00  0.00    -0.248 NA
ATOM     47  C   UNL     1       9.258   1.824  -3.745  1.00  0.00     0.031 C 
ATOM     48  C   UNL     1       5.593   2.711  -5.788  1.00  0.00     0.029 A 
ATOM     49  N   UNL     1       5.178   4.648  -4.766  1.00  0.00    -0.354 N 
ATOM     50  C   UNL     1       9.051   0.932  -5.844  1.00  0.00     0.074 A 
ATOM     51  C   UNL     1       9.729   0.889  -4.573  1.00  0.00     0.031 C 
ATOM     52  C   UNL     1       4.511   3.237  -6.379  1.00  0.00     0.029 A 
ATOM     53  C   UNL     1       4.394   4.604  -5.926  1.00  0.00     0.049 A 
ATOM     54  H   UNL     1       5.067   5.299  -4.036  1.00  0.00     0.167 HD
ATOM     55  C   UNL     1       8.879   0.069  -6.884  1.00  0.00     0.031 A 
ATOM     56  C   UNL     1       4.238   5.702  -6.715  1.00  0.00     0.031 A 
ATOM     57  C   UNL     1       7.870   0.553  -7.840  1.00  0.00     0.049 A 
ATOM     58  C   UNL     1       4.882   5.450  -8.053  1.00  0.00     0.074 A 
ATOM     59  C   UNL     1       6.593   0.124  -8.169  1.00  0.00     0.029 A 
ATOM     60  N   UNL     1       8.018   1.808  -8.427  1.00  0.00    -0.354 N 
ATOM     61  N   UNL     1       5.741   4.484  -8.231  1.00  0.00    -0.248 NA
ATOM     62  C   UNL     1       4.606   6.170  -9.289  1.00  0.00     0.031 C 
ATOM     63  C   UNL     1       5.981   1.130  -8.967  1.00  0.00     0.029 A 
ATOM     64  C   UNL     1       6.892   2.159  -9.146  1.00  0.00     0.049 A 
ATOM     65  H   UNL     1       8.820   2.372  -8.341  1.00  0.00     0.167 HD
ATOM     66  C   UNL     1       6.066   4.376  -9.545  1.00  0.00     0.074 A 
ATOM     67  C   UNL     1       5.371   5.489 -10.168  1.00  0.00     0.031 C 
ATOM     68  C   UNL     1       6.875   3.366  -9.973  1.00  0.00     0.031 A 
BRANCH  55  69
ATOM     69  C   UNL     1       9.455  -1.333  -6.951  1.00  0.00    -0.014 A 
ATOM     70  C   UNL     1       9.014  -2.218  -7.954  1.00  0.00     0.009 A 
ATOM     71  C   UNL     1      10.421  -1.855  -6.074  1.00  0.00     0.009 A 
ATOM     72  C   UNL     1       9.468  -3.543  -8.039  1.00  0.00     0.001 A 
ATOM     73  C   UNL     1      10.869  -3.182  -6.138  1.00  0.00     0.001 A 
ATOM     74  C   UNL     1      10.388  -4.030  -7.121  1.00  0.00     0.000 A 
ENDBRANCH  55  69
BRANCH  56  75
ATOM     75  C   UNL     1       4.186   6.961  -5.918  1.00  0.00    -0.014 A 
ATOM     76  C   UNL     1       2.981   7.229  -5.231  1.00  0.00     0.009 A 
ATOM     77  C   UNL     1       5.370   7.533  -5.425  1.00  0.00     0.009 A 
ATOM     78  C   UNL     1       2.983   7.933  -4.020  1.00  0.00     0.001 A 
ATOM     79  C   UNL     1       5.369   8.217  -4.200  1.00  0.00     0.001 A 
ATOM     80  C   UNL     1       4.184   8.390  -3.485  1.00  0.00     0.000 A 
ENDBRANCH  56  75
BRANCH  68  81
ATOM     81  C   UNL     1       7.702   3.376 -11.232  1.00  0.00    -0.014 A 
ATOM     82  C   UNL     1       7.844   4.482 -12.075  1.00  0.00     0.009 A 
ATOM     83  C   UNL     1       8.530   2.263 -11.507  1.00  0.00     0.009 A 
ATOM     84  C   UNL     1       8.752   4.473 -13.140  1.00  0.00     0.001 A 
ATOM     85  C   UNL     1       9.474   2.267 -12.532  1.00  0.00     0.001 A 
ATOM     86  C   UNL     1       9.579   3.375 -13.357  1.00  0.00     0.000 A 
ENDBRANCH  68  81
ENDBRANCH  42  43
ENDBRANCH  35  37
ENDBRANCH  34  35
ENDBRANCH  33  34
ENDBRANCH  32  33
ENDBRANCH  31  32
ENDBRANCH  30  31
ENDBRANCH   1  30
TORSDOF 19
