REMARK SMILES O=C(CCCc1nc(-c2ccc(Cl)c(Cl)c2)c(-c2ccccc2)o1)OCCOCCOC(=O)c1ccc(-c2c3nc(c(-c4ccccc4)c4ccc([nH]4)c(-c4ccccc4)c4nc(c(-c5ccccc5)c5ccc2[nH]5)C=C4)C=C3)cc1
REMARK SMILES IDX 27 1 26 2 25 3 2 4 1 5 3 6 4 7 5 8 6 9 7 10 24 11 8 12 17 13
REMARK SMILES IDX 9 14 10 15 16 16 11 17 14 18 12 19 15 20 13 21 18 22 19 23
REMARK SMILES IDX 23 24 20 25 22 26 21 27 28 28 29 29 30 30 31 31 32 32 33 33
REMARK SMILES IDX 34 34 35 35 81 36 36 37 80 38 37 39 38 40 39 41 74 42 40 43
REMARK SMILES IDX 79 44 73 45 75 46 41 47 78 48 72 49 71 50 42 52 64 53 49 54
REMARK SMILES IDX 63 55 50 56 53 57 62 58 76 59 51 60 52 61 61 63 77 64 54 65
REMARK SMILES IDX 43 66 44 67 48 68 45 69 47 70 46 71 65 72 66 73 70 74 67 75
REMARK SMILES IDX 69 76 68 77 55 78 56 79 60 80 57 81 59 82 58 83
REMARK H PARENT 75 51 53 62
REMARK Flexibility Score: inf
ROOT
ATOM      1  C   UNL     1       3.240   1.091   1.079  1.00  0.00     0.202 C 
ENDROOT
BRANCH   1   2
ATOM      2  C   UNL     1       3.848   1.435  -0.275  1.00  0.00     0.261 C 
BRANCH   2   3
ATOM      3  O   UNL     1       3.294   0.815  -1.443  1.00  0.00    -0.463 OA
BRANCH   3   4
ATOM      4  C   UNL     1       2.659  -0.364  -1.272  1.00  0.00     0.305 C 
ATOM      5  O   UNL     1       1.446  -0.424  -1.099  1.00  0.00    -0.252 OA
BRANCH   4   6
ATOM      6  C   UNL     1       3.555  -1.583  -1.330  1.00  0.00     0.123 C 
BRANCH   6   7
ATOM      7  C   UNL     1       4.777  -1.525  -2.249  1.00  0.00     0.021 C 
BRANCH   7   8
ATOM      8  C   UNL     1       6.009  -0.731  -1.792  1.00  0.00     0.098 C 
BRANCH   8   9
ATOM      9  C   UNL     1       6.535  -1.048  -0.431  1.00  0.00     0.195 A 
ATOM     10  N   UNL     1       6.520  -2.192   0.227  1.00  0.00    -0.213 NA
ATOM     11  O   UNL     1       7.223  -0.035   0.208  1.00  0.00    -0.440 OA
ATOM     12  C   UNL     1       7.202  -1.909   1.387  1.00  0.00     0.117 A 
ATOM     13  C   UNL     1       7.666  -0.612   1.370  1.00  0.00     0.162 A 
BRANCH  12  14
ATOM     14  C   UNL     1       7.546  -2.869   2.409  1.00  0.00     0.006 A 
ATOM     15  C   UNL     1       8.327  -3.976   2.068  1.00  0.00     0.012 A 
ATOM     16  C   UNL     1       7.215  -2.635   3.751  1.00  0.00     0.032 A 
ATOM     17  C   UNL     1       8.816  -4.818   3.067  1.00  0.00     0.023 A 
ATOM     18  C   UNL     1       7.709  -3.476   4.752  1.00  0.00     0.060 A 
ATOM     19  C   UNL     1       8.520  -4.564   4.410  1.00  0.00     0.059 A 
ATOM     20  Cl  UNL     1       7.310  -3.095   6.390  1.00  0.00    -0.083 Cl
ATOM     21  Cl  UNL     1       9.200  -5.620   5.596  1.00  0.00    -0.083 Cl
ENDBRANCH  12  14
BRANCH  13  22
ATOM     22  C   UNL     1       8.515   0.170   2.254  1.00  0.00     0.020 A 
ATOM     23  C   UNL     1       7.970   0.795   3.378  1.00  0.00     0.012 A 
ATOM     24  C   UNL     1       9.903   0.196   2.094  1.00  0.00     0.012 A 
ATOM     25  C   UNL     1       8.761   1.508   4.280  1.00  0.00     0.001 A 
ATOM     26  C   UNL     1      10.710   0.869   3.021  1.00  0.00     0.001 A 
ATOM     27  C   UNL     1      10.138   1.542   4.101  1.00  0.00     0.000 A 
ENDBRANCH  13  22
ENDBRANCH   8   9
ENDBRANCH   7   8
ENDBRANCH   6   7
ENDBRANCH   4   6
ENDBRANCH   3   4
ENDBRANCH   2   3
ENDBRANCH   1   2
BRANCH   1  28
ATOM     28  O   UNL     1       3.299  -0.293   1.412  1.00  0.00    -0.374 OA
BRANCH  28  29
ATOM     29  C   UNL     1       2.220  -0.695   2.271  1.00  0.00     0.202 C 
BRANCH  29  30
ATOM     30  C   UNL     1       2.441  -0.353   3.750  1.00  0.00     0.261 C 
BRANCH  30  31
ATOM     31  O   UNL     1       2.733   1.048   3.932  1.00  0.00    -0.460 OA
BRANCH  31  32
ATOM     32  C   UNL     1       3.993   1.309   4.340  1.00  0.00     0.338 C 
ATOM     33  O   UNL     1       4.836   0.495   4.716  1.00  0.00    -0.246 OA
BRANCH  32  34
ATOM     34  C   UNL     1       4.339   2.722   4.109  1.00  0.00     0.060 A 
ATOM     35  C   UNL     1       5.405   3.000   3.242  1.00  0.00     0.016 A 
ATOM     36  C   UNL     1       3.715   3.754   4.803  1.00  0.00     0.016 A 
ATOM     37  C   UNL     1       5.942   4.275   3.159  1.00  0.00     0.010 A 
ATOM     38  C   UNL     1       4.230   5.050   4.692  1.00  0.00     0.010 A 
ATOM     39  C   UNL     1       5.381   5.302   3.917  1.00  0.00    -0.014 A 
BRANCH  39  40
ATOM     40  C   UNL     1       6.113   6.582   4.044  1.00  0.00     0.031 A 
ATOM     41  C   UNL     1       6.773   6.899   5.356  1.00  0.00     0.074 A 
ATOM     42  C   UNL     1       6.257   7.412   2.997  1.00  0.00     0.049 A 
ATOM     43  N   UNL     1       7.316   8.015   5.765  1.00  0.00    -0.248 NA
ATOM     44  C   UNL     1       6.823   5.806   6.343  1.00  0.00     0.031 C 
ATOM     45  C   UNL     1       5.784   7.155   1.636  1.00  0.00     0.029 A 
ATOM     46  N   UNL     1       6.854   8.643   2.919  1.00  0.00    -0.354 N 
ATOM     47  C   UNL     1       7.717   7.776   7.074  1.00  0.00     0.074 A 
ATOM     48  C   UNL     1       7.358   6.412   7.391  1.00  0.00     0.031 C 
ATOM     49  C   UNL     1       6.115   8.197   0.856  1.00  0.00     0.029 A 
ATOM     50  C   UNL     1       6.752   9.221   1.678  1.00  0.00     0.049 A 
ATOM     51  H   UNL     1       7.312   9.070   3.678  1.00  0.00     0.167 HD
ATOM     52  C   UNL     1       8.319   8.627   7.938  1.00  0.00     0.031 A 
ATOM     53  C   UNL     1       7.091  10.457   1.268  1.00  0.00     0.031 A 
ATOM     54  C   UNL     1       8.693   9.974   7.600  1.00  0.00     0.049 A 
ATOM     55  C   UNL     1       7.675  11.419   2.265  1.00  0.00     0.074 A 
ATOM     56  C   UNL     1       9.291  10.932   8.398  1.00  0.00     0.029 A 
ATOM     57  N   UNL     1       8.510  10.547   6.351  1.00  0.00    -0.354 N 
ATOM     58  N   UNL     1       7.972  11.221   3.527  1.00  0.00    -0.248 NA
ATOM     59  C   UNL     1       7.956  12.778   1.784  1.00  0.00     0.031 C 
ATOM     60  C   UNL     1       9.429  12.101   7.642  1.00  0.00     0.029 A 
ATOM     61  C   UNL     1       8.968  11.853   6.358  1.00  0.00     0.049 A 
ATOM     62  H   UNL     1       8.114  10.092   5.573  1.00  0.00     0.167 HD
ATOM     63  C   UNL     1       8.495  12.423   3.987  1.00  0.00     0.074 A 
ATOM     64  C   UNL     1       8.484  13.339   2.863  1.00  0.00     0.031 C 
ATOM     65  C   UNL     1       8.944  12.742   5.226  1.00  0.00     0.031 A 
BRANCH  52  66
ATOM     66  C   UNL     1       8.534   8.140   9.343  1.00  0.00    -0.014 A 
ATOM     67  C   UNL     1       9.494   7.165   9.652  1.00  0.00     0.009 A 
ATOM     68  C   UNL     1       7.740   8.663  10.377  1.00  0.00     0.009 A 
ATOM     69  C   UNL     1       9.625   6.693  10.961  1.00  0.00     0.001 A 
ATOM     70  C   UNL     1       7.893   8.211  11.688  1.00  0.00     0.001 A 
ATOM     71  C   UNL     1       8.827   7.218  11.977  1.00  0.00     0.000 A 
ENDBRANCH  52  66
BRANCH  53  72
ATOM     72  C   UNL     1       6.830  10.869  -0.136  1.00  0.00    -0.014 A 
ATOM     73  C   UNL     1       7.891  11.087  -1.027  1.00  0.00     0.009 A 
ATOM     74  C   UNL     1       5.513  11.036  -0.595  1.00  0.00     0.009 A 
ATOM     75  C   UNL     1       7.637  11.472  -2.346  1.00  0.00     0.001 A 
ATOM     76  C   UNL     1       5.262  11.394  -1.921  1.00  0.00     0.001 A 
ATOM     77  C   UNL     1       6.325  11.618  -2.794  1.00  0.00     0.000 A 
ENDBRANCH  53  72
BRANCH  65  78
ATOM     78  C   UNL     1       9.500  14.124   5.413  1.00  0.00    -0.014 A 
ATOM     79  C   UNL     1       8.660  15.246   5.474  1.00  0.00     0.009 A 
ATOM     80  C   UNL     1      10.884  14.296   5.569  1.00  0.00     0.009 A 
ATOM     81  C   UNL     1       9.201  16.520   5.655  1.00  0.00     0.001 A 
ATOM     82  C   UNL     1      11.419  15.568   5.776  1.00  0.00     0.001 A 
ATOM     83  C   UNL     1      10.579  16.679   5.810  1.00  0.00     0.000 A 
ENDBRANCH  65  78
ENDBRANCH  39  40
ENDBRANCH  32  34
ENDBRANCH  31  32
ENDBRANCH  30  31
ENDBRANCH  29  30
ENDBRANCH  28  29
ENDBRANCH   1  28
TORSDOF 19
