REMARK SMILES O=C(OCCOCCOC(=O)c1ccc(-n2cc(CSc3nc4ccccc4c(=O)n3-c3ccc(Br)cc3)nn2)cc1)c1ccc(-c2c3nc(c(-c4ccccc4)c4ccc([nH]4)c(-c4ccccc4)c4nc(c(-c5ccccc5)c5ccc2[nH]5)C=C4)C=C3)cc1
REMARK SMILES IDX 7 1 6 2 5 3 4 4 3 5 2 6 1 7 43 8 44 9 90 10 45 11 89 12
REMARK SMILES IDX 46 13 47 14 48 15 83 16 49 17 88 18 82 19 84 20 50 21 87 22
REMARK SMILES IDX 81 23 80 24 51 26 73 27 58 28 72 29 59 30 62 31 71 32 85 33
REMARK SMILES IDX 60 34 61 35 70 37 86 38 63 39 52 40 53 41 57 42 54 43 56 44
REMARK SMILES IDX 55 45 74 46 75 47 79 48 76 49 78 50 77 51 64 52 65 53 69 54
REMARK SMILES IDX 66 55 68 56 67 57 8 58 9 59 10 60 11 61 12 62 13 63 42 64
REMARK SMILES IDX 14 65 41 66 15 67 16 68 17 69 40 70 18 71 39 72 19 73 20 74
REMARK SMILES IDX 21 75 22 76 31 77 23 78 29 79 24 80 28 81 30 82 25 83 27 84
REMARK SMILES IDX 26 85 32 86 33 87 38 88 34 89 37 90 35 91 36 92
REMARK H PARENT 84 25 62 36
REMARK Flexibility Score: inf
ROOT
ATOM      1  C   UNL     1       3.008  -1.551   1.231  1.00  0.00     0.202 C 
ENDROOT
BRANCH   1   2
ATOM      2  O   UNL     1       4.166  -1.142   0.485  1.00  0.00    -0.374 OA
BRANCH   2   3
ATOM      3  C   UNL     1       4.747   0.103   0.863  1.00  0.00     0.202 C 
BRANCH   3   4
ATOM      4  C   UNL     1       4.501   1.305  -0.047  1.00  0.00     0.261 C 
BRANCH   4   5
ATOM      5  O   UNL     1       3.120   1.704  -0.106  1.00  0.00    -0.460 OA
BRANCH   5   6
ATOM      6  C   UNL     1       2.098   0.907  -0.488  1.00  0.00     0.338 C 
ATOM      7  O   UNL     1       1.036   0.918   0.130  1.00  0.00    -0.246 OA
BRANCH   6   8
ATOM      8  C   UNL     1       2.158   0.240  -1.813  1.00  0.00     0.060 A 
ATOM      9  C   UNL     1       3.327  -0.080  -2.501  1.00  0.00     0.016 A 
ATOM     10  C   UNL     1       0.919   0.034  -2.439  1.00  0.00     0.016 A 
ATOM     11  C   UNL     1       3.283  -0.307  -3.861  1.00  0.00     0.010 A 
ATOM     12  C   UNL     1       0.862  -0.279  -3.783  1.00  0.00     0.010 A 
ATOM     13  C   UNL     1       2.048  -0.334  -4.505  1.00  0.00    -0.014 A 
BRANCH  13  14
ATOM     14  C   UNL     1       2.057  -0.495  -5.946  1.00  0.00     0.031 A 
ATOM     15  C   UNL     1       2.712  -1.740  -6.426  1.00  0.00     0.074 A 
ATOM     16  C   UNL     1       1.458   0.386  -6.766  1.00  0.00     0.049 A 
ATOM     17  N   UNL     1       3.726  -1.856  -7.220  1.00  0.00    -0.248 NA
ATOM     18  C   UNL     1       2.248  -3.011  -5.847  1.00  0.00     0.031 C 
ATOM     19  C   UNL     1       0.573   1.503  -6.420  1.00  0.00     0.029 A 
ATOM     20  N   UNL     1       1.430   0.383  -8.123  1.00  0.00    -0.354 N 
ATOM     21  C   UNL     1       3.942  -3.224  -7.364  1.00  0.00     0.074 A 
ATOM     22  C   UNL     1       3.085  -3.881  -6.410  1.00  0.00     0.031 C 
ATOM     23  C   UNL     1      -0.099   1.894  -7.527  1.00  0.00     0.029 A 
ATOM     24  C   UNL     1       0.422   1.162  -8.669  1.00  0.00     0.049 A 
ATOM     25  H   UNL     1       2.069  -0.127  -8.672  1.00  0.00     0.167 HD
ATOM     26  C   UNL     1       4.671  -3.740  -8.389  1.00  0.00     0.031 A 
ATOM     27  C   UNL     1       0.001   1.140  -9.956  1.00  0.00     0.031 A 
ATOM     28  C   UNL     1       5.530  -2.760  -8.994  1.00  0.00     0.049 A 
ATOM     29  C   UNL     1       1.073   0.517 -10.768  1.00  0.00     0.074 A 
ATOM     30  C   UNL     1       6.606  -2.017  -8.551  1.00  0.00     0.029 A 
ATOM     31  N   UNL     1       5.088  -2.137 -10.136  1.00  0.00    -0.354 N 
ATOM     32  N   UNL     1       2.233   1.074 -10.967  1.00  0.00    -0.248 NA
ATOM     33  C   UNL     1       1.029  -0.923 -10.976  1.00  0.00     0.031 C 
ATOM     34  C   UNL     1       6.436  -0.735  -9.151  1.00  0.00     0.029 A 
ATOM     35  C   UNL     1       5.309  -0.792  -9.973  1.00  0.00     0.049 A 
ATOM     36  H   UNL     1       4.689  -2.574 -10.923  1.00  0.00     0.167 HD
ATOM     37  C   UNL     1       3.145   0.031 -10.894  1.00  0.00     0.074 A 
ATOM     38  C   UNL     1       2.339  -1.185 -10.998  1.00  0.00     0.031 C 
ATOM     39  C   UNL     1       4.428   0.240 -10.474  1.00  0.00     0.031 A 
BRANCH  26  40
ATOM     40  C   UNL     1       4.327  -5.046  -9.053  1.00  0.00    -0.014 A 
ATOM     41  C   UNL     1       5.181  -5.565 -10.041  1.00  0.00     0.009 A 
ATOM     42  C   UNL     1       3.057  -5.645  -8.933  1.00  0.00     0.009 A 
ATOM     43  C   UNL     1       4.762  -6.596 -10.893  1.00  0.00     0.001 A 
ATOM     44  C   UNL     1       2.650  -6.697  -9.755  1.00  0.00     0.001 A 
ATOM     45  C   UNL     1       3.495  -7.157 -10.753  1.00  0.00     0.000 A 
ENDBRANCH  26  40
BRANCH  27  46
ATOM     46  C   UNL     1      -1.378   1.311 -10.457  1.00  0.00    -0.014 A 
ATOM     47  C   UNL     1      -1.625   1.601 -11.806  1.00  0.00     0.009 A 
ATOM     48  C   UNL     1      -2.471   0.924  -9.657  1.00  0.00     0.009 A 
ATOM     49  C   UNL     1      -2.915   1.476 -12.342  1.00  0.00     0.001 A 
ATOM     50  C   UNL     1      -3.757   0.801 -10.191  1.00  0.00     0.001 A 
ATOM     51  C   UNL     1      -3.976   1.064 -11.538  1.00  0.00     0.000 A 
ENDBRANCH  27  46
BRANCH  39  52
ATOM     52  C   UNL     1       4.872   1.670 -10.259  1.00  0.00    -0.014 A 
ATOM     53  C   UNL     1       4.264   2.526  -9.322  1.00  0.00     0.009 A 
ATOM     54  C   UNL     1       6.030   2.118 -10.908  1.00  0.00     0.009 A 
ATOM     55  C   UNL     1       4.779   3.802  -9.071  1.00  0.00     0.001 A 
ATOM     56  C   UNL     1       6.558   3.385 -10.642  1.00  0.00     0.001 A 
ATOM     57  C   UNL     1       5.929   4.229  -9.729  1.00  0.00     0.000 A 
ENDBRANCH  39  52
ENDBRANCH  13  14
ENDBRANCH   6   8
ENDBRANCH   5   6
ENDBRANCH   4   5
ENDBRANCH   3   4
ENDBRANCH   2   3
ENDBRANCH   1   2
BRANCH   1  58
ATOM     58  C   UNL     1       3.189  -1.990   2.692  1.00  0.00     0.261 C 
BRANCH  58  59
ATOM     59  O   UNL     1       3.527  -0.881   3.545  1.00  0.00    -0.460 OA
BRANCH  59  60
ATOM     60  C   UNL     1       4.836  -0.821   3.907  1.00  0.00     0.338 C 
ATOM     61  O   UNL     1       5.688  -1.656   3.723  1.00  0.00    -0.246 OA
BRANCH  60  62
ATOM     62  C   UNL     1       5.139   0.560   4.350  1.00  0.00     0.060 A 
ATOM     63  C   UNL     1       6.212   1.218   3.724  1.00  0.00     0.018 A 
ATOM     64  C   UNL     1       4.415   1.181   5.365  1.00  0.00     0.018 A 
ATOM     65  C   UNL     1       6.595   2.493   4.125  1.00  0.00     0.029 A 
ATOM     66  C   UNL     1       4.854   2.418   5.836  1.00  0.00     0.029 A 
ATOM     67  C   UNL     1       5.965   3.046   5.237  1.00  0.00     0.066 A 
BRANCH  67  68
ATOM     68  N   UNL     1       6.647   4.061   5.933  1.00  0.00    -0.220 N 
ATOM     69  C   UNL     1       6.929   3.992   7.269  1.00  0.00     0.141 A 
ATOM     70  N   UNL     1       7.372   5.050   5.368  1.00  0.00    -0.062 NA
ATOM     71  C   UNL     1       7.886   4.949   7.497  1.00  0.00     0.093 A 
ATOM     72  N   UNL     1       8.077   5.645   6.331  1.00  0.00    -0.134 NA
BRANCH  71  73
ATOM     73  C   UNL     1       8.451   5.364   8.797  1.00  0.00     0.138 C 
BRANCH  73  74
ATOM     74  S   UNL     1      10.032   4.808   9.419  1.00  0.00    -0.081 SA
BRANCH  74  75
ATOM     75  C   UNL     1      10.625   3.317   8.733  1.00  0.00     0.176 A 
ATOM     76  N   UNL     1      11.926   3.312   8.667  1.00  0.00    -0.223 NA
ATOM     77  N   UNL     1       9.877   2.230   8.306  1.00  0.00    -0.255 N 
ATOM     78  C   UNL     1      12.567   2.233   8.051  1.00  0.00     0.079 A 
ATOM     79  C   UNL     1      10.406   1.579   7.181  1.00  0.00     0.266 A 
ATOM     80  C   UNL     1      13.931   2.005   8.232  1.00  0.00     0.029 A 
ATOM     81  C   UNL     1      11.869   1.431   7.162  1.00  0.00     0.066 A 
ATOM     82  O   UNL     1       9.765   1.139   6.228  1.00  0.00    -0.268 OA
ATOM     83  C   UNL     1      14.589   1.024   7.480  1.00  0.00     0.002 A 
ATOM     84  C   UNL     1      12.518   0.483   6.364  1.00  0.00     0.016 A 
ATOM     85  C   UNL     1      13.889   0.288   6.521  1.00  0.00     0.001 A 
BRANCH  77  86
ATOM     86  C   UNL     1       8.655   1.714   8.889  1.00  0.00     0.051 A 
ATOM     87  C   UNL     1       8.082   0.518   8.403  1.00  0.00     0.028 A 
ATOM     88  C   UNL     1       7.987   2.306   9.968  1.00  0.00     0.028 A 
ATOM     89  C   UNL     1       6.807   0.087   8.785  1.00  0.00     0.018 A 
ATOM     90  C   UNL     1       6.682   1.920  10.321  1.00  0.00     0.018 A 
ATOM     91  C   UNL     1       6.080   0.840   9.690  1.00  0.00     0.018 A 
ATOM     92  Br  UNL     1       4.273   0.420  10.027  1.00  0.00    -0.051 Br
ENDBRANCH  77  86
ENDBRANCH  74  75
ENDBRANCH  73  74
ENDBRANCH  71  73
ENDBRANCH  67  68
ENDBRANCH  60  62
ENDBRANCH  59  60
ENDBRANCH  58  59
ENDBRANCH   1  58
TORSDOF 19
