REMARK SMILES Cc1nc(CSCC(=O)N2CCCC[C@@H]2C(=O)OCCOCCOC(=O)c2ccc(-c3c4nc(c(-c5ccccc5)c5ccc([nH]5)c(-c5ccccc5)c5nc(c(-c6ccccc6)c6ccc3[nH]6)C=C5)C=C4)cc2)cs1
REMARK SMILES IDX 19 1 18 2 16 3 17 4 15 5 10 6 11 7 12 8 14 9 13 10 8 11 9 12
REMARK SMILES IDX 7 13 6 14 5 15 4 16 1 17 2 18 3 19 76 20 75 21 20 22 21 23
REMARK SMILES IDX 22 24 23 25 24 26 25 27 26 28 27 29 28 30 74 31 29 32 73 33
REMARK SMILES IDX 30 34 31 35 32 36 67 37 33 38 72 39 66 40 68 41 34 42 71 43
REMARK SMILES IDX 65 44 64 45 35 47 57 48 42 49 56 50 43 51 46 52 55 53 69 54
REMARK SMILES IDX 44 55 45 56 54 58 70 59 47 60 36 61 37 62 41 63 38 64 40 65
REMARK SMILES IDX 39 66 58 67 59 68 63 69 60 70 62 71 61 72 48 73 49 74 53 75
REMARK SMILES IDX 50 76 52 77 51 78
REMARK H PARENT 68 46 46 57
REMARK Flexibility Score: inf
ROOT
ATOM      1  C   UNL     1       2.392  -3.045   0.766  1.00  0.00     0.261 C 
ENDROOT
BRANCH   1   2
ATOM      2  O   UNL     1       2.592  -4.151  -0.112  1.00  0.00    -0.462 OA
BRANCH   2   3
ATOM      3  C   UNL     1       3.118  -3.901  -1.339  1.00  0.00     0.328 C 
ATOM      4  O   UNL     1       3.568  -2.822  -1.704  1.00  0.00    -0.250 OA
BRANCH   3   5
ATOM      5  C   UNL     1       2.995  -5.134  -2.256  1.00  0.00     0.195 C 
ATOM      6  N   UNL     1       2.169  -4.882  -3.452  1.00  0.00    -0.328 N 
ATOM      7  C   UNL     1       1.922  -6.020  -4.331  1.00  0.00     0.120 C 
ATOM      8  C   UNL     1       1.522  -7.285  -3.567  1.00  0.00     0.022 C 
ATOM      9  C   UNL     1       2.610  -6.418  -1.508  1.00  0.00     0.037 C 
ATOM     10  C   UNL     1       2.529  -7.598  -2.467  1.00  0.00     0.005 C 
BRANCH   6  11
ATOM     11  C   UNL     1       1.174  -3.903  -3.400  1.00  0.00     0.233 C 
ATOM     12  O   UNL     1       0.186  -4.027  -2.686  1.00  0.00    -0.274 OA
BRANCH  11  13
ATOM     13  C   UNL     1       1.498  -2.710  -4.307  1.00  0.00     0.170 C 
BRANCH  13  14
ATOM     14  S   UNL     1       0.705  -1.138  -3.827  1.00  0.00    -0.146 SA
BRANCH  14  15
ATOM     15  C   UNL     1       1.322  -1.002  -2.127  1.00  0.00     0.127 C 
BRANCH  15  16
ATOM     16  C   UNL     1       0.517  -0.096  -1.254  1.00  0.00     0.061 A 
ATOM     17  C   UNL     1      -2.781   0.408   0.215  1.00  0.00     0.079 C 
ATOM     18  C   UNL     1      -1.350   0.446  -0.185  1.00  0.00     0.090 A 
ATOM     19  N   UNL     1      -0.809  -0.418  -1.011  1.00  0.00    -0.246 NA
ATOM     20  S   UNL     1      -0.288   1.654   0.412  1.00  0.00    -0.127 S 
ATOM     21  C   UNL     1       0.981   0.987  -0.529  1.00  0.00     0.091 A 
ENDBRANCH  15  16
ENDBRANCH  14  15
ENDBRANCH  13  14
ENDBRANCH  11  13
ENDBRANCH   6  11
ENDBRANCH   3   5
ENDBRANCH   2   3
ENDBRANCH   1   2
BRANCH   1  22
ATOM     22  C   UNL     1       3.622  -2.463   1.472  1.00  0.00     0.202 C 
BRANCH  22  23
ATOM     23  O   UNL     1       4.922  -2.953   1.192  1.00  0.00    -0.374 OA
BRANCH  23  24
ATOM     24  C   UNL     1       5.190  -4.346   1.190  1.00  0.00     0.202 C 
BRANCH  24  25
ATOM     25  C   UNL     1       4.809  -5.188   2.408  1.00  0.00     0.261 C 
BRANCH  25  26
ATOM     26  O   UNL     1       3.402  -5.173   2.699  1.00  0.00    -0.460 OA
BRANCH  26  27
ATOM     27  C   UNL     1       3.085  -4.670   3.917  1.00  0.00     0.338 C 
ATOM     28  O   UNL     1       3.851  -4.243   4.762  1.00  0.00    -0.246 OA
BRANCH  27  29
ATOM     29  C   UNL     1       1.623  -4.560   4.068  1.00  0.00     0.060 A 
ATOM     30  C   UNL     1       1.101  -3.305   4.408  1.00  0.00     0.016 A 
ATOM     31  C   UNL     1       0.797  -5.683   4.002  1.00  0.00     0.016 A 
ATOM     32  C   UNL     1      -0.243  -3.180   4.748  1.00  0.00     0.010 A 
ATOM     33  C   UNL     1      -0.549  -5.559   4.359  1.00  0.00     0.010 A 
ATOM     34  C   UNL     1      -1.060  -4.317   4.780  1.00  0.00    -0.014 A 
BRANCH  34  35
ATOM     35  C   UNL     1      -2.376  -4.243   5.457  1.00  0.00     0.031 A 
ATOM     36  C   UNL     1      -2.466  -4.662   6.900  1.00  0.00     0.074 A 
ATOM     37  C   UNL     1      -3.464  -3.776   4.821  1.00  0.00     0.049 A 
ATOM     38  N   UNL     1      -3.507  -4.702   7.692  1.00  0.00    -0.248 NA
ATOM     39  C   UNL     1      -1.209  -5.092   7.534  1.00  0.00     0.031 C 
ATOM     40  C   UNL     1      -3.496  -3.283   3.446  1.00  0.00     0.029 A 
ATOM     41  N   UNL     1      -4.756  -3.645   5.261  1.00  0.00    -0.354 N 
ATOM     42  C   UNL     1      -3.032  -5.166   8.912  1.00  0.00     0.074 A 
ATOM     43  C   UNL     1      -1.618  -5.423   8.749  1.00  0.00     0.031 C 
ATOM     44  C   UNL     1      -4.753  -2.906   3.151  1.00  0.00     0.029 A 
ATOM     45  C   UNL     1      -5.614  -3.162   4.305  1.00  0.00     0.049 A 
ATOM     46  H   UNL     1      -5.041  -3.874   6.175  1.00  0.00     0.167 HD
ATOM     47  C   UNL     1      -3.709  -5.360  10.069  1.00  0.00     0.031 A 
ATOM     48  C   UNL     1      -6.946  -2.969   4.352  1.00  0.00     0.031 A 
ATOM     49  C   UNL     1      -5.120  -5.129  10.228  1.00  0.00     0.049 A 
ATOM     50  C   UNL     1      -7.698  -3.287   5.617  1.00  0.00     0.074 A 
ATOM     51  C   UNL     1      -5.900  -5.292  11.359  1.00  0.00     0.029 A 
ATOM     52  N   UNL     1      -5.964  -4.697   9.217  1.00  0.00    -0.354 N 
ATOM     53  N   UNL     1      -7.238  -3.711   6.770  1.00  0.00    -0.248 NA
ATOM     54  C   UNL     1      -9.155  -3.094   5.587  1.00  0.00     0.031 C 
ATOM     55  C   UNL     1      -7.227  -5.013  11.016  1.00  0.00     0.029 A 
ATOM     56  C   UNL     1      -7.263  -4.617   9.689  1.00  0.00     0.049 A 
ATOM     57  H   UNL     1      -5.681  -4.480   8.299  1.00  0.00     0.167 HD
ATOM     58  C   UNL     1      -8.342  -3.807   7.609  1.00  0.00     0.074 A 
ATOM     59  C   UNL     1      -9.493  -3.388   6.835  1.00  0.00     0.031 C 
ATOM     60  C   UNL     1      -8.398  -4.202   8.905  1.00  0.00     0.031 A 
BRANCH  47  61
ATOM     61  C   UNL     1      -2.929  -5.893  11.238  1.00  0.00    -0.014 A 
ATOM     62  C   UNL     1      -1.981  -5.101  11.907  1.00  0.00     0.009 A 
ATOM     63  C   UNL     1      -3.145  -7.208  11.676  1.00  0.00     0.009 A 
ATOM     64  C   UNL     1      -1.235  -5.632  12.963  1.00  0.00     0.001 A 
ATOM     65  C   UNL     1      -2.419  -7.727  12.750  1.00  0.00     0.001 A 
ATOM     66  C   UNL     1      -1.457  -6.943  13.384  1.00  0.00     0.000 A 
ENDBRANCH  47  61
BRANCH  48  67
ATOM     67  C   UNL     1      -7.663  -2.459   3.154  1.00  0.00    -0.014 A 
ATOM     68  C   UNL     1      -8.202  -1.164   3.143  1.00  0.00     0.009 A 
ATOM     69  C   UNL     1      -7.817  -3.269   2.018  1.00  0.00     0.009 A 
ATOM     70  C   UNL     1      -8.896  -0.696   2.024  1.00  0.00     0.001 A 
ATOM     71  C   UNL     1      -8.487  -2.789   0.891  1.00  0.00     0.001 A 
ATOM     72  C   UNL     1      -9.032  -1.507   0.897  1.00  0.00     0.000 A 
ENDBRANCH  48  67
BRANCH  60  73
ATOM     73  C   UNL     1      -9.741  -4.165   9.581  1.00  0.00    -0.014 A 
ATOM     74  C   UNL     1     -10.738  -5.105   9.278  1.00  0.00     0.009 A 
ATOM     75  C   UNL     1      -9.992  -3.202  10.571  1.00  0.00     0.009 A 
ATOM     76  C   UNL     1     -11.972  -5.059   9.931  1.00  0.00     0.001 A 
ATOM     77  C   UNL     1     -11.215  -3.176  11.242  1.00  0.00     0.001 A 
ATOM     78  C   UNL     1     -12.208  -4.099  10.915  1.00  0.00     0.000 A 
ENDBRANCH  60  73
ENDBRANCH  34  35
ENDBRANCH  27  29
ENDBRANCH  26  27
ENDBRANCH  25  26
ENDBRANCH  24  25
ENDBRANCH  23  24
ENDBRANCH  22  23
ENDBRANCH   1  22
TORSDOF 19
