REMARK SMILES CC(C)c1cc(N2CCC(C(=O)OCCOCCOC(=O)c3ccc(-c4c5nc(c(-c6ccccc6)c6ccc([nH]6)c(-c6ccccc6)c6nc(c(-c7ccccc7)c7ccc4[nH]7)C=C6)C=C5)cc3)CC2)nc(-c2ccc(F)cc2)n1
REMARK SMILES IDX 16 1 15 2 14 3 13 4 11 5 12 6 10 7 7 8 8 9 71 10 9 11 70 12
REMARK SMILES IDX 6 13 4 14 5 15 81 16 73 17 72 18 2 19 1 20 3 21 74 22 75 23
REMARK SMILES IDX 80 24 76 25 79 26 77 27 78 28 17 29 18 30 19 31 20 32 21 33
REMARK SMILES IDX 22 34 23 35 69 36 24 37 68 38 25 39 26 40 27 41 62 42 28 43
REMARK SMILES IDX 67 44 61 45 63 46 29 47 66 48 60 49 59 50 30 52 52 53 37 54
REMARK SMILES IDX 51 55 38 56 41 57 50 58 64 59 39 60 40 61 49 63 65 64 42 65
REMARK SMILES IDX 31 66 32 67 36 68 33 69 35 70 34 71 53 72 54 73 58 74 55 75
REMARK SMILES IDX 57 76 56 77 43 78 44 79 48 80 45 81 47 82 46 83
REMARK H PARENT 63 51 41 62
REMARK Flexibility Score: inf
ROOT
ATOM      1  O   UNL     1     -10.104  -5.812  -0.026  1.00  0.00    -0.374 OA
ENDROOT
BRANCH   1   2
ATOM      2  C   UNL     1     -10.303  -5.013   1.143  1.00  0.00     0.202 C 
BRANCH   2   3
ATOM      3  C   UNL     1      -9.312  -5.248   2.287  1.00  0.00     0.261 C 
BRANCH   3   4
ATOM      4  O   UNL     1      -8.019  -4.712   1.953  1.00  0.00    -0.463 OA
BRANCH   4   5
ATOM      5  C   UNL     1      -6.969  -5.567   2.039  1.00  0.00     0.309 C 
ATOM      6  O   UNL     1      -7.024  -6.707   2.486  1.00  0.00    -0.252 OA
BRANCH   5   7
ATOM      7  C   UNL     1      -5.676  -4.963   1.530  1.00  0.00     0.103 C 
ATOM      8  N   UNL     1      -3.709  -2.937   1.326  1.00  0.00    -0.356 N 
ATOM      9  C   UNL     1      -4.503  -3.213   0.142  1.00  0.00     0.119 C 
ATOM     10  C   UNL     1      -3.465  -4.006   2.274  1.00  0.00     0.119 C 
ATOM     11  C   UNL     1      -5.851  -3.782   0.562  1.00  0.00     0.037 C 
ATOM     12  C   UNL     1      -4.811  -4.566   2.729  1.00  0.00     0.037 C 
BRANCH   8  13
ATOM     13  C   UNL     1      -2.972  -1.778   1.325  1.00  0.00     0.132 A 
ATOM     14  C   UNL     1      -0.935  -0.586   1.290  1.00  0.00     0.049 A 
ATOM     15  C   UNL     1      -1.592  -1.800   1.361  1.00  0.00     0.071 A 
ATOM     16  N   UNL     1      -1.601   0.583   1.220  1.00  0.00    -0.233 NA
ATOM     17  C   UNL     1      -2.942   0.510   1.238  1.00  0.00     0.161 A 
ATOM     18  N   UNL     1      -3.654  -0.625   1.263  1.00  0.00    -0.211 NA
BRANCH  14  19
ATOM     19  C   UNL     1       0.578  -0.537   1.269  1.00  0.00     0.032 C 
ATOM     20  C   UNL     1       1.075  -0.013  -0.078  1.00  0.00     0.014 C 
ATOM     21  C   UNL     1       1.110   0.317   2.421  1.00  0.00     0.014 C 
ENDBRANCH  14  19
BRANCH  17  22
ATOM     22  C   UNL     1      -3.686   1.771   1.296  1.00  0.00     0.019 A 
ATOM     23  C   UNL     1      -3.432   2.808   0.380  1.00  0.00     0.015 A 
ATOM     24  C   UNL     1      -4.662   1.983   2.289  1.00  0.00     0.015 A 
ATOM     25  C   UNL     1      -4.132   4.016   0.455  1.00  0.00     0.040 A 
ATOM     26  C   UNL     1      -5.348   3.196   2.376  1.00  0.00     0.040 A 
ATOM     27  C   UNL     1      -5.077   4.200   1.456  1.00  0.00     0.123 A 
ATOM     28  F   UNL     1      -5.735   5.364   1.536  1.00  0.00    -0.207 F 
ENDBRANCH  17  22
ENDBRANCH   8  13
ENDBRANCH   5   7
ENDBRANCH   4   5
ENDBRANCH   3   4
ENDBRANCH   2   3
ENDBRANCH   1   2
BRANCH   1  29
ATOM     29  C   UNL     1      -9.012  -5.460  -0.874  1.00  0.00     0.202 C 
BRANCH  29  30
ATOM     30  C   UNL     1      -9.253  -4.287  -1.833  1.00  0.00     0.261 C 
BRANCH  30  31
ATOM     31  O   UNL     1      -9.568  -3.064  -1.143  1.00  0.00    -0.460 OA
BRANCH  31  32
ATOM     32  C   UNL     1     -10.834  -2.625  -1.333  1.00  0.00     0.338 C 
ATOM     33  O   UNL     1     -11.673  -3.091  -2.095  1.00  0.00    -0.246 OA
BRANCH  32  34
ATOM     34  C   UNL     1     -11.174  -1.566  -0.366  1.00  0.00     0.060 A 
ATOM     35  C   UNL     1     -12.325  -1.758   0.406  1.00  0.00     0.016 A 
ATOM     36  C   UNL     1     -10.454  -0.371  -0.280  1.00  0.00     0.016 A 
ATOM     37  C   UNL     1     -12.793  -0.735   1.227  1.00  0.00     0.010 A 
ATOM     38  C   UNL     1     -10.931   0.659   0.543  1.00  0.00     0.010 A 
ATOM     39  C   UNL     1     -12.123   0.495   1.272  1.00  0.00    -0.014 A 
BRANCH  39  40
ATOM     40  C   UNL     1     -12.759   1.627   1.990  1.00  0.00     0.031 A 
ATOM     41  C   UNL     1     -13.562   2.639   1.216  1.00  0.00     0.074 A 
ATOM     42  C   UNL     1     -12.700   1.705   3.332  1.00  0.00     0.049 A 
ATOM     43  N   UNL     1     -14.275   3.644   1.659  1.00  0.00    -0.248 NA
ATOM     44  C   UNL     1     -13.572   2.493  -0.248  1.00  0.00     0.031 C 
ATOM     45  C   UNL     1     -11.989   0.770   4.203  1.00  0.00     0.029 A 
ATOM     46  N   UNL     1     -13.266   2.608   4.197  1.00  0.00    -0.354 N 
ATOM     47  C   UNL     1     -14.826   4.242   0.533  1.00  0.00     0.074 A 
ATOM     48  C   UNL     1     -14.337   3.511  -0.616  1.00  0.00     0.031 C 
ATOM     49  C   UNL     1     -12.170   1.143   5.482  1.00  0.00     0.029 A 
ATOM     50  C   UNL     1     -12.992   2.351   5.518  1.00  0.00     0.049 A 
ATOM     51  H   UNL     1     -13.816   3.368   3.898  1.00  0.00     0.167 HD
ATOM     52  C   UNL     1     -15.672   5.297   0.459  1.00  0.00     0.031 A 
ATOM     53  C   UNL     1     -13.359   3.016   6.629  1.00  0.00     0.031 A 
ATOM     54  C   UNL     1     -16.149   6.043   1.593  1.00  0.00     0.049 A 
ATOM     55  C   UNL     1     -14.240   4.231   6.512  1.00  0.00     0.074 A 
ATOM     56  C   UNL     1     -17.010   7.127   1.613  1.00  0.00     0.029 A 
ATOM     57  N   UNL     1     -15.799   5.786   2.909  1.00  0.00    -0.354 N 
ATOM     58  N   UNL     1     -14.778   4.763   5.442  1.00  0.00    -0.248 NA
ATOM     59  C   UNL     1     -14.574   4.927   7.764  1.00  0.00     0.031 C 
ATOM     60  C   UNL     1     -17.146   7.555   2.939  1.00  0.00     0.029 A 
ATOM     61  C   UNL     1     -16.409   6.705   3.747  1.00  0.00     0.049 A 
ATOM     62  H   UNL     1     -15.205   5.059   3.204  1.00  0.00     0.167 HD
ATOM     63  C   UNL     1     -15.529   5.842   5.893  1.00  0.00     0.074 A 
ATOM     64  C   UNL     1     -15.397   5.873   7.335  1.00  0.00     0.031 C 
ATOM     65  C   UNL     1     -16.263   6.729   5.178  1.00  0.00     0.031 A 
BRANCH  52  66
ATOM     66  C   UNL     1     -16.129   5.723  -0.907  1.00  0.00    -0.014 A 
ATOM     67  C   UNL     1     -17.080   4.973  -1.617  1.00  0.00     0.009 A 
ATOM     68  C   UNL     1     -15.642   6.913  -1.469  1.00  0.00     0.009 A 
ATOM     69  C   UNL     1     -17.518   5.398  -2.874  1.00  0.00     0.001 A 
ATOM     70  C   UNL     1     -16.099   7.346  -2.715  1.00  0.00     0.001 A 
ATOM     71  C   UNL     1     -17.032   6.585  -3.419  1.00  0.00     0.000 A 
ENDBRANCH  52  66
BRANCH  53  72
ATOM     72  C   UNL     1     -12.886   2.564   7.963  1.00  0.00    -0.014 A 
ATOM     73  C   UNL     1     -13.781   2.020   8.897  1.00  0.00     0.009 A 
ATOM     74  C   UNL     1     -11.538   2.718   8.324  1.00  0.00     0.009 A 
ATOM     75  C   UNL     1     -13.341   1.670  10.176  1.00  0.00     0.001 A 
ATOM     76  C   UNL     1     -11.096   2.342   9.593  1.00  0.00     0.001 A 
ATOM     77  C   UNL     1     -12.000   1.828  10.522  1.00  0.00     0.000 A 
ENDBRANCH  53  72
BRANCH  65  78
ATOM     78  C   UNL     1     -16.995   7.790   5.950  1.00  0.00    -0.014 A 
ATOM     79  C   UNL     1     -16.307   8.858   6.549  1.00  0.00     0.009 A 
ATOM     80  C   UNL     1     -18.392   7.730   6.066  1.00  0.00     0.009 A 
ATOM     81  C   UNL     1     -17.002   9.820   7.285  1.00  0.00     0.001 A 
ATOM     82  C   UNL     1     -19.086   8.709   6.779  1.00  0.00     0.001 A 
ATOM     83  C   UNL     1     -18.390   9.746   7.397  1.00  0.00     0.000 A 
ENDBRANCH  65  78
ENDBRANCH  39  40
ENDBRANCH  32  34
ENDBRANCH  31  32
ENDBRANCH  30  31
ENDBRANCH  29  30
ENDBRANCH   1  29
TORSDOF 17
