REMARK SMILES O=C(OCCOCCOC(=O)c1cccnc1N1CCC([N@H+]2CCC[C@H](C(=O)NC3CC3)C2)CC1)c1ccc(-c2c3nc(c(-c4ccccc4)c4ccc([nH]4)c(-c4ccccc4)c4nc(c(-c5ccccc5)c5ccc2[nH]5)C=C4)C=C3)cc1
REMARK SMILES IDX 7 1 6 2 5 3 4 4 3 5 2 6 1 7 36 8 37 9 83 10 38 11 82 12
REMARK SMILES IDX 39 13 40 14 41 15 76 16 42 17 81 18 75 19 77 20 43 21 80 22
REMARK SMILES IDX 74 23 73 24 44 26 66 27 51 28 65 29 52 30 55 31 64 32 78 33
REMARK SMILES IDX 53 34 54 35 63 37 79 38 56 39 45 40 46 41 50 42 47 43 49 44
REMARK SMILES IDX 48 45 67 46 68 47 72 48 69 49 71 50 70 51 57 52 58 53 62 54
REMARK SMILES IDX 59 55 61 56 60 57 8 58 9 59 10 60 11 61 12 62 13 63 17 64
REMARK SMILES IDX 14 65 16 66 15 67 18 68 19 69 35 70 20 71 34 72 21 73 22 74
REMARK SMILES IDX 23 75 33 76 24 78 26 79 25 80 27 81 28 82 29 83 30 85 31 86
REMARK SMILES IDX 32 87
REMARK H PARENT 77 25 55 36 22 77 29 84
REMARK Flexibility Score: inf
ROOT
ATOM      1  C   UNL     1       1.999  -0.979   2.695  1.00  0.00     0.202 C 
ENDROOT
BRANCH   1   2
ATOM      2  O   UNL     1       2.960  -0.941   1.665  1.00  0.00    -0.374 OA
BRANCH   2   3
ATOM      3  C   UNL     1       3.560   0.323   1.410  1.00  0.00     0.202 C 
BRANCH   3   4
ATOM      4  C   UNL     1       3.194   0.880   0.031  1.00  0.00     0.261 C 
BRANCH   4   5
ATOM      5  O   UNL     1       1.857   0.509  -0.331  1.00  0.00    -0.460 OA
BRANCH   5   6
ATOM      6  C   UNL     1       1.535  -0.542  -1.127  1.00  0.00     0.338 C 
ATOM      7  O   UNL     1       0.365  -0.726  -1.451  1.00  0.00    -0.246 OA
BRANCH   6   8
ATOM      8  C   UNL     1       2.575  -1.463  -1.674  1.00  0.00     0.060 A 
ATOM      9  C   UNL     1       3.684  -1.886  -0.946  1.00  0.00     0.016 A 
ATOM     10  C   UNL     1       2.374  -2.024  -2.939  1.00  0.00     0.016 A 
ATOM     11  C   UNL     1       4.595  -2.790  -1.425  1.00  0.00     0.010 A 
ATOM     12  C   UNL     1       3.220  -3.044  -3.388  1.00  0.00     0.010 A 
ATOM     13  C   UNL     1       4.300  -3.456  -2.594  1.00  0.00    -0.014 A 
BRANCH  13  14
ATOM     14  C   UNL     1       5.140  -4.616  -2.897  1.00  0.00     0.031 A 
ATOM     15  C   UNL     1       6.059  -4.533  -4.058  1.00  0.00     0.074 A 
ATOM     16  C   UNL     1       5.127  -5.664  -2.047  1.00  0.00     0.049 A 
ATOM     17  N   UNL     1       6.765  -5.479  -4.604  1.00  0.00    -0.248 NA
ATOM     18  C   UNL     1       6.202  -3.211  -4.694  1.00  0.00     0.031 C 
ATOM     19  C   UNL     1       4.364  -5.739  -0.789  1.00  0.00     0.029 A 
ATOM     20  N   UNL     1       5.793  -6.857  -2.089  1.00  0.00    -0.354 N 
ATOM     21  C   UNL     1       7.382  -4.887  -5.693  1.00  0.00     0.074 A 
ATOM     22  C   UNL     1       6.990  -3.497  -5.719  1.00  0.00     0.031 C 
ATOM     23  C   UNL     1       4.623  -6.904  -0.179  1.00  0.00     0.029 A 
ATOM     24  C   UNL     1       5.471  -7.699  -1.050  1.00  0.00     0.049 A 
ATOM     25  H   UNL     1       6.439  -7.090  -2.794  1.00  0.00     0.167 HD
ATOM     26  C   UNL     1       8.180  -5.488  -6.599  1.00  0.00     0.031 A 
ATOM     27  C   UNL     1       5.774  -8.996  -0.872  1.00  0.00     0.031 A 
ATOM     28  C   UNL     1       8.538  -6.876  -6.519  1.00  0.00     0.049 A 
ATOM     29  C   UNL     1       6.578  -9.658  -1.957  1.00  0.00     0.074 A 
ATOM     30  C   UNL     1       9.305  -7.621  -7.391  1.00  0.00     0.029 A 
ATOM     31  N   UNL     1       8.143  -7.726  -5.493  1.00  0.00    -0.354 N 
ATOM     32  N   UNL     1       7.113  -9.121  -3.030  1.00  0.00    -0.248 NA
ATOM     33  C   UNL     1       6.797 -11.101  -1.827  1.00  0.00     0.031 C 
ATOM     34  C   UNL     1       9.323  -8.938  -6.924  1.00  0.00     0.029 A 
ATOM     35  C   UNL     1       8.624  -8.999  -5.726  1.00  0.00     0.049 A 
ATOM     36  H   UNL     1       7.600  -7.460  -4.715  1.00  0.00     0.167 HD
ATOM     37  C   UNL     1       7.745 -10.158  -3.696  1.00  0.00     0.074 A 
ATOM     38  C   UNL     1       7.555 -11.347  -2.886  1.00  0.00     0.031 C 
ATOM     39  C   UNL     1       8.411 -10.143  -4.876  1.00  0.00     0.031 A 
BRANCH  26  40
ATOM     40  C   UNL     1       8.610  -4.673  -7.779  1.00  0.00    -0.014 A 
ATOM     41  C   UNL     1       9.560  -3.647  -7.667  1.00  0.00     0.009 A 
ATOM     42  C   UNL     1       8.033  -4.936  -9.031  1.00  0.00     0.009 A 
ATOM     43  C   UNL     1       9.905  -2.885  -8.785  1.00  0.00     0.001 A 
ATOM     44  C   UNL     1       8.399  -4.191 -10.151  1.00  0.00     0.001 A 
ATOM     45  C   UNL     1       9.330  -3.162 -10.026  1.00  0.00     0.000 A 
ENDBRANCH  26  40
BRANCH  27  46
ATOM     46  C   UNL     1       5.232  -9.773   0.277  1.00  0.00    -0.014 A 
ATOM     47  C   UNL     1       6.089 -10.389   1.201  1.00  0.00     0.009 A 
ATOM     48  C   UNL     1       3.845  -9.956   0.425  1.00  0.00     0.009 A 
ATOM     49  C   UNL     1       5.575 -11.209   2.211  1.00  0.00     0.001 A 
ATOM     50  C   UNL     1       3.332 -10.744   1.459  1.00  0.00     0.001 A 
ATOM     51  C   UNL     1       4.199 -11.385   2.339  1.00  0.00     0.000 A 
ENDBRANCH  27  46
BRANCH  39  52
ATOM     52  C   UNL     1       9.005 -11.444  -5.324  1.00  0.00    -0.014 A 
ATOM     53  C   UNL     1       8.197 -12.486  -5.800  1.00  0.00     0.009 A 
ATOM     54  C   UNL     1      10.400 -11.600  -5.319  1.00  0.00     0.009 A 
ATOM     55  C   UNL     1       8.776 -13.676  -6.238  1.00  0.00     0.001 A 
ATOM     56  C   UNL     1      10.976 -12.776  -5.792  1.00  0.00     0.001 A 
ATOM     57  C   UNL     1      10.164 -13.815  -6.242  1.00  0.00     0.000 A 
ENDBRANCH  39  52
ENDBRANCH  13  14
ENDBRANCH   6   8
ENDBRANCH   5   6
ENDBRANCH   4   5
ENDBRANCH   3   4
ENDBRANCH   2   3
ENDBRANCH   1   2
BRANCH   1  58
ATOM     58  C   UNL     1       2.675  -1.315   4.020  1.00  0.00     0.261 C 
BRANCH  58  59
ATOM     59  O   UNL     1       3.492  -0.205   4.441  1.00  0.00    -0.460 OA
BRANCH  59  60
ATOM     60  C   UNL     1       4.830  -0.229   4.151  1.00  0.00     0.341 C 
ATOM     61  O   UNL     1       5.450  -1.150   3.671  1.00  0.00    -0.246 OA
BRANCH  60  62
ATOM     62  C   UNL     1       5.363   1.118   4.498  1.00  0.00     0.102 A 
ATOM     63  C   UNL     1       4.852   1.716   5.665  1.00  0.00     0.021 A 
ATOM     64  C   UNL     1       6.306   1.823   3.723  1.00  0.00     0.143 A 
ATOM     65  C   UNL     1       5.278   2.977   6.040  1.00  0.00     0.021 A 
ATOM     66  N   UNL     1       6.729   3.053   4.112  1.00  0.00    -0.238 NA
ATOM     67  C   UNL     1       6.220   3.593   5.244  1.00  0.00     0.113 A 
BRANCH  64  68
ATOM     68  N   UNL     1       6.787   1.382   2.496  1.00  0.00    -0.355 N 
ATOM     69  C   UNL     1       8.196   0.987   2.435  1.00  0.00     0.124 C 
ATOM     70  C   UNL     1       6.239   2.025   1.304  1.00  0.00     0.124 C 
ATOM     71  C   UNL     1       9.095   2.100   1.867  1.00  0.00     0.086 C 
ATOM     72  C   UNL     1       7.111   3.119   0.729  1.00  0.00     0.086 C 
ATOM     73  C   UNL     1       8.547   2.623   0.529  1.00  0.00     0.187 C 
BRANCH  73  74
ATOM     74  N   UNL     1       9.303   3.689  -0.149  1.00  0.00    -0.332 N 
ATOM     75  C   UNL     1       9.685   4.838   0.670  1.00  0.00     0.262 C 
ATOM     76  C   UNL     1      10.384   3.209  -1.010  1.00  0.00     0.275 C 
ATOM     77  H   UNL     1       8.598   4.075  -0.777  1.00  0.00     0.348 HD
ATOM     78  C   UNL     1      10.152   6.013  -0.194  1.00  0.00     0.062 C 
ATOM     79  C   UNL     1      10.982   4.302  -1.904  1.00  0.00     0.133 C 
ATOM     80  C   UNL     1      11.246   5.620  -1.174  1.00  0.00     0.025 C 
BRANCH  79  81
ATOM     81  C   UNL     1      10.361   4.445  -3.300  1.00  0.00     0.229 C 
ATOM     82  O   UNL     1      11.080   4.261  -4.293  1.00  0.00    -0.275 OA
ATOM     83  N   UNL     1       9.068   4.785  -3.560  1.00  0.00    -0.353 N 
ATOM     84  H   UNL     1       8.855   4.828  -4.520  1.00  0.00     0.163 HD
BRANCH  83  85
ATOM     85  C   UNL     1       7.969   5.088  -2.714  1.00  0.00     0.082 C 
ATOM     86  C   UNL     1       7.049   6.231  -3.044  1.00  0.00     0.027 C 
ATOM     87  C   UNL     1       6.555   4.819  -3.153  1.00  0.00     0.027 C 
ENDBRANCH  83  85
ENDBRANCH  79  81
ENDBRANCH  73  74
ENDBRANCH  64  68
ENDBRANCH  60  62
ENDBRANCH  59  60
ENDBRANCH  58  59
ENDBRANCH   1  58
TORSDOF 18
