REMARK SMILES CCOc1cc2c(cc1OCC)[C@@H](C(=O)OCCOCCOC(=O)c1ccc(-c3c4nc(c(-c5ccccc5)c5ccc([nH]5)c(-c5ccccc5)c5nc(c(-c6ccccc6)c6ccc3[nH]6)C=C5)C=C4)cc1)[C@H](c1ccc(F)cc1Cl)N(C)C2=O
REMARK SMILES IDX 19 1 18 2 17 3 16 4 14 5 15 6 13 7 4 8 5 9 9 10 6 11 8 12
REMARK SMILES IDX 7 13 84 14 82 15 85 16 73 17 83 18 3 19 2 20 1 21 10 22
REMARK SMILES IDX 11 23 12 24 74 25 75 26 80 27 76 28 79 29 81 30 77 31 78 32
REMARK SMILES IDX 20 33 21 34 22 35 23 36 24 37 25 38 26 39 72 40 27 41 71 42
REMARK SMILES IDX 28 43 29 44 30 45 65 46 31 47 70 48 64 49 66 50 32 51 69 52
REMARK SMILES IDX 63 53 62 54 33 56 55 57 40 58 54 59 41 60 44 61 53 62 67 63
REMARK SMILES IDX 42 64 43 65 52 67 68 68 45 69 34 70 35 71 39 72 36 73 38 74
REMARK SMILES IDX 37 75 56 76 57 77 61 78 58 79 60 80 59 81 46 82 47 83 51 84
REMARK SMILES IDX 48 85 50 86 49 87
REMARK H PARENT 66 55 44 66
REMARK Flexibility Score: inf
ROOT
ATOM      1  O   UNL     1       9.883  -3.565   0.260  1.00  0.00    -0.374 OA
ENDROOT
BRANCH   1   2
ATOM      2  C   UNL     1       9.062  -3.170  -0.836  1.00  0.00     0.202 C 
BRANCH   2   3
ATOM      3  C   UNL     1       7.556  -3.387  -0.678  1.00  0.00     0.261 C 
BRANCH   3   4
ATOM      4  O   UNL     1       6.992  -2.557   0.351  1.00  0.00    -0.463 OA
BRANCH   4   5
ATOM      5  C   UNL     1       6.744  -3.173   1.535  1.00  0.00     0.316 C 
ATOM      6  O   UNL     1       7.019  -4.342   1.785  1.00  0.00    -0.251 OA
BRANCH   5   7
ATOM      7  C   UNL     1       6.014  -2.290   2.530  1.00  0.00     0.157 C 
ATOM      8  C   UNL     1       1.899  -1.791   1.432  1.00  0.00     0.161 A 
ATOM      9  C   UNL     1       2.859  -0.835   1.067  1.00  0.00     0.064 A 
ATOM     10  C   UNL     1       2.287  -2.939   2.139  1.00  0.00     0.161 A 
ATOM     11  C   UNL     1       4.199  -1.024   1.374  1.00  0.00     0.048 A 
ATOM     12  C   UNL     1       3.633  -3.098   2.474  1.00  0.00     0.056 A 
ATOM     13  C   UNL     1       4.580  -2.138   2.117  1.00  0.00    -0.015 A 
ATOM     14  C   UNL     1       5.216  -0.029   0.931  1.00  0.00     0.254 C 
ATOM     15  N   UNL     1       6.410  -0.005   1.652  1.00  0.00    -0.333 N 
ATOM     16  O   UNL     1       4.978   0.707  -0.021  1.00  0.00    -0.269 OA
ATOM     17  C   UNL     1       6.617  -0.878   2.810  1.00  0.00     0.135 C 
ATOM     18  C   UNL     1       7.431   0.956   1.271  1.00  0.00     0.147 C 
BRANCH   8  19
ATOM     19  O   UNL     1       0.580  -1.517   1.187  1.00  0.00    -0.490 OA
BRANCH  19  20
ATOM     20  C   UNL     1       0.268  -1.339  -0.201  1.00  0.00     0.226 C 
ATOM     21  C   UNL     1       0.243   0.130  -0.595  1.00  0.00     0.049 C 
ENDBRANCH  19  20
ENDBRANCH   8  19
BRANCH  10  22
ATOM     22  O   UNL     1       1.547  -3.992   2.591  1.00  0.00    -0.490 OA
BRANCH  22  23
ATOM     23  C   UNL     1       0.143  -4.038   2.394  1.00  0.00     0.226 C 
ATOM     24  C   UNL     1      -0.571  -3.293   3.506  1.00  0.00     0.049 C 
ENDBRANCH  22  23
ENDBRANCH  10  22
BRANCH  17  25
ATOM     25  C   UNL     1       6.088  -0.339   4.169  1.00  0.00    -0.005 A 
ATOM     26  C   UNL     1       6.415  -1.132   5.302  1.00  0.00     0.010 A 
ATOM     27  C   UNL     1       5.252   0.778   4.406  1.00  0.00     0.049 A 
ATOM     28  C   UNL     1       5.852  -0.902   6.559  1.00  0.00     0.040 A 
ATOM     29  C   UNL     1       4.696   1.006   5.675  1.00  0.00     0.060 A 
ATOM     30  Cl  UNL     1       4.823   1.988   3.255  1.00  0.00    -0.084 Cl
ATOM     31  C   UNL     1       4.980   0.155   6.728  1.00  0.00     0.124 A 
ATOM     32  F   UNL     1       4.412   0.366   7.922  1.00  0.00    -0.207 F 
ENDBRANCH  17  25
ENDBRANCH   5   7
ENDBRANCH   4   5
ENDBRANCH   3   4
ENDBRANCH   2   3
ENDBRANCH   1   2
BRANCH   1  33
ATOM     33  C   UNL     1       9.966  -2.681   1.376  1.00  0.00     0.202 C 
BRANCH  33  34
ATOM     34  C   UNL     1      10.858  -1.447   1.213  1.00  0.00     0.261 C 
BRANCH  34  35
ATOM     35  O   UNL     1      10.308  -0.508   0.269  1.00  0.00    -0.460 OA
BRANCH  35  36
ATOM     36  C   UNL     1      11.009  -0.378  -0.882  1.00  0.00     0.338 C 
ATOM     37  O   UNL     1      12.080  -0.903  -1.160  1.00  0.00    -0.246 OA
BRANCH  36  38
ATOM     38  C   UNL     1      10.210   0.355  -1.878  1.00  0.00     0.060 A 
ATOM     39  C   UNL     1       9.970  -0.269  -3.109  1.00  0.00     0.016 A 
ATOM     40  C   UNL     1       9.750   1.652  -1.639  1.00  0.00     0.016 A 
ATOM     41  C   UNL     1       9.295   0.412  -4.119  1.00  0.00     0.010 A 
ATOM     42  C   UNL     1       9.076   2.335  -2.656  1.00  0.00     0.010 A 
ATOM     43  C   UNL     1       8.870   1.730  -3.910  1.00  0.00    -0.014 A 
BRANCH  43  44
ATOM     44  C   UNL     1       8.321   2.522  -5.036  1.00  0.00     0.031 A 
ATOM     45  C   UNL     1       9.204   3.523  -5.727  1.00  0.00     0.074 A 
ATOM     46  C   UNL     1       7.053   2.346  -5.447  1.00  0.00     0.049 A 
ATOM     47  N   UNL     1       8.908   4.376  -6.674  1.00  0.00    -0.248 NA
ATOM     48  C   UNL     1      10.609   3.571  -5.290  1.00  0.00     0.031 C 
ATOM     49  C   UNL     1       6.111   1.373  -4.896  1.00  0.00     0.029 A 
ATOM     50  N   UNL     1       6.336   2.997  -6.421  1.00  0.00    -0.354 N 
ATOM     51  C   UNL     1      10.082   5.071  -6.936  1.00  0.00     0.074 A 
ATOM     52  C   UNL     1      11.090   4.555  -6.035  1.00  0.00     0.031 C 
ATOM     53  C   UNL     1       4.935   1.498  -5.534  1.00  0.00     0.029 A 
ATOM     54  C   UNL     1       5.027   2.590  -6.501  1.00  0.00     0.049 A 
ATOM     55  H   UNL     1       6.723   3.688  -7.005  1.00  0.00     0.167 HD
ATOM     56  C   UNL     1      10.301   6.050  -7.846  1.00  0.00     0.031 A 
ATOM     57  C   UNL     1       4.009   3.070  -7.241  1.00  0.00     0.031 A 
ATOM     58  C   UNL     1       9.296   6.571  -8.732  1.00  0.00     0.049 A 
ATOM     59  C   UNL     1       4.251   4.234  -8.166  1.00  0.00     0.074 A 
ATOM     60  C   UNL     1       9.427   7.545  -9.707  1.00  0.00     0.029 A 
ATOM     61  N   UNL     1       7.969   6.170  -8.742  1.00  0.00    -0.354 N 
ATOM     62  N   UNL     1       5.371   4.864  -8.428  1.00  0.00    -0.248 NA
ATOM     63  C   UNL     1       3.084   4.758  -8.891  1.00  0.00     0.031 C 
ATOM     64  C   UNL     1       8.165   7.781 -10.260  1.00  0.00     0.029 A 
ATOM     65  C   UNL     1       7.261   6.910  -9.674  1.00  0.00     0.049 A 
ATOM     66  H   UNL     1       7.587   5.465  -8.171  1.00  0.00     0.167 HD
ATOM     67  C   UNL     1       5.047   5.845  -9.356  1.00  0.00     0.074 A 
ATOM     68  C   UNL     1       3.631   5.714  -9.630  1.00  0.00     0.031 C 
ATOM     69  C   UNL     1       5.850   6.774  -9.929  1.00  0.00     0.031 A 
BRANCH  56  70
ATOM     70  C   UNL     1      11.677   6.653  -7.898  1.00  0.00    -0.014 A 
ATOM     71  C   UNL     1      12.769   5.942  -8.418  1.00  0.00     0.009 A 
ATOM     72  C   UNL     1      11.872   7.971  -7.457  1.00  0.00     0.009 A 
ATOM     73  C   UNL     1      14.036   6.529  -8.465  1.00  0.00     0.001 A 
ATOM     74  C   UNL     1      13.133   8.565  -7.530  1.00  0.00     0.001 A 
ATOM     75  C   UNL     1      14.215   7.840  -8.026  1.00  0.00     0.000 A 
ENDBRANCH  56  70
BRANCH  57  76
ATOM     76  C   UNL     1       2.648   2.487  -7.102  1.00  0.00    -0.014 A 
ATOM     77  C   UNL     1       2.064   1.770  -8.156  1.00  0.00     0.009 A 
ATOM     78  C   UNL     1       1.916   2.665  -5.916  1.00  0.00     0.009 A 
ATOM     79  C   UNL     1       0.769   1.261  -8.034  1.00  0.00     0.001 A 
ATOM     80  C   UNL     1       0.634   2.129  -5.786  1.00  0.00     0.001 A 
ATOM     81  C   UNL     1       0.057   1.436  -6.848  1.00  0.00     0.000 A 
ENDBRANCH  57  76
BRANCH  69  82
ATOM     82  C   UNL     1       5.225   7.716 -10.920  1.00  0.00    -0.014 A 
ATOM     83  C   UNL     1       4.381   8.755 -10.499  1.00  0.00     0.009 A 
ATOM     84  C   UNL     1       5.533   7.601 -12.285  1.00  0.00     0.009 A 
ATOM     85  C   UNL     1       3.840   9.646 -11.429  1.00  0.00     0.001 A 
ATOM     86  C   UNL     1       5.015   8.510 -13.208  1.00  0.00     0.001 A 
ATOM     87  C   UNL     1       4.163   9.527 -12.780  1.00  0.00     0.000 A 
ENDBRANCH  69  82
ENDBRANCH  43  44
ENDBRANCH  36  38
ENDBRANCH  35  36
ENDBRANCH  34  35
ENDBRANCH  33  34
ENDBRANCH   1  33
TORSDOF 19
