REMARK SMILES CC(C)Oc1ccc(-c2ccc(/C(=C\c3ccc(S(C)(=O)=O)cc3)C(=O)OCCOCCOC(=O)c3ccc(-c4c5nc(c(-c6ccccc6)c6ccc([nH]6)c(-c6ccccc6)c6nc(c(-c7ccccc7)c7ccc4[nH]7)C=C6)C=C5)cc3)cc2)cc1
REMARK SMILES IDX 29 1 28 2 27 3 25 4 26 5 13 6 14 7 12 8 9 9 10 10 85 11
REMARK SMILES IDX 11 12 84 13 8 14 5 15 6 16 87 17 7 18 86 19 4 20 2 21 1 22
REMARK SMILES IDX 3 23 15 24 16 25 24 26 17 27 23 28 18 29 19 30 20 31 21 32
REMARK SMILES IDX 22 33 30 34 31 35 32 36 33 37 34 38 35 39 36 40 37 41 83 42
REMARK SMILES IDX 38 43 82 44 39 45 40 46 41 47 76 48 42 49 81 50 75 51 77 52
REMARK SMILES IDX 43 53 80 54 74 55 73 56 44 58 66 59 51 60 65 61 52 62 55 63
REMARK SMILES IDX 64 64 78 65 53 66 54 67 63 69 79 70 56 71 45 72 46 73 50 74
REMARK SMILES IDX 47 75 49 76 48 77 67 78 68 79 72 80 69 81 71 82 70 83 57 84
REMARK SMILES IDX 58 85 62 86 59 87 61 88 60 89
REMARK H PARENT 77 57 55 68
REMARK Flexibility Score: inf
ROOT
ATOM      1  C   UNL     1      -7.360  -0.861   9.829  1.00  0.00     0.202 C 
ENDROOT
BRANCH   1   2
ATOM      2  C   UNL     1      -8.404  -1.301   8.801  1.00  0.00     0.261 C 
BRANCH   2   3
ATOM      3  O   UNL     1      -7.952  -2.486   8.125  1.00  0.00    -0.460 OA
BRANCH   3   4
ATOM      4  C   UNL     1      -7.916  -2.404   6.769  1.00  0.00     0.338 C 
ATOM      5  O   UNL     1      -8.438  -1.528   6.095  1.00  0.00    -0.246 OA
BRANCH   4   6
ATOM      6  C   UNL     1      -7.012  -3.457   6.195  1.00  0.00     0.067 C 
ATOM      7  C   UNL     1      -7.104  -4.697   6.737  1.00  0.00     0.024 C 
BRANCH   6   8
ATOM      8  C   UNL     1      -6.098  -3.050   5.088  1.00  0.00    -0.011 A 
ATOM      9  C   UNL     1      -4.204  -2.255   3.087  1.00  0.00    -0.018 A 
ATOM     10  C   UNL     1      -4.888  -3.478   3.013  1.00  0.00     0.009 A 
ATOM     11  C   UNL     1      -4.519  -1.421   4.169  1.00  0.00     0.009 A 
ATOM     12  C   UNL     1      -5.841  -3.849   3.971  1.00  0.00     0.009 A 
ATOM     13  C   UNL     1      -5.440  -1.813   5.152  1.00  0.00     0.009 A 
BRANCH   9  14
ATOM     14  C   UNL     1      -3.231  -1.849   2.048  1.00  0.00    -0.018 A 
ATOM     15  C   UNL     1      -1.423  -1.003   0.033  1.00  0.00     0.119 A 
ATOM     16  C   UNL     1      -2.539  -1.764  -0.298  1.00  0.00     0.047 A 
ATOM     17  C   UNL     1      -1.209  -0.646   1.358  1.00  0.00     0.047 A 
ATOM     18  C   UNL     1      -3.428  -2.184   0.697  1.00  0.00     0.012 A 
ATOM     19  C   UNL     1      -2.093  -1.081   2.356  1.00  0.00     0.012 A 
BRANCH  15  20
ATOM     20  O   UNL     1      -0.681  -0.527  -1.007  1.00  0.00    -0.491 OA
BRANCH  20  21
ATOM     21  C   UNL     1       0.717  -0.848  -1.063  1.00  0.00     0.167 C 
ATOM     22  C   UNL     1       1.573   0.076  -0.204  1.00  0.00     0.052 C 
ATOM     23  C   UNL     1       1.038  -2.326  -0.849  1.00  0.00     0.052 C 
ENDBRANCH  20  21
ENDBRANCH  15  20
ENDBRANCH   9  14
ENDBRANCH   6   8
BRANCH   7  24
ATOM     24  C   UNL     1      -6.448  -5.915   6.237  1.00  0.00    -0.025 A 
ATOM     25  C   UNL     1      -7.276  -6.892   5.665  1.00  0.00     0.009 A 
ATOM     26  C   UNL     1      -5.056  -6.054   6.154  1.00  0.00     0.009 A 
ATOM     27  C   UNL     1      -6.729  -7.926   4.908  1.00  0.00     0.021 A 
ATOM     28  C   UNL     1      -4.500  -7.088   5.391  1.00  0.00     0.021 A 
ATOM     29  C   UNL     1      -5.344  -7.998   4.746  1.00  0.00     0.067 A 
BRANCH  29  30
ATOM     30  S   UNL     1      -4.684  -9.138   3.549  1.00  0.00     0.175 S 
ATOM     31  C   UNL     1      -4.789 -10.714   4.346  1.00  0.00     0.163 C 
ATOM     32  O   UNL     1      -5.604  -9.140   2.424  1.00  0.00    -0.224 OA
ATOM     33  O   UNL     1      -3.284  -8.822   3.361  1.00  0.00    -0.224 OA
ENDBRANCH  29  30
ENDBRANCH   7  24
ENDBRANCH   4   6
ENDBRANCH   3   4
ENDBRANCH   2   3
ENDBRANCH   1   2
BRANCH   1  34
ATOM     34  O   UNL     1      -6.124  -0.397   9.281  1.00  0.00    -0.374 OA
BRANCH  34  35
ATOM     35  C   UNL     1      -5.186  -1.389   8.860  1.00  0.00     0.202 C 
BRANCH  35  36
ATOM     36  C   UNL     1      -4.310  -1.997   9.959  1.00  0.00     0.261 C 
BRANCH  36  37
ATOM     37  O   UNL     1      -5.088  -2.765  10.892  1.00  0.00    -0.460 OA
BRANCH  37  38
ATOM     38  C   UNL     1      -5.234  -2.187  12.106  1.00  0.00     0.338 C 
ATOM     39  O   UNL     1      -4.702  -1.161  12.508  1.00  0.00    -0.246 OA
BRANCH  38  40
ATOM     40  C   UNL     1      -6.279  -2.882  12.880  1.00  0.00     0.060 A 
ATOM     41  C   UNL     1      -7.223  -2.082  13.534  1.00  0.00     0.016 A 
ATOM     42  C   UNL     1      -6.294  -4.271  13.035  1.00  0.00     0.016 A 
ATOM     43  C   UNL     1      -8.137  -2.659  14.410  1.00  0.00     0.010 A 
ATOM     44  C   UNL     1      -7.212  -4.849  13.918  1.00  0.00     0.010 A 
ATOM     45  C   UNL     1      -8.102  -4.039  14.646  1.00  0.00    -0.014 A 
BRANCH  45  46
ATOM     46  C   UNL     1      -8.867  -4.587  15.790  1.00  0.00     0.031 A 
ATOM     47  C   UNL     1      -8.153  -4.816  17.095  1.00  0.00     0.074 A 
ATOM     48  C   UNL     1     -10.189  -4.809  15.695  1.00  0.00     0.049 A 
ATOM     49  N   UNL     1      -8.631  -5.235  18.240  1.00  0.00    -0.248 NA
ATOM     50  C   UNL     1      -6.708  -4.534  17.113  1.00  0.00     0.031 C 
ATOM     51  C   UNL     1     -11.002  -4.588  14.501  1.00  0.00     0.029 A 
ATOM     52  N   UNL     1     -11.081  -5.264  16.633  1.00  0.00    -0.354 N 
ATOM     53  C   UNL     1      -7.548  -5.266  19.110  1.00  0.00     0.074 A 
ATOM     54  C   UNL     1      -6.383  -4.860  18.354  1.00  0.00     0.031 C 
ATOM     55  C   UNL     1     -12.279  -4.904  14.780  1.00  0.00     0.029 A 
ATOM     56  C   UNL     1     -12.367  -5.367  16.163  1.00  0.00     0.049 A 
ATOM     57  H   UNL     1     -10.824  -5.495  17.555  1.00  0.00     0.167 HD
ATOM     58  C   UNL     1      -7.524  -5.593  20.424  1.00  0.00     0.031 A 
ATOM     59  C   UNL     1     -13.486  -5.791  16.781  1.00  0.00     0.031 A 
ATOM     60  C   UNL     1      -8.677  -6.007  21.177  1.00  0.00     0.049 A 
ATOM     61  C   UNL     1     -13.422  -6.206  18.226  1.00  0.00     0.074 A 
ATOM     62  C   UNL     1      -8.755  -6.351  22.515  1.00  0.00     0.029 A 
ATOM     63  N   UNL     1      -9.953  -6.136  20.653  1.00  0.00    -0.354 N 
ATOM     64  N   UNL     1     -12.397  -6.205  19.044  1.00  0.00    -0.248 NA
ATOM     65  C   UNL     1     -14.678  -6.667  18.836  1.00  0.00     0.031 C 
ATOM     66  C   UNL     1     -10.073  -6.733  22.790  1.00  0.00     0.029 A 
ATOM     67  C   UNL     1     -10.823  -6.575  21.636  1.00  0.00     0.049 A 
ATOM     68  H   UNL     1     -10.203  -5.944  19.721  1.00  0.00     0.167 HD
ATOM     69  C   UNL     1     -12.890  -6.634  20.270  1.00  0.00     0.074 A 
ATOM     70  C   UNL     1     -14.307  -6.874  20.092  1.00  0.00     0.031 C 
ATOM     71  C   UNL     1     -12.230  -6.809  21.441  1.00  0.00     0.031 A 
BRANCH  58  72
ATOM     72  C   UNL     1      -6.194  -5.542  21.119  1.00  0.00    -0.014 A 
ATOM     73  C   UNL     1      -5.579  -4.318  21.427  1.00  0.00     0.009 A 
ATOM     74  C   UNL     1      -5.555  -6.736  21.489  1.00  0.00     0.009 A 
ATOM     75  C   UNL     1      -4.335  -4.292  22.062  1.00  0.00     0.001 A 
ATOM     76  C   UNL     1      -4.324  -6.706  22.147  1.00  0.00     0.001 A 
ATOM     77  C   UNL     1      -3.711  -5.485  22.424  1.00  0.00     0.000 A 
ENDBRANCH  58  72
BRANCH  59  78
ATOM     78  C   UNL     1     -14.770  -5.848  16.036  1.00  0.00    -0.014 A 
ATOM     79  C   UNL     1     -15.809  -4.951  16.329  1.00  0.00     0.009 A 
ATOM     80  C   UNL     1     -14.969  -6.817  15.040  1.00  0.00     0.009 A 
ATOM     81  C   UNL     1     -17.030  -5.041  15.657  1.00  0.00     0.001 A 
ATOM     82  C   UNL     1     -16.182  -6.888  14.352  1.00  0.00     0.001 A 
ATOM     83  C   UNL     1     -17.214  -6.006  14.668  1.00  0.00     0.000 A 
ENDBRANCH  59  78
BRANCH  71  84
ATOM     84  C   UNL     1     -13.041  -7.245  22.629  1.00  0.00    -0.014 A 
ATOM     85  C   UNL     1     -13.532  -8.555  22.738  1.00  0.00     0.009 A 
ATOM     86  C   UNL     1     -13.288  -6.336  23.670  1.00  0.00     0.009 A 
ATOM     87  C   UNL     1     -14.286  -8.935  23.850  1.00  0.00     0.001 A 
ATOM     88  C   UNL     1     -14.018  -6.727  24.793  1.00  0.00     0.001 A 
ATOM     89  C   UNL     1     -14.525  -8.022  24.878  1.00  0.00     0.000 A 
ENDBRANCH  71  84
ENDBRANCH  45  46
ENDBRANCH  38  40
ENDBRANCH  37  38
ENDBRANCH  36  37
ENDBRANCH  35  36
ENDBRANCH  34  35
ENDBRANCH   1  34
TORSDOF 20
