REMARK SMILES CS(=O)(=O)c1ccc(C2=NN(c3ccc(C(=O)OCCOCCOC(=O)c4ccc(-c5c6nc(c(-c7ccccc7)c7ccc([nH]7)c(-c7ccccc7)c7nc(c(-c8ccccc8)c8ccc5[nH]8)C=C7)C=C6)cc4)cc3)[C@H](c3ccc(Cl)cc3)C2)cc1
REMARK SMILES IDX 20 1 19 2 18 3 16 4 17 5 15 6 12 7 13 8 76 9 14 10 75 11
REMARK SMILES IDX 11 12 9 13 10 14 85 15 77 16 8 17 5 18 6 19 87 20 7 21 86 22
REMARK SMILES IDX 2 23 1 24 3 25 4 26 78 27 79 28 84 29 80 30 83 31 81 32
REMARK SMILES IDX 82 33 21 34 22 35 23 36 24 37 25 38 26 39 27 40 28 41 74 42
REMARK SMILES IDX 29 43 73 44 30 45 31 46 32 47 67 48 33 49 72 50 66 51 68 52
REMARK SMILES IDX 34 53 71 54 65 55 64 56 35 58 57 59 42 60 56 61 43 62 46 63
REMARK SMILES IDX 55 64 69 65 44 66 45 67 54 69 70 70 47 71 36 72 37 73 41 74
REMARK SMILES IDX 38 75 40 76 39 77 58 78 59 79 63 80 60 81 62 82 61 83 48 84
REMARK SMILES IDX 49 85 53 86 50 87 52 88 51 89
REMARK H PARENT 68 57 46 68
REMARK Flexibility Score: inf
ROOT
ATOM      1  C   UNL     1       8.004 -13.466   4.152  1.00  0.00     0.202 C 
ENDROOT
BRANCH   1   2
ATOM      2  C   UNL     1       7.465 -13.120   5.543  1.00  0.00     0.261 C 
BRANCH   2   3
ATOM      3  O   UNL     1       6.343 -12.228   5.447  1.00  0.00    -0.460 OA
BRANCH   3   4
ATOM      4  C   UNL     1       6.550 -10.983   5.938  1.00  0.00     0.338 C 
ATOM      5  O   UNL     1       7.515 -10.608   6.588  1.00  0.00    -0.246 OA
BRANCH   4   6
ATOM      6  C   UNL     1       5.478 -10.060   5.488  1.00  0.00     0.060 A 
ATOM      7  C   UNL     1       3.476  -8.197   4.842  1.00  0.00     0.060 A 
ATOM      8  C   UNL     1       4.766  -7.764   5.163  1.00  0.00     0.029 A 
ATOM      9  C   UNL     1       3.233  -9.575   4.740  1.00  0.00     0.029 A 
ATOM     10  C   UNL     1       5.759  -8.687   5.495  1.00  0.00     0.018 A 
ATOM     11  C   UNL     1       4.223 -10.507   5.067  1.00  0.00     0.018 A 
BRANCH   7  12
ATOM     12  N   UNL     1       2.402  -7.295   4.778  1.00  0.00    -0.257 N 
ATOM     13  C   UNL     1       1.839  -5.255   4.465  1.00  0.00     0.071 C 
ATOM     14  N   UNL     1       2.467  -6.245   3.909  1.00  0.00    -0.176 NA
ATOM     15  C   UNL     1       1.355  -5.483   5.868  1.00  0.00     0.091 C 
ATOM     16  C   UNL     1       1.771  -6.944   6.067  1.00  0.00     0.144 C 
BRANCH  13  17
ATOM     17  C   UNL     1       1.569  -3.983   3.774  1.00  0.00    -0.002 A 
ATOM     18  C   UNL     1       0.870  -1.630   2.463  1.00  0.00     0.067 A 
ATOM     19  C   UNL     1       0.706  -2.856   1.812  1.00  0.00     0.021 A 
ATOM     20  C   UNL     1       1.398  -1.572   3.759  1.00  0.00     0.021 A 
ATOM     21  C   UNL     1       1.075  -4.034   2.465  1.00  0.00     0.011 A 
ATOM     22  C   UNL     1       1.738  -2.756   4.421  1.00  0.00     0.011 A 
BRANCH  18  23
ATOM     23  S   UNL     1       0.349  -0.130   1.660  1.00  0.00     0.175 S 
ATOM     24  C   UNL     1       1.116  -0.163   0.063  1.00  0.00     0.163 C 
ATOM     25  O   UNL     1       0.931   0.978   2.394  1.00  0.00    -0.224 OA
ATOM     26  O   UNL     1      -1.086  -0.239   1.482  1.00  0.00    -0.224 OA
ENDBRANCH  18  23
ENDBRANCH  13  17
BRANCH  16  27
ATOM     27  C   UNL     1       0.687  -7.952   6.423  1.00  0.00    -0.023 A 
ATOM     28  C   UNL     1      -0.649  -7.831   6.014  1.00  0.00     0.007 A 
ATOM     29  C   UNL     1       1.060  -9.118   7.125  1.00  0.00     0.007 A 
ATOM     30  C   UNL     1      -1.577  -8.840   6.296  1.00  0.00     0.021 A 
ATOM     31  C   UNL     1       0.145 -10.142   7.373  1.00  0.00     0.021 A 
ATOM     32  C   UNL     1      -1.174  -9.997   6.959  1.00  0.00     0.041 A 
ATOM     33  Cl  UNL     1      -2.303 -11.261   7.247  1.00  0.00    -0.084 Cl
ENDBRANCH  16  27
ENDBRANCH   7  12
ENDBRANCH   4   6
ENDBRANCH   3   4
ENDBRANCH   2   3
ENDBRANCH   1   2
BRANCH   1  34
ATOM     34  O   UNL     1       8.582 -12.387   3.417  1.00  0.00    -0.374 OA
BRANCH  34  35
ATOM     35  C   UNL     1       7.686 -11.493   2.755  1.00  0.00     0.202 C 
BRANCH  35  36
ATOM     36  C   UNL     1       7.114 -11.971   1.416  1.00  0.00     0.261 C 
BRANCH  36  37
ATOM     37  O   UNL     1       6.259 -13.118   1.569  1.00  0.00    -0.460 OA
BRANCH  37  38
ATOM     38  C   UNL     1       6.773 -14.275   1.093  1.00  0.00     0.338 C 
ATOM     39  O   UNL     1       7.827 -14.429   0.491  1.00  0.00    -0.246 OA
BRANCH  38  40
ATOM     40  C   UNL     1       5.955 -15.415   1.544  1.00  0.00     0.060 A 
ATOM     41  C   UNL     1       6.617 -16.476   2.177  1.00  0.00     0.016 A 
ATOM     42  C   UNL     1       4.584 -15.486   1.290  1.00  0.00     0.016 A 
ATOM     43  C   UNL     1       5.920 -17.633   2.513  1.00  0.00     0.010 A 
ATOM     44  C   UNL     1       3.886 -16.653   1.621  1.00  0.00     0.010 A 
ATOM     45  C   UNL     1       4.558 -17.744   2.202  1.00  0.00    -0.014 A 
BRANCH  45  46
ATOM     46  C   UNL     1       3.875 -19.051   2.361  1.00  0.00     0.031 A 
ATOM     47  C   UNL     1       3.679 -19.926   1.154  1.00  0.00     0.074 A 
ATOM     48  C   UNL     1       3.461 -19.468   3.571  1.00  0.00     0.049 A 
ATOM     49  N   UNL     1       3.090 -21.092   1.062  1.00  0.00    -0.248 NA
ATOM     50  C   UNL     1       4.220 -19.422  -0.119  1.00  0.00     0.031 C 
ATOM     51  C   UNL     1       3.632 -18.735   4.824  1.00  0.00     0.029 A 
ATOM     52  N   UNL     1       2.808 -20.618   3.938  1.00  0.00    -0.354 N 
ATOM     53  C   UNL     1       3.184 -21.457  -0.275  1.00  0.00     0.074 A 
ATOM     54  C   UNL     1       3.861 -20.379  -0.963  1.00  0.00     0.031 C 
ATOM     55  C   UNL     1       3.089 -19.452   5.824  1.00  0.00     0.029 A 
ATOM     56  C   UNL     1       2.506 -20.675   5.276  1.00  0.00     0.049 A 
ATOM     57  H   UNL     1       2.577 -21.334   3.302  1.00  0.00     0.167 HD
ATOM     58  C   UNL     1       2.752 -22.591  -0.876  1.00  0.00     0.031 A 
ATOM     59  C   UNL     1       1.821 -21.600   5.975  1.00  0.00     0.031 A 
ATOM     60  C   UNL     1       2.068 -23.660  -0.199  1.00  0.00     0.049 A 
ATOM     61  C   UNL     1       1.279 -22.813   5.267  1.00  0.00     0.074 A 
ATOM     62  C   UNL     1       1.602 -24.854  -0.722  1.00  0.00     0.029 A 
ATOM     63  N   UNL     1       1.747 -23.660   1.149  1.00  0.00    -0.354 N 
ATOM     64  N   UNL     1       1.397 -23.158   4.008  1.00  0.00    -0.248 NA
ATOM     65  C   UNL     1       0.515 -23.769   6.083  1.00  0.00     0.031 C 
ATOM     66  C   UNL     1       0.952 -25.553   0.299  1.00  0.00     0.029 A 
ATOM     67  C   UNL     1       1.065 -24.821   1.470  1.00  0.00     0.049 A 
ATOM     68  H   UNL     1       1.971 -22.942   1.784  1.00  0.00     0.167 HD
ATOM     69  C   UNL     1       0.748 -24.381   3.887  1.00  0.00     0.074 A 
ATOM     70  C   UNL     1       0.252 -24.725   5.203  1.00  0.00     0.031 C 
ATOM     71  C   UNL     1       0.579 -25.151   2.784  1.00  0.00     0.031 A 
BRANCH  58  72
ATOM     72  C   UNL     1       2.983 -22.722  -2.355  1.00  0.00    -0.014 A 
ATOM     73  C   UNL     1       4.265 -22.962  -2.874  1.00  0.00     0.009 A 
ATOM     74  C   UNL     1       1.895 -22.646  -3.239  1.00  0.00     0.009 A 
ATOM     75  C   UNL     1       4.456 -23.097  -4.251  1.00  0.00     0.001 A 
ATOM     76  C   UNL     1       2.086 -22.807  -4.612  1.00  0.00     0.001 A 
ATOM     77  C   UNL     1       3.366 -23.025  -5.118  1.00  0.00     0.000 A 
ENDBRANCH  58  72
BRANCH  59  78
ATOM     78  C   UNL     1       1.578 -21.409   7.429  1.00  0.00    -0.014 A 
ATOM     79  C   UNL     1       2.193 -22.243   8.375  1.00  0.00     0.009 A 
ATOM     80  C   UNL     1       0.700 -20.409   7.876  1.00  0.00     0.009 A 
ATOM     81  C   UNL     1       1.910 -22.098   9.736  1.00  0.00     0.001 A 
ATOM     82  C   UNL     1       0.442 -20.247   9.239  1.00  0.00     0.001 A 
ATOM     83  C   UNL     1       1.039 -21.099  10.166  1.00  0.00     0.000 A 
ENDBRANCH  59  78
BRANCH  71  84
ATOM     84  C   UNL     1      -0.139 -26.460   2.961  1.00  0.00    -0.014 A 
ATOM     85  C   UNL     1      -1.524 -26.509   3.179  1.00  0.00     0.009 A 
ATOM     86  C   UNL     1       0.578 -27.663   2.865  1.00  0.00     0.009 A 
ATOM     87  C   UNL     1      -2.171 -27.737   3.330  1.00  0.00     0.001 A 
ATOM     88  C   UNL     1      -0.076 -28.890   2.988  1.00  0.00     0.001 A 
ATOM     89  C   UNL     1      -1.448 -28.926   3.230  1.00  0.00     0.000 A 
ENDBRANCH  71  84
ENDBRANCH  45  46
ENDBRANCH  38  40
ENDBRANCH  37  38
ENDBRANCH  36  37
ENDBRANCH  35  36
ENDBRANCH  34  35
ENDBRANCH   1  34
TORSDOF 18
