REMARK SMILES CN(CC(C)(C)C)C(=O)N1CCO[C@@H](CC(=O)OCCOCCOC(=O)c2ccc(-c3c4nc(c(-c5ccccc5)c5ccc([nH]5)c(-c5ccccc5)c5nc(c(-c6ccccc6)c6ccc3[nH]6)C=C5)C=C4)cc2)C1
REMARK SMILES IDX 19 1 18 2 16 3 17 4 15 5 14 6 10 7 11 8 75 9 12 10 13 11
REMARK SMILES IDX 8 12 9 13 2 14 1 15 3 16 4 17 5 18 6 19 7 20 20 21 21 22
REMARK SMILES IDX 22 23 23 24 24 25 25 26 26 27 27 28 28 29 74 30 29 31 73 32
REMARK SMILES IDX 30 33 31 34 32 35 67 36 33 37 72 38 66 39 68 40 34 41 71 42
REMARK SMILES IDX 65 43 64 44 35 46 57 47 42 48 56 49 43 50 46 51 55 52 69 53
REMARK SMILES IDX 44 54 45 55 54 57 70 58 47 59 36 60 37 61 41 62 38 63 40 64
REMARK SMILES IDX 39 65 58 66 59 67 63 68 60 69 62 70 61 71 48 72 49 73 53 74
REMARK SMILES IDX 50 75 52 76 51 77
REMARK H PARENT 68 45 46 56
REMARK Flexibility Score: inf
ROOT
ATOM      1  C   UNL     1       5.498  -1.298  -6.426  1.00  0.00     0.261 C 
ENDROOT
BRANCH   1   2
ATOM      2  O   UNL     1       4.076  -1.487  -6.517  1.00  0.00    -0.463 OA
BRANCH   2   3
ATOM      3  C   UNL     1       3.677  -2.657  -7.072  1.00  0.00     0.308 C 
ATOM      4  O   UNL     1       4.422  -3.497  -7.558  1.00  0.00    -0.252 OA
BRANCH   3   5
ATOM      5  C   UNL     1       2.183  -2.778  -7.095  1.00  0.00     0.156 C 
BRANCH   5   6
ATOM      6  C   UNL     1       1.389  -2.603  -5.797  1.00  0.00     0.149 C 
ATOM      7  N   UNL     1       0.527  -0.998  -4.096  1.00  0.00    -0.320 N 
ATOM      8  C   UNL     1      -0.724  -0.984  -4.821  1.00  0.00     0.150 C 
ATOM      9  C   UNL     1       1.629  -1.271  -5.022  1.00  0.00     0.154 C 
ATOM     10  C   UNL     1      -0.980  -2.398  -5.306  1.00  0.00     0.182 C 
ATOM     11  O   UNL     1       0.017  -2.750  -6.267  1.00  0.00    -0.374 OA
BRANCH   7  12
ATOM     12  C   UNL     1       0.709  -0.159  -3.018  1.00  0.00     0.319 C 
ATOM     13  O   UNL     1       1.426   0.835  -3.134  1.00  0.00    -0.248 OA
BRANCH  12  14
ATOM     14  N   UNL     1       0.148  -0.537  -1.790  1.00  0.00    -0.327 N 
ATOM     15  C   UNL     1       0.652   0.179  -0.622  1.00  0.00     0.148 C 
BRANCH  14  16
ATOM     16  C   UNL     1      -0.570  -1.787  -1.490  1.00  0.00     0.127 C 
BRANCH  16  17
ATOM     17  C   UNL     1      -2.102  -1.675  -1.170  1.00  0.00    -0.020 C 
ATOM     18  C   UNL     1      -2.914  -1.253  -2.395  1.00  0.00     0.012 C 
ATOM     19  C   UNL     1      -2.603  -3.070  -0.742  1.00  0.00     0.012 C 
ATOM     20  C   UNL     1      -2.443  -0.676  -0.053  1.00  0.00     0.012 C 
ENDBRANCH  16  17
ENDBRANCH  14  16
ENDBRANCH  12  14
ENDBRANCH   7  12
ENDBRANCH   5   6
ENDBRANCH   3   5
ENDBRANCH   2   3
ENDBRANCH   1   2
BRANCH   1  21
ATOM     21  C   UNL     1       5.989  -1.557  -5.003  1.00  0.00     0.202 C 
BRANCH  21  22
ATOM     22  O   UNL     1       5.923  -2.906  -4.542  1.00  0.00    -0.374 OA
BRANCH  22  23
ATOM     23  C   UNL     1       4.685  -3.346  -3.987  1.00  0.00     0.202 C 
BRANCH  23  24
ATOM     24  C   UNL     1       4.376  -2.914  -2.545  1.00  0.00     0.261 C 
BRANCH  24  25
ATOM     25  O   UNL     1       4.236  -1.489  -2.413  1.00  0.00    -0.460 OA
BRANCH  25  26
ATOM     26  C   UNL     1       5.318  -0.849  -1.899  1.00  0.00     0.338 C 
ATOM     27  O   UNL     1       6.332  -1.357  -1.463  1.00  0.00    -0.246 OA
BRANCH  26  28
ATOM     28  C   UNL     1       5.180   0.610  -2.102  1.00  0.00     0.060 A 
ATOM     29  C   UNL     1       6.254   1.317  -2.651  1.00  0.00     0.016 A 
ATOM     30  C   UNL     1       4.026   1.287  -1.724  1.00  0.00     0.016 A 
ATOM     31  C   UNL     1       6.189   2.707  -2.764  1.00  0.00     0.010 A 
ATOM     32  C   UNL     1       3.946   2.673  -1.858  1.00  0.00     0.010 A 
ATOM     33  C   UNL     1       5.049   3.398  -2.329  1.00  0.00    -0.014 A 
BRANCH  33  34
ATOM     34  C   UNL     1       5.059   4.877  -2.226  1.00  0.00     0.031 A 
ATOM     35  C   UNL     1       5.166   5.515  -0.866  1.00  0.00     0.074 A 
ATOM     36  C   UNL     1       4.984   5.645  -3.327  1.00  0.00     0.049 A 
ATOM     37  N   UNL     1       5.212   6.784  -0.544  1.00  0.00    -0.248 NA
ATOM     38  C   UNL     1       5.219   4.602   0.288  1.00  0.00     0.031 C 
ATOM     39  C   UNL     1       4.873   5.151  -4.698  1.00  0.00     0.029 A 
ATOM     40  N   UNL     1       4.990   7.011  -3.459  1.00  0.00    -0.354 N 
ATOM     41  C   UNL     1       5.290   6.818   0.843  1.00  0.00     0.074 A 
ATOM     42  C   UNL     1       5.237   5.449   1.305  1.00  0.00     0.031 C 
ATOM     43  C   UNL     1       4.837   6.200  -5.537  1.00  0.00     0.029 A 
ATOM     44  C   UNL     1       4.887   7.437  -4.760  1.00  0.00     0.049 A 
ATOM     45  H   UNL     1       5.061   7.627  -2.694  1.00  0.00     0.167 HD
ATOM     46  C   UNL     1       5.409   7.891   1.661  1.00  0.00     0.031 A 
ATOM     47  C   UNL     1       4.831   8.684  -5.266  1.00  0.00     0.031 A 
ATOM     48  C   UNL     1       5.448   9.254   1.202  1.00  0.00     0.049 A 
ATOM     49  C   UNL     1       4.910   9.863  -4.334  1.00  0.00     0.074 A 
ATOM     50  C   UNL     1       5.608  10.410   1.945  1.00  0.00     0.029 A 
ATOM     51  N   UNL     1       5.313   9.644  -0.122  1.00  0.00    -0.354 N 
ATOM     52  N   UNL     1       5.050   9.882  -3.030  1.00  0.00    -0.248 NA
ATOM     53  C   UNL     1       4.838  11.197  -4.949  1.00  0.00     0.031 C 
ATOM     54  C   UNL     1       5.501  11.503   1.079  1.00  0.00     0.029 A 
ATOM     55  C   UNL     1       5.350  11.025  -0.213  1.00  0.00     0.049 A 
ATOM     56  H   UNL     1       5.207   9.030  -0.884  1.00  0.00     0.167 HD
ATOM     57  C   UNL     1       5.112  11.223  -2.672  1.00  0.00     0.074 A 
ATOM     58  C   UNL     1       5.013  11.987  -3.899  1.00  0.00     0.031 C 
ATOM     59  C   UNL     1       5.245  11.774  -1.440  1.00  0.00     0.031 A 
BRANCH  46  60
ATOM     60  C   UNL     1       5.478   7.630   3.142  1.00  0.00    -0.014 A 
ATOM     61  C   UNL     1       6.588   6.997   3.724  1.00  0.00     0.009 A 
ATOM     62  C   UNL     1       4.426   8.048   3.972  1.00  0.00     0.009 A 
ATOM     63  C   UNL     1       6.623   6.750   5.099  1.00  0.00     0.001 A 
ATOM     64  C   UNL     1       4.478   7.830   5.350  1.00  0.00     0.001 A 
ATOM     65  C   UNL     1       5.571   7.171   5.911  1.00  0.00     0.000 A 
ENDBRANCH  46  60
BRANCH  47  66
ATOM     66  C   UNL     1       4.697   8.884  -6.733  1.00  0.00    -0.014 A 
ATOM     67  C   UNL     1       5.755   9.424  -7.481  1.00  0.00     0.009 A 
ATOM     68  C   UNL     1       3.507   8.540  -7.394  1.00  0.00     0.009 A 
ATOM     69  C   UNL     1       5.614   9.639  -8.854  1.00  0.00     0.001 A 
ATOM     70  C   UNL     1       3.381   8.725  -8.772  1.00  0.00     0.001 A 
ATOM     71  C   UNL     1       4.431   9.284  -9.499  1.00  0.00     0.000 A 
ENDBRANCH  47  66
BRANCH  59  72
ATOM     72  C   UNL     1       5.328  13.274  -1.358  1.00  0.00    -0.014 A 
ATOM     73  C   UNL     1       4.214  14.087  -1.618  1.00  0.00     0.009 A 
ATOM     74  C   UNL     1       6.535  13.880  -0.972  1.00  0.00     0.009 A 
ATOM     75  C   UNL     1       4.319  15.477  -1.530  1.00  0.00     0.001 A 
ATOM     76  C   UNL     1       6.627  15.267  -0.852  1.00  0.00     0.001 A 
ATOM     77  C   UNL     1       5.522  16.065  -1.142  1.00  0.00     0.000 A 
ENDBRANCH  59  72
ENDBRANCH  33  34
ENDBRANCH  26  28
ENDBRANCH  25  26
ENDBRANCH  24  25
ENDBRANCH  23  24
ENDBRANCH  22  23
ENDBRANCH  21  22
ENDBRANCH   1  21
TORSDOF 19
