REMARK SMILES COc1ccc(NS(=O)(=O)c2ccc(Cl)c(C(=O)OCCOCCOC(=O)c3ccc(-c4c5nc(c(-c6ccccc6)c6ccc([nH]6)c(-c6ccccc6)c6nc(c(-c7ccccc7)c7ccc4[nH]7)C=C6)C=C5)cc3)c2)cc1Cl
REMARK SMILES IDX 21 1 20 2 19 3 17 4 18 5 16 6 11 7 12 8 76 9 13 10 14 11
REMARK SMILES IDX 15 12 8 13 9 14 10 15 7 16 6 18 3 19 4 20 78 21 5 22 77 23
REMARK SMILES IDX 79 24 2 25 1 26 22 27 23 28 24 29 25 30 26 31 27 32 28 33
REMARK SMILES IDX 29 34 75 35 30 36 74 37 31 38 32 39 33 40 68 41 34 42 73 43
REMARK SMILES IDX 67 44 69 45 35 46 72 47 66 48 65 49 36 51 58 52 43 53 57 54
REMARK SMILES IDX 44 55 47 56 56 57 70 58 45 59 46 60 55 62 71 63 48 64 37 65
REMARK SMILES IDX 38 66 42 67 39 68 41 69 40 70 59 71 60 72 64 73 61 74 63 75
REMARK SMILES IDX 62 76 49 77 50 78 54 79 51 80 53 81 52 82
REMARK H PARENT 7 17 69 50 47 61
REMARK Flexibility Score: inf
ROOT
ATOM      1  C   UNL     1      -4.630  -0.537   3.150  1.00  0.00     0.202 C 
ENDROOT
BRANCH   1   2
ATOM      2  C   UNL     1      -5.074   0.295   4.356  1.00  0.00     0.261 C 
BRANCH   2   3
ATOM      3  O   UNL     1      -4.447   1.588   4.375  1.00  0.00    -0.460 OA
BRANCH   3   4
ATOM      4  C   UNL     1      -3.856   1.921   5.547  1.00  0.00     0.339 C 
ATOM      5  O   UNL     1      -3.848   1.268   6.577  1.00  0.00    -0.246 OA
BRANCH   4   6
ATOM      6  C   UNL     1      -3.003   3.114   5.378  1.00  0.00     0.080 A 
ATOM      7  C   UNL     1      -0.816   4.091   5.780  1.00  0.00     0.088 A 
ATOM      8  C   UNL     1      -1.282   5.324   5.312  1.00  0.00     0.024 A 
ATOM      9  C   UNL     1      -1.681   2.995   5.841  1.00  0.00     0.039 A 
ATOM     10  C   UNL     1      -2.590   5.432   4.828  1.00  0.00     0.023 A 
ATOM     11  C   UNL     1      -3.455   4.328   4.853  1.00  0.00     0.055 A 
ATOM     12  Cl  UNL     1      -5.065   4.566   4.280  1.00  0.00    -0.083 Cl
BRANCH   7  13
ATOM     13  S   UNL     1       0.810   3.963   6.474  1.00  0.00     0.261 S 
ATOM     14  O   UNL     1       0.840   2.765   7.287  1.00  0.00    -0.201 OA
ATOM     15  O   UNL     1       1.132   5.247   7.059  1.00  0.00    -0.201 OA
BRANCH  13  16
ATOM     16  N   UNL     1       1.945   3.699   5.242  1.00  0.00    -0.280 N 
ATOM     17  H   UNL     1       2.856   4.051   5.369  1.00  0.00     0.180 HD
BRANCH  16  18
ATOM     18  C   UNL     1       1.659   2.993   4.025  1.00  0.00     0.051 A 
ATOM     19  C   UNL     1       1.467   1.865   1.440  1.00  0.00     0.137 A 
ATOM     20  C   UNL     1       0.654   2.934   1.820  1.00  0.00     0.050 A 
ATOM     21  C   UNL     1       2.434   1.405   2.337  1.00  0.00     0.085 A 
ATOM     22  C   UNL     1       0.753   3.496   3.096  1.00  0.00     0.030 A 
ATOM     23  C   UNL     1       2.520   1.963   3.625  1.00  0.00     0.051 A 
ATOM     24  Cl  UNL     1       3.642   0.252   1.896  1.00  0.00    -0.080 Cl
BRANCH  19  25
ATOM     25  O   UNL     1       1.302   1.458   0.145  1.00  0.00    -0.495 OA
ATOM     26  C   UNL     1       1.115   0.053  -0.025  1.00  0.00     0.278 C 
ENDBRANCH  19  25
ENDBRANCH  16  18
ENDBRANCH  13  16
ENDBRANCH   7  13
ENDBRANCH   4   6
ENDBRANCH   3   4
ENDBRANCH   2   3
ENDBRANCH   1   2
BRANCH   1  27
ATOM     27  O   UNL     1      -3.244  -0.851   3.023  1.00  0.00    -0.374 OA
BRANCH  27  28
ATOM     28  C   UNL     1      -2.323   0.217   2.843  1.00  0.00     0.202 C 
BRANCH  28  29
ATOM     29  C   UNL     1      -2.334   0.987   1.516  1.00  0.00     0.261 C 
BRANCH  29  30
ATOM     30  O   UNL     1      -3.623   1.336   1.011  1.00  0.00    -0.460 OA
BRANCH  30  31
ATOM     31  C   UNL     1      -4.053   0.557  -0.009  1.00  0.00     0.338 C 
ATOM     32  O   UNL     1      -3.484  -0.400  -0.517  1.00  0.00    -0.246 OA
BRANCH  31  33
ATOM     33  C   UNL     1      -5.415   0.969  -0.368  1.00  0.00     0.060 A 
ATOM     34  C   UNL     1      -6.457   0.052  -0.199  1.00  0.00     0.016 A 
ATOM     35  C   UNL     1      -5.649   2.235  -0.908  1.00  0.00     0.016 A 
ATOM     36  C   UNL     1      -7.747   0.397  -0.592  1.00  0.00     0.010 A 
ATOM     37  C   UNL     1      -6.941   2.576  -1.306  1.00  0.00     0.010 A 
ATOM     38  C   UNL     1      -7.990   1.650  -1.170  1.00  0.00    -0.014 A 
BRANCH  38  39
ATOM     39  C   UNL     1      -9.323   1.956  -1.736  1.00  0.00     0.031 A 
ATOM     40  C   UNL     1      -9.523   1.872  -3.222  1.00  0.00     0.074 A 
ATOM     41  C   UNL     1     -10.341   2.297  -0.926  1.00  0.00     0.049 A 
ATOM     42  N   UNL     1     -10.593   2.129  -3.929  1.00  0.00    -0.248 NA
ATOM     43  C   UNL     1      -8.361   1.445  -4.019  1.00  0.00     0.031 C 
ATOM     44  C   UNL     1     -10.270   2.383   0.532  1.00  0.00     0.029 A 
ATOM     45  N   UNL     1     -11.635   2.641  -1.223  1.00  0.00    -0.354 N 
ATOM     46  C   UNL     1     -10.234   1.900  -5.251  1.00  0.00     0.074 A 
ATOM     47  C   UNL     1      -8.839   1.517  -5.253  1.00  0.00     0.031 C 
ATOM     48  C   UNL     1     -11.472   2.756   1.004  1.00  0.00     0.029 A 
ATOM     49  C   UNL     1     -12.381   2.970  -0.118  1.00  0.00     0.049 A 
ATOM     50  H   UNL     1     -11.994   2.650  -2.139  1.00  0.00     0.167 HD
ATOM     51  C   UNL     1     -11.001   1.994  -6.362  1.00  0.00     0.031 A 
ATOM     52  C   UNL     1     -13.650   3.413  -0.029  1.00  0.00     0.031 A 
ATOM     53  C   UNL     1     -12.383   2.391  -6.356  1.00  0.00     0.049 A 
ATOM     54  C   UNL     1     -14.457   3.581  -1.289  1.00  0.00     0.074 A 
ATOM     55  C   UNL     1     -13.253   2.503  -7.427  1.00  0.00     0.029 A 
ATOM     56  N   UNL     1     -13.095   2.748  -5.221  1.00  0.00    -0.354 N 
ATOM     57  N   UNL     1     -14.117   3.329  -2.530  1.00  0.00    -0.248 NA
ATOM     58  C   UNL     1     -15.828   4.088  -1.132  1.00  0.00     0.031 C 
ATOM     59  C   UNL     1     -14.475   2.983  -6.946  1.00  0.00     0.029 A 
ATOM     60  C   UNL     1     -14.385   3.108  -5.569  1.00  0.00     0.049 A 
ATOM     61  H   UNL     1     -12.736   2.746  -4.305  1.00  0.00     0.167 HD
ATOM     62  C   UNL     1     -15.240   3.616  -3.297  1.00  0.00     0.074 A 
ATOM     63  C   UNL     1     -16.274   4.046  -2.379  1.00  0.00     0.031 C 
ATOM     64  C   UNL     1     -15.401   3.532  -4.640  1.00  0.00     0.031 A 
BRANCH  51  65
ATOM     65  C   UNL     1     -10.350   1.688  -7.682  1.00  0.00    -0.014 A 
ATOM     66  C   UNL     1      -9.996   0.375  -8.034  1.00  0.00     0.009 A 
ATOM     67  C   UNL     1     -10.126   2.721  -8.605  1.00  0.00     0.009 A 
ATOM     68  C   UNL     1      -9.403   0.110  -9.270  1.00  0.00     0.001 A 
ATOM     69  C   UNL     1      -9.559   2.449  -9.851  1.00  0.00     0.001 A 
ATOM     70  C   UNL     1      -9.191   1.145 -10.180  1.00  0.00     0.000 A 
ENDBRANCH  51  65
BRANCH  52  71
ATOM     71  C   UNL     1     -14.235   3.749   1.296  1.00  0.00    -0.014 A 
ATOM     72  C   UNL     1     -15.275   2.979   1.836  1.00  0.00     0.009 A 
ATOM     73  C   UNL     1     -13.771   4.861   2.017  1.00  0.00     0.009 A 
ATOM     74  C   UNL     1     -15.860   3.333   3.055  1.00  0.00     0.001 A 
ATOM     75  C   UNL     1     -14.336   5.195   3.249  1.00  0.00     0.001 A 
ATOM     76  C   UNL     1     -15.388   4.438   3.761  1.00  0.00     0.000 A 
ENDBRANCH  52  71
BRANCH  64  77
ATOM     77  C   UNL     1     -16.757   3.871  -5.193  1.00  0.00    -0.014 A 
ATOM     78  C   UNL     1     -17.222   5.195  -5.230  1.00  0.00     0.009 A 
ATOM     79  C   UNL     1     -17.563   2.852  -5.726  1.00  0.00     0.009 A 
ATOM     80  C   UNL     1     -18.481   5.486  -5.758  1.00  0.00     0.001 A 
ATOM     81  C   UNL     1     -18.807   3.150  -6.282  1.00  0.00     0.001 A 
ATOM     82  C   UNL     1     -19.270   4.465  -6.288  1.00  0.00     0.000 A 
ENDBRANCH  64  77
ENDBRANCH  38  39
ENDBRANCH  31  33
ENDBRANCH  30  31
ENDBRANCH  29  30
ENDBRANCH  28  29
ENDBRANCH  27  28
ENDBRANCH   1  27
TORSDOF 18
