REMARK SMILES O=C(OCCOCCOC(=O)c1ccc(-c2c3nc(c(-c4ccccc4)c4ccc([nH]4)c(-c4ccccc4)c4nc(c(-c5ccccc5)c5ccc2[nH]5)C=C4)C=C3)cc1)C1=Cc2cc(Cl)cc(-c3ccccc3)c2O[C@@H]1C(F)(F)F
REMARK SMILES IDX 7 1 6 2 5 3 4 4 3 5 2 6 1 7 60 8 61 9 76 10 62 11 75 12
REMARK SMILES IDX 63 13 74 14 64 15 67 16 65 17 66 18 77 19 78 20 79 21 80 22
REMARK SMILES IDX 68 23 69 24 73 25 70 26 72 27 71 28 8 29 9 30 10 31 11 32
REMARK SMILES IDX 12 33 13 34 59 35 14 36 58 37 15 38 16 39 17 40 52 41 18 42
REMARK SMILES IDX 57 43 51 44 53 45 19 46 56 47 50 48 49 49 20 51 42 52 27 53
REMARK SMILES IDX 41 54 28 55 31 56 40 57 54 58 29 59 30 60 39 62 55 63 32 64
REMARK SMILES IDX 21 65 22 66 26 67 23 68 25 69 24 70 43 71 44 72 48 73 45 74
REMARK SMILES IDX 47 75 46 76 33 77 34 78 38 79 35 80 37 81 36 82
REMARK H PARENT 53 50 31 61
REMARK Flexibility Score: inf
ROOT
ATOM      1  C   UNL     1       2.738   2.548  -1.871  1.00  0.00     0.202 C 
ENDROOT
BRANCH   1   2
ATOM      2  O   UNL     1       3.985   2.095  -1.286  1.00  0.00    -0.374 OA
BRANCH   2   3
ATOM      3  C   UNL     1       4.317   1.056  -0.071  1.00  0.00     0.202 C 
BRANCH   3   4
ATOM      4  C   UNL     1       3.398  -0.861   0.397  1.00  0.00     0.261 C 
BRANCH   4   5
ATOM      5  O   UNL     1       2.411  -1.127   1.592  1.00  0.00    -0.460 OA
BRANCH   5   6
ATOM      6  C   UNL     1       2.547  -0.264   2.605  1.00  0.00     0.338 C 
ATOM      7  O   UNL     1       1.936  -0.143   3.634  1.00  0.00    -0.246 OA
BRANCH   6   8
ATOM      8  C   UNL     1       3.448   0.603   1.897  1.00  0.00     0.087 C 
ATOM      9  C   UNL     1       4.807   0.048   1.912  1.00  0.00     0.027 C 
ATOM     10  C   UNL     1       2.376   0.865   0.304  1.00  0.00     0.316 C 
ATOM     11  C   UNL     1       5.600  -0.679   0.461  1.00  0.00     0.019 A 
ATOM     12  O   UNL     1       3.220   0.084  -1.270  1.00  0.00    -0.475 OA
ATOM     13  C   UNL     1       6.725  -1.412   0.731  1.00  0.00     0.032 A 
ATOM     14  C   UNL     1       4.851  -0.741  -1.124  1.00  0.00     0.135 A 
ATOM     15  C   UNL     1       7.136  -2.244  -0.303  1.00  0.00     0.042 A 
ATOM     16  C   UNL     1       5.437  -1.536  -2.151  1.00  0.00     0.026 A 
ATOM     17  Cl  UNL     1       8.501  -3.268  -0.001  1.00  0.00    -0.084 Cl
ATOM     18  C   UNL     1       6.512  -2.325  -1.607  1.00  0.00     0.033 A 
BRANCH  10  19
ATOM     19  C   UNL     1       1.886   2.346   0.676  1.00  0.00     0.430 C 
ATOM     20  F   UNL     1       0.906   2.831  -0.112  1.00  0.00    -0.167 F 
ATOM     21  F   UNL     1       1.331   2.306   1.925  1.00  0.00    -0.167 F 
ATOM     22  F   UNL     1       2.869   3.269   0.775  1.00  0.00    -0.167 F 
ENDBRANCH  10  19
BRANCH  16  23
ATOM     23  C   UNL     1       5.128  -1.680  -3.729  1.00  0.00    -0.015 A 
ATOM     24  C   UNL     1       3.473  -2.417  -3.812  1.00  0.00     0.009 A 
ATOM     25  C   UNL     1       5.857  -0.940  -5.478  1.00  0.00     0.009 A 
ATOM     26  C   UNL     1       2.606  -2.416  -5.349  1.00  0.00     0.001 A 
ATOM     27  C   UNL     1       4.847  -1.004  -6.964  1.00  0.00     0.001 A 
ATOM     28  C   UNL     1       3.264  -1.733  -6.849  1.00  0.00     0.000 A 
ENDBRANCH  16  23
ENDBRANCH   6   8
ENDBRANCH   5   6
ENDBRANCH   4   5
ENDBRANCH   3   4
ENDBRANCH   2   3
ENDBRANCH   1   2
BRANCH   1  29
ATOM     29  C   UNL     1       2.764   2.837  -3.372  1.00  0.00     0.261 C 
BRANCH  29  30
ATOM     30  O   UNL     1       3.403   1.776  -4.038  1.00  0.00    -0.460 OA
BRANCH  30  31
ATOM     31  C   UNL     1       4.741   1.810  -3.890  1.00  0.00     0.338 C 
ATOM     32  O   UNL     1       5.469   2.728  -3.567  1.00  0.00    -0.246 OA
BRANCH  31  33
ATOM     33  C   UNL     1       5.161   0.452  -4.120  1.00  0.00     0.060 A 
ATOM     34  C   UNL     1       6.815  -0.063  -3.726  1.00  0.00     0.016 A 
ATOM     35  C   UNL     1       4.070  -0.712  -4.975  1.00  0.00     0.016 A 
ATOM     36  C   UNL     1       7.461  -1.671  -4.176  1.00  0.00     0.010 A 
ATOM     37  C   UNL     1       4.843  -2.518  -5.437  1.00  0.00     0.010 A 
ATOM     38  C   UNL     1       6.530  -2.900  -5.016  1.00  0.00    -0.014 A 
BRANCH  38  39
ATOM     39  C   UNL     1       7.018  -4.148  -5.671  1.00  0.00     0.031 A 
ATOM     40  C   UNL     1       7.475  -4.138  -7.118  1.00  0.00     0.074 A 
ATOM     41  C   UNL     1       6.630  -5.320  -5.131  1.00  0.00     0.049 A 
ATOM     42  N   UNL     1       7.659  -5.144  -7.943  1.00  0.00    -0.248 NA
ATOM     43  C   UNL     1       7.692  -2.825  -7.742  1.00  0.00     0.031 C 
ATOM     44  C   UNL     1       5.977  -5.468  -3.832  1.00  0.00     0.029 A 
ATOM     45  N   UNL     1       6.635  -6.595  -5.646  1.00  0.00    -0.354 N 
ATOM     46  C   UNL     1       7.995  -4.582  -9.174  1.00  0.00     0.074 A 
ATOM     47  C   UNL     1       7.928  -3.148  -9.007  1.00  0.00     0.031 C 
ATOM     48  C   UNL     1       5.606  -6.747  -3.666  1.00  0.00     0.029 A 
ATOM     49  C   UNL     1       5.985  -7.509  -4.849  1.00  0.00     0.049 A 
ATOM     50  H   UNL     1       7.062  -6.830  -6.502  1.00  0.00     0.167 HD
ATOM     51  C   UNL     1       8.350  -5.196 -10.332  1.00  0.00     0.031 A 
ATOM     52  C   UNL     1       5.706  -8.812  -5.046  1.00  0.00     0.031 A 
ATOM     53  C   UNL     1       8.402  -6.625 -10.504  1.00  0.00     0.049 A 
ATOM     54  C   UNL     1       6.165  -9.487  -6.308  1.00  0.00     0.074 A 
ATOM     55  C   UNL     1       8.920  -7.351 -11.564  1.00  0.00     0.029 A 
ATOM     56  N   UNL     1       7.886  -7.543  -9.606  1.00  0.00    -0.354 N 
ATOM     57  N   UNL     1       6.736  -8.965  -7.365  1.00  0.00    -0.248 NA
ATOM     58  C   UNL     1       5.977 -10.944  -6.386  1.00  0.00     0.031 C 
ATOM     59  C   UNL     1       8.655  -8.705 -11.338  1.00  0.00     0.029 A 
ATOM     60  C   UNL     1       8.034  -8.825 -10.107  1.00  0.00     0.049 A 
ATOM     61  H   UNL     1       7.476  -7.318  -8.740  1.00  0.00     0.167 HD
ATOM     62  C   UNL     1       7.015 -10.033  -8.209  1.00  0.00     0.074 A 
ATOM     63  C   UNL     1       6.569 -11.232  -7.536  1.00  0.00     0.031 C 
ATOM     64  C   UNL     1       7.593 -10.018  -9.434  1.00  0.00     0.031 A 
BRANCH  51  65
ATOM     65  C   UNL     1       8.776  -4.346 -11.506  1.00  0.00    -0.014 A 
ATOM     66  C   UNL     1       9.963  -3.596 -11.451  1.00  0.00     0.009 A 
ATOM     67  C   UNL     1       8.074  -4.401 -12.722  1.00  0.00     0.009 A 
ATOM     68  C   UNL     1      10.423  -2.904 -12.575  1.00  0.00     0.001 A 
ATOM     69  C   UNL     1       8.552  -3.733 -13.853  1.00  0.00     0.001 A 
ATOM     70  C   UNL     1       9.723  -2.981 -13.777  1.00  0.00     0.000 A 
ENDBRANCH  51  65
BRANCH  52  71
ATOM     71  C   UNL     1       5.013  -9.596  -3.990  1.00  0.00    -0.014 A 
ATOM     72  C   UNL     1       5.729 -10.550  -3.250  1.00  0.00     0.009 A 
ATOM     73  C   UNL     1       3.644  -9.427  -3.733  1.00  0.00     0.009 A 
ATOM     74  C   UNL     1       5.080 -11.359  -2.317  1.00  0.00     0.001 A 
ATOM     75  C   UNL     1       3.004 -10.214  -2.772  1.00  0.00     0.001 A 
ATOM     76  C   UNL     1       3.718 -11.190  -2.077  1.00  0.00     0.000 A 
ENDBRANCH  52  71
BRANCH  64  77
ATOM     77  C   UNL     1       7.812 -11.338 -10.117  1.00  0.00    -0.014 A 
ATOM     78  C   UNL     1       6.736 -12.092 -10.612  1.00  0.00     0.009 A 
ATOM     79  C   UNL     1       9.119 -11.813 -10.310  1.00  0.00     0.009 A 
ATOM     80  C   UNL     1       6.964 -13.309 -11.257  1.00  0.00     0.001 A 
ATOM     81  C   UNL     1       9.346 -13.012 -10.987  1.00  0.00     0.001 A 
ATOM     82  C   UNL     1       8.268 -13.764 -11.451  1.00  0.00     0.000 A 
ENDBRANCH  64  77
ENDBRANCH  38  39
ENDBRANCH  31  33
ENDBRANCH  30  31
ENDBRANCH  29  30
ENDBRANCH   1  29
TORSDOF 16
