REMARK SMILES Cc1cc(/C=C2/C(=O)NC(=S)N=C2OCCOCCOC(=O)c2ccc(-c3c4nc(c(-c5ccccc5)c5ccc([nH]5)c(-c5ccccc5)c5nc(c(-c6ccccc6)c6ccc3[nH]6)C=C5)C=C4)cc2)c(C)n1-c1cccc(C(=O)[O-])c1
REMARK SMILES IDX 17 1 16 2 15 3 14 4 13 5 5 6 6 7 7 8 8 9 9 10 12 11 10 12
REMARK SMILES IDX 11 14 4 15 1 16 2 17 3 18 73 19 71 20 72 21 74 22 75 23
REMARK SMILES IDX 82 24 76 25 78 26 77 27 79 28 80 29 81 30 18 31 19 32 20 33
REMARK SMILES IDX 21 34 22 35 23 36 24 37 70 38 25 39 69 40 26 41 27 42 28 43
REMARK SMILES IDX 63 44 29 45 68 46 62 47 64 48 30 49 67 50 61 51 60 52 31 54
REMARK SMILES IDX 53 55 38 56 52 57 39 58 42 59 51 60 65 61 40 62 41 63 50 65
REMARK SMILES IDX 66 66 43 67 32 68 33 69 37 70 34 71 36 72 35 73 54 74 55 75
REMARK SMILES IDX 59 76 56 77 58 78 57 79 44 80 45 81 49 82 46 83 48 84 47 85
REMARK H PARENT 9 13 64 53 42 64
REMARK Flexibility Score: inf
ROOT
ATOM      1  O   UNL     1       2.045   7.358  -3.211  1.00  0.00    -0.374 OA
ENDROOT
BRANCH   1   2
ATOM      2  C   UNL     1       2.111   6.859  -1.903  1.00  0.00     0.202 C 
BRANCH   2   3
ATOM      3  C   UNL     1       0.821   6.580  -1.195  1.00  0.00     0.260 C 
BRANCH   3   4
ATOM      4  O   UNL     1      -0.156   5.735  -2.061  1.00  0.00    -0.475 OA
BRANCH   4   5
ATOM      5  C   UNL     1      -0.990   5.742  -3.067  1.00  0.00     0.229 C 
ATOM      6  C   UNL     1      -1.004   3.095  -3.597  1.00  0.00     0.029 C 
ATOM      7  C   UNL     1      -1.199   4.442  -3.862  1.00  0.00     0.103 C 
ATOM      8  C   UNL     1      -1.750   4.836  -5.228  1.00  0.00     0.262 C 
ATOM      9  O   UNL     1      -2.256   4.048  -6.021  1.00  0.00    -0.269 OA
ATOM     10  N   UNL     1      -1.651   6.196  -5.522  1.00  0.00    -0.297 N 
ATOM     11  N   UNL     1      -1.224   6.945  -3.380  1.00  0.00    -0.184 NA
ATOM     12  C   UNL     1      -1.330   7.226  -4.678  1.00  0.00     0.203 C 
ATOM     13  H   UNL     1      -1.835   6.447  -6.456  1.00  0.00     0.172 HD
ATOM     14  S   UNL     1      -0.978   8.771  -5.220  1.00  0.00    -0.038 S 
BRANCH   6  15
ATOM     15  C   UNL     1      -0.412   2.373  -2.447  1.00  0.00    -0.003 A 
ATOM     16  C   UNL     1       0.964  -0.193  -0.087  1.00  0.00     0.065 C 
ATOM     17  C   UNL     1       0.498   0.889  -0.925  1.00  0.00     0.020 A 
ATOM     18  C   UNL     1      -0.277   1.006  -2.099  1.00  0.00     0.031 A 
ATOM     19  N   UNL     1       0.739   2.106  -0.414  1.00  0.00    -0.318 N 
ATOM     20  C   UNL     1       0.223   2.880  -1.365  1.00  0.00     0.027 A 
ATOM     21  C   UNL     1       0.591   4.146  -1.078  1.00  0.00     0.065 C 
BRANCH  19  22
ATOM     22  C   UNL     1       1.515   2.566   0.759  1.00  0.00     0.046 A 
ATOM     23  C   UNL     1       1.114   3.677   1.572  1.00  0.00     0.026 A 
ATOM     24  C   UNL     1       2.816   2.136   0.889  1.00  0.00     0.036 A 
ATOM     25  C   UNL     1       2.036   4.386   2.359  1.00  0.00     0.003 A 
ATOM     26  C   UNL     1       3.624   2.677   1.902  1.00  0.00    -0.001 A 
ATOM     27  C   UNL     1       3.277   3.834   2.580  1.00  0.00     0.010 A 
BRANCH  26  28
ATOM     28  C   UNL     1       4.930   2.112   2.221  1.00  0.00     0.072 C 
ATOM     29  O   UNL     1       5.881   2.690   2.706  1.00  0.00    -0.545 OA
ATOM     30  O   UNL     1       4.990   0.884   1.713  1.00  0.00    -0.545 OA
ENDBRANCH  26  28
ENDBRANCH  19  22
ENDBRANCH   6  15
ENDBRANCH   4   5
ENDBRANCH   3   4
ENDBRANCH   2   3
ENDBRANCH   1   2
BRANCH   1  31
ATOM     31  C   UNL     1       1.683   6.318  -4.104  1.00  0.00     0.202 C 
BRANCH  31  32
ATOM     32  C   UNL     1       2.456   5.008  -4.378  1.00  0.00     0.261 C 
BRANCH  32  33
ATOM     33  O   UNL     1       3.079   4.021  -3.254  1.00  0.00    -0.460 OA
BRANCH  33  34
ATOM     34  C   UNL     1       4.208   4.251  -2.345  1.00  0.00     0.338 C 
ATOM     35  O   UNL     1       4.577   5.432  -2.341  1.00  0.00    -0.246 OA
BRANCH  34  36
ATOM     36  C   UNL     1       5.086   2.805  -1.536  1.00  0.00     0.060 A 
ATOM     37  C   UNL     1       5.921   2.208  -0.569  1.00  0.00     0.016 A 
ATOM     38  C   UNL     1       5.191   1.534  -2.050  1.00  0.00     0.016 A 
ATOM     39  C   UNL     1       6.765   0.479  -0.526  1.00  0.00     0.010 A 
ATOM     40  C   UNL     1       6.026  -0.137  -1.865  1.00  0.00     0.010 A 
ATOM     41  C   UNL     1       7.132  -1.301  -1.199  1.00  0.00    -0.014 A 
BRANCH  41  42
ATOM     42  C   UNL     1       7.953  -3.288  -0.952  1.00  0.00     0.031 A 
ATOM     43  C   UNL     1       7.477  -1.977   0.491  1.00  0.00     0.074 A 
ATOM     44  C   UNL     1       8.748  -5.037  -1.395  1.00  0.00     0.049 A 
ATOM     45  N   UNL     1       8.104  -0.755   0.626  1.00  0.00    -0.248 NA
ATOM     46  C   UNL     1       6.656  -1.609   1.774  1.00  0.00     0.031 C 
ATOM     47  C   UNL     1       9.364  -6.851  -2.079  1.00  0.00     0.029 A 
ATOM     48  N   UNL     1       9.670  -6.518  -0.612  1.00  0.00    -0.354 N 
ATOM     49  C   UNL     1       8.848  -0.918   1.673  1.00  0.00     0.074 A 
ATOM     50  C   UNL     1       7.724  -1.326   2.556  1.00  0.00     0.031 C 
ATOM     51  C   UNL     1       9.979  -8.379  -1.875  1.00  0.00     0.029 A 
ATOM     52  C   UNL     1      10.170  -8.347  -0.543  1.00  0.00     0.049 A 
ATOM     53  H   UNL     1      10.125  -6.122   0.167  1.00  0.00     0.167 HD
ATOM     54  C   UNL     1       9.894  -1.425   0.965  1.00  0.00     0.031 A 
ATOM     55  C   UNL     1      11.085  -9.616   0.166  1.00  0.00     0.031 A 
ATOM     56  C   UNL     1       9.830  -2.795   1.186  1.00  0.00     0.049 A 
ATOM     57  C   UNL     1      11.250  -8.817   1.318  1.00  0.00     0.074 A 
ATOM     58  C   UNL     1       8.927  -3.636   1.821  1.00  0.00     0.029 A 
ATOM     59  N   UNL     1      10.520  -3.523   0.325  1.00  0.00    -0.354 N 
ATOM     60  N   UNL     1      12.070  -7.828   1.222  1.00  0.00    -0.248 NA
ATOM     61  C   UNL     1       9.938  -8.802   1.911  1.00  0.00     0.031 C 
ATOM     62  C   UNL     1       9.220  -4.878   1.487  1.00  0.00     0.029 A 
ATOM     63  C   UNL     1      10.421  -4.742   0.852  1.00  0.00     0.049 A 
ATOM     64  H   UNL     1      10.987  -3.238  -0.493  1.00  0.00     0.167 HD
ATOM     65  C   UNL     1      11.238  -6.761   1.276  1.00  0.00     0.074 A 
ATOM     66  C   UNL     1       9.851  -7.483   1.814  1.00  0.00     0.031 C 
ATOM     67  C   UNL     1      11.406  -5.616   0.427  1.00  0.00     0.031 A 
BRANCH  54  68
ATOM     68  C   UNL     1      10.139  -0.750  -0.583  1.00  0.00    -0.014 A 
ATOM     69  C   UNL     1      10.711   0.493  -0.438  1.00  0.00     0.009 A 
ATOM     70  C   UNL     1       9.774  -1.097  -1.954  1.00  0.00     0.009 A 
ATOM     71  C   UNL     1      11.155   1.215  -1.539  1.00  0.00     0.001 A 
ATOM     72  C   UNL     1      10.235  -0.381  -3.070  1.00  0.00     0.001 A 
ATOM     73  C   UNL     1      11.030   0.718  -2.835  1.00  0.00     0.000 A 
ENDBRANCH  54  68
BRANCH  55  74
ATOM     74  C   UNL     1      11.152 -11.384   0.838  1.00  0.00    -0.014 A 
ATOM     75  C   UNL     1      12.155 -12.351   1.501  1.00  0.00     0.009 A 
ATOM     76  C   UNL     1       9.894 -11.998   1.061  1.00  0.00     0.009 A 
ATOM     77  C   UNL     1      11.833 -13.704   2.116  1.00  0.00     0.001 A 
ATOM     78  C   UNL     1       9.567 -13.267   1.738  1.00  0.00     0.001 A 
ATOM     79  C   UNL     1      10.521 -14.116   2.280  1.00  0.00     0.000 A 
ENDBRANCH  55  74
BRANCH  67  80
ATOM     80  C   UNL     1      11.953  -5.304  -1.314  1.00  0.00    -0.014 A 
ATOM     81  C   UNL     1      11.611  -5.732  -2.795  1.00  0.00     0.009 A 
ATOM     82  C   UNL     1      12.963  -4.442  -1.301  1.00  0.00     0.009 A 
ATOM     83  C   UNL     1      12.492  -5.917  -3.833  1.00  0.00     0.001 A 
ATOM     84  C   UNL     1      13.692  -4.319  -2.484  1.00  0.00     0.001 A 
ATOM     85  C   UNL     1      13.509  -5.057  -3.695  1.00  0.00     0.000 A 
ENDBRANCH  67  80
ENDBRANCH  41  42
ENDBRANCH  34  36
ENDBRANCH  33  34
ENDBRANCH  32  33
ENDBRANCH  31  32
ENDBRANCH   1  31
TORSDOF 16
