REMARK SMILES Cc1cccc2c1[C@H]1c3c(C)cccc3[C@H](CC(=O)OCCOCCOC(=O)c3ccc(-c4c5nc(c(-c6ccccc6)c6ccc([nH]6)c(-c6ccccc6)c6nc(c(-c7ccccc7)c7ccc4[nH]7)C=C6)C=C5)cc3)C[C@H]1CC2
REMARK SMILES IDX 24 1 23 2 22 3 21 4 20 5 18 6 19 7 17 8 16 9 1 10 2 11 3 12
REMARK SMILES IDX 7 13 4 14 6 15 8 16 5 17 80 18 9 19 78 20 79 21 10 22 15 23
REMARK SMILES IDX 77 24 12 25 11 26 14 27 13 28 25 29 26 30 27 31 28 32 29 33
REMARK SMILES IDX 30 34 76 35 31 36 75 37 32 38 33 39 34 40 69 41 35 42 74 43
REMARK SMILES IDX 68 44 70 45 36 46 73 47 67 48 66 49 37 51 59 52 44 53 58 54
REMARK SMILES IDX 45 55 48 56 57 57 71 58 46 59 47 60 56 62 72 63 49 64 38 65
REMARK SMILES IDX 39 66 43 67 40 68 42 69 41 70 60 71 61 72 65 73 62 74 64 75
REMARK SMILES IDX 63 76 50 77 51 78 55 79 52 80 54 81 53 82
REMARK H PARENT 70 50 48 61
REMARK Flexibility Score: inf
ROOT
ATOM      1  C   UNL     1       7.433  -2.786  -1.239  1.00  0.00     0.202 C 
ENDROOT
BRANCH   1   2
ATOM      2  O   UNL     1       8.859  -2.704  -1.308  1.00  0.00    -0.374 OA
BRANCH   2   3
ATOM      3  C   UNL     1       9.613  -3.471  -0.374  1.00  0.00     0.202 C 
BRANCH   3   4
ATOM      4  C   UNL     1       9.612  -2.996   1.088  1.00  0.00     0.261 C 
BRANCH   4   5
ATOM      5  O   UNL     1       8.322  -2.532   1.515  1.00  0.00    -0.463 OA
BRANCH   5   6
ATOM      6  C   UNL     1       8.300  -1.254   1.974  1.00  0.00     0.306 C 
ATOM      7  O   UNL     1       9.289  -0.605   2.296  1.00  0.00    -0.252 OA
BRANCH   6   8
ATOM      8  C   UNL     1       6.922  -0.648   1.911  1.00  0.00     0.131 C 
BRANCH   8   9
ATOM      9  C   UNL     1       5.839  -1.316   2.788  1.00  0.00     0.031 C 
ATOM     10  C   UNL     1       0.894  -0.506  -0.274  1.00  0.00     0.044 C 
ATOM     11  C   UNL     1       0.513  -1.065   1.074  1.00  0.00    -0.047 A 
ATOM     12  C   UNL     1      -0.868  -1.168   1.333  1.00  0.00     0.004 A 
ATOM     13  C   UNL     1       1.444  -1.527   2.041  1.00  0.00    -0.034 A 
ATOM     14  C   UNL     1      -1.338  -1.747   2.505  1.00  0.00     0.001 A 
ATOM     15  C   UNL     1       0.948  -2.245   3.156  1.00  0.00    -0.044 A 
ATOM     16  C   UNL     1       2.952  -1.273   1.937  1.00  0.00     0.053 C 
ATOM     17  C   UNL     1      -0.436  -2.314   3.394  1.00  0.00     0.004 A 
ATOM     18  C   UNL     1       1.838  -3.091   4.037  1.00  0.00     0.036 C 
ATOM     19  C   UNL     1       3.539  -0.095   2.759  1.00  0.00    -0.034 A 
ATOM     20  C   UNL     1       3.656  -2.602   2.325  1.00  0.00     0.002 C 
ATOM     21  C   UNL     1       3.339  -2.997   3.775  1.00  0.00     0.009 C 
ATOM     22  C   UNL     1       2.868   1.126   3.046  1.00  0.00    -0.047 A 
ATOM     23  C   UNL     1       4.875  -0.216   3.236  1.00  0.00    -0.040 A 
ATOM     24  C   UNL     1       5.156  -2.481   2.050  1.00  0.00     0.013 C 
ATOM     25  C   UNL     1       3.469   2.087   3.890  1.00  0.00     0.004 A 
ATOM     26  C   UNL     1       1.525   1.522   2.501  1.00  0.00     0.044 C 
ATOM     27  C   UNL     1       5.415   0.739   4.126  1.00  0.00     0.004 A 
ATOM     28  C   UNL     1       4.717   1.885   4.451  1.00  0.00     0.001 A 
ENDBRANCH   8   9
ENDBRANCH   6   8
ENDBRANCH   5   6
ENDBRANCH   4   5
ENDBRANCH   3   4
ENDBRANCH   2   3
ENDBRANCH   1   2
BRANCH   1  29
ATOM     29  C   UNL     1       6.799  -4.179  -1.308  1.00  0.00     0.261 C 
BRANCH  29  30
ATOM     30  O   UNL     1       7.070  -4.945  -0.116  1.00  0.00    -0.460 OA
BRANCH  30  31
ATOM     31  C   UNL     1       7.377  -6.242  -0.348  1.00  0.00     0.338 C 
ATOM     32  O   UNL     1       7.332  -6.838  -1.415  1.00  0.00    -0.246 OA
BRANCH  31  33
ATOM     33  C   UNL     1       7.949  -6.857   0.859  1.00  0.00     0.060 A 
ATOM     34  C   UNL     1       9.331  -7.081   0.893  1.00  0.00     0.016 A 
ATOM     35  C   UNL     1       7.117  -7.375   1.852  1.00  0.00     0.016 A 
ATOM     36  C   UNL     1       9.882  -7.869   1.901  1.00  0.00     0.010 A 
ATOM     37  C   UNL     1       7.670  -8.181   2.853  1.00  0.00     0.010 A 
ATOM     38  C   UNL     1       9.046  -8.468   2.854  1.00  0.00    -0.014 A 
BRANCH  38  39
ATOM     39  C   UNL     1       9.594  -9.543   3.715  1.00  0.00     0.031 A 
ATOM     40  C   UNL     1       9.522 -10.966   3.229  1.00  0.00     0.074 A 
ATOM     41  C   UNL     1      10.213  -9.258   4.873  1.00  0.00     0.049 A 
ATOM     42  N   UNL     1       9.961 -12.058   3.802  1.00  0.00    -0.248 NA
ATOM     43  C   UNL     1       8.890 -11.187   1.916  1.00  0.00     0.031 C 
ATOM     44  C   UNL     1      10.421  -7.918   5.416  1.00  0.00     0.029 A 
ATOM     45  N   UNL     1      10.799 -10.092   5.793  1.00  0.00    -0.354 N 
ATOM     46  C   UNL     1       9.674 -13.088   2.916  1.00  0.00     0.074 A 
ATOM     47  C   UNL     1       9.002 -12.501   1.778  1.00  0.00     0.031 C 
ATOM     48  C   UNL     1      11.103  -8.018   6.571  1.00  0.00     0.029 A 
ATOM     49  C   UNL     1      11.353  -9.430   6.861  1.00  0.00     0.049 A 
ATOM     50  H   UNL     1      10.821 -11.071   5.697  1.00  0.00     0.167 HD
ATOM     51  C   UNL     1       9.955 -14.406   3.033  1.00  0.00     0.031 A 
ATOM     52  C   UNL     1      11.983  -9.908   7.951  1.00  0.00     0.031 A 
ATOM     53  C   UNL     1      10.602 -15.003   4.167  1.00  0.00     0.049 A 
ATOM     54  C   UNL     1      12.168 -11.391   8.117  1.00  0.00     0.074 A 
ATOM     55  C   UNL     1      10.900 -16.337   4.381  1.00  0.00     0.029 A 
ATOM     56  N   UNL     1      11.050 -14.306   5.275  1.00  0.00    -0.354 N 
ATOM     57  N   UNL     1      11.865 -12.357   7.285  1.00  0.00    -0.248 NA
ATOM     58  C   UNL     1      12.777 -11.851   9.376  1.00  0.00     0.031 C 
ATOM     59  C   UNL     1      11.496 -16.453   5.639  1.00  0.00     0.029 A 
ATOM     60  C   UNL     1      11.605 -15.185   6.187  1.00  0.00     0.049 A 
ATOM     61  H   UNL     1      10.983 -13.331   5.396  1.00  0.00     0.167 HD
ATOM     62  C   UNL     1      12.262 -13.533   7.909  1.00  0.00     0.074 A 
ATOM     63  C   UNL     1      12.831 -13.163   9.187  1.00  0.00     0.031 C 
ATOM     64  C   UNL     1      12.166 -14.806   7.455  1.00  0.00     0.031 A 
BRANCH  51  65
ATOM     65  C   UNL     1       9.553 -15.309   1.906  1.00  0.00    -0.014 A 
ATOM     66  C   UNL     1      10.338 -15.396   0.747  1.00  0.00     0.009 A 
ATOM     67  C   UNL     1       8.434 -16.144   2.042  1.00  0.00     0.009 A 
ATOM     68  C   UNL     1      10.007 -16.305  -0.259  1.00  0.00     0.001 A 
ATOM     69  C   UNL     1       8.115 -17.062   1.040  1.00  0.00     0.001 A 
ATOM     70  C   UNL     1       8.901 -17.141  -0.109  1.00  0.00     0.000 A 
ENDBRANCH  51  65
BRANCH  52  71
ATOM     71  C   UNL     1      12.487  -8.967   8.982  1.00  0.00    -0.014 A 
ATOM     72  C   UNL     1      13.861  -8.712   9.098  1.00  0.00     0.009 A 
ATOM     73  C   UNL     1      11.596  -8.314   9.847  1.00  0.00     0.009 A 
ATOM     74  C   UNL     1      14.334  -7.824  10.068  1.00  0.00     0.001 A 
ATOM     75  C   UNL     1      12.070  -7.414  10.803  1.00  0.00     0.001 A 
ATOM     76  C   UNL     1      13.439  -7.173  10.915  1.00  0.00     0.000 A 
ENDBRANCH  52  71
BRANCH  64  77
ATOM     77  C   UNL     1      12.694 -15.907   8.326  1.00  0.00    -0.014 A 
ATOM     78  C   UNL     1      11.942 -16.393   9.404  1.00  0.00     0.009 A 
ATOM     79  C   UNL     1      13.901 -16.541   7.989  1.00  0.00     0.009 A 
ATOM     80  C   UNL     1      12.392 -17.494  10.134  1.00  0.00     0.001 A 
ATOM     81  C   UNL     1      14.339 -17.653   8.710  1.00  0.00     0.001 A 
ATOM     82  C   UNL     1      13.585 -18.128   9.782  1.00  0.00     0.000 A 
ENDBRANCH  64  77
ENDBRANCH  38  39
ENDBRANCH  31  33
ENDBRANCH  30  31
ENDBRANCH  29  30
ENDBRANCH   1  29
TORSDOF 15
