REMARK SMILES CCc1c(C)nc(Nc2ccc(C(C)=O)cc2)nc1OCC(=O)OCCOCCOC(=O)c1ccc(-c2c3nc(c(-c4ccccc4)c4ccc([nH]4)c(-c4ccccc4)c4nc(c(-c5ccccc5)c5ccc2[nH]5)C=C4)C=C3)cc1
REMARK SMILES IDX 25 1 24 2 22 3 23 4 21 5 20 6 19 7 3 8 4 9 5 10 6 11 18 12
REMARK SMILES IDX 7 13 2 14 1 15 8 16 9 18 10 19 17 20 11 21 16 22 12 23 13 24
REMARK SMILES IDX 14 25 15 26 26 27 27 28 28 29 29 30 30 31 31 32 32 33 33 34
REMARK SMILES IDX 34 35 80 36 35 37 79 38 36 39 37 40 38 41 73 42 39 43 78 44
REMARK SMILES IDX 72 45 74 46 40 47 77 48 71 49 70 50 41 52 63 53 48 54 62 55
REMARK SMILES IDX 49 56 52 57 61 58 75 59 50 60 51 61 60 63 76 64 53 65 42 66
REMARK SMILES IDX 43 67 47 68 44 69 46 70 45 71 64 72 65 73 69 74 66 75 68 76
REMARK SMILES IDX 67 77 54 78 55 79 59 80 56 81 58 82 57 83
REMARK H PARENT 8 17 74 51 52 62
REMARK Flexibility Score: inf
ROOT
ATOM      1  C   UNL     1      -1.946  -3.767   1.878  1.00  0.00     0.261 C 
ENDROOT
BRANCH   1   2
ATOM      2  O   UNL     1      -0.665  -3.357   2.421  1.00  0.00    -0.461 OA
BRANCH   2   3
ATOM      3  C   UNL     1       0.401  -3.464   1.578  1.00  0.00     0.344 C 
ATOM      4  O   UNL     1       0.328  -3.825   0.408  1.00  0.00    -0.248 OA
BRANCH   3   5
ATOM      5  C   UNL     1       1.740  -3.147   2.250  1.00  0.00     0.353 C 
BRANCH   5   6
ATOM      6  O   UNL     1       1.829  -2.178   3.256  1.00  0.00    -0.465 OA
BRANCH   6   7
ATOM      7  C   UNL     1       1.991  -0.842   3.120  1.00  0.00     0.222 A 
ATOM      8  C   UNL     1       1.785  -0.012   2.015  1.00  0.00     0.035 A 
ATOM      9  C   UNL     1       1.615   1.336   2.366  1.00  0.00     0.050 A 
ATOM     10  C   UNL     1       1.039   2.390   1.459  1.00  0.00     0.067 C 
ATOM     11  N   UNL     1       1.802   1.806   3.612  1.00  0.00    -0.218 NA
ATOM     12  N   UNL     1       2.234  -0.352   4.362  1.00  0.00    -0.177 NA
ATOM     13  C   UNL     1       2.132   0.955   4.576  1.00  0.00     0.230 A 
BRANCH   8  14
ATOM     14  C   UNL     1       1.547  -0.440   0.590  1.00  0.00     0.040 C 
ATOM     15  C   UNL     1       2.422   0.224  -0.470  1.00  0.00     0.009 C 
ENDBRANCH   8  14
BRANCH  13  16
ATOM     16  N   UNL     1       2.374   1.439   5.859  1.00  0.00    -0.324 N 
ATOM     17  H   UNL     1       2.756   0.802   6.505  1.00  0.00     0.170 HD
BRANCH  16  18
ATOM     18  C   UNL     1       2.131   2.734   6.327  1.00  0.00     0.041 A 
ATOM     19  C   UNL     1       3.172   3.500   6.856  1.00  0.00     0.027 A 
ATOM     20  C   UNL     1       0.878   3.337   6.168  1.00  0.00     0.027 A 
ATOM     21  C   UNL     1       2.982   4.855   7.174  1.00  0.00     0.014 A 
ATOM     22  C   UNL     1       0.674   4.677   6.510  1.00  0.00     0.014 A 
ATOM     23  C   UNL     1       1.733   5.459   6.989  1.00  0.00     0.017 A 
BRANCH  23  24
ATOM     24  C   UNL     1       1.459   6.907   7.250  1.00  0.00     0.159 C 
ATOM     25  C   UNL     1       2.576   7.871   7.557  1.00  0.00     0.093 C 
ATOM     26  O   UNL     1       0.300   7.321   7.186  1.00  0.00    -0.295 OA
ENDBRANCH  23  24
ENDBRANCH  16  18
ENDBRANCH  13  16
ENDBRANCH   6   7
ENDBRANCH   5   6
ENDBRANCH   3   5
ENDBRANCH   2   3
ENDBRANCH   1   2
BRANCH   1  27
ATOM     27  C   UNL     1      -3.071  -2.791   2.246  1.00  0.00     0.202 C 
BRANCH  27  28
ATOM     28  O   UNL     1      -3.127  -1.557   1.523  1.00  0.00    -0.374 OA
BRANCH  28  29
ATOM     29  C   UNL     1      -1.947  -0.770   1.499  1.00  0.00     0.202 C 
BRANCH  29  30
ATOM     30  C   UNL     1      -1.589   0.006   2.768  1.00  0.00     0.261 C 
BRANCH  30  31
ATOM     31  O   UNL     1      -2.037  -0.595   3.967  1.00  0.00    -0.460 OA
BRANCH  31  32
ATOM     32  C   UNL     1      -3.151  -0.017   4.456  1.00  0.00     0.338 C 
ATOM     33  O   UNL     1      -3.725   0.982   4.071  1.00  0.00    -0.246 OA
BRANCH  32  34
ATOM     34  C   UNL     1      -3.690  -0.941   5.448  1.00  0.00     0.060 A 
ATOM     35  C   UNL     1      -4.966  -1.444   5.195  1.00  0.00     0.016 A 
ATOM     36  C   UNL     1      -2.960  -1.296   6.586  1.00  0.00     0.016 A 
ATOM     37  C   UNL     1      -5.567  -2.251   6.141  1.00  0.00     0.010 A 
ATOM     38  C   UNL     1      -3.564  -2.111   7.535  1.00  0.00     0.010 A 
ATOM     39  C   UNL     1      -4.888  -2.536   7.334  1.00  0.00    -0.014 A 
BRANCH  39  40
ATOM     40  C   UNL     1      -5.671  -3.102   8.444  1.00  0.00     0.031 A 
ATOM     41  C   UNL     1      -6.197  -2.160   9.487  1.00  0.00     0.074 A 
ATOM     42  C   UNL     1      -5.992  -4.404   8.435  1.00  0.00     0.049 A 
ATOM     43  N   UNL     1      -7.003  -2.402  10.486  1.00  0.00    -0.248 NA
ATOM     44  C   UNL     1      -5.764  -0.755   9.388  1.00  0.00     0.031 C 
ATOM     45  C   UNL     1      -5.565  -5.373   7.424  1.00  0.00     0.029 A 
ATOM     46  N   UNL     1      -6.780  -5.127   9.287  1.00  0.00    -0.354 N 
ATOM     47  C   UNL     1      -7.166  -1.184  11.135  1.00  0.00     0.074 A 
ATOM     48  C   UNL     1      -6.351  -0.214  10.443  1.00  0.00     0.031 C 
ATOM     49  C   UNL     1      -6.120  -6.564   7.703  1.00  0.00     0.029 A 
ATOM     50  C   UNL     1      -6.912  -6.442   8.924  1.00  0.00     0.049 A 
ATOM     51  H   UNL     1      -7.211  -4.740  10.084  1.00  0.00     0.167 HD
ATOM     52  C   UNL     1      -7.938  -0.904  12.210  1.00  0.00     0.031 A 
ATOM     53  C   UNL     1      -7.599  -7.432   9.520  1.00  0.00     0.031 A 
ATOM     54  C   UNL     1      -8.733  -1.890  12.889  1.00  0.00     0.049 A 
ATOM     55  C   UNL     1      -8.395  -7.106  10.754  1.00  0.00     0.074 A 
ATOM     56  C   UNL     1      -9.562  -1.728  13.982  1.00  0.00     0.029 A 
ATOM     57  N   UNL     1      -8.787  -3.231  12.535  1.00  0.00    -0.354 N 
ATOM     58  N   UNL     1      -8.566  -5.948  11.347  1.00  0.00    -0.248 NA
ATOM     59  C   UNL     1      -9.102  -8.222  11.393  1.00  0.00     0.031 C 
ATOM     60  C   UNL     1     -10.067  -2.985  14.331  1.00  0.00     0.029 A 
ATOM     61  C   UNL     1      -9.610  -3.917  13.411  1.00  0.00     0.049 A 
ATOM     62  H   UNL     1      -8.310  -3.635  11.775  1.00  0.00     0.167 HD
ATOM     63  C   UNL     1      -9.425  -6.189  12.411  1.00  0.00     0.074 A 
ATOM     64  C   UNL     1      -9.752  -7.601  12.367  1.00  0.00     0.031 C 
ATOM     65  C   UNL     1      -9.907  -5.325  13.340  1.00  0.00     0.031 A 
BRANCH  52  66
ATOM     66  C   UNL     1      -7.907   0.503  12.737  1.00  0.00    -0.014 A 
ATOM     67  C   UNL     1      -8.468   1.574  12.020  1.00  0.00     0.009 A 
ATOM     68  C   UNL     1      -7.306   0.762  13.978  1.00  0.00     0.009 A 
ATOM     69  C   UNL     1      -8.393   2.877  12.520  1.00  0.00     0.001 A 
ATOM     70  C   UNL     1      -7.260   2.060  14.490  1.00  0.00     0.001 A 
ATOM     71  C   UNL     1      -7.794   3.118  13.756  1.00  0.00     0.000 A 
ENDBRANCH  52  66
BRANCH  53  72
ATOM     72  C   UNL     1      -7.563  -8.808   8.961  1.00  0.00    -0.014 A 
ATOM     73  C   UNL     1      -8.712  -9.389   8.404  1.00  0.00     0.009 A 
ATOM     74  C   UNL     1      -6.372  -9.551   8.985  1.00  0.00     0.009 A 
ATOM     75  C   UNL     1      -8.675 -10.695   7.908  1.00  0.00     0.001 A 
ATOM     76  C   UNL     1      -6.330 -10.844   8.460  1.00  0.00     0.001 A 
ATOM     77  C   UNL     1      -7.484 -11.419   7.932  1.00  0.00     0.000 A 
ENDBRANCH  53  72
BRANCH  65  78
ATOM     78  C   UNL     1     -10.866  -5.883  14.353  1.00  0.00    -0.014 A 
ATOM     79  C   UNL     1     -10.437  -6.759  15.362  1.00  0.00     0.009 A 
ATOM     80  C   UNL     1     -12.215  -5.497  14.312  1.00  0.00     0.009 A 
ATOM     81  C   UNL     1     -11.352  -7.272  16.283  1.00  0.00     0.001 A 
ATOM     82  C   UNL     1     -13.119  -5.983  15.255  1.00  0.00     0.001 A 
ATOM     83  C   UNL     1     -12.690  -6.880  16.232  1.00  0.00     0.000 A 
ENDBRANCH  65  78
ENDBRANCH  39  40
ENDBRANCH  32  34
ENDBRANCH  31  32
ENDBRANCH  30  31
ENDBRANCH  29  30
ENDBRANCH  28  29
ENDBRANCH  27  28
ENDBRANCH   1  27
TORSDOF 20
