REMARK SMILES O=C(OCCOCCOC(=O)[C@H]1CC2=c3ccccc3=N[C@H]2[C@@H](c2ccccc2)[NH2+]1)c1ccc(-c2c3nc(c(-c4ccccc4)c4ccc([nH]4)c(-c4ccccc4)c4nc(c(-c5ccccc5)c5ccc2[nH]5)C=C4)C=C3)cc1
REMARK SMILES IDX 5 1 4 2 3 3 2 4 1 5 31 6 32 7 78 8 33 9 77 10 34 11 35 12
REMARK SMILES IDX 36 13 71 14 37 15 76 16 70 17 72 18 38 19 75 20 69 21 68 22
REMARK SMILES IDX 39 24 61 25 46 26 60 27 47 28 50 29 59 30 73 31 48 32 49 33
REMARK SMILES IDX 58 35 74 36 51 37 40 38 41 39 45 40 42 41 44 42 43 43 62 44
REMARK SMILES IDX 63 45 67 46 64 47 66 48 65 49 52 50 53 51 57 52 54 53 56 54
REMARK SMILES IDX 55 55 6 56 7 57 8 58 9 59 10 60 11 61 12 62 13 63 30 64
REMARK SMILES IDX 14 65 23 66 15 69 22 70 16 71 20 72 21 73 17 74 19 75 18 76
REMARK SMILES IDX 24 77 25 78 29 79 26 80 28 81 27 82
REMARK H PARENT 72 23 50 34 30 67 30 68
REMARK Flexibility Score: inf
ROOT
ATOM      1  C   UNL     1       4.832   0.743   0.065  1.00  0.00     0.202 C 
ENDROOT
BRANCH   1   2
ATOM      2  C   UNL     1       4.299   0.132  -1.241  1.00  0.00     0.261 C 
BRANCH   2   3
ATOM      3  O   UNL     1       2.914  -0.226  -1.253  1.00  0.00    -0.460 OA
BRANCH   3   4
ATOM      4  C   UNL     1       2.445  -1.464  -0.941  1.00  0.00     0.338 C 
ATOM      5  O   UNL     1       1.400  -1.873  -1.435  1.00  0.00    -0.246 OA
BRANCH   4   6
ATOM      6  C   UNL     1       3.051  -2.198   0.204  1.00  0.00     0.060 A 
ATOM      7  C   UNL     1       2.173  -2.791   1.127  1.00  0.00     0.016 A 
ATOM      8  C   UNL     1       4.424  -2.285   0.430  1.00  0.00     0.016 A 
ATOM      9  C   UNL     1       2.671  -3.396   2.284  1.00  0.00     0.010 A 
ATOM     10  C   UNL     1       4.914  -2.750   1.635  1.00  0.00     0.010 A 
ATOM     11  C   UNL     1       4.044  -3.350   2.545  1.00  0.00    -0.014 A 
BRANCH  11  12
ATOM     12  C   UNL     1       4.680  -4.194   3.563  1.00  0.00     0.031 A 
ATOM     13  C   UNL     1       5.008  -3.691   4.924  1.00  0.00     0.074 A 
ATOM     14  C   UNL     1       5.136  -5.377   3.114  1.00  0.00     0.049 A 
ATOM     15  N   UNL     1       5.512  -4.357   5.927  1.00  0.00    -0.248 NA
ATOM     16  C   UNL     1       4.763  -2.267   5.197  1.00  0.00     0.031 C 
ATOM     17  C   UNL     1       4.975  -5.862   1.736  1.00  0.00     0.029 A 
ATOM     18  N   UNL     1       5.869  -6.349   3.726  1.00  0.00    -0.354 N 
ATOM     19  C   UNL     1       5.593  -3.453   6.975  1.00  0.00     0.074 A 
ATOM     20  C   UNL     1       5.158  -2.170   6.462  1.00  0.00     0.031 C 
ATOM     21  C   UNL     1       5.620  -7.024   1.601  1.00  0.00     0.029 A 
ATOM     22  C   UNL     1       6.193  -7.386   2.889  1.00  0.00     0.049 A 
ATOM     23  H   UNL     1       6.137  -6.311   4.673  1.00  0.00     0.167 HD
ATOM     24  C   UNL     1       5.974  -3.706   8.249  1.00  0.00     0.031 A 
ATOM     25  C   UNL     1       6.843  -8.531   3.144  1.00  0.00     0.031 A 
ATOM     26  C   UNL     1       6.481  -4.989   8.677  1.00  0.00     0.049 A 
ATOM     27  C   UNL     1       7.218  -8.809   4.563  1.00  0.00     0.074 A 
ATOM     28  C   UNL     1       6.827  -5.402   9.951  1.00  0.00     0.029 A 
ATOM     29  N   UNL     1       6.744  -6.058   7.827  1.00  0.00    -0.354 N 
ATOM     30  N   UNL     1       7.113  -8.020   5.606  1.00  0.00    -0.248 NA
ATOM     31  C   UNL     1       7.739 -10.145   4.857  1.00  0.00     0.031 C 
ATOM     32  C   UNL     1       7.365  -6.690   9.859  1.00  0.00     0.029 A 
ATOM     33  C   UNL     1       7.282  -7.115   8.541  1.00  0.00     0.049 A 
ATOM     34  H   UNL     1       6.572  -6.062   6.857  1.00  0.00     0.167 HD
ATOM     35  C   UNL     1       7.546  -8.765   6.690  1.00  0.00     0.074 A 
ATOM     36  C   UNL     1       7.879 -10.082   6.174  1.00  0.00     0.031 C 
ATOM     37  C   UNL     1       7.659  -8.396   7.990  1.00  0.00     0.031 A 
BRANCH  24  38
ATOM     38  C   UNL     1       5.826  -2.609   9.271  1.00  0.00    -0.014 A 
ATOM     39  C   UNL     1       6.943  -2.120   9.966  1.00  0.00     0.009 A 
ATOM     40  C   UNL     1       4.552  -2.137   9.632  1.00  0.00     0.009 A 
ATOM     41  C   UNL     1       6.788  -1.201  11.009  1.00  0.00     0.001 A 
ATOM     42  C   UNL     1       4.401  -1.196  10.655  1.00  0.00     0.001 A 
ATOM     43  C   UNL     1       5.518  -0.738  11.350  1.00  0.00     0.000 A 
ENDBRANCH  24  38
BRANCH  25  44
ATOM     44  C   UNL     1       6.987  -9.513   2.043  1.00  0.00    -0.014 A 
ATOM     45  C   UNL     1       7.860  -9.262   0.971  1.00  0.00     0.009 A 
ATOM     46  C   UNL     1       6.116 -10.609   1.968  1.00  0.00     0.009 A 
ATOM     47  C   UNL     1       7.834 -10.072  -0.167  1.00  0.00     0.001 A 
ATOM     48  C   UNL     1       6.112 -11.433   0.841  1.00  0.00     0.001 A 
ATOM     49  C   UNL     1       6.960 -11.156  -0.230  1.00  0.00     0.000 A 
ENDBRANCH  25  44
BRANCH  37  50
ATOM     50  C   UNL     1       8.220  -9.423   8.933  1.00  0.00    -0.014 A 
ATOM     51  C   UNL     1       7.417  -9.960   9.950  1.00  0.00     0.009 A 
ATOM     52  C   UNL     1       9.564  -9.821   8.845  1.00  0.00     0.009 A 
ATOM     53  C   UNL     1       7.949 -10.871  10.863  1.00  0.00     0.001 A 
ATOM     54  C   UNL     1      10.083 -10.762   9.734  1.00  0.00     0.001 A 
ATOM     55  C   UNL     1       9.277 -11.279  10.747  1.00  0.00     0.000 A 
ENDBRANCH  37  50
ENDBRANCH  11  12
ENDBRANCH   4   6
ENDBRANCH   3   4
ENDBRANCH   2   3
ENDBRANCH   1   2
BRANCH   1  56
ATOM     56  O   UNL     1       4.293   0.362   1.321  1.00  0.00    -0.374 OA
BRANCH  56  57
ATOM     57  C   UNL     1       3.001   0.867   1.660  1.00  0.00     0.202 C 
BRANCH  57  58
ATOM     58  C   UNL     1       2.935   2.318   2.154  1.00  0.00     0.261 C 
BRANCH  58  59
ATOM     59  O   UNL     1       3.424   3.268   1.193  1.00  0.00    -0.459 OA
BRANCH  59  60
ATOM     60  C   UNL     1       4.739   3.623   1.355  1.00  0.00     0.365 C 
ATOM     61  O   UNL     1       5.480   3.189   2.220  1.00  0.00    -0.245 OA
BRANCH  60  62
ATOM     62  C   UNL     1       5.173   4.649   0.292  1.00  0.00     0.298 C 
ATOM     63  C   UNL     1       5.040   4.179  -1.190  1.00  0.00     0.111 C 
ATOM     64  N   UNL     1       4.460   5.910   0.602  1.00  0.00    -0.326 N 
ATOM     65  C   UNL     1       3.939   4.914  -1.873  1.00  0.00    -0.024 C 
ATOM     66  C   UNL     1       4.625   6.897  -0.490  1.00  0.00     0.243 C 
ATOM     67  H   UNL     1       4.836   6.301   1.465  1.00  0.00     0.347 HD
ATOM     68  H   UNL     1       3.466   5.703   0.705  1.00  0.00     0.347 HD
ATOM     69  C   UNL     1       2.758   4.502  -2.324  1.00  0.00     0.002 A 
ATOM     70  C   UNL     1       4.043   6.416  -1.860  1.00  0.00     0.196 C 
ATOM     71  C   UNL     1       2.101   3.248  -2.502  1.00  0.00     0.010 A 
ATOM     72  C   UNL     1       2.033   5.779  -2.465  1.00  0.00     0.066 A 
ATOM     73  N   UNL     1       2.665   6.874  -2.174  1.00  0.00    -0.270 NA
ATOM     74  C   UNL     1       0.806   3.241  -2.860  1.00  0.00     0.001 A 
ATOM     75  C   UNL     1       0.613   5.689  -2.863  1.00  0.00     0.028 A 
ATOM     76  C   UNL     1       0.062   4.476  -3.041  1.00  0.00     0.002 A 
BRANCH  66  77
ATOM     77  C   UNL     1       4.153   8.255  -0.024  1.00  0.00     0.012 A 
ATOM     78  C   UNL     1       2.924   8.412   0.638  1.00  0.00     0.010 A 
ATOM     79  C   UNL     1       4.972   9.377  -0.205  1.00  0.00     0.010 A 
ATOM     80  C   UNL     1       2.540   9.653   1.139  1.00  0.00     0.001 A 
ATOM     81  C   UNL     1       4.582  10.620   0.288  1.00  0.00     0.001 A 
ATOM     82  C   UNL     1       3.372  10.755   0.966  1.00  0.00     0.000 A 
ENDBRANCH  66  77
ENDBRANCH  60  62
ENDBRANCH  59  60
ENDBRANCH  58  59
ENDBRANCH  57  58
ENDBRANCH  56  57
ENDBRANCH   1  56
TORSDOF 15
