REMARK SMILES Cc1ccc(C(=O)OCCOCCOC(=O)c2ccc(-c3c4nc(c(-c5ccccc5)c5ccc([nH]5)c(-c5ccccc5)c5nc(c(-c6ccccc6)c6ccc3[nH]6)C=C5)C=C4)cc2)cc1S(=O)(=O)N(C)[C@H]1CCSC1
REMARK SMILES IDX 10 1 9 2 8 3 6 4 7 5 5 6 1 7 2 8 3 9 66 10 4 11 65 12 67 13
REMARK SMILES IDX 68 14 69 15 70 16 71 17 72 18 73 19 76 20 74 21 75 22 11 23
REMARK SMILES IDX 12 24 13 25 14 26 15 27 16 28 17 29 18 30 64 31 19 32 63 33
REMARK SMILES IDX 20 34 21 35 22 36 57 37 23 38 62 39 56 40 58 41 24 42 61 43
REMARK SMILES IDX 55 44 54 45 25 47 47 48 32 49 46 50 33 51 36 52 45 53 59 54
REMARK SMILES IDX 34 55 35 56 44 58 60 59 37 60 26 61 27 62 31 63 28 64 30 65
REMARK SMILES IDX 29 66 48 67 49 68 53 69 50 70 52 71 51 72 38 73 39 74 43 75
REMARK SMILES IDX 40 76 42 77 41 78
REMARK H PARENT 58 46 36 57
REMARK Flexibility Score: inf
ROOT
ATOM      1  C   UNL     1      -2.973   3.414  -4.210  1.00  0.00     0.202 C 
ENDROOT
BRANCH   1   2
ATOM      2  C   UNL     1      -3.295   4.204  -2.984  1.00  0.00     0.261 C 
BRANCH   2   3
ATOM      3  O   UNL     1      -2.398   3.879  -1.912  1.00  0.00    -0.460 OA
BRANCH   3   4
ATOM      4  C   UNL     1      -2.478   2.696  -1.240  1.00  0.00     0.338 C 
ATOM      5  O   UNL     1      -3.424   1.961  -1.077  1.00  0.00    -0.246 OA
BRANCH   4   6
ATOM      6  C   UNL     1      -1.085   2.333  -0.913  1.00  0.00     0.061 A 
ATOM      7  C   UNL     1       2.964   0.950  -1.207  1.00  0.00     0.046 C 
ATOM      8  C   UNL     1       1.603   1.555  -1.064  1.00  0.00    -0.031 A 
ATOM      9  C   UNL     1       0.584   0.628  -0.737  1.00  0.00     0.006 A 
ATOM     10  C   UNL     1       1.236   2.896  -1.281  1.00  0.00     0.086 A 
ATOM     11  C   UNL     1      -0.755   1.003  -0.689  1.00  0.00     0.016 A 
ATOM     12  C   UNL     1      -0.087   3.283  -1.098  1.00  0.00     0.037 A 
BRANCH  10  13
ATOM     13  S   UNL     1       2.230   4.224  -1.950  1.00  0.00     0.243 S 
ATOM     14  O   UNL     1       2.345   3.983  -3.370  1.00  0.00    -0.207 OA
ATOM     15  O   UNL     1       1.680   5.470  -1.447  1.00  0.00    -0.207 OA
BRANCH  13  16
ATOM     16  N   UNL     1       3.716   4.054  -1.213  1.00  0.00    -0.197 NA
ATOM     17  C   UNL     1       4.863   3.735  -2.059  1.00  0.00     0.125 C 
BRANCH  16  18
ATOM     18  C   UNL     1       3.790   4.307   0.235  1.00  0.00     0.083 C 
ATOM     19  C   UNL     1       4.659   3.321   1.001  1.00  0.00     0.032 C 
ATOM     20  C   UNL     1       4.281   5.701   0.604  1.00  0.00     0.089 C 
ATOM     21  C   UNL     1       4.530   3.751   2.451  1.00  0.00     0.071 C 
ATOM     22  S   UNL     1       4.665   5.564   2.386  1.00  0.00    -0.160 SA
ENDBRANCH  16  18
ENDBRANCH  13  16
ENDBRANCH  10  13
ENDBRANCH   4   6
ENDBRANCH   3   4
ENDBRANCH   2   3
ENDBRANCH   1   2
BRANCH   1  23
ATOM     23  O   UNL     1      -3.361   2.085  -3.908  1.00  0.00    -0.374 OA
BRANCH  23  24
ATOM     24  C   UNL     1      -3.198   1.154  -4.955  1.00  0.00     0.202 C 
BRANCH  24  25
ATOM     25  C   UNL     1      -4.038   1.508  -6.189  1.00  0.00     0.261 C 
BRANCH  25  26
ATOM     26  O   UNL     1      -5.438   1.540  -5.828  1.00  0.00    -0.460 OA
BRANCH  26  27
ATOM     27  C   UNL     1      -6.002   2.771  -5.668  1.00  0.00     0.338 C 
ATOM     28  O   UNL     1      -5.878   3.712  -6.435  1.00  0.00    -0.246 OA
BRANCH  27  29
ATOM     29  C   UNL     1      -6.555   2.898  -4.285  1.00  0.00     0.060 A 
ATOM     30  C   UNL     1      -6.955   4.157  -3.789  1.00  0.00     0.016 A 
ATOM     31  C   UNL     1      -6.339   1.850  -3.398  1.00  0.00     0.016 A 
ATOM     32  C   UNL     1      -6.961   4.406  -2.404  1.00  0.00     0.010 A 
ATOM     33  C   UNL     1      -6.242   2.134  -2.053  1.00  0.00     0.010 A 
ATOM     34  C   UNL     1      -6.506   3.416  -1.538  1.00  0.00    -0.014 A 
BRANCH  34  35
ATOM     35  C   UNL     1      -6.111   3.596  -0.130  1.00  0.00     0.031 A 
ATOM     36  C   UNL     1      -6.719   2.711   0.888  1.00  0.00     0.074 A 
ATOM     37  C   UNL     1      -4.985   4.283   0.197  1.00  0.00     0.049 A 
ATOM     38  N   UNL     1      -6.561   2.857   2.158  1.00  0.00    -0.248 NA
ATOM     39  C   UNL     1      -7.598   1.585   0.569  1.00  0.00     0.031 C 
ATOM     40  C   UNL     1      -4.091   4.084   1.343  1.00  0.00     0.029 A 
ATOM     41  N   UNL     1      -4.356   5.321  -0.487  1.00  0.00    -0.354 N 
ATOM     42  C   UNL     1      -6.915   1.667   2.747  1.00  0.00     0.074 A 
ATOM     43  C   UNL     1      -7.703   0.983   1.756  1.00  0.00     0.031 C 
ATOM     44  C   UNL     1      -3.219   5.106   1.430  1.00  0.00     0.029 A 
ATOM     45  C   UNL     1      -3.589   6.074   0.413  1.00  0.00     0.049 A 
ATOM     46  H   UNL     1      -4.436   5.498  -1.452  1.00  0.00     0.167 HD
ATOM     47  C   UNL     1      -6.336   1.335   3.935  1.00  0.00     0.031 A 
ATOM     48  C   UNL     1      -3.816   7.407   0.555  1.00  0.00     0.031 A 
ATOM     49  C   UNL     1      -5.497   2.436   4.443  1.00  0.00     0.049 A 
ATOM     50  C   UNL     1      -4.369   7.603   1.937  1.00  0.00     0.074 A 
ATOM     51  C   UNL     1      -4.130   2.594   4.600  1.00  0.00     0.029 A 
ATOM     52  N   UNL     1      -6.050   3.713   4.566  1.00  0.00    -0.354 N 
ATOM     53  N   UNL     1      -4.961   6.635   2.585  1.00  0.00    -0.248 NA
ATOM     54  C   UNL     1      -4.194   8.799   2.753  1.00  0.00     0.031 C 
ATOM     55  C   UNL     1      -3.863   3.990   4.724  1.00  0.00     0.029 A 
ATOM     56  C   UNL     1      -5.066   4.678   4.673  1.00  0.00     0.049 A 
ATOM     57  H   UNL     1      -7.016   3.902   4.576  1.00  0.00     0.167 HD
ATOM     58  C   UNL     1      -5.074   6.977   3.891  1.00  0.00     0.074 A 
ATOM     59  C   UNL     1      -4.673   8.374   3.938  1.00  0.00     0.031 C 
ATOM     60  C   UNL     1      -5.419   6.084   4.858  1.00  0.00     0.031 A 
BRANCH  47  61
ATOM     61  C   UNL     1      -6.315  -0.069   4.514  1.00  0.00    -0.014 A 
ATOM     62  C   UNL     1      -5.496  -0.347   5.624  1.00  0.00     0.009 A 
ATOM     63  C   UNL     1      -7.021  -1.174   4.000  1.00  0.00     0.009 A 
ATOM     64  C   UNL     1      -5.365  -1.641   6.157  1.00  0.00     0.001 A 
ATOM     65  C   UNL     1      -6.900  -2.469   4.526  1.00  0.00     0.001 A 
ATOM     66  C   UNL     1      -6.065  -2.705   5.604  1.00  0.00     0.000 A 
ENDBRANCH  47  61
BRANCH  48  67
ATOM     67  C   UNL     1      -4.222   8.027  -0.748  1.00  0.00    -0.014 A 
ATOM     68  C   UNL     1      -3.213   8.138  -1.737  1.00  0.00     0.009 A 
ATOM     69  C   UNL     1      -5.557   7.988  -1.181  1.00  0.00     0.009 A 
ATOM     70  C   UNL     1      -3.519   8.051  -3.103  1.00  0.00     0.001 A 
ATOM     71  C   UNL     1      -5.857   7.901  -2.552  1.00  0.00     0.001 A 
ATOM     72  C   UNL     1      -4.839   7.886  -3.507  1.00  0.00     0.000 A 
ENDBRANCH  48  67
BRANCH  60  73
ATOM     73  C   UNL     1      -6.095   6.499   6.126  1.00  0.00    -0.014 A 
ATOM     74  C   UNL     1      -6.795   7.707   6.245  1.00  0.00     0.009 A 
ATOM     75  C   UNL     1      -6.230   5.562   7.169  1.00  0.00     0.009 A 
ATOM     76  C   UNL     1      -7.556   7.988   7.380  1.00  0.00     0.001 A 
ATOM     77  C   UNL     1      -7.037   5.815   8.275  1.00  0.00     0.001 A 
ATOM     78  C   UNL     1      -7.688   7.036   8.386  1.00  0.00     0.000 A 
ENDBRANCH  60  73
ENDBRANCH  34  35
ENDBRANCH  27  29
ENDBRANCH  26  27
ENDBRANCH  25  26
ENDBRANCH  24  25
ENDBRANCH  23  24
ENDBRANCH   1  23
TORSDOF 17
