REMARK SMILES Cc1ccc2c(c1)c(-c1ccnc3c(C)cccc13)c(C)n2CC(=O)OCCOCCOC(=O)c1ccc(-c2c3nc(c(-c4ccccc4)c4ccc([nH]4)c(-c4ccccc4)c4nc(c(-c5ccccc5)c5ccc2[nH]5)C=C4)C=C3)cc1
REMARK SMILES IDX 29 1 28 2 27 3 26 4 24 5 25 6 23 7 22 8 1 9 2 10 3 11 7 12
REMARK SMILES IDX 4 13 6 14 5 15 8 16 20 17 21 18 9 19 10 20 19 21 11 22 13 23
REMARK SMILES IDX 18 24 12 25 14 26 17 27 15 28 16 29 30 30 31 31 32 32 33 33
REMARK SMILES IDX 34 34 35 35 36 36 82 37 37 38 81 39 38 40 39 41 40 42 75 43
REMARK SMILES IDX 41 44 80 45 74 46 76 47 42 48 79 49 73 50 72 51 43 53 65 54
REMARK SMILES IDX 50 55 64 56 51 57 54 58 63 59 77 60 52 61 53 62 62 64 78 65
REMARK SMILES IDX 55 66 44 67 45 68 49 69 46 70 48 71 47 72 66 73 67 74 71 75
REMARK SMILES IDX 68 76 70 77 69 78 56 79 57 80 61 81 58 82 60 83 59 84
REMARK H PARENT 76 52 54 63
REMARK Flexibility Score: inf
ROOT
ATOM      1  O   UNL     1       0.491   3.181   9.450  1.00  0.00    -0.374 OA
ENDROOT
BRANCH   1   2
ATOM      2  C   UNL     1       1.349   2.057   9.381  1.00  0.00     0.202 C 
BRANCH   2   3
ATOM      3  C   UNL     1       0.902   0.783   8.643  1.00  0.00     0.261 C 
BRANCH   3   4
ATOM      4  O   UNL     1       0.337   1.025   7.338  1.00  0.00    -0.462 OA
BRANCH   4   5
ATOM      5  C   UNL     1      -0.954   0.628   7.195  1.00  0.00     0.326 C 
ATOM      6  O   UNL     1      -1.579   0.014   8.060  1.00  0.00    -0.250 OA
BRANCH   5   7
ATOM      7  C   UNL     1      -1.643   1.031   5.918  1.00  0.00     0.244 C 
BRANCH   7   8
ATOM      8  N   UNL     1      -0.881   1.729   4.879  1.00  0.00    -0.333 N 
ATOM      9  C   UNL     1       1.040  -0.082  -0.122  1.00  0.00     0.044 C 
ATOM     10  C   UNL     1       0.598   0.311   1.257  1.00  0.00    -0.050 A 
ATOM     11  C   UNL     1       0.186  -0.651   2.179  1.00  0.00     0.005 A 
ATOM     12  C   UNL     1       0.612   1.662   1.631  1.00  0.00     0.014 A 
ATOM     13  C   UNL     1      -0.274  -0.293   3.453  1.00  0.00     0.027 A 
ATOM     14  C   UNL     1       0.109   2.052   2.890  1.00  0.00     0.008 A 
ATOM     15  C   UNL     1      -0.346   1.073   3.775  1.00  0.00     0.049 A 
ATOM     16  C   UNL     1      -0.111   3.318   3.501  1.00  0.00     0.011 A 
ATOM     17  C   UNL     1      -0.897   3.099   4.628  1.00  0.00     0.024 A 
ATOM     18  C   UNL     1      -1.700   4.095   5.401  1.00  0.00     0.065 C 
BRANCH  16  19
ATOM     19  C   UNL     1       0.186   4.639   2.945  1.00  0.00    -0.005 A 
ATOM     20  C   UNL     1      -0.735   5.216   2.077  1.00  0.00     0.029 A 
ATOM     21  C   UNL     1       1.395   5.322   3.241  1.00  0.00     0.008 A 
ATOM     22  C   UNL     1      -0.451   6.469   1.578  1.00  0.00     0.112 A 
ATOM     23  C   UNL     1       1.567   6.629   2.720  1.00  0.00     0.074 A 
ATOM     24  C   UNL     1       2.435   4.754   4.007  1.00  0.00     0.011 A 
ATOM     25  N   UNL     1       0.648   7.180   1.903  1.00  0.00    -0.256 NA
ATOM     26  C   UNL     1       2.726   7.347   3.059  1.00  0.00    -0.025 A 
ATOM     27  C   UNL     1       3.591   5.469   4.300  1.00  0.00     0.001 A 
ATOM     28  C   UNL     1       2.972   8.752   2.577  1.00  0.00     0.047 C 
ATOM     29  C   UNL     1       3.720   6.774   3.865  1.00  0.00     0.005 A 
ENDBRANCH  16  19
ENDBRANCH   7   8
ENDBRANCH   5   7
ENDBRANCH   4   5
ENDBRANCH   3   4
ENDBRANCH   2   3
ENDBRANCH   1   2
BRANCH   1  30
ATOM     30  C   UNL     1       0.169   3.819   8.225  1.00  0.00     0.202 C 
BRANCH  30  31
ATOM     31  C   UNL     1       1.300   4.425   7.377  1.00  0.00     0.261 C 
BRANCH  31  32
ATOM     32  O   UNL     1       2.321   3.482   7.043  1.00  0.00    -0.460 OA
BRANCH  32  33
ATOM     33  C   UNL     1       3.597   3.941   7.214  1.00  0.00     0.338 C 
ATOM     34  O   UNL     1       3.971   5.081   7.331  1.00  0.00    -0.246 OA
BRANCH  33  35
ATOM     35  C   UNL     1       4.372   2.776   7.676  1.00  0.00     0.060 A 
ATOM     36  C   UNL     1       4.217   1.514   7.094  1.00  0.00     0.016 A 
ATOM     37  C   UNL     1       4.879   2.940   8.971  1.00  0.00     0.016 A 
ATOM     38  C   UNL     1       4.419   0.396   7.891  1.00  0.00     0.010 A 
ATOM     39  C   UNL     1       5.008   1.828   9.778  1.00  0.00     0.010 A 
ATOM     40  C   UNL     1       4.715   0.567   9.254  1.00  0.00    -0.014 A 
BRANCH  40  41
ATOM     41  C   UNL     1       4.957  -0.610  10.082  1.00  0.00     0.031 A 
ATOM     42  C   UNL     1       6.285  -1.196   9.786  1.00  0.00     0.074 A 
ATOM     43  C   UNL     1       4.187  -1.020  11.110  1.00  0.00     0.049 A 
ATOM     44  N   UNL     1       6.536  -2.351   9.270  1.00  0.00    -0.248 NA
ATOM     45  C   UNL     1       7.457  -0.304   9.881  1.00  0.00     0.031 C 
ATOM     46  C   UNL     1       3.005  -0.372  11.663  1.00  0.00     0.029 A 
ATOM     47  N   UNL     1       4.364  -2.061  11.972  1.00  0.00    -0.354 N 
ATOM     48  C   UNL     1       7.919  -2.400   9.155  1.00  0.00     0.074 A 
ATOM     49  C   UNL     1       8.393  -1.051   9.303  1.00  0.00     0.031 C 
ATOM     50  C   UNL     1       2.730  -0.858  12.892  1.00  0.00     0.029 A 
ATOM     51  C   UNL     1       3.638  -1.952  13.156  1.00  0.00     0.049 A 
ATOM     52  H   UNL     1       4.955  -2.823  11.774  1.00  0.00     0.167 HD
ATOM     53  C   UNL     1       8.599  -3.571   9.261  1.00  0.00     0.031 A 
ATOM     54  C   UNL     1       3.805  -2.665  14.299  1.00  0.00     0.031 A 
ATOM     55  C   UNL     1       7.732  -4.704   9.073  1.00  0.00     0.049 A 
ATOM     56  C   UNL     1       4.577  -3.876  13.948  1.00  0.00     0.074 A 
ATOM     57  C   UNL     1       6.950  -5.157   8.031  1.00  0.00     0.029 A 
ATOM     58  N   UNL     1       7.271  -5.330  10.206  1.00  0.00    -0.354 N 
ATOM     59  N   UNL     1       4.113  -4.828  13.192  1.00  0.00    -0.248 NA
ATOM     60  C   UNL     1       6.025  -3.797  14.044  1.00  0.00     0.031 C 
ATOM     61  C   UNL     1       5.782  -5.684   8.650  1.00  0.00     0.029 A 
ATOM     62  C   UNL     1       5.939  -5.602  10.035  1.00  0.00     0.049 A 
ATOM     63  H   UNL     1       7.806  -5.546  11.003  1.00  0.00     0.167 HD
ATOM     64  C   UNL     1       5.179  -5.171  12.372  1.00  0.00     0.074 A 
ATOM     65  C   UNL     1       6.353  -4.570  13.006  1.00  0.00     0.031 C 
ATOM     66  C   UNL     1       4.970  -5.653  11.112  1.00  0.00     0.031 A 
BRANCH  53  67
ATOM     67  C   UNL     1       9.937  -3.668   9.950  1.00  0.00    -0.014 A 
ATOM     68  C   UNL     1      10.475  -2.652  10.768  1.00  0.00     0.009 A 
ATOM     69  C   UNL     1      10.584  -4.913   9.994  1.00  0.00     0.009 A 
ATOM     70  C   UNL     1      11.592  -2.854  11.579  1.00  0.00     0.001 A 
ATOM     71  C   UNL     1      11.678  -5.134  10.841  1.00  0.00     0.001 A 
ATOM     72  C   UNL     1      12.181  -4.105  11.632  1.00  0.00     0.000 A 
ENDBRANCH  53  67
BRANCH  54  73
ATOM     73  C   UNL     1       3.706  -2.171  15.695  1.00  0.00    -0.014 A 
ATOM     74  C   UNL     1       3.984  -0.821  15.988  1.00  0.00     0.009 A 
ATOM     75  C   UNL     1       3.631  -3.066  16.774  1.00  0.00     0.009 A 
ATOM     76  C   UNL     1       4.223  -0.391  17.298  1.00  0.00     0.001 A 
ATOM     77  C   UNL     1       3.871  -2.635  18.088  1.00  0.00     0.001 A 
ATOM     78  C   UNL     1       4.184  -1.302  18.347  1.00  0.00     0.000 A 
ENDBRANCH  54  73
BRANCH  66  79
ATOM     79  C   UNL     1       3.565  -6.051  10.711  1.00  0.00    -0.014 A 
ATOM     80  C   UNL     1       3.384  -7.331  10.164  1.00  0.00     0.009 A 
ATOM     81  C   UNL     1       2.485  -5.151  10.665  1.00  0.00     0.009 A 
ATOM     82  C   UNL     1       2.180  -7.694   9.559  1.00  0.00     0.001 A 
ATOM     83  C   UNL     1       1.266  -5.525  10.082  1.00  0.00     0.001 A 
ATOM     84  C   UNL     1       1.121  -6.791   9.516  1.00  0.00     0.000 A 
ENDBRANCH  66  79
ENDBRANCH  40  41
ENDBRANCH  33  35
ENDBRANCH  32  33
ENDBRANCH  31  32
ENDBRANCH  30  31
ENDBRANCH   1  30
TORSDOF 16
