REMARK SMILES Cc1cc2c(c(C)c1Cl)C=C(C(=O)OCCOCCOC(=O)c1ccc(-c3c4nc(c(-c5ccccc5)c5ccc([nH]5)c(-c5ccccc5)c5nc(c(-c6ccccc6)c6ccc3[nH]6)C=C5)C=C4)cc1)[C@H](C(F)(F)F)O2
REMARK SMILES IDX 18 1 17 2 16 3 15 4 14 5 12 6 13 7 11 8 1 9 2 10 3 11 8 12
REMARK SMILES IDX 4 13 6 14 9 15 5 16 76 17 7 18 10 19 71 20 72 21 73 22 74 23
REMARK SMILES IDX 75 24 19 25 20 26 21 27 22 28 23 29 24 30 70 31 25 32 69 33
REMARK SMILES IDX 26 34 27 35 28 36 63 37 29 38 68 39 62 40 64 41 30 42 67 43
REMARK SMILES IDX 61 44 60 45 31 47 53 48 38 49 52 50 39 51 42 52 51 53 65 54
REMARK SMILES IDX 40 55 41 56 50 58 66 59 43 60 32 61 33 62 37 63 34 64 36 65
REMARK SMILES IDX 35 66 54 67 55 68 59 69 56 70 58 71 57 72 44 73 45 74 49 75
REMARK SMILES IDX 46 76 48 77 47 78
REMARK H PARENT 64 46 42 57
REMARK Flexibility Score: inf
ROOT
ATOM      1  C   UNL     1       0.682  -3.955   8.045  1.00  0.00     0.202 C 
ENDROOT
BRANCH   1   2
ATOM      2  O   UNL     1      -0.329  -4.583   8.838  1.00  0.00    -0.374 OA
BRANCH   2   3
ATOM      3  C   UNL     1      -0.606  -5.956   8.561  1.00  0.00     0.202 C 
BRANCH   3   4
ATOM      4  C   UNL     1      -1.676  -6.221   7.500  1.00  0.00     0.261 C 
BRANCH   4   5
ATOM      5  O   UNL     1      -1.217  -5.777   6.211  1.00  0.00    -0.460 OA
BRANCH   5   6
ATOM      6  C   UNL     1      -1.752  -4.611   5.802  1.00  0.00     0.338 C 
ATOM      7  O   UNL     1      -2.734  -4.066   6.283  1.00  0.00    -0.246 OA
BRANCH   6   8
ATOM      8  C   UNL     1      -0.922  -3.999   4.745  1.00  0.00     0.087 C 
ATOM      9  C   UNL     1       1.076  -0.159  -0.075  1.00  0.00     0.046 C 
ATOM     10  C   UNL     1       0.569  -0.743   1.217  1.00  0.00    -0.028 A 
ATOM     11  C   UNL     1       0.584  -2.140   1.353  1.00  0.00     0.052 A 
ATOM     12  C   UNL     1       0.115   0.047   2.293  1.00  0.00     0.047 A 
ATOM     13  C   UNL     1       0.103  -2.750   2.508  1.00  0.00     0.128 A 
ATOM     14  C   UNL     1      -0.377  -0.553   3.475  1.00  0.00    -0.021 A 
ATOM     15  Cl  UNL     1       0.149   1.778   2.140  1.00  0.00    -0.084 Cl
ATOM     16  C   UNL     1      -0.388  -1.968   3.561  1.00  0.00     0.022 A 
ATOM     17  O   UNL     1       0.070  -4.122   2.492  1.00  0.00    -0.475 OA
ATOM     18  C   UNL     1      -0.908   0.268   4.629  1.00  0.00     0.047 C 
ATOM     19  C   UNL     1      -1.011  -2.665   4.678  1.00  0.00     0.027 C 
ATOM     20  C   UNL     1      -0.133  -4.814   3.760  1.00  0.00     0.316 C 
BRANCH  20  21
ATOM     21  C   UNL     1       1.234  -5.331   4.258  1.00  0.00     0.430 C 
ATOM     22  F   UNL     1       2.152  -4.342   4.360  1.00  0.00    -0.167 F 
ATOM     23  F   UNL     1       1.172  -5.934   5.465  1.00  0.00    -0.167 F 
ATOM     24  F   UNL     1       1.734  -6.257   3.400  1.00  0.00    -0.167 F 
ENDBRANCH  20  21
ENDBRANCH   6   8
ENDBRANCH   5   6
ENDBRANCH   4   5
ENDBRANCH   3   4
ENDBRANCH   2   3
ENDBRANCH   1   2
BRANCH   1  25
ATOM     25  C   UNL     1       2.140  -4.248   8.426  1.00  0.00     0.261 C 
BRANCH  25  26
ATOM     26  O   UNL     1       2.502  -5.611   8.136  1.00  0.00    -0.460 OA
BRANCH  26  27
ATOM     27  C   UNL     1       2.588  -6.423   9.214  1.00  0.00     0.338 C 
ATOM     28  O   UNL     1       2.512  -6.101  10.390  1.00  0.00    -0.246 OA
BRANCH  27  29
ATOM     29  C   UNL     1       2.569  -7.833   8.775  1.00  0.00     0.060 A 
ATOM     30  C   UNL     1       1.665  -8.692   9.415  1.00  0.00     0.016 A 
ATOM     31  C   UNL     1       3.429  -8.320   7.789  1.00  0.00     0.016 A 
ATOM     32  C   UNL     1       1.655 -10.051   9.113  1.00  0.00     0.010 A 
ATOM     33  C   UNL     1       3.426  -9.688   7.494  1.00  0.00     0.010 A 
ATOM     34  C   UNL     1       2.567 -10.565   8.182  1.00  0.00    -0.014 A 
BRANCH  34  35
ATOM     35  C   UNL     1       2.730 -12.034   8.062  1.00  0.00     0.031 A 
ATOM     36  C   UNL     1       3.878 -12.697   8.774  1.00  0.00     0.074 A 
ATOM     37  C   UNL     1       1.838 -12.779   7.385  1.00  0.00     0.049 A 
ATOM     38  N   UNL     1       4.206 -13.963   8.816  1.00  0.00    -0.248 NA
ATOM     39  C   UNL     1       4.772 -11.817   9.545  1.00  0.00     0.031 C 
ATOM     40  C   UNL     1       0.649 -12.267   6.707  1.00  0.00     0.029 A 
ATOM     41  N   UNL     1       1.794 -14.135   7.169  1.00  0.00    -0.354 N 
ATOM     42  C   UNL     1       5.340 -14.031   9.616  1.00  0.00     0.074 A 
ATOM     43  C   UNL     1       5.667 -12.677  10.007  1.00  0.00     0.031 C 
ATOM     44  C   UNL     1      -0.015 -13.299   6.157  1.00  0.00     0.029 A 
ATOM     45  C   UNL     1       0.720 -14.537   6.413  1.00  0.00     0.049 A 
ATOM     46  H   UNL     1       2.467 -14.759   7.523  1.00  0.00     0.167 HD
ATOM     47  C   UNL     1       6.039 -15.123  10.004  1.00  0.00     0.031 A 
ATOM     48  C   UNL     1       0.376 -15.761   5.968  1.00  0.00     0.031 A 
ATOM     49  C   UNL     1       5.724 -16.469   9.609  1.00  0.00     0.049 A 
ATOM     50  C   UNL     1       1.231 -16.948   6.325  1.00  0.00     0.074 A 
ATOM     51  C   UNL     1       6.376 -17.640   9.953  1.00  0.00     0.029 A 
ATOM     52  N   UNL     1       4.673 -16.823   8.779  1.00  0.00    -0.354 N 
ATOM     53  N   UNL     1       2.294 -17.001   7.091  1.00  0.00    -0.248 NA
ATOM     54  C   UNL     1       0.836 -18.247   5.758  1.00  0.00     0.031 C 
ATOM     55  C   UNL     1       5.757 -18.697   9.280  1.00  0.00     0.029 A 
ATOM     56  C   UNL     1       4.677 -18.192   8.574  1.00  0.00     0.049 A 
ATOM     57  H   UNL     1       4.020 -16.195   8.393  1.00  0.00     0.167 HD
ATOM     58  C   UNL     1       2.678 -18.337   7.119  1.00  0.00     0.074 A 
ATOM     59  C   UNL     1       1.725 -19.064   6.307  1.00  0.00     0.031 C 
ATOM     60  C   UNL     1       3.726 -18.907   7.762  1.00  0.00     0.031 A 
BRANCH  47  61
ATOM     61  C   UNL     1       7.233 -14.909  10.892  1.00  0.00    -0.014 A 
ATOM     62  C   UNL     1       7.081 -14.535  12.236  1.00  0.00     0.009 A 
ATOM     63  C   UNL     1       8.524 -15.148  10.394  1.00  0.00     0.009 A 
ATOM     64  C   UNL     1       8.200 -14.385  13.059  1.00  0.00     0.001 A 
ATOM     65  C   UNL     1       9.638 -15.027  11.226  1.00  0.00     0.001 A 
ATOM     66  C   UNL     1       9.476 -14.640  12.556  1.00  0.00     0.000 A 
ENDBRANCH  47  61
BRANCH  48  67
ATOM     67  C   UNL     1      -0.841 -15.929   5.129  1.00  0.00    -0.014 A 
ATOM     68  C   UNL     1      -1.961 -16.613   5.624  1.00  0.00     0.009 A 
ATOM     69  C   UNL     1      -0.888 -15.405   3.827  1.00  0.00     0.009 A 
ATOM     70  C   UNL     1      -3.098 -16.781   4.828  1.00  0.00     0.001 A 
ATOM     71  C   UNL     1      -2.036 -15.548   3.045  1.00  0.00     0.001 A 
ATOM     72  C   UNL     1      -3.137 -16.242   3.543  1.00  0.00     0.000 A 
ENDBRANCH  48  67
BRANCH  60  73
ATOM     73  C   UNL     1       3.898 -20.397   7.641  1.00  0.00    -0.014 A 
ATOM     74  C   UNL     1       4.337 -20.984   6.444  1.00  0.00     0.009 A 
ATOM     75  C   UNL     1       3.702 -21.215   8.766  1.00  0.00     0.009 A 
ATOM     76  C   UNL     1       4.555 -22.361   6.371  1.00  0.00     0.001 A 
ATOM     77  C   UNL     1       3.951 -22.587   8.699  1.00  0.00     0.001 A 
ATOM     78  C   UNL     1       4.371 -23.160   7.500  1.00  0.00     0.000 A 
ENDBRANCH  60  73
ENDBRANCH  34  35
ENDBRANCH  27  29
ENDBRANCH  26  27
ENDBRANCH  25  26
ENDBRANCH   1  25
TORSDOF 15
