REMARK SMILES O=C(OCCOCCOC(=O)c1ccccc1Sc1ccc(S(=O)(=O)N2CCCC2)cc1[N+](=O)[O-])c1ccc(-c2c3nc(c(-c4ccccc4)c4ccc([nH]4)c(-c4ccccc4)c4nc(c(-c5ccccc5)c5ccc2[nH]5)C=C4)C=C3)cc1
REMARK SMILES IDX 7 1 6 2 5 3 4 4 3 5 2 6 1 7 36 8 37 9 83 10 38 11 82 12
REMARK SMILES IDX 39 13 40 14 41 15 76 16 42 17 81 18 75 19 77 20 43 21 80 22
REMARK SMILES IDX 74 23 73 24 44 26 66 27 51 28 65 29 52 30 55 31 64 32 78 33
REMARK SMILES IDX 53 34 54 35 63 37 79 38 56 39 45 40 46 41 50 42 47 43 49 44
REMARK SMILES IDX 48 45 67 46 68 47 72 48 69 49 71 50 70 51 57 52 58 53 62 54
REMARK SMILES IDX 59 55 61 56 60 57 8 58 9 59 10 60 11 61 12 62 13 63 17 64
REMARK SMILES IDX 14 65 16 66 15 67 18 68 19 69 20 70 32 71 21 72 31 73 22 74
REMARK SMILES IDX 33 75 34 76 35 77 23 78 24 79 25 80 26 81 27 82 30 83 28 84
REMARK SMILES IDX 29 85
REMARK H PARENT 77 25 55 36
REMARK Flexibility Score: inf
ROOT
ATOM      1  C   UNL     1       2.690   0.328  -1.074  1.00  0.00     0.202 C 
ENDROOT
BRANCH   1   2
ATOM      2  O   UNL     1       4.079   0.056  -0.861  1.00  0.00    -0.374 OA
BRANCH   2   3
ATOM      3  C   UNL     1       4.425  -1.326  -0.939  1.00  0.00     0.202 C 
BRANCH   3   4
ATOM      4  C   UNL     1       4.265  -2.066   0.394  1.00  0.00     0.261 C 
BRANCH   4   5
ATOM      5  O   UNL     1       2.925  -1.955   0.908  1.00  0.00    -0.460 OA
BRANCH   5   6
ATOM      6  C   UNL     1       2.372  -1.025   1.721  1.00  0.00     0.338 C 
ATOM      7  O   UNL     1       1.173  -1.136   1.978  1.00  0.00    -0.246 OA
BRANCH   6   8
ATOM      8  C   UNL     1       3.102   0.140   2.330  1.00  0.00     0.060 A 
ATOM      9  C   UNL     1       4.376   0.591   1.978  1.00  0.00     0.016 A 
ATOM     10  C   UNL     1       2.411   0.865   3.323  1.00  0.00     0.016 A 
ATOM     11  C   UNL     1       4.982   1.652   2.635  1.00  0.00     0.010 A 
ATOM     12  C   UNL     1       3.012   1.932   4.000  1.00  0.00     0.010 A 
ATOM     13  C   UNL     1       4.326   2.282   3.688  1.00  0.00    -0.014 A 
BRANCH  13  14
ATOM     14  C   UNL     1       5.170   3.074   4.598  1.00  0.00     0.031 A 
ATOM     15  C   UNL     1       5.800   2.341   5.747  1.00  0.00     0.074 A 
ATOM     16  C   UNL     1       5.534   4.323   4.270  1.00  0.00     0.049 A 
ATOM     17  N   UNL     1       6.698   2.751   6.600  1.00  0.00    -0.248 NA
ATOM     18  C   UNL     1       5.388   0.936   5.932  1.00  0.00     0.031 C 
ATOM     19  C   UNL     1       5.075   5.048   3.085  1.00  0.00     0.029 A 
ATOM     20  N   UNL     1       6.417   5.178   4.870  1.00  0.00    -0.354 N 
ATOM     21  C   UNL     1       6.954   1.660   7.420  1.00  0.00     0.074 A 
ATOM     22  C   UNL     1       6.121   0.570   6.969  1.00  0.00     0.031 C 
ATOM     23  C   UNL     1       5.713   6.229   3.024  1.00  0.00     0.029 A 
ATOM     24  C   UNL     1       6.588   6.356   4.186  1.00  0.00     0.049 A 
ATOM     25  H   UNL     1       6.885   4.968   5.710  1.00  0.00     0.167 HD
ATOM     26  C   UNL     1       7.801   1.579   8.470  1.00  0.00     0.031 A 
ATOM     27  C   UNL     1       7.364   7.414   4.484  1.00  0.00     0.031 A 
ATOM     28  C   UNL     1       8.581   2.688   8.935  1.00  0.00     0.049 A 
ATOM     29  C   UNL     1       8.207   7.343   5.729  1.00  0.00     0.074 A 
ATOM     30  C   UNL     1       9.383   2.780  10.055  1.00  0.00     0.029 A 
ATOM     31  N   UNL     1       8.639   3.916   8.290  1.00  0.00    -0.354 N 
ATOM     32  N   UNL     1       8.389   6.332   6.546  1.00  0.00    -0.248 NA
ATOM     33  C   UNL     1       8.940   8.560   6.101  1.00  0.00     0.031 C 
ATOM     34  C   UNL     1       9.896   4.082  10.110  1.00  0.00     0.029 A 
ATOM     35  C   UNL     1       9.451   4.781   8.996  1.00  0.00     0.049 A 
ATOM     36  H   UNL     1       8.172   4.138   7.452  1.00  0.00     0.167 HD
ATOM     37  C   UNL     1       9.264   6.785   7.523  1.00  0.00     0.074 A 
ATOM     38  C   UNL     1       9.595   8.155   7.180  1.00  0.00     0.031 C 
ATOM     39  C   UNL     1       9.749   6.137   8.612  1.00  0.00     0.031 A 
BRANCH  26  40
ATOM     40  C   UNL     1       7.815   0.278   9.217  1.00  0.00    -0.014 A 
ATOM     41  C   UNL     1       8.447  -0.861   8.694  1.00  0.00     0.009 A 
ATOM     42  C   UNL     1       7.108   0.172  10.424  1.00  0.00     0.009 A 
ATOM     43  C   UNL     1       8.334  -2.092   9.347  1.00  0.00     0.001 A 
ATOM     44  C   UNL     1       7.014  -1.054  11.084  1.00  0.00     0.001 A 
ATOM     45  C   UNL     1       7.616  -2.187  10.539  1.00  0.00     0.000 A 
ENDBRANCH  26  40
BRANCH  27  46
ATOM     46  C   UNL     1       7.350   8.627   3.623  1.00  0.00    -0.014 A 
ATOM     47  C   UNL     1       8.492   9.025   2.912  1.00  0.00     0.009 A 
ATOM     48  C   UNL     1       6.186   9.408   3.519  1.00  0.00     0.009 A 
ATOM     49  C   UNL     1       8.473  10.187   2.132  1.00  0.00     0.001 A 
ATOM     50  C   UNL     1       6.161  10.551   2.717  1.00  0.00     0.001 A 
ATOM     51  C   UNL     1       7.308  10.945   2.032  1.00  0.00     0.000 A 
ENDBRANCH  27  46
BRANCH  39  52
ATOM     52  C   UNL     1      10.701   6.901   9.483  1.00  0.00    -0.014 A 
ATOM     53  C   UNL     1      10.240   7.900  10.354  1.00  0.00     0.009 A 
ATOM     54  C   UNL     1      12.066   6.581   9.462  1.00  0.00     0.009 A 
ATOM     55  C   UNL     1      11.140   8.586  11.169  1.00  0.00     0.001 A 
ATOM     56  C   UNL     1      12.958   7.252  10.297  1.00  0.00     0.001 A 
ATOM     57  C   UNL     1      12.496   8.260  11.143  1.00  0.00     0.000 A 
ENDBRANCH  39  52
ENDBRANCH  13  14
ENDBRANCH   6   8
ENDBRANCH   5   6
ENDBRANCH   4   5
ENDBRANCH   3   4
ENDBRANCH   2   3
ENDBRANCH   1   2
BRANCH   1  58
ATOM     58  C   UNL     1       2.530   1.210  -2.289  1.00  0.00     0.261 C 
BRANCH  58  59
ATOM     59  O   UNL     1       3.083   0.543  -3.429  1.00  0.00    -0.460 OA
BRANCH  59  60
ATOM     60  C   UNL     1       4.349   0.903  -3.744  1.00  0.00     0.339 C 
ATOM     61  O   UNL     1       5.044   1.762  -3.231  1.00  0.00    -0.246 OA
BRANCH  60  62
ATOM     62  C   UNL     1       4.801   0.013  -4.809  1.00  0.00     0.074 A 
ATOM     63  C   UNL     1       5.842  -0.860  -4.438  1.00  0.00     0.017 A 
ATOM     64  C   UNL     1       4.217  -0.033  -6.084  1.00  0.00     0.027 A 
ATOM     65  C   UNL     1       6.265  -1.857  -5.308  1.00  0.00     0.001 A 
ATOM     66  C   UNL     1       4.657  -1.068  -6.934  1.00  0.00     0.016 A 
ATOM     67  C   UNL     1       5.655  -1.975  -6.549  1.00  0.00     0.001 A 
BRANCH  64  68
ATOM     68  S   UNL     1       2.984   1.046  -6.824  1.00  0.00    -0.082 SA
BRANCH  68  69
ATOM     69  C   UNL     1       2.689   2.447  -5.755  1.00  0.00     0.090 A 
ATOM     70  C   UNL     1       1.371   2.501  -5.250  1.00  0.00     0.024 A 
ATOM     71  C   UNL     1       3.579   3.463  -5.351  1.00  0.00     0.284 A 
ATOM     72  C   UNL     1       0.989   3.444  -4.288  1.00  0.00     0.023 A 
ATOM     73  C   UNL     1       3.200   4.399  -4.358  1.00  0.00     0.108 A 
ATOM     74  C   UNL     1       1.922   4.362  -3.805  1.00  0.00     0.089 A 
BRANCH  71  75
ATOM     75  N   UNL     1       4.945   3.590  -5.890  1.00  0.00     0.063 N 
ATOM     76  O   UNL     1       5.732   4.330  -5.279  1.00  0.00    -0.258 OA
ATOM     77  O   UNL     1       5.229   3.005  -6.941  1.00  0.00    -0.258 OA
ENDBRANCH  71  75
BRANCH  74  78
ATOM     78  S   UNL     1       1.435   5.372  -2.416  1.00  0.00     0.243 S 
ATOM     79  O   UNL     1       0.723   6.496  -2.971  1.00  0.00    -0.207 OA
ATOM     80  O   UNL     1       0.812   4.456  -1.476  1.00  0.00    -0.207 OA
BRANCH  78  81
ATOM     81  N   UNL     1       2.830   5.927  -1.703  1.00  0.00    -0.198 NA
ATOM     82  C   UNL     1       3.564   7.093  -2.180  1.00  0.00     0.102 C 
ATOM     83  C   UNL     1       3.636   5.137  -0.779  1.00  0.00     0.102 C 
ATOM     84  C   UNL     1       5.032   6.748  -1.968  1.00  0.00     0.018 C 
ATOM     85  C   UNL     1       5.075   5.484  -1.119  1.00  0.00     0.018 C 
ENDBRANCH  78  81
ENDBRANCH  74  78
ENDBRANCH  68  69
ENDBRANCH  64  68
ENDBRANCH  60  62
ENDBRANCH  59  60
ENDBRANCH  58  59
ENDBRANCH   1  58
TORSDOF 19
