REMARK SMILES CC(C)CN(C1CCCC1)S(=O)(=O)c1[nH]ncc1C(=O)OCCOCCOC(=O)c1ccc(-c2c3nc(c(-c4ccccc4)c4ccc([nH]4)c(-c4ccccc4)c4nc(c(-c5ccccc5)c5ccc2[nH]5)C=C4)C=C3)cc1
REMARK SMILES IDX 23 1 22 2 21 3 19 4 20 5 18 6 14 7 15 8 16 9 17 11 11 12
REMARK SMILES IDX 12 13 13 14 5 15 4 16 2 17 1 18 3 19 6 20 7 21 10 22 8 23
REMARK SMILES IDX 9 24 24 25 25 26 26 27 27 28 28 29 29 30 30 31 31 32 77 33
REMARK SMILES IDX 32 34 76 35 33 36 34 37 35 38 70 39 36 40 75 41 69 42 71 43
REMARK SMILES IDX 37 44 74 45 68 46 67 47 38 49 60 50 45 51 59 52 46 53 49 54
REMARK SMILES IDX 58 55 72 56 47 57 48 58 57 60 73 61 50 62 39 63 40 64 44 65
REMARK SMILES IDX 41 66 43 67 42 68 61 69 62 70 66 71 63 72 65 73 64 74 51 75
REMARK SMILES IDX 52 76 56 77 53 78 55 79 54 80
REMARK H PARENT 15 10 71 48 49 59
REMARK Flexibility Score: inf
ROOT
ATOM      1  C   UNL     1      -5.377  -1.102  -4.093  1.00  0.00     0.202 C 
ENDROOT
BRANCH   1   2
ATOM      2  C   UNL     1      -5.405  -1.271  -2.574  1.00  0.00     0.261 C 
BRANCH   2   3
ATOM      3  O   UNL     1      -4.224  -1.886  -2.045  1.00  0.00    -0.460 OA
BRANCH   3   4
ATOM      4  C   UNL     1      -4.346  -3.192  -1.702  1.00  0.00     0.342 C 
ATOM      5  O   UNL     1      -5.389  -3.835  -1.774  1.00  0.00    -0.246 OA
BRANCH   4   6
ATOM      6  C   UNL     1      -3.105  -3.806  -1.292  1.00  0.00     0.118 A 
ATOM      7  C   UNL     1      -1.921  -3.240  -0.833  1.00  0.00     0.180 A 
ATOM      8  N   UNL     1      -1.088  -4.312  -0.621  1.00  0.00    -0.265 N 
ATOM      9  N   UNL     1      -1.637  -5.509  -0.872  1.00  0.00    -0.182 NA
ATOM     10  H   UNL     1      -0.160  -4.209  -0.309  1.00  0.00     0.191 HD
ATOM     11  C   UNL     1      -2.865  -5.200  -1.281  1.00  0.00     0.152 A 
BRANCH   7  12
ATOM     12  S   UNL     1      -1.224  -1.648  -0.582  1.00  0.00     0.261 S 
ATOM     13  O   UNL     1      -1.722  -0.822  -1.654  1.00  0.00    -0.205 OA
ATOM     14  O   UNL     1       0.180  -2.002  -0.535  1.00  0.00    -0.205 OA
BRANCH  12  15
ATOM     15  N   UNL     1      -1.588  -0.899   0.924  1.00  0.00    -0.193 NA
BRANCH  15  16
ATOM     16  C   UNL     1      -0.900   0.472   1.051  1.00  0.00     0.106 C 
BRANCH  16  17
ATOM     17  C   UNL     1       0.605   0.517   1.375  1.00  0.00    -0.002 C 
ATOM     18  C   UNL     1       1.520   0.383   0.153  1.00  0.00     0.009 C 
ATOM     19  C   UNL     1       0.902   1.891   2.009  1.00  0.00     0.009 C 
ENDBRANCH  16  17
ENDBRANCH  15  16
BRANCH  15  20
ATOM     20  C   UNL     1      -3.020  -0.705   1.379  1.00  0.00     0.073 C 
ATOM     21  C   UNL     1      -3.820   0.296   0.550  1.00  0.00     0.020 C 
ATOM     22  C   UNL     1      -3.909  -1.930   1.535  1.00  0.00     0.020 C 
ATOM     23  C   UNL     1      -5.260   0.034   0.952  1.00  0.00     0.002 C 
ATOM     24  C   UNL     1      -5.335  -1.463   1.214  1.00  0.00     0.002 C 
ENDBRANCH  15  20
ENDBRANCH  12  15
ENDBRANCH   7  12
ENDBRANCH   4   6
ENDBRANCH   3   4
ENDBRANCH   2   3
ENDBRANCH   1   2
BRANCH   1  25
ATOM     25  O   UNL     1      -5.213  -2.260  -4.901  1.00  0.00    -0.374 OA
BRANCH  25  26
ATOM     26  C   UNL     1      -3.940  -2.899  -4.945  1.00  0.00     0.202 C 
BRANCH  26  27
ATOM     27  C   UNL     1      -2.752  -2.173  -5.588  1.00  0.00     0.261 C 
BRANCH  27  28
ATOM     28  O   UNL     1      -2.425  -0.919  -4.973  1.00  0.00    -0.460 OA
BRANCH  28  29
ATOM     29  C   UNL     1      -2.749   0.165  -5.717  1.00  0.00     0.338 C 
ATOM     30  O   UNL     1      -3.293   0.178  -6.809  1.00  0.00    -0.246 OA
BRANCH  29  31
ATOM     31  C   UNL     1      -2.487   1.407  -4.973  1.00  0.00     0.060 A 
ATOM     32  C   UNL     1      -3.560   2.283  -4.766  1.00  0.00     0.016 A 
ATOM     33  C   UNL     1      -1.184   1.785  -4.651  1.00  0.00     0.016 A 
ATOM     34  C   UNL     1      -3.324   3.574  -4.301  1.00  0.00     0.010 A 
ATOM     35  C   UNL     1      -0.948   3.083  -4.190  1.00  0.00     0.010 A 
ATOM     36  C   UNL     1      -2.010   3.997  -4.062  1.00  0.00    -0.014 A 
BRANCH  36  37
ATOM     37  C   UNL     1      -1.734   5.436  -3.839  1.00  0.00     0.031 A 
ATOM     38  C   UNL     1      -1.176   6.257  -4.971  1.00  0.00     0.074 A 
ATOM     39  C   UNL     1      -2.001   6.011  -2.654  1.00  0.00     0.049 A 
ATOM     40  N   UNL     1      -0.815   7.516  -4.983  1.00  0.00    -0.248 NA
ATOM     41  C   UNL     1      -0.998   5.567  -6.259  1.00  0.00     0.031 C 
ATOM     42  C   UNL     1      -2.592   5.335  -1.500  1.00  0.00     0.029 A 
ATOM     43  N   UNL     1      -1.803   7.299  -2.228  1.00  0.00    -0.354 N 
ATOM     44  C   UNL     1      -0.354   7.763  -6.271  1.00  0.00     0.074 A 
ATOM     45  C   UNL     1      -0.452   6.519  -7.002  1.00  0.00     0.031 C 
ATOM     46  C   UNL     1      -2.704   6.217  -0.492  1.00  0.00     0.029 A 
ATOM     47  C   UNL     1      -2.155   7.503  -0.918  1.00  0.00     0.049 A 
ATOM     48  H   UNL     1      -1.443   8.010  -2.807  1.00  0.00     0.167 HD
ATOM     49  C   UNL     1       0.107   8.922  -6.798  1.00  0.00     0.031 A 
ATOM     50  C   UNL     1      -2.025   8.596  -0.142  1.00  0.00     0.031 A 
ATOM     51  C   UNL     1       0.214  10.156  -6.066  1.00  0.00     0.049 A 
ATOM     52  C   UNL     1      -1.431   9.850  -0.728  1.00  0.00     0.074 A 
ATOM     53  C   UNL     1       0.652  11.390  -6.515  1.00  0.00     0.029 A 
ATOM     54  N   UNL     1      -0.114  10.310  -4.728  1.00  0.00    -0.354 N 
ATOM     55  N   UNL     1      -1.018  10.079  -1.952  1.00  0.00    -0.248 NA
ATOM     56  C   UNL     1      -1.293  11.001   0.177  1.00  0.00     0.031 C 
ATOM     57  C   UNL     1       0.652  12.274  -5.431  1.00  0.00     0.029 A 
ATOM     58  C   UNL     1       0.144  11.610  -4.326  1.00  0.00     0.049 A 
ATOM     59  H   UNL     1      -0.476   9.601  -4.149  1.00  0.00     0.167 HD
ATOM     60  C   UNL     1      -0.604  11.405  -1.972  1.00  0.00     0.074 A 
ATOM     61  C   UNL     1      -0.830  11.934  -0.643  1.00  0.00     0.031 C 
ATOM     62  C   UNL     1      -0.086  12.123  -2.999  1.00  0.00     0.031 A 
BRANCH  49  63
ATOM     63  C   UNL     1       0.571   8.900  -8.230  1.00  0.00    -0.014 A 
ATOM     64  C   UNL     1      -0.334   8.753  -9.293  1.00  0.00     0.009 A 
ATOM     65  C   UNL     1       1.935   9.067  -8.520  1.00  0.00     0.009 A 
ATOM     66  C   UNL     1       0.122   8.738 -10.614  1.00  0.00     0.001 A 
ATOM     67  C   UNL     1       2.384   9.083  -9.841  1.00  0.00     0.001 A 
ATOM     68  C   UNL     1       1.479   8.908 -10.887  1.00  0.00     0.000 A 
ENDBRANCH  49  63
BRANCH  50  69
ATOM     69  C   UNL     1      -2.442   8.552   1.284  1.00  0.00    -0.014 A 
ATOM     70  C   UNL     1      -3.534   9.308   1.735  1.00  0.00     0.009 A 
ATOM     71  C   UNL     1      -1.733   7.767   2.208  1.00  0.00     0.009 A 
ATOM     72  C   UNL     1      -3.889   9.302   3.087  1.00  0.00     0.001 A 
ATOM     73  C   UNL     1      -2.110   7.737   3.551  1.00  0.00     0.001 A 
ATOM     74  C   UNL     1      -3.180   8.513   3.992  1.00  0.00     0.000 A 
ENDBRANCH  50  69
BRANCH  62  75
ATOM     75  C   UNL     1       0.229  13.572  -2.742  1.00  0.00    -0.014 A 
ATOM     76  C   UNL     1       1.301  13.956  -1.921  1.00  0.00     0.009 A 
ATOM     77  C   UNL     1      -0.536  14.568  -3.369  1.00  0.00     0.009 A 
ATOM     78  C   UNL     1       1.574  15.309  -1.704  1.00  0.00     0.001 A 
ATOM     79  C   UNL     1      -0.240  15.918  -3.178  1.00  0.00     0.001 A 
ATOM     80  C   UNL     1       0.808  16.288  -2.337  1.00  0.00     0.000 A 
ENDBRANCH  62  75
ENDBRANCH  36  37
ENDBRANCH  29  31
ENDBRANCH  28  29
ENDBRANCH  27  28
ENDBRANCH  26  27
ENDBRANCH  25  26
ENDBRANCH   1  25
TORSDOF 19
