REMARK SMILES Cc1c(NC(=O)c2ccc(-c3cccc(Cl)c3)o2)cccc1C(=O)OCCOCCOC(=O)c1ccc(-c2c3nc(c(-c4ccccc4)c4ccc([nH]4)c(-c4ccccc4)c4nc(c(-c5ccccc5)c5ccc2[nH]5)C=C4)C=C3)cc1
REMARK SMILES IDX 27 1 26 2 25 3 23 4 24 5 22 6 1 7 2 8 3 9 19 10 21 11 20 12
REMARK SMILES IDX 4 13 5 14 6 16 7 17 8 18 18 19 9 20 10 21 11 22 12 23 17 24
REMARK SMILES IDX 13 25 15 26 14 27 16 28 28 29 29 30 30 31 31 32 32 33 33 34
REMARK SMILES IDX 34 35 35 36 81 37 36 38 80 39 37 40 38 41 39 42 74 43 40 44
REMARK SMILES IDX 79 45 73 46 75 47 41 48 78 49 72 50 71 51 42 53 64 54 49 55
REMARK SMILES IDX 63 56 50 57 53 58 62 59 76 60 51 61 52 62 61 64 77 65 54 66
REMARK SMILES IDX 43 67 44 68 48 69 45 70 47 71 46 72 65 73 66 74 70 75 67 76
REMARK SMILES IDX 69 77 68 78 55 79 56 80 60 81 57 82 59 83 58 84
REMARK H PARENT 4 15 75 52 53 63
REMARK Flexibility Score: inf
ROOT
ATOM      1  C   UNL     1       2.191   2.347  -2.399  1.00  0.00     0.202 C 
ENDROOT
BRANCH   1   2
ATOM      2  C   UNL     1       2.748   2.420  -1.014  1.00  0.00     0.261 C 
BRANCH   2   3
ATOM      3  O   UNL     1       1.996   1.607  -0.105  1.00  0.00    -0.460 OA
BRANCH   3   4
ATOM      4  C   UNL     1       0.705   1.903   0.144  1.00  0.00     0.338 C 
ATOM      5  O   UNL     1       0.208   3.003   0.242  1.00  0.00    -0.246 OA
BRANCH   4   6
ATOM      6  C   UNL     1      -0.034   0.618   0.255  1.00  0.00     0.065 A 
ATOM      7  C   UNL     1       1.968  -0.955  -0.303  1.00  0.00     0.047 C 
ATOM      8  C   UNL     1       0.538  -0.678   0.117  1.00  0.00    -0.013 A 
ATOM      9  C   UNL     1      -0.281  -1.790   0.391  1.00  0.00     0.045 A 
ATOM     10  C   UNL     1      -1.627  -1.592   0.733  1.00  0.00     0.026 A 
ATOM     11  C   UNL     1      -1.411   0.774   0.497  1.00  0.00     0.016 A 
ATOM     12  C   UNL     1      -2.209  -0.331   0.723  1.00  0.00     0.003 A 
BRANCH   9  13
ATOM     13  N   UNL     1       0.311  -3.071   0.331  1.00  0.00    -0.319 N 
ATOM     14  C   UNL     1      -0.221  -4.309   0.054  1.00  0.00     0.291 C 
ATOM     15  H   UNL     1       1.277  -3.080   0.521  1.00  0.00     0.170 HD
ATOM     16  O   UNL     1       0.520  -5.289   0.123  1.00  0.00    -0.265 OA
BRANCH  14  17
ATOM     17  C   UNL     1      -1.592  -4.370  -0.359  1.00  0.00     0.192 A 
ATOM     18  C   UNL     1      -2.259  -3.827  -1.443  1.00  0.00     0.057 A 
ATOM     19  O   UNL     1      -2.484  -4.896   0.525  1.00  0.00    -0.451 OA
ATOM     20  C   UNL     1      -3.639  -3.974  -1.167  1.00  0.00     0.052 A 
ATOM     21  C   UNL     1      -3.725  -4.623   0.047  1.00  0.00     0.135 A 
BRANCH  21  22
ATOM     22  C   UNL     1      -4.819  -5.046   0.892  1.00  0.00     0.019 A 
ATOM     23  C   UNL     1      -5.911  -5.700   0.315  1.00  0.00     0.012 A 
ATOM     24  C   UNL     1      -4.801  -4.810   2.274  1.00  0.00     0.032 A 
ATOM     25  C   UNL     1      -6.974  -6.127   1.107  1.00  0.00     0.002 A 
ATOM     26  C   UNL     1      -5.875  -5.227   3.059  1.00  0.00     0.041 A 
ATOM     27  C   UNL     1      -6.958  -5.888   2.480  1.00  0.00     0.020 A 
ATOM     28  Cl  UNL     1      -5.870  -4.921   4.752  1.00  0.00    -0.084 Cl
ENDBRANCH  21  22
ENDBRANCH  14  17
ENDBRANCH   9  13
ENDBRANCH   4   6
ENDBRANCH   3   4
ENDBRANCH   2   3
ENDBRANCH   1   2
BRANCH   1  29
ATOM     29  O   UNL     1       1.026   3.151  -2.368  1.00  0.00    -0.374 OA
BRANCH  29  30
ATOM     30  C   UNL     1       0.369   3.335  -3.601  1.00  0.00     0.202 C 
BRANCH  30  31
ATOM     31  C   UNL     1       1.270   4.021  -4.634  1.00  0.00     0.261 C 
BRANCH  31  32
ATOM     32  O   UNL     1       1.702   5.301  -4.117  1.00  0.00    -0.460 OA
BRANCH  32  33
ATOM     33  C   UNL     1       2.978   5.377  -3.641  1.00  0.00     0.338 C 
ATOM     34  O   UNL     1       3.965   4.912  -4.188  1.00  0.00    -0.246 OA
BRANCH  33  35
ATOM     35  C   UNL     1       2.963   5.839  -2.217  1.00  0.00     0.060 A 
ATOM     36  C   UNL     1       4.128   5.736  -1.426  1.00  0.00     0.016 A 
ATOM     37  C   UNL     1       1.728   6.016  -1.601  1.00  0.00     0.016 A 
ATOM     38  C   UNL     1       4.030   5.638  -0.024  1.00  0.00     0.010 A 
ATOM     39  C   UNL     1       1.631   5.814  -0.240  1.00  0.00     0.010 A 
ATOM     40  C   UNL     1       2.766   5.582   0.560  1.00  0.00    -0.014 A 
BRANCH  40  41
ATOM     41  C   UNL     1       2.445   5.135   1.925  1.00  0.00     0.031 A 
ATOM     42  C   UNL     1       1.646   6.039   2.780  1.00  0.00     0.074 A 
ATOM     43  C   UNL     1       2.572   3.832   2.290  1.00  0.00     0.049 A 
ATOM     44  N   UNL     1       1.390   5.800   4.015  1.00  0.00    -0.248 NA
ATOM     45  C   UNL     1       1.093   7.319   2.336  1.00  0.00     0.031 C 
ATOM     46  C   UNL     1       1.819   3.078   3.299  1.00  0.00     0.029 A 
ATOM     47  N   UNL     1       3.445   2.869   1.791  1.00  0.00    -0.354 N 
ATOM     48  C   UNL     1       0.389   6.651   4.407  1.00  0.00     0.074 A 
ATOM     49  C   UNL     1       0.331   7.658   3.380  1.00  0.00     0.031 C 
ATOM     50  C   UNL     1       2.414   1.891   3.525  1.00  0.00     0.029 A 
ATOM     51  C   UNL     1       3.640   1.864   2.748  1.00  0.00     0.049 A 
ATOM     52  H   UNL     1       3.862   2.890   0.899  1.00  0.00     0.167 HD
ATOM     53  C   UNL     1      -0.348   6.309   5.497  1.00  0.00     0.031 A 
ATOM     54  C   UNL     1       4.897   1.561   3.166  1.00  0.00     0.031 A 
ATOM     55  C   UNL     1       0.219   5.124   6.162  1.00  0.00     0.049 A 
ATOM     56  C   UNL     1       4.994   2.036   4.587  1.00  0.00     0.074 A 
ATOM     57  C   UNL     1      -0.183   3.804   6.269  1.00  0.00     0.029 A 
ATOM     58  N   UNL     1       1.562   5.152   6.548  1.00  0.00    -0.354 N 
ATOM     59  N   UNL     1       4.206   2.966   5.060  1.00  0.00    -0.248 NA
ATOM     60  C   UNL     1       5.830   1.429   5.617  1.00  0.00     0.031 C 
ATOM     61  C   UNL     1       0.967   3.027   6.615  1.00  0.00     0.029 A 
ATOM     62  C   UNL     1       2.054   3.878   6.764  1.00  0.00     0.049 A 
ATOM     63  H   UNL     1       2.092   5.975   6.652  1.00  0.00     0.167 HD
ATOM     64  C   UNL     1       4.287   2.972   6.413  1.00  0.00     0.074 A 
ATOM     65  C   UNL     1       5.374   2.055   6.718  1.00  0.00     0.031 C 
ATOM     66  C   UNL     1       3.435   3.679   7.206  1.00  0.00     0.031 A 
BRANCH  53  67
ATOM     67  C   UNL     1      -1.674   6.935   5.868  1.00  0.00    -0.014 A 
ATOM     68  C   UNL     1      -2.360   6.476   7.006  1.00  0.00     0.009 A 
ATOM     69  C   UNL     1      -2.338   7.927   5.119  1.00  0.00     0.009 A 
ATOM     70  C   UNL     1      -3.615   6.986   7.377  1.00  0.00     0.001 A 
ATOM     71  C   UNL     1      -3.579   8.460   5.495  1.00  0.00     0.001 A 
ATOM     72  C   UNL     1      -4.221   7.986   6.626  1.00  0.00     0.000 A 
ENDBRANCH  53  67
BRANCH  54  73
ATOM     73  C   UNL     1       5.881   1.637   2.037  1.00  0.00    -0.014 A 
ATOM     74  C   UNL     1       5.832   0.583   1.090  1.00  0.00     0.009 A 
ATOM     75  C   UNL     1       6.413   2.865   1.612  1.00  0.00     0.009 A 
ATOM     76  C   UNL     1       6.165   0.792  -0.257  1.00  0.00     0.001 A 
ATOM     77  C   UNL     1       6.736   3.073   0.258  1.00  0.00     0.001 A 
ATOM     78  C   UNL     1       6.579   2.052  -0.679  1.00  0.00     0.000 A 
ENDBRANCH  54  73
BRANCH  66  79
ATOM     79  C   UNL     1       3.881   4.236   8.523  1.00  0.00    -0.014 A 
ATOM     80  C   UNL     1       5.235   4.388   8.857  1.00  0.00     0.009 A 
ATOM     81  C   UNL     1       2.934   4.827   9.380  1.00  0.00     0.009 A 
ATOM     82  C   UNL     1       5.624   5.047  10.022  1.00  0.00     0.001 A 
ATOM     83  C   UNL     1       3.321   5.542  10.511  1.00  0.00     0.001 A 
ATOM     84  C   UNL     1       4.667   5.635  10.841  1.00  0.00     0.000 A 
ENDBRANCH  66  79
ENDBRANCH  40  41
ENDBRANCH  33  35
ENDBRANCH  32  33
ENDBRANCH  31  32
ENDBRANCH  30  31
ENDBRANCH  29  30
ENDBRANCH   1  29
TORSDOF 17
