REMARK SMILES C[C@H]1[C@@H](C(=O)OCCOCCOC(=O)c2ccc(-c3c4nc(c(-c5ccccc5)c5ccc([nH]5)c(-c5ccccc5)c5nc(c(-c6ccccc6)c6ccc3[nH]6)C=C5)C=C4)cc2)CCN1C(=O)NC1CCCCC1
REMARK SMILES IDX 9 1 8 2 7 3 6 4 4 5 5 6 3 7 1 8 2 9 65 10 63 11 64 12 66 13
REMARK SMILES IDX 67 14 68 15 69 17 70 18 74 19 71 20 73 21 72 22 10 23 11 24
REMARK SMILES IDX 12 25 13 26 14 27 15 28 16 29 62 30 17 31 61 32 18 33 19 34
REMARK SMILES IDX 20 35 55 36 21 37 60 38 54 39 56 40 22 41 59 42 53 43 52 44
REMARK SMILES IDX 23 46 45 47 30 48 44 49 31 50 34 51 43 52 57 53 32 54 33 55
REMARK SMILES IDX 42 57 58 58 35 59 24 60 25 61 29 62 26 63 28 64 27 65 46 66
REMARK SMILES IDX 47 67 51 68 48 69 50 70 49 71 36 72 37 73 41 74 38 75 40 76
REMARK SMILES IDX 39 77
REMARK H PARENT 68 16 56 45 34 56
REMARK Flexibility Score: inf
ROOT
ATOM      1  O   UNL     1      -0.024   2.120  -4.270  1.00  0.00    -0.374 OA
ENDROOT
BRANCH   1   2
ATOM      2  C   UNL     1       1.266   2.475  -3.762  1.00  0.00     0.202 C 
BRANCH   2   3
ATOM      3  C   UNL     1       1.258   3.452  -2.576  1.00  0.00     0.261 C 
BRANCH   3   4
ATOM      4  O   UNL     1       1.001   2.747  -1.348  1.00  0.00    -0.463 OA
BRANCH   4   5
ATOM      5  C   UNL     1      -0.283   2.675  -0.932  1.00  0.00     0.311 C 
ATOM      6  O   UNL     1      -1.184   3.402  -1.330  1.00  0.00    -0.252 OA
BRANCH   5   7
ATOM      7  C   UNL     1      -0.498   1.558   0.070  1.00  0.00     0.123 C 
ATOM      8  C   UNL     1       1.615   0.179  -0.833  1.00  0.00     0.032 C 
ATOM      9  C   UNL     1       0.573   0.466   0.251  1.00  0.00     0.098 C 
ATOM     10  N   UNL     1      -0.138  -0.760   0.553  1.00  0.00    -0.321 N 
ATOM     11  C   UNL     1      -1.812   0.796  -0.132  1.00  0.00     0.039 C 
ATOM     12  C   UNL     1      -1.479  -0.684   0.004  1.00  0.00     0.122 C 
BRANCH  10  13
ATOM     13  C   UNL     1       0.301  -1.934   1.076  1.00  0.00     0.317 C 
ATOM     14  O   UNL     1      -0.420  -2.940   1.025  1.00  0.00    -0.249 OA
ATOM     15  N   UNL     1       1.485  -2.135   1.681  1.00  0.00    -0.335 N 
ATOM     16  H   UNL     1       1.492  -3.058   2.023  1.00  0.00     0.165 HD
BRANCH  15  17
ATOM     17  C   UNL     1       2.793  -1.511   2.039  1.00  0.00     0.083 C 
ATOM     18  C   UNL     1       2.788  -0.007   2.264  1.00  0.00     0.025 C 
ATOM     19  C   UNL     1       3.338  -2.222   3.299  1.00  0.00     0.025 C 
ATOM     20  C   UNL     1       3.980   0.636   2.937  1.00  0.00     0.002 C 
ATOM     21  C   UNL     1       4.587  -1.561   3.885  1.00  0.00     0.002 C 
ATOM     22  C   UNL     1       4.348  -0.092   4.203  1.00  0.00     0.000 C 
ENDBRANCH  15  17
ENDBRANCH  10  13
ENDBRANCH   5   7
ENDBRANCH   4   5
ENDBRANCH   3   4
ENDBRANCH   2   3
ENDBRANCH   1   2
BRANCH   1  23
ATOM     23  C   UNL     1      -0.693   1.028  -3.643  1.00  0.00     0.202 C 
BRANCH  23  24
ATOM     24  C   UNL     1      -0.409  -0.369  -4.208  1.00  0.00     0.261 C 
BRANCH  24  25
ATOM     25  O   UNL     1       0.985  -0.705  -4.129  1.00  0.00    -0.460 OA
BRANCH  25  26
ATOM     26  C   UNL     1       1.676  -0.424  -5.253  1.00  0.00     0.338 C 
ATOM     27  O   UNL     1       1.215  -0.034  -6.320  1.00  0.00    -0.246 OA
BRANCH  26  28
ATOM     28  C   UNL     1       3.128  -0.507  -5.014  1.00  0.00     0.060 A 
ATOM     29  C   UNL     1       3.917   0.453  -5.657  1.00  0.00     0.016 A 
ATOM     30  C   UNL     1       3.724  -1.536  -4.277  1.00  0.00     0.016 A 
ATOM     31  C   UNL     1       5.300   0.322  -5.670  1.00  0.00     0.010 A 
ATOM     32  C   UNL     1       5.120  -1.659  -4.280  1.00  0.00     0.010 A 
ATOM     33  C   UNL     1       5.906  -0.771  -5.036  1.00  0.00    -0.014 A 
BRANCH  33  34
ATOM     34  C   UNL     1       7.327  -1.059  -5.353  1.00  0.00     0.031 A 
ATOM     35  C   UNL     1       7.648  -2.154  -6.339  1.00  0.00     0.074 A 
ATOM     36  C   UNL     1       8.310  -0.278  -4.872  1.00  0.00     0.049 A 
ATOM     37  N   UNL     1       8.803  -2.495  -6.853  1.00  0.00    -0.248 NA
ATOM     38  C   UNL     1       6.517  -2.970  -6.812  1.00  0.00     0.031 C 
ATOM     39  C   UNL     1       8.126   0.842  -3.950  1.00  0.00     0.029 A 
ATOM     40  N   UNL     1       9.660  -0.294  -5.119  1.00  0.00    -0.354 N 
ATOM     41  C   UNL     1       8.537  -3.561  -7.706  1.00  0.00     0.074 A 
ATOM     42  C   UNL     1       7.122  -3.841  -7.606  1.00  0.00     0.031 C 
ATOM     43  C   UNL     1       9.318   1.420  -3.724  1.00  0.00     0.029 A 
ATOM     44  C   UNL     1      10.349   0.696  -4.463  1.00  0.00     0.049 A 
ATOM     45  H   UNL     1      10.092  -0.953  -5.709  1.00  0.00     0.167 HD
ATOM     46  C   UNL     1       9.388  -4.239  -8.512  1.00  0.00     0.031 A 
ATOM     47  C   UNL     1      11.665   0.985  -4.460  1.00  0.00     0.031 A 
ATOM     48  C   UNL     1      10.798  -3.970  -8.609  1.00  0.00     0.049 A 
ATOM     49  C   UNL     1      12.601   0.173  -5.314  1.00  0.00     0.074 A 
ATOM     50  C   UNL     1      11.743  -4.593  -9.405  1.00  0.00     0.029 A 
ATOM     51  N   UNL     1      11.466  -3.000  -7.878  1.00  0.00    -0.354 N 
ATOM     52  N   UNL     1      12.330  -0.811  -6.137  1.00  0.00    -0.248 NA
ATOM     53  C   UNL     1      14.026   0.527  -5.248  1.00  0.00     0.031 C 
ATOM     54  C   UNL     1      12.994  -4.042  -9.110  1.00  0.00     0.029 A 
ATOM     55  C   UNL     1      12.817  -3.027  -8.183  1.00  0.00     0.049 A 
ATOM     56  H   UNL     1      11.044  -2.383  -7.238  1.00  0.00     0.167 HD
ATOM     57  C   UNL     1      13.544  -1.171  -6.711  1.00  0.00     0.074 A 
ATOM     58  C   UNL     1      14.547  -0.286  -6.156  1.00  0.00     0.031 C 
ATOM     59  C   UNL     1      13.806  -2.145  -7.618  1.00  0.00     0.031 A 
BRANCH  46  60
ATOM     60  C   UNL     1       8.817  -5.366  -9.330  1.00  0.00    -0.014 A 
ATOM     61  C   UNL     1       7.950  -5.125 -10.409  1.00  0.00     0.009 A 
ATOM     62  C   UNL     1       9.174  -6.691  -9.032  1.00  0.00     0.009 A 
ATOM     63  C   UNL     1       7.425  -6.190 -11.147  1.00  0.00     0.001 A 
ATOM     64  C   UNL     1       8.673  -7.750  -9.791  1.00  0.00     0.001 A 
ATOM     65  C   UNL     1       7.791  -7.500 -10.841  1.00  0.00     0.000 A 
ENDBRANCH  46  60
BRANCH  47  66
ATOM     66  C   UNL     1      12.181   2.094  -3.614  1.00  0.00    -0.014 A 
ATOM     67  C   UNL     1      12.715   3.256  -4.193  1.00  0.00     0.009 A 
ATOM     68  C   UNL     1      12.164   1.982  -2.214  1.00  0.00     0.009 A 
ATOM     69  C   UNL     1      13.248   4.266  -3.389  1.00  0.00     0.001 A 
ATOM     70  C   UNL     1      12.668   3.007  -1.413  1.00  0.00     0.001 A 
ATOM     71  C   UNL     1      13.220   4.144  -2.000  1.00  0.00     0.000 A 
ENDBRANCH  47  66
BRANCH  59  72
ATOM     72  C   UNL     1      15.227  -2.275  -8.095  1.00  0.00    -0.014 A 
ATOM     73  C   UNL     1      16.247  -2.740  -7.250  1.00  0.00     0.009 A 
ATOM     74  C   UNL     1      15.544  -1.945  -9.423  1.00  0.00     0.009 A 
ATOM     75  C   UNL     1      17.564  -2.822  -7.711  1.00  0.00     0.001 A 
ATOM     76  C   UNL     1      16.854  -2.062  -9.891  1.00  0.00     0.001 A 
ATOM     77  C   UNL     1      17.865  -2.487  -9.030  1.00  0.00     0.000 A 
ENDBRANCH  59  72
ENDBRANCH  33  34
ENDBRANCH  26  28
ENDBRANCH  25  26
ENDBRANCH  24  25
ENDBRANCH  23  24
ENDBRANCH   1  23
TORSDOF 16
