REMARK SMILES N#CCCn1cc(C(=O)OCCOCCOC(=O)c2ccc(-c3c4nc(c(-c5ccccc5)c5ccc([nH]5)c(-c5ccccc5)c5nc(c(-c6ccccc6)c6ccc3[nH]6)C=C5)C=C4)cc2)c(-c2cccc([N+](=O)[O-])c2)n1
REMARK SMILES IDX 12 1 11 2 10 3 8 4 9 5 7 6 5 7 6 8 77 9 67 10 4 11 3 12 2 13
REMARK SMILES IDX 1 14 68 15 69 16 76 17 70 18 72 19 71 20 73 21 74 22 75 23
REMARK SMILES IDX 13 24 14 25 15 26 16 27 17 28 18 29 19 30 20 31 66 32 21 33
REMARK SMILES IDX 65 34 22 35 23 36 24 37 59 38 25 39 64 40 58 41 60 42 26 43
REMARK SMILES IDX 63 44 57 45 56 46 27 48 49 49 34 50 48 51 35 52 38 53 47 54
REMARK SMILES IDX 61 55 36 56 37 57 46 59 62 60 39 61 28 62 29 63 33 64 30 65
REMARK SMILES IDX 32 66 31 67 50 68 51 69 55 70 52 71 54 72 53 73 40 74 41 75
REMARK SMILES IDX 45 76 42 77 44 78 43 79
REMARK H PARENT 60 47 38 58
REMARK Flexibility Score: inf
ROOT
ATOM      1  C   UNL     1       2.751  -2.936   7.261  1.00  0.00     0.202 C 
ENDROOT
BRANCH   1   2
ATOM      2  C   UNL     1       1.797  -2.747   6.079  1.00  0.00     0.261 C 
BRANCH   2   3
ATOM      3  O   UNL     1       2.385  -1.957   5.033  1.00  0.00    -0.460 OA
BRANCH   3   4
ATOM      4  C   UNL     1       1.837  -0.721   4.855  1.00  0.00     0.342 C 
ATOM      5  O   UNL     1       0.845  -0.303   5.447  1.00  0.00    -0.246 OA
BRANCH   4   6
ATOM      6  C   UNL     1       2.635   0.111   3.983  1.00  0.00     0.106 A 
ATOM      7  N   UNL     1       3.787   0.856   2.289  1.00  0.00    -0.270 N 
ATOM      8  C   UNL     1       3.408  -0.293   2.916  1.00  0.00     0.125 A 
ATOM      9  N   UNL     1       3.569   1.961   3.025  1.00  0.00    -0.172 NA
ATOM     10  C   UNL     1       2.835   1.521   4.056  1.00  0.00     0.107 A 
BRANCH   7  11
ATOM     11  C   UNL     1       4.260   0.993   0.923  1.00  0.00     0.159 C 
BRANCH  11  12
ATOM     12  C   UNL     1       3.710  -0.066  -0.025  1.00  0.00     0.144 C 
BRANCH  12  13
ATOM     13  C   UNL     1       2.190  -0.066  -0.025  1.00  0.00     0.064 C 
ATOM     14  N   UNL     1       0.929  -0.066  -0.025  1.00  0.00    -0.198 NA
ENDBRANCH  12  13
ENDBRANCH  11  12
ENDBRANCH   7  11
BRANCH  10  15
ATOM     15  C   UNL     1       2.395   2.396   5.134  1.00  0.00     0.010 A 
ATOM     16  C   UNL     1       3.132   2.432   6.327  1.00  0.00     0.011 A 
ATOM     17  C   UNL     1       1.179   3.073   5.050  1.00  0.00     0.096 A 
ATOM     18  C   UNL     1       2.611   3.034   7.472  1.00  0.00     0.008 A 
ATOM     19  C   UNL     1       0.678   3.712   6.193  1.00  0.00     0.270 A 
ATOM     20  C   UNL     1       1.372   3.666   7.412  1.00  0.00     0.085 A 
BRANCH  19  21
ATOM     21  N   UNL     1      -0.597   4.431   6.119  1.00  0.00     0.062 N 
ATOM     22  O   UNL     1      -1.093   4.835   7.181  1.00  0.00    -0.258 OA
ATOM     23  O   UNL     1      -1.094   4.611   4.999  1.00  0.00    -0.258 OA
ENDBRANCH  19  21
ENDBRANCH  10  15
ENDBRANCH   4   6
ENDBRANCH   3   4
ENDBRANCH   2   3
ENDBRANCH   1   2
BRANCH   1  24
ATOM     24  O   UNL     1       3.037  -1.809   8.090  1.00  0.00    -0.374 OA
BRANCH  24  25
ATOM     25  C   UNL     1       3.709  -0.683   7.551  1.00  0.00     0.202 C 
BRANCH  25  26
ATOM     26  C   UNL     1       5.183  -0.787   7.181  1.00  0.00     0.261 C 
BRANCH  26  27
ATOM     27  O   UNL     1       5.509  -1.979   6.497  1.00  0.00    -0.460 OA
BRANCH  27  28
ATOM     28  C   UNL     1       5.922  -2.951   7.342  1.00  0.00     0.338 C 
ATOM     29  O   UNL     1       5.734  -3.023   8.544  1.00  0.00    -0.246 OA
BRANCH  28  30
ATOM     30  C   UNL     1       6.835  -3.832   6.619  1.00  0.00     0.060 A 
ATOM     31  C   UNL     1       7.328  -4.929   7.328  1.00  0.00     0.016 A 
ATOM     32  C   UNL     1       7.418  -3.381   5.425  1.00  0.00     0.016 A 
ATOM     33  C   UNL     1       8.539  -5.454   6.946  1.00  0.00     0.010 A 
ATOM     34  C   UNL     1       8.637  -3.886   5.062  1.00  0.00     0.010 A 
ATOM     35  C   UNL     1       9.212  -4.862   5.872  1.00  0.00    -0.014 A 
BRANCH  35  36
ATOM     36  C   UNL     1      10.497  -5.393   5.494  1.00  0.00     0.031 A 
ATOM     37  C   UNL     1      10.370  -6.683   4.788  1.00  0.00     0.074 A 
ATOM     38  C   UNL     1      11.644  -4.715   5.679  1.00  0.00     0.049 A 
ATOM     39  N   UNL     1      10.715  -7.838   5.241  1.00  0.00    -0.248 NA
ATOM     40  C   UNL     1       9.583  -6.732   3.543  1.00  0.00     0.031 C 
ATOM     41  C   UNL     1      11.831  -3.343   6.154  1.00  0.00     0.029 A 
ATOM     42  N   UNL     1      12.905  -5.097   5.358  1.00  0.00    -0.354 N 
ATOM     43  C   UNL     1      10.382  -8.743   4.245  1.00  0.00     0.074 A 
ATOM     44  C   UNL     1       9.510  -8.047   3.336  1.00  0.00     0.031 C 
ATOM     45  C   UNL     1      13.086  -2.936   5.845  1.00  0.00     0.029 A 
ATOM     46  C   UNL     1      13.814  -4.053   5.262  1.00  0.00     0.049 A 
ATOM     47  H   UNL     1      13.155  -6.037   5.205  1.00  0.00     0.167 HD
ATOM     48  C   UNL     1      11.080  -9.900   4.099  1.00  0.00     0.031 A 
ATOM     49  C   UNL     1      15.038  -4.106   4.675  1.00  0.00     0.031 A 
ATOM     50  C   UNL     1      11.885 -10.178   5.261  1.00  0.00     0.049 A 
ATOM     51  C   UNL     1      15.423  -5.538   4.588  1.00  0.00     0.074 A 
ATOM     52  C   UNL     1      11.609 -10.386   6.598  1.00  0.00     0.029 A 
ATOM     53  N   UNL     1      13.217  -9.837   5.189  1.00  0.00    -0.354 N 
ATOM     54  N   UNL     1      15.712  -6.255   5.636  1.00  0.00    -0.248 NA
ATOM     55  C   UNL     1      15.007  -6.295   3.414  1.00  0.00     0.031 C 
ATOM     56  C   UNL     1      12.651  -9.711   7.296  1.00  0.00     0.029 A 
ATOM     57  C   UNL     1      13.554  -9.208   6.358  1.00  0.00     0.049 A 
ATOM     58  H   UNL     1      13.820 -10.014   4.431  1.00  0.00     0.167 HD
ATOM     59  C   UNL     1      15.068  -7.464   5.419  1.00  0.00     0.074 A 
ATOM     60  C   UNL     1      14.742  -7.472   3.992  1.00  0.00     0.031 C 
ATOM     61  C   UNL     1      14.583  -8.198   6.464  1.00  0.00     0.031 A 
BRANCH  48  62
ATOM     62  C   UNL     1      11.382 -10.509   2.757  1.00  0.00    -0.014 A 
ATOM     63  C   UNL     1      12.095 -11.718   2.721  1.00  0.00     0.009 A 
ATOM     64  C   UNL     1      11.257  -9.807   1.542  1.00  0.00     0.009 A 
ATOM     65  C   UNL     1      12.720 -12.156   1.550  1.00  0.00     0.001 A 
ATOM     66  C   UNL     1      11.845 -10.263   0.361  1.00  0.00     0.001 A 
ATOM     67  C   UNL     1      12.603 -11.423   0.373  1.00  0.00     0.000 A 
ENDBRANCH  48  62
BRANCH  49  68
ATOM     68  C   UNL     1      15.774  -3.047   3.944  1.00  0.00    -0.014 A 
ATOM     69  C   UNL     1      17.119  -3.227   3.579  1.00  0.00     0.009 A 
ATOM     70  C   UNL     1      15.085  -1.968   3.362  1.00  0.00     0.009 A 
ATOM     71  C   UNL     1      17.732  -2.391   2.633  1.00  0.00     0.001 A 
ATOM     72  C   UNL     1      15.697  -1.130   2.422  1.00  0.00     0.001 A 
ATOM     73  C   UNL     1      17.016  -1.353   2.044  1.00  0.00     0.000 A 
ENDBRANCH  49  68
BRANCH  61  74
ATOM     74  C   UNL     1      14.952  -7.768   7.864  1.00  0.00    -0.014 A 
ATOM     75  C   UNL     1      14.613  -6.514   8.404  1.00  0.00     0.009 A 
ATOM     76  C   UNL     1      15.508  -8.730   8.720  1.00  0.00     0.009 A 
ATOM     77  C   UNL     1      14.851  -6.226   9.753  1.00  0.00     0.001 A 
ATOM     78  C   UNL     1      15.724  -8.450  10.070  1.00  0.00     0.001 A 
ATOM     79  C   UNL     1      15.401  -7.197  10.585  1.00  0.00     0.000 A 
ENDBRANCH  61  74
ENDBRANCH  35  36
ENDBRANCH  28  30
ENDBRANCH  27  28
ENDBRANCH  26  27
ENDBRANCH  25  26
ENDBRANCH  24  25
ENDBRANCH   1  24
TORSDOF 19
