REMARK SMILES CC(=O)OCC1=C(C(=O)OCCOCCOC(=O)c2ccc(-c3c4nc(c(-c5ccccc5)c5ccc([nH]5)c(-c5ccccc5)c5nc(c(-c6ccccc6)c6ccc3[nH]6)C=C5)C=C4)cc2)N2C(=O)[C@H](NC(=O)C3CCCCC3)[C@@H]2SC1
REMARK SMILES IDX 12 1 11 2 10 3 8 4 9 5 7 6 6 7 82 8 67 9 81 10 68 11 80 12
REMARK SMILES IDX 69 13 70 14 5 15 4 16 2 17 1 18 3 19 71 20 72 21 73 23 74 24
REMARK SMILES IDX 75 25 79 26 76 27 78 28 77 29 13 30 14 31 15 32 16 33 17 34
REMARK SMILES IDX 18 35 19 36 20 37 66 38 21 39 65 40 22 41 23 42 24 43 59 44
REMARK SMILES IDX 25 45 64 46 58 47 60 48 26 49 63 50 57 51 56 52 27 54 49 55
REMARK SMILES IDX 34 56 48 57 35 58 38 59 47 60 61 61 36 62 37 63 46 65 62 66
REMARK SMILES IDX 39 67 28 68 29 69 33 70 30 71 32 72 31 73 50 74 51 75 55 76
REMARK SMILES IDX 52 77 54 78 53 79 40 80 41 81 45 82 42 83 44 84 43 85
REMARK H PARENT 71 22 60 53 38 64
REMARK Flexibility Score: inf
ROOT
ATOM      1  C   UNL     1       3.534   2.025  -6.995  1.00  0.00     0.202 C 
ENDROOT
BRANCH   1   2
ATOM      2  C   UNL     1       2.127   1.497  -7.282  1.00  0.00     0.261 C 
BRANCH   2   3
ATOM      3  O   UNL     1       1.718   0.654  -6.196  1.00  0.00    -0.459 OA
BRANCH   3   4
ATOM      4  C   UNL     1       0.781  -0.268  -6.520  1.00  0.00     0.355 C 
ATOM      5  O   UNL     1       0.030  -0.240  -7.479  1.00  0.00    -0.244 OA
BRANCH   4   6
ATOM      6  C   UNL     1       0.888  -1.402  -5.554  1.00  0.00     0.134 C 
ATOM      7  C   UNL     1       0.452  -1.305  -4.277  1.00  0.00     0.008 C 
ATOM      8  C   UNL     1       0.354  -2.495  -3.335  1.00  0.00     0.108 C 
ATOM      9  N   UNL     1       1.413  -2.564  -6.028  1.00  0.00    -0.289 N 
ATOM     10  S   UNL     1       0.455  -4.121  -4.138  1.00  0.00    -0.129 SA
ATOM     11  C   UNL     1       1.848  -3.067  -7.197  1.00  0.00     0.253 C 
ATOM     12  C   UNL     1       1.847  -3.658  -5.191  1.00  0.00     0.181 C 
ATOM     13  O   UNL     1       1.972  -2.588  -8.302  1.00  0.00    -0.272 OA
ATOM     14  C   UNL     1       2.082  -4.467  -6.514  1.00  0.00     0.205 C 
BRANCH   7  15
ATOM     15  C   UNL     1      -0.050  -0.019  -3.652  1.00  0.00     0.267 C 
BRANCH  15  16
ATOM     16  O   UNL     1       0.751   0.272  -2.489  1.00  0.00    -0.461 OA
BRANCH  16  17
ATOM     17  C   UNL     1       0.167   0.049  -1.281  1.00  0.00     0.302 C 
ATOM     18  C   UNL     1       1.113   0.371  -0.165  1.00  0.00     0.139 C 
ATOM     19  O   UNL     1      -0.970  -0.367  -1.111  1.00  0.00    -0.253 OA
ENDBRANCH  16  17
ENDBRANCH  15  16
ENDBRANCH   7  15
BRANCH  14  20
ATOM     20  N   UNL     1       1.083  -5.511  -6.830  1.00  0.00    -0.342 N 
ATOM     21  C   UNL     1       1.131  -6.861  -6.641  1.00  0.00     0.223 C 
ATOM     22  H   UNL     1       0.253  -5.180  -7.242  1.00  0.00     0.164 HD
ATOM     23  O   UNL     1       0.095  -7.490  -6.865  1.00  0.00    -0.275 OA
BRANCH  21  24
ATOM     24  C   UNL     1       2.441  -7.560  -6.254  1.00  0.00     0.078 C 
ATOM     25  C   UNL     1       3.038  -7.114  -4.912  1.00  0.00     0.013 C 
ATOM     26  C   UNL     1       2.203  -9.087  -6.213  1.00  0.00     0.013 C 
ATOM     27  C   UNL     1       4.324  -7.880  -4.593  1.00  0.00     0.001 C 
ATOM     28  C   UNL     1       3.455  -9.878  -5.849  1.00  0.00     0.001 C 
ATOM     29  C   UNL     1       4.084  -9.383  -4.553  1.00  0.00     0.000 C 
ENDBRANCH  21  24
ENDBRANCH  14  20
ENDBRANCH   4   6
ENDBRANCH   3   4
ENDBRANCH   2   3
ENDBRANCH   1   2
BRANCH   1  30
ATOM     30  O   UNL     1       4.577   1.046  -7.022  1.00  0.00    -0.374 OA
BRANCH  30  31
ATOM     31  C   UNL     1       4.605   0.075  -5.978  1.00  0.00     0.202 C 
BRANCH  31  32
ATOM     32  C   UNL     1       5.212   0.531  -4.645  1.00  0.00     0.261 C 
BRANCH  32  33
ATOM     33  O   UNL     1       4.534   1.664  -4.075  1.00  0.00    -0.460 OA
BRANCH  33  34
ATOM     34  C   UNL     1       5.256   2.812  -4.092  1.00  0.00     0.338 C 
ATOM     35  O   UNL     1       6.411   2.955  -4.459  1.00  0.00    -0.246 OA
BRANCH  34  36
ATOM     36  C   UNL     1       4.408   3.960  -3.726  1.00  0.00     0.060 A 
ATOM     37  C   UNL     1       4.372   5.040  -4.616  1.00  0.00     0.016 A 
ATOM     38  C   UNL     1       3.740   4.028  -2.500  1.00  0.00     0.016 A 
ATOM     39  C   UNL     1       3.702   6.210  -4.265  1.00  0.00     0.010 A 
ATOM     40  C   UNL     1       3.073   5.208  -2.147  1.00  0.00     0.010 A 
ATOM     41  C   UNL     1       3.078   6.315  -3.015  1.00  0.00    -0.014 A 
BRANCH  41  42
ATOM     42  C   UNL     1       2.528   7.627  -2.595  1.00  0.00     0.031 A 
ATOM     43  C   UNL     1       3.344   8.527  -1.709  1.00  0.00     0.074 A 
ATOM     44  C   UNL     1       1.334   8.042  -3.054  1.00  0.00     0.049 A 
ATOM     45  N   UNL     1       3.083   9.744  -1.300  1.00  0.00    -0.248 NA
ATOM     46  C   UNL     1       4.624   7.989  -1.221  1.00  0.00     0.031 C 
ATOM     47  C   UNL     1       0.456   7.278  -3.938  1.00  0.00     0.029 A 
ATOM     48  N   UNL     1       0.662   9.220  -2.845  1.00  0.00    -0.354 N 
ATOM     49  C   UNL     1       4.166  10.119  -0.515  1.00  0.00     0.074 A 
ATOM     50  C   UNL     1       5.070   8.989  -0.474  1.00  0.00     0.031 C 
ATOM     51  C   UNL     1      -0.638   8.012  -4.205  1.00  0.00     0.029 A 
ATOM     52  C   UNL     1      -0.544   9.287  -3.498  1.00  0.00     0.049 A 
ATOM     53  H   UNL     1       1.011   9.948  -2.281  1.00  0.00     0.167 HD
ATOM     54  C   UNL     1       4.395  11.300   0.107  1.00  0.00     0.031 A 
ATOM     55  C   UNL     1      -1.468  10.266  -3.524  1.00  0.00     0.031 A 
ATOM     56  C   UNL     1       3.495  12.422   0.084  1.00  0.00     0.049 A 
ATOM     57  C   UNL     1      -1.217  11.546  -2.775  1.00  0.00     0.074 A 
ATOM     58  C   UNL     1       3.654  13.669   0.666  1.00  0.00     0.029 A 
ATOM     59  N   UNL     1       2.261  12.431  -0.546  1.00  0.00    -0.354 N 
ATOM     60  N   UNL     1      -0.168  11.903  -2.075  1.00  0.00    -0.248 NA
ATOM     61  C   UNL     1      -2.278  12.563  -2.832  1.00  0.00     0.031 C 
ATOM     62  C   UNL     1       2.494  14.414   0.430  1.00  0.00     0.029 A 
ATOM     63  C   UNL     1       1.635  13.650  -0.343  1.00  0.00     0.049 A 
ATOM     64  H   UNL     1       1.885  11.682  -1.063  1.00  0.00     0.167 HD
ATOM     65  C   UNL     1      -0.432  13.192  -1.628  1.00  0.00     0.074 A 
ATOM     66  C   UNL     1      -1.732  13.560  -2.149  1.00  0.00     0.031 C 
ATOM     67  C   UNL     1       0.336  13.999  -0.856  1.00  0.00     0.031 A 
BRANCH  54  68
ATOM     68  C   UNL     1       5.670  11.428   0.892  1.00  0.00    -0.014 A 
ATOM     69  C   UNL     1       6.910  11.558   0.248  1.00  0.00     0.009 A 
ATOM     70  C   UNL     1       5.625  11.454   2.295  1.00  0.00     0.009 A 
ATOM     71  C   UNL     1       8.084  11.680   0.994  1.00  0.00     0.001 A 
ATOM     72  C   UNL     1       6.798  11.600   3.037  1.00  0.00     0.001 A 
ATOM     73  C   UNL     1       8.027  11.704   2.387  1.00  0.00     0.000 A 
ENDBRANCH  54  68
BRANCH  55  74
ATOM     74  C   UNL     1      -2.726  10.077  -4.290  1.00  0.00    -0.014 A 
ATOM     75  C   UNL     1      -2.958  10.790  -5.475  1.00  0.00     0.009 A 
ATOM     76  C   UNL     1      -3.709   9.188  -3.827  1.00  0.00     0.009 A 
ATOM     77  C   UNL     1      -4.159  10.633  -6.170  1.00  0.00     0.001 A 
ATOM     78  C   UNL     1      -4.898   9.015  -4.538  1.00  0.00     0.001 A 
ATOM     79  C   UNL     1      -5.126   9.744  -5.704  1.00  0.00     0.000 A 
ENDBRANCH  55  74
BRANCH  67  80
ATOM     80  C   UNL     1      -0.205  15.366  -0.544  1.00  0.00    -0.014 A 
ATOM     81  C   UNL     1      -1.263  15.539   0.363  1.00  0.00     0.009 A 
ATOM     82  C   UNL     1       0.367  16.497  -1.146  1.00  0.00     0.009 A 
ATOM     83  C   UNL     1      -1.759  16.816   0.632  1.00  0.00     0.001 A 
ATOM     84  C   UNL     1      -0.114  17.774  -0.854  1.00  0.00     0.001 A 
ATOM     85  C   UNL     1      -1.183  17.932   0.026  1.00  0.00     0.000 A 
ENDBRANCH  67  80
ENDBRANCH  41  42
ENDBRANCH  34  36
ENDBRANCH  33  34
ENDBRANCH  32  33
ENDBRANCH  31  32
ENDBRANCH  30  31
ENDBRANCH   1  30
TORSDOF 19
