REMARK SMILES C[C@@H](C(=O)OCCOCCOC(=O)c1ccc(-c2c3nc(c(-c4ccccc4)c4ccc([nH]4)c(-c4ccccc4)c4nc(c(-c5ccccc5)c5ccc2[nH]5)C=C4)C=C3)cc1)c1ccc2c3cc(Cl)ccc3n(C(=O)c3cocn3)c2c1
REMARK SMILES IDX 7 1 6 2 5 3 3 4 4 5 2 6 1 7 62 8 63 9 82 10 64 11 81 12
REMARK SMILES IDX 65 13 73 14 66 15 72 16 67 17 71 18 68 19 70 20 69 21 74 22
REMARK SMILES IDX 75 23 76 24 77 25 80 26 78 27 79 28 8 29 9 30 10 31 11 32
REMARK SMILES IDX 12 33 13 34 14 35 15 36 61 37 16 38 60 39 17 40 18 41 19 42
REMARK SMILES IDX 54 43 20 44 59 45 53 46 55 47 21 48 58 49 52 50 51 51 22 53
REMARK SMILES IDX 44 54 29 55 43 56 30 57 33 58 42 59 56 60 31 61 32 62 41 64
REMARK SMILES IDX 57 65 34 66 23 67 24 68 28 69 25 70 27 71 26 72 45 73 46 74
REMARK SMILES IDX 50 75 47 76 49 77 48 78 35 79 36 80 40 81 37 82 39 83 38 84
REMARK H PARENT 55 52 33 63
REMARK Flexibility Score: inf
ROOT
ATOM      1  C   UNL     1       2.395   4.118   2.287  1.00  0.00     0.202 C 
ENDROOT
BRANCH   1   2
ATOM      2  C   UNL     1       2.422   2.887   3.199  1.00  0.00     0.261 C 
BRANCH   2   3
ATOM      3  O   UNL     1       2.098   1.702   2.456  1.00  0.00    -0.463 OA
BRANCH   3   4
ATOM      4  C   UNL     1       1.084   0.952   2.964  1.00  0.00     0.313 C 
ATOM      5  O   UNL     1       0.608   1.108   4.083  1.00  0.00    -0.252 OA
BRANCH   4   6
ATOM      6  C   UNL     1       0.564  -0.083   1.967  1.00  0.00     0.126 C 
ATOM      7  C   UNL     1       1.250  -0.122   0.596  1.00  0.00     0.025 C 
BRANCH   6   8
ATOM      8  C   UNL     1      -0.944   0.021   1.776  1.00  0.00    -0.032 A 
ATOM      9  C   UNL     1      -1.605   1.243   1.622  1.00  0.00     0.005 A 
ATOM     10  C   UNL     1      -1.699  -1.152   1.781  1.00  0.00     0.032 A 
ATOM     11  C   UNL     1      -2.974   1.317   1.363  1.00  0.00     0.011 A 
ATOM     12  C   UNL     1      -3.102  -1.057   1.727  1.00  0.00     0.058 A 
ATOM     13  C   UNL     1      -3.736   0.140   1.429  1.00  0.00     0.008 A 
ATOM     14  N   UNL     1      -4.082  -2.020   1.989  1.00  0.00    -0.274 N 
ATOM     15  C   UNL     1      -5.123  -0.126   1.318  1.00  0.00     0.009 A 
ATOM     16  C   UNL     1      -5.340  -1.431   1.783  1.00  0.00     0.057 A 
ATOM     17  C   UNL     1      -6.214   0.699   0.971  1.00  0.00     0.031 A 
ATOM     18  C   UNL     1      -6.650  -1.862   2.066  1.00  0.00     0.029 A 
ATOM     19  C   UNL     1      -7.507   0.242   1.196  1.00  0.00     0.041 A 
ATOM     20  C   UNL     1      -7.722  -1.004   1.770  1.00  0.00     0.023 A 
ATOM     21  Cl  UNL     1      -8.840   1.263   0.818  1.00  0.00    -0.084 Cl
BRANCH  14  22
ATOM     22  C   UNL     1      -3.767  -3.303   2.513  1.00  0.00     0.284 C 
ATOM     23  O   UNL     1      -2.737  -3.362   3.184  1.00  0.00    -0.266 OA
BRANCH  22  24
ATOM     24  C   UNL     1      -4.509  -4.532   2.277  1.00  0.00     0.167 A 
ATOM     25  C   UNL     1      -5.409  -4.850   1.285  1.00  0.00     0.231 A 
ATOM     26  N   UNL     1      -4.245  -5.681   3.014  1.00  0.00    -0.211 NA
ATOM     27  O   UNL     1      -5.713  -6.178   1.389  1.00  0.00    -0.451 OA
ATOM     28  C   UNL     1      -4.963  -6.610   2.437  1.00  0.00     0.308 A 
ENDBRANCH  22  24
ENDBRANCH  14  22
ENDBRANCH   6   8
ENDBRANCH   4   6
ENDBRANCH   3   4
ENDBRANCH   2   3
ENDBRANCH   1   2
BRANCH   1  29
ATOM     29  O   UNL     1       1.147   4.476   1.692  1.00  0.00    -0.374 OA
BRANCH  29  30
ATOM     30  C   UNL     1       0.668   3.665   0.624  1.00  0.00     0.202 C 
BRANCH  30  31
ATOM     31  C   UNL     1       1.251   3.859  -0.776  1.00  0.00     0.261 C 
BRANCH  31  32
ATOM     32  O   UNL     1       2.652   3.567  -0.815  1.00  0.00    -0.460 OA
BRANCH  32  33
ATOM     33  C   UNL     1       3.436   4.666  -0.858  1.00  0.00     0.338 C 
ATOM     34  O   UNL     1       3.081   5.833  -0.967  1.00  0.00    -0.246 OA
BRANCH  33  35
ATOM     35  C   UNL     1       4.819   4.290  -0.541  1.00  0.00     0.060 A 
ATOM     36  C   UNL     1       5.453   5.003   0.484  1.00  0.00     0.016 A 
ATOM     37  C   UNL     1       5.497   3.304  -1.259  1.00  0.00     0.016 A 
ATOM     38  C   UNL     1       6.795   4.780   0.755  1.00  0.00     0.010 A 
ATOM     39  C   UNL     1       6.851   3.090  -0.996  1.00  0.00     0.010 A 
ATOM     40  C   UNL     1       7.510   3.860  -0.021  1.00  0.00    -0.014 A 
BRANCH  40  41
ATOM     41  C   UNL     1       8.984   3.844   0.073  1.00  0.00     0.031 A 
ATOM     42  C   UNL     1       9.777   4.579  -0.971  1.00  0.00     0.074 A 
ATOM     43  C   UNL     1       9.596   3.232   1.099  1.00  0.00     0.049 A 
ATOM     44  N   UNL     1      11.073   4.692  -1.099  1.00  0.00    -0.248 NA
ATOM     45  C   UNL     1       9.005   5.280  -2.011  1.00  0.00     0.031 C 
ATOM     46  C   UNL     1       8.921   2.544   2.199  1.00  0.00     0.029 A 
ATOM     47  N   UNL     1      10.930   3.098   1.382  1.00  0.00    -0.354 N 
ATOM     48  C   UNL     1      11.271   5.462  -2.238  1.00  0.00     0.074 A 
ATOM     49  C   UNL     1       9.967   5.767  -2.781  1.00  0.00     0.031 C 
ATOM     50  C   UNL     1       9.849   2.057   3.041  1.00  0.00     0.029 A 
ATOM     51  C   UNL     1      11.177   2.366   2.517  1.00  0.00     0.049 A 
ATOM     52  H   UNL     1      11.642   3.488   0.826  1.00  0.00     0.167 HD
ATOM     53  C   UNL     1      12.439   5.880  -2.779  1.00  0.00     0.031 A 
ATOM     54  C   UNL     1      12.347   1.975   3.055  1.00  0.00     0.031 A 
ATOM     55  C   UNL     1      13.733   5.565  -2.236  1.00  0.00     0.049 A 
ATOM     56  C   UNL     1      13.631   2.382   2.384  1.00  0.00     0.074 A 
ATOM     57  C   UNL     1      14.979   5.951  -2.697  1.00  0.00     0.029 A 
ATOM     58  N   UNL     1      13.944   4.777  -1.115  1.00  0.00    -0.354 N 
ATOM     59  N   UNL     1      13.810   3.129   1.320  1.00  0.00    -0.248 NA
ATOM     60  C   UNL     1      14.877   1.897   2.994  1.00  0.00     0.031 C 
ATOM     61  C   UNL     1      15.947   5.342  -1.892  1.00  0.00     0.029 A 
ATOM     62  C   UNL     1      15.302   4.636  -0.888  1.00  0.00     0.049 A 
ATOM     63  H   UNL     1      13.234   4.377  -0.563  1.00  0.00     0.167 HD
ATOM     64  C   UNL     1      15.185   3.229   1.153  1.00  0.00     0.074 A 
ATOM     65  C   UNL     1      15.793   2.480   2.234  1.00  0.00     0.031 C 
ATOM     66  C   UNL     1      15.885   3.885   0.194  1.00  0.00     0.031 A 
BRANCH  53  67
ATOM     67  C   UNL     1      12.369   6.684  -4.048  1.00  0.00    -0.014 A 
ATOM     68  C   UNL     1      11.880   8.000  -4.061  1.00  0.00     0.009 A 
ATOM     69  C   UNL     1      12.831   6.121  -5.249  1.00  0.00     0.009 A 
ATOM     70  C   UNL     1      11.826   8.723  -5.255  1.00  0.00     0.001 A 
ATOM     71  C   UNL     1      12.804   6.856  -6.435  1.00  0.00     0.001 A 
ATOM     72  C   UNL     1      12.294   8.153  -6.439  1.00  0.00     0.000 A 
ENDBRANCH  53  67
BRANCH  54  73
ATOM     73  C   UNL     1      12.361   1.137   4.282  1.00  0.00    -0.014 A 
ATOM     74  C   UNL     1      12.860   1.643   5.492  1.00  0.00     0.009 A 
ATOM     75  C   UNL     1      11.892  -0.186   4.244  1.00  0.00     0.009 A 
ATOM     76  C   UNL     1      12.916   0.833   6.629  1.00  0.00     0.001 A 
ATOM     77  C   UNL     1      11.918  -0.983   5.390  1.00  0.00     0.001 A 
ATOM     78  C   UNL     1      12.441  -0.476   6.579  1.00  0.00     0.000 A 
ENDBRANCH  54  73
BRANCH  66  79
ATOM     79  C   UNL     1      17.385   3.856   0.297  1.00  0.00    -0.014 A 
ATOM     80  C   UNL     1      18.116   2.687   0.038  1.00  0.00     0.009 A 
ATOM     81  C   UNL     1      18.078   5.035   0.618  1.00  0.00     0.009 A 
ATOM     82  C   UNL     1      19.509   2.690   0.136  1.00  0.00     0.001 A 
ATOM     83  C   UNL     1      19.472   5.043   0.681  1.00  0.00     0.001 A 
ATOM     84  C   UNL     1      20.185   3.868   0.451  1.00  0.00     0.000 A 
ENDBRANCH  66  79
ENDBRANCH  40  41
ENDBRANCH  33  35
ENDBRANCH  32  33
ENDBRANCH  31  32
ENDBRANCH  30  31
ENDBRANCH  29  30
ENDBRANCH   1  29
TORSDOF 17
