REMARK SMILES CC(=O)c1ccc(N2CCN(c3ccc(C(=O)OCCOCCOC(=O)c4ccc(-c5c6nc(c(-c7ccccc7)c7ccc([nH]7)c(-c7ccccc7)c7nc(c(-c8ccccc8)c8ccc5[nH]8)C=C7)C=C6)cc4)cc3NS(=O)(=O)c3ccc(C)cc3)CC2)cc1
REMARK SMILES IDX 20 1 19 2 18 3 16 4 17 5 15 6 12 7 13 8 76 9 14 10 75 11
REMARK SMILES IDX 11 12 8 13 9 14 89 15 10 16 88 17 7 18 4 19 5 20 91 21 6 22
REMARK SMILES IDX 90 23 2 24 1 25 3 26 77 27 78 29 79 30 80 31 81 32 82 33
REMARK SMILES IDX 87 34 83 35 86 36 84 37 85 38 21 39 22 40 23 41 24 42 25 43
REMARK SMILES IDX 26 44 27 45 28 46 74 47 29 48 73 49 30 50 31 51 32 52 67 53
REMARK SMILES IDX 33 54 72 55 66 56 68 57 34 58 71 59 65 60 64 61 35 63 57 64
REMARK SMILES IDX 42 65 56 66 43 67 46 68 55 69 69 70 44 71 45 72 54 74 70 75
REMARK SMILES IDX 47 76 36 77 37 78 41 79 38 80 40 81 39 82 58 83 59 84 63 85
REMARK SMILES IDX 60 86 62 87 61 88 48 89 49 90 53 91 50 92 52 93 51 94
REMARK H PARENT 77 28 68 62 46 73
REMARK Flexibility Score: inf
ROOT
ATOM      1  C   UNL     1       4.646   0.826 -16.833  1.00  0.00     0.202 C 
ENDROOT
BRANCH   1   2
ATOM      2  C   UNL     1       5.868   0.417 -16.001  1.00  0.00     0.261 C 
BRANCH   2   3
ATOM      3  O   UNL     1       5.469   0.025 -14.673  1.00  0.00    -0.460 OA
BRANCH   3   4
ATOM      4  C   UNL     1       5.901   0.829 -13.672  1.00  0.00     0.338 C 
ATOM      5  O   UNL     1       6.670   1.771 -13.773  1.00  0.00    -0.246 OA
BRANCH   4   6
ATOM      6  C   UNL     1       5.185   0.517 -12.409  1.00  0.00     0.062 A 
ATOM      7  C   UNL     1       3.739   0.127 -10.040  1.00  0.00     0.061 A 
ATOM      8  C   UNL     1       4.204   1.399 -10.371  1.00  0.00     0.029 A 
ATOM      9  C   UNL     1       3.959  -0.949 -10.941  1.00  0.00     0.073 A 
ATOM     10  C   UNL     1       4.908   1.597 -11.558  1.00  0.00     0.018 A 
ATOM     11  C   UNL     1       4.732  -0.769 -12.088  1.00  0.00     0.044 A 
BRANCH   7  12
ATOM     12  N   UNL     1       3.074  -0.153  -8.847  1.00  0.00    -0.366 N 
ATOM     13  N   UNL     1       1.978  -0.723  -6.308  1.00  0.00    -0.368 N 
ATOM     14  C   UNL     1       1.173   0.023  -7.287  1.00  0.00     0.138 C 
ATOM     15  C   UNL     1       2.986  -1.642  -6.859  1.00  0.00     0.138 C 
ATOM     16  C   UNL     1       2.108   0.787  -8.260  1.00  0.00     0.138 C 
ATOM     17  C   UNL     1       3.896  -0.890  -7.850  1.00  0.00     0.138 C 
BRANCH  13  18
ATOM     18  C   UNL     1       1.564  -0.880  -5.006  1.00  0.00     0.037 A 
ATOM     19  C   UNL     1       0.773  -1.038  -2.309  1.00  0.00     0.017 A 
ATOM     20  C   UNL     1      -0.155  -1.264  -3.329  1.00  0.00     0.014 A 
ATOM     21  C   UNL     1       2.104  -0.775  -2.629  1.00  0.00     0.014 A 
ATOM     22  C   UNL     1       0.239  -1.169  -4.668  1.00  0.00     0.026 A 
ATOM     23  C   UNL     1       2.491  -0.713  -3.968  1.00  0.00     0.026 A 
BRANCH  19  24
ATOM     24  C   UNL     1       0.305  -1.061  -0.901  1.00  0.00     0.159 C 
ATOM     25  C   UNL     1       0.950  -0.111   0.074  1.00  0.00     0.093 C 
ATOM     26  O   UNL     1      -0.625  -1.796  -0.578  1.00  0.00    -0.295 OA
ENDBRANCH  19  24
ENDBRANCH  13  18
ENDBRANCH   7  12
BRANCH   9  27
ATOM     27  N   UNL     1       3.088  -2.062 -10.699  1.00  0.00    -0.277 N 
ATOM     28  H   UNL     1       2.241  -1.844 -10.247  1.00  0.00     0.180 HD
BRANCH  27  29
ATOM     29  S   UNL     1       3.301  -3.659 -11.070  1.00  0.00     0.261 S 
ATOM     30  O   UNL     1       4.630  -4.042 -10.645  1.00  0.00    -0.201 OA
ATOM     31  O   UNL     1       2.125  -4.350 -10.586  1.00  0.00    -0.201 OA
BRANCH  29  32
ATOM     32  C   UNL     1       3.241  -3.724 -12.838  1.00  0.00     0.087 A 
ATOM     33  C   UNL     1       4.066  -4.650 -13.477  1.00  0.00     0.022 A 
ATOM     34  C   UNL     1       2.629  -2.692 -13.551  1.00  0.00     0.022 A 
ATOM     35  C   UNL     1       4.408  -4.450 -14.809  1.00  0.00     0.005 A 
ATOM     36  C   UNL     1       3.023  -2.469 -14.864  1.00  0.00     0.005 A 
ATOM     37  C   UNL     1       3.965  -3.304 -15.475  1.00  0.00    -0.051 A 
ATOM     38  C   UNL     1       4.541  -2.962 -16.810  1.00  0.00     0.044 C 
ENDBRANCH  29  32
ENDBRANCH  27  29
ENDBRANCH   9  27
ENDBRANCH   4   6
ENDBRANCH   3   4
ENDBRANCH   2   3
ENDBRANCH   1   2
BRANCH   1  39
ATOM     39  O   UNL     1       4.003   2.003 -16.349  1.00  0.00    -0.374 OA
BRANCH  39  40
ATOM     40  C   UNL     1       2.922   1.761 -15.444  1.00  0.00     0.202 C 
BRANCH  40  41
ATOM     41  C   UNL     1       1.573   1.540 -16.144  1.00  0.00     0.261 C 
BRANCH  41  42
ATOM     42  O   UNL     1       1.444   0.189 -16.640  1.00  0.00    -0.460 OA
BRANCH  42  43
ATOM     43  C   UNL     1       1.532   0.018 -17.983  1.00  0.00     0.338 C 
ATOM     44  O   UNL     1       1.690   0.893 -18.819  1.00  0.00    -0.246 OA
BRANCH  43  45
ATOM     45  C   UNL     1       1.554  -1.432 -18.317  1.00  0.00     0.060 A 
ATOM     46  C   UNL     1       2.305  -1.846 -19.427  1.00  0.00     0.016 A 
ATOM     47  C   UNL     1       0.862  -2.385 -17.562  1.00  0.00     0.016 A 
ATOM     48  C   UNL     1       2.365  -3.201 -19.782  1.00  0.00     0.010 A 
ATOM     49  C   UNL     1       0.930  -3.742 -17.912  1.00  0.00     0.010 A 
ATOM     50  C   UNL     1       1.669  -4.161 -19.033  1.00  0.00    -0.014 A 
BRANCH  50  51
ATOM     51  C   UNL     1       1.551  -5.565 -19.512  1.00  0.00     0.031 A 
ATOM     52  C   UNL     1       0.346  -5.927 -20.335  1.00  0.00     0.074 A 
ATOM     53  C   UNL     1       2.460  -6.517 -19.222  1.00  0.00     0.049 A 
ATOM     54  N   UNL     1       0.003  -7.085 -20.838  1.00  0.00    -0.248 NA
ATOM     55  C   UNL     1      -0.596  -4.834 -20.633  1.00  0.00     0.031 C 
ATOM     56  C   UNL     1       3.695  -6.318 -18.476  1.00  0.00     0.029 A 
ATOM     57  N   UNL     1       2.475  -7.861 -19.515  1.00  0.00    -0.354 N 
ATOM     58  C   UNL     1      -1.186  -6.859 -21.517  1.00  0.00     0.074 A 
ATOM     59  C   UNL     1      -1.527  -5.465 -21.331  1.00  0.00     0.031 C 
ATOM     60  C   UNL     1       4.337  -7.488 -18.341  1.00  0.00     0.029 A 
ATOM     61  C   UNL     1       3.550  -8.533 -18.980  1.00  0.00     0.049 A 
ATOM     62  H   UNL     1       1.780  -8.301 -20.057  1.00  0.00     0.167 HD
ATOM     63  C   UNL     1      -1.928  -7.730 -22.239  1.00  0.00     0.031 A 
ATOM     64  C   UNL     1       3.866  -9.842 -18.988  1.00  0.00     0.031 A 
ATOM     65  C   UNL     1      -1.620  -9.125 -22.395  1.00  0.00     0.049 A 
ATOM     66  C   UNL     1       2.972 -10.810 -19.711  1.00  0.00     0.074 A 
ATOM     67  C   UNL     1      -2.315 -10.084 -23.111  1.00  0.00     0.029 A 
ATOM     68  N   UNL     1      -0.539  -9.764 -21.811  1.00  0.00    -0.354 N 
ATOM     69  N   UNL     1       1.880 -10.570 -20.393  1.00  0.00    -0.248 NA
ATOM     70  C   UNL     1       3.366 -12.227 -19.681  1.00  0.00     0.031 C 
ATOM     71  C   UNL     1      -1.685 -11.316 -22.914  1.00  0.00     0.029 A 
ATOM     72  C   UNL     1      -0.561 -11.111 -22.129  1.00  0.00     0.049 A 
ATOM     73  H   UNL     1       0.144  -9.326 -21.253  1.00  0.00     0.167 HD
ATOM     74  C   UNL     1       1.482 -11.796 -20.912  1.00  0.00     0.074 A 
ATOM     75  C   UNL     1       2.450 -12.776 -20.467  1.00  0.00     0.031 C 
ATOM     76  C   UNL     1       0.415 -12.076 -21.697  1.00  0.00     0.031 A 
BRANCH  63  77
ATOM     77  C   UNL     1      -3.168  -7.192 -22.891  1.00  0.00    -0.014 A 
ATOM     78  C   UNL     1      -3.089  -6.328 -23.995  1.00  0.00     0.009 A 
ATOM     79  C   UNL     1      -4.430  -7.567 -22.407  1.00  0.00     0.009 A 
ATOM     80  C   UNL     1      -4.252  -5.822 -24.579  1.00  0.00     0.001 A 
ATOM     81  C   UNL     1      -5.590  -7.083 -23.011  1.00  0.00     0.001 A 
ATOM     82  C   UNL     1      -5.501  -6.204 -24.089  1.00  0.00     0.000 A 
ENDBRANCH  63  77
BRANCH  64  83
ATOM     83  C   UNL     1       5.088 -10.327 -18.290  1.00  0.00    -0.014 A 
ATOM     84  C   UNL     1       6.182 -10.816 -19.020  1.00  0.00     0.009 A 
ATOM     85  C   UNL     1       5.152 -10.337 -16.887  1.00  0.00     0.009 A 
ATOM     86  C   UNL     1       7.299 -11.337 -18.361  1.00  0.00     0.001 A 
ATOM     87  C   UNL     1       6.282 -10.832 -16.232  1.00  0.00     0.001 A 
ATOM     88  C   UNL     1       7.349 -11.343 -16.968  1.00  0.00     0.000 A 
ENDBRANCH  64  83
BRANCH  76  89
ATOM     89  C   UNL     1       0.263 -13.489 -22.185  1.00  0.00    -0.014 A 
ATOM     90  C   UNL     1      -0.142 -14.524 -21.329  1.00  0.00     0.009 A 
ATOM     91  C   UNL     1       0.466 -13.770 -23.546  1.00  0.00     0.009 A 
ATOM     92  C   UNL     1      -0.318 -15.818 -21.824  1.00  0.00     0.001 A 
ATOM     93  C   UNL     1       0.260 -15.056 -24.043  1.00  0.00     0.001 A 
ATOM     94  C   UNL     1      -0.125 -16.081 -23.180  1.00  0.00     0.000 A 
ENDBRANCH  76  89
ENDBRANCH  50  51
ENDBRANCH  43  45
ENDBRANCH  42  43
ENDBRANCH  41  42
ENDBRANCH  40  41
ENDBRANCH  39  40
ENDBRANCH   1  39
TORSDOF 20
