REMARK SMILES CC(C)(C)c1ccc(OCC(=O)N/N=C/c2ccc(C(=O)OCCOCCOC(=O)c3ccc(-c4c5nc(c(-c6ccccc6)c6ccc([nH]6)c(-c6ccccc6)c6nc(c(-c7ccccc7)c7ccc4[nH]7)C=C6)C=C5)cc3)cc2)cc1
REMARK SMILES IDX 23 1 22 2 20 3 21 4 19 5 16 6 17 7 80 8 18 9 79 10 15 11
REMARK SMILES IDX 14 12 13 13 11 14 12 15 10 17 9 18 8 19 5 20 6 21 82 22 7 23
REMARK SMILES IDX 81 24 2 25 1 26 3 27 4 28 24 29 25 30 26 31 27 32 28 33
REMARK SMILES IDX 29 34 30 35 31 36 32 37 78 38 33 39 77 40 34 41 35 42 36 43
REMARK SMILES IDX 71 44 37 45 76 46 70 47 72 48 38 49 75 50 69 51 68 52 39 54
REMARK SMILES IDX 61 55 46 56 60 57 47 58 50 59 59 60 73 61 48 62 49 63 58 65
REMARK SMILES IDX 74 66 51 67 40 68 41 69 45 70 42 71 44 72 43 73 62 74 63 75
REMARK SMILES IDX 67 76 64 77 66 78 65 79 52 80 53 81 57 82 54 83 56 84 55 85
REMARK H PARENT 13 16 72 53 50 64
REMARK Flexibility Score: inf
ROOT
ATOM      1  C   UNL     1       1.708 -12.824  -3.143  1.00  0.00     0.261 C 
ENDROOT
BRANCH   1   2
ATOM      2  O   UNL     1       2.388 -11.866  -2.315  1.00  0.00    -0.460 OA
BRANCH   2   3
ATOM      3  C   UNL     1       1.818 -10.638  -2.280  1.00  0.00     0.338 C 
ATOM      4  O   UNL     1       0.890 -10.238  -2.968  1.00  0.00    -0.246 OA
BRANCH   3   5
ATOM      5  C   UNL     1       2.357  -9.863  -1.141  1.00  0.00     0.060 A 
ATOM      6  C   UNL     1       3.236  -8.339   1.009  1.00  0.00    -0.005 A 
ATOM      7  C   UNL     1       1.886  -8.306   0.653  1.00  0.00     0.010 A 
ATOM      8  C   UNL     1       4.148  -9.139   0.316  1.00  0.00     0.010 A 
ATOM      9  C   UNL     1       1.452  -9.055  -0.436  1.00  0.00     0.016 A 
ATOM     10  C   UNL     1       3.702  -9.923  -0.753  1.00  0.00     0.016 A 
BRANCH   6  11
ATOM     11  C   UNL     1       3.661  -7.489   2.131  1.00  0.00     0.141 C 
ATOM     12  N   UNL     1       4.695  -6.730   2.025  1.00  0.00    -0.181 NA
BRANCH  12  13
ATOM     13  N   UNL     1       5.057  -5.843   2.994  1.00  0.00    -0.244 N 
ATOM     14  C   UNL     1       4.410  -5.240   4.041  1.00  0.00     0.277 C 
ATOM     15  O   UNL     1       5.054  -4.434   4.728  1.00  0.00    -0.269 OA
ATOM     16  H   UNL     1       6.002  -5.573   2.926  1.00  0.00     0.193 HD
BRANCH  14  17
ATOM     17  C   UNL     1       2.960  -5.542   4.411  1.00  0.00     0.331 C 
BRANCH  17  18
ATOM     18  O   UNL     1       1.993  -5.404   3.383  1.00  0.00    -0.484 OA
BRANCH  18  19
ATOM     19  C   UNL     1       1.706  -4.140   2.950  1.00  0.00     0.120 A 
ATOM     20  C   UNL     1       0.923  -1.631   1.872  1.00  0.00    -0.042 A 
ATOM     21  C   UNL     1       0.548  -2.840   1.260  1.00  0.00     0.008 A 
ATOM     22  C   UNL     1       1.715  -1.718   3.026  1.00  0.00     0.008 A 
ATOM     23  C   UNL     1       0.929  -4.075   1.796  1.00  0.00     0.047 A 
ATOM     24  C   UNL     1       2.100  -2.955   3.561  1.00  0.00     0.047 A 
BRANCH  20  25
ATOM     25  C   UNL     1       0.457  -0.286   1.290  1.00  0.00    -0.013 C 
ATOM     26  C   UNL     1       1.027  -0.105  -0.132  1.00  0.00     0.016 C 
ATOM     27  C   UNL     1       0.900   0.938   2.124  1.00  0.00     0.016 C 
ATOM     28  C   UNL     1      -1.086  -0.258   1.229  1.00  0.00     0.016 C 
ENDBRANCH  20  25
ENDBRANCH  18  19
ENDBRANCH  17  18
ENDBRANCH  14  17
ENDBRANCH  12  13
ENDBRANCH   6  11
ENDBRANCH   3   5
ENDBRANCH   2   3
ENDBRANCH   1   2
BRANCH   1  29
ATOM     29  C   UNL     1       1.040 -13.912  -2.297  1.00  0.00     0.202 C 
BRANCH  29  30
ATOM     30  O   UNL     1       0.001 -13.473  -1.422  1.00  0.00    -0.374 OA
BRANCH  30  31
ATOM     31  C   UNL     1       0.402 -12.949  -0.154  1.00  0.00     0.202 C 
BRANCH  31  32
ATOM     32  C   UNL     1       0.763 -13.986   0.917  1.00  0.00     0.261 C 
BRANCH  32  33
ATOM     33  O   UNL     1       2.004 -14.650   0.612  1.00  0.00    -0.460 OA
BRANCH  33  34
ATOM     34  C   UNL     1       1.889 -15.957   0.283  1.00  0.00     0.338 C 
ATOM     35  O   UNL     1       0.877 -16.644   0.310  1.00  0.00    -0.246 OA
BRANCH  34  36
ATOM     36  C   UNL     1       3.150 -16.436  -0.310  1.00  0.00     0.060 A 
ATOM     37  C   UNL     1       3.080 -17.062  -1.561  1.00  0.00     0.016 A 
ATOM     38  C   UNL     1       4.368 -16.336   0.367  1.00  0.00     0.016 A 
ATOM     39  C   UNL     1       4.220 -17.636  -2.120  1.00  0.00     0.010 A 
ATOM     40  C   UNL     1       5.509 -16.921  -0.191  1.00  0.00     0.010 A 
ATOM     41  C   UNL     1       5.432 -17.603  -1.419  1.00  0.00    -0.014 A 
BRANCH  41  42
ATOM     42  C   UNL     1       6.579 -18.408  -1.905  1.00  0.00     0.031 A 
ATOM     43  C   UNL     1       6.852 -19.745  -1.274  1.00  0.00     0.074 A 
ATOM     44  C   UNL     1       7.350 -17.969  -2.916  1.00  0.00     0.049 A 
ATOM     45  N   UNL     1       7.807 -20.603  -1.529  1.00  0.00    -0.248 NA
ATOM     46  C   UNL     1       5.924 -20.173  -0.215  1.00  0.00     0.031 C 
ATOM     47  C   UNL     1       7.162 -16.713  -3.640  1.00  0.00     0.029 A 
ATOM     48  N   UNL     1       8.450 -18.539  -3.505  1.00  0.00    -0.354 N 
ATOM     49  C   UNL     1       7.600 -21.666  -0.658  1.00  0.00     0.074 A 
ATOM     50  C   UNL     1       6.448 -21.334   0.151  1.00  0.00     0.031 C 
ATOM     51  C   UNL     1       8.121 -16.605  -4.576  1.00  0.00     0.029 A 
ATOM     52  C   UNL     1       9.005 -17.766  -4.494  1.00  0.00     0.049 A 
ATOM     53  H   UNL     1       8.808 -19.418  -3.242  1.00  0.00     0.167 HD
ATOM     54  C   UNL     1       8.303 -22.818  -0.546  1.00  0.00     0.031 A 
ATOM     55  C   UNL     1      10.112 -17.964  -5.236  1.00  0.00     0.031 A 
ATOM     56  C   UNL     1       9.456 -23.145  -1.340  1.00  0.00     0.049 A 
ATOM     57  C   UNL     1      10.922 -19.217  -5.037  1.00  0.00     0.074 A 
ATOM     58  C   UNL     1      10.226 -24.296  -1.310  1.00  0.00     0.029 A 
ATOM     59  N   UNL     1      10.011 -22.317  -2.302  1.00  0.00    -0.354 N 
ATOM     60  N   UNL     1      10.701 -20.226  -4.229  1.00  0.00    -0.248 NA
ATOM     61  C   UNL     1      12.132 -19.360  -5.861  1.00  0.00     0.031 C 
ATOM     62  C   UNL     1      11.280 -24.139  -2.216  1.00  0.00     0.029 A 
ATOM     63  C   UNL     1      11.131 -22.917  -2.853  1.00  0.00     0.049 A 
ATOM     64  H   UNL     1       9.661 -21.433  -2.557  1.00  0.00     0.167 HD
ATOM     65  C   UNL     1      11.725 -21.134  -4.467  1.00  0.00     0.074 A 
ATOM     66  C   UNL     1      12.560 -20.563  -5.504  1.00  0.00     0.031 C 
ATOM     67  C   UNL     1      11.953 -22.336  -3.882  1.00  0.00     0.031 A 
BRANCH  54  68
ATOM     68  C   UNL     1       7.858 -23.797   0.504  1.00  0.00    -0.014 A 
ATOM     69  C   UNL     1       6.677 -24.541   0.356  1.00  0.00     0.009 A 
ATOM     70  C   UNL     1       8.650 -24.000   1.645  1.00  0.00     0.009 A 
ATOM     71  C   UNL     1       6.282 -25.444   1.346  1.00  0.00     0.001 A 
ATOM     72  C   UNL     1       8.267 -24.923   2.620  1.00  0.00     0.001 A 
ATOM     73  C   UNL     1       7.079 -25.637   2.474  1.00  0.00     0.000 A 
ENDBRANCH  54  68
BRANCH  55  74
ATOM     74  C   UNL     1      10.536 -16.942  -6.228  1.00  0.00    -0.014 A 
ATOM     75  C   UNL     1      10.460 -17.204  -7.604  1.00  0.00     0.009 A 
ATOM     76  C   UNL     1      11.039 -15.703  -5.800  1.00  0.00     0.009 A 
ATOM     77  C   UNL     1      10.903 -16.256  -8.530  1.00  0.00     0.001 A 
ATOM     78  C   UNL     1      11.454 -14.747  -6.728  1.00  0.00     0.001 A 
ATOM     79  C   UNL     1      11.395 -15.027  -8.092  1.00  0.00     0.000 A 
ENDBRANCH  55  74
BRANCH  67  80
ATOM     80  C   UNL     1      13.130 -23.131  -4.374  1.00  0.00    -0.014 A 
ATOM     81  C   UNL     1      14.446 -22.756  -4.063  1.00  0.00     0.009 A 
ATOM     82  C   UNL     1      12.914 -24.298  -5.124  1.00  0.00     0.009 A 
ATOM     83  C   UNL     1      15.523 -23.517  -4.522  1.00  0.00     0.001 A 
ATOM     84  C   UNL     1      13.991 -25.073  -5.556  1.00  0.00     0.001 A 
ATOM     85  C   UNL     1      15.295 -24.677  -5.263  1.00  0.00     0.000 A 
ENDBRANCH  67  80
ENDBRANCH  41  42
ENDBRANCH  34  36
ENDBRANCH  33  34
ENDBRANCH  32  33
ENDBRANCH  31  32
ENDBRANCH  30  31
ENDBRANCH  29  30
ENDBRANCH   1  29
TORSDOF 20
