REMARK SMILES O=C(OCCOCCOC(=O)c1ccc(N2C(=O)C[C@H]([NH+]3CCN(c4ccc(F)cc4)CC3)C2=O)cc1)c1ccc(-c2c3nc(c(-c4ccccc4)c4ccc([nH]4)c(-c4ccccc4)c4nc(c(-c5ccccc5)c5ccc2[nH]5)C=C4)C=C3)cc1
REMARK SMILES IDX 7 1 6 2 5 3 4 4 3 5 2 6 1 7 38 8 39 9 85 10 40 11 84 12
REMARK SMILES IDX 41 13 42 14 43 15 78 16 44 17 83 18 77 19 79 20 45 21 82 22
REMARK SMILES IDX 76 23 75 24 46 26 68 27 53 28 67 29 54 30 57 31 66 32 80 33
REMARK SMILES IDX 55 34 56 35 65 37 81 38 58 39 47 40 48 41 52 42 49 43 51 44
REMARK SMILES IDX 50 45 69 46 70 47 74 48 71 49 73 50 72 51 59 52 60 53 64 54
REMARK SMILES IDX 61 55 63 56 62 57 8 58 9 59 10 60 11 61 12 62 13 63 37 64
REMARK SMILES IDX 14 65 36 66 15 67 16 68 17 69 34 70 18 71 19 72 20 73 35 74
REMARK SMILES IDX 21 75 22 76 33 77 23 79 32 80 24 81 25 82 26 83 31 84 27 85
REMARK SMILES IDX 30 86 28 87 29 88
REMARK H PARENT 79 25 57 36 21 78
REMARK Flexibility Score: inf
ROOT
ATOM      1  C   UNL     1       2.719  -0.344  -2.096  1.00  0.00     0.202 C 
ENDROOT
BRANCH   1   2
ATOM      2  O   UNL     1       4.055  -0.422  -1.584  1.00  0.00    -0.374 OA
BRANCH   2   3
ATOM      3  C   UNL     1       4.316  -1.499  -0.683  1.00  0.00     0.202 C 
BRANCH   3   4
ATOM      4  C   UNL     1       4.004  -1.179   0.780  1.00  0.00     0.261 C 
BRANCH   4   5
ATOM      5  O   UNL     1       2.624  -0.806   0.927  1.00  0.00    -0.460 OA
BRANCH   5   6
ATOM      6  C   UNL     1       2.105   0.432   1.091  1.00  0.00     0.338 C 
ATOM      7  O   UNL     1       0.889   0.547   1.240  1.00  0.00    -0.246 OA
BRANCH   6   8
ATOM      8  C   UNL     1       2.927   1.680   1.114  1.00  0.00     0.060 A 
ATOM      9  C   UNL     1       4.125   1.861   0.421  1.00  0.00     0.016 A 
ATOM     10  C   UNL     1       2.395   2.781   1.807  1.00  0.00     0.016 A 
ATOM     11  C   UNL     1       4.811   3.063   0.456  1.00  0.00     0.010 A 
ATOM     12  C   UNL     1       3.056   4.012   1.813  1.00  0.00     0.010 A 
ATOM     13  C   UNL     1       4.277   4.147   1.145  1.00  0.00    -0.014 A 
BRANCH  13  14
ATOM     14  C   UNL     1       5.080   5.377   1.211  1.00  0.00     0.031 A 
ATOM     15  C   UNL     1       5.831   5.669   2.470  1.00  0.00     0.074 A 
ATOM     16  C   UNL     1       5.235   6.122   0.103  1.00  0.00     0.049 A 
ATOM     17  N   UNL     1       6.600   6.684   2.756  1.00  0.00    -0.248 NA
ATOM     18  C   UNL     1       5.714   4.672   3.547  1.00  0.00     0.031 C 
ATOM     19  C   UNL     1       4.644   5.823  -1.205  1.00  0.00     0.029 A 
ATOM     20  N   UNL     1       5.969   7.256  -0.114  1.00  0.00    -0.354 N 
ATOM     21  C   UNL     1       7.035   6.463   4.056  1.00  0.00     0.074 A 
ATOM     22  C   UNL     1       6.444   5.222   4.504  1.00  0.00     0.031 C 
ATOM     23  C   UNL     1       5.069   6.732  -2.095  1.00  0.00     0.029 A 
ATOM     24  C   UNL     1       5.900   7.713  -1.407  1.00  0.00     0.049 A 
ATOM     25  H   UNL     1       6.495   7.701   0.589  1.00  0.00     0.167 HD
ATOM     26  C   UNL     1       7.845   7.242   4.808  1.00  0.00     0.031 A 
ATOM     27  C   UNL     1       6.431   8.820  -1.956  1.00  0.00     0.031 A 
ATOM     28  C   UNL     1       8.396   8.484   4.340  1.00  0.00     0.049 A 
ATOM     29  C   UNL     1       7.234   9.727  -1.067  1.00  0.00     0.074 A 
ATOM     30  C   UNL     1       9.168   9.404   5.022  1.00  0.00     0.029 A 
ATOM     31  N   UNL     1       8.222   8.976   3.052  1.00  0.00    -0.354 N 
ATOM     32  N   UNL     1       7.582   9.556   0.187  1.00  0.00    -0.248 NA
ATOM     33  C   UNL     1       7.702  10.986  -1.659  1.00  0.00     0.031 C 
ATOM     34  C   UNL     1       9.418  10.479   4.161  1.00  0.00     0.029 A 
ATOM     35  C   UNL     1       8.852  10.200   2.925  1.00  0.00     0.049 A 
ATOM     36  H   UNL     1       7.724   8.521   2.336  1.00  0.00     0.167 HD
ATOM     37  C   UNL     1       8.319  10.678   0.534  1.00  0.00     0.074 A 
ATOM     38  C   UNL     1       8.386  11.512  -0.652  1.00  0.00     0.031 C 
ATOM     39  C   UNL     1       8.887  10.998   1.724  1.00  0.00     0.031 A 
BRANCH  26  40
ATOM     40  C   UNL     1       8.076   6.802   6.225  1.00  0.00    -0.014 A 
ATOM     41  C   UNL     1       8.866   5.682   6.533  1.00  0.00     0.009 A 
ATOM     42  C   UNL     1       7.431   7.484   7.269  1.00  0.00     0.009 A 
ATOM     43  C   UNL     1       8.961   5.225   7.850  1.00  0.00     0.001 A 
ATOM     44  C   UNL     1       7.550   7.041   8.587  1.00  0.00     0.001 A 
ATOM     45  C   UNL     1       8.302   5.903   8.875  1.00  0.00     0.000 A 
ENDBRANCH  26  40
BRANCH  27  46
ATOM     46  C   UNL     1       6.171   9.150  -3.383  1.00  0.00    -0.014 A 
ATOM     47  C   UNL     1       7.211   9.154  -4.324  1.00  0.00     0.009 A 
ATOM     48  C   UNL     1       4.870   9.457  -3.816  1.00  0.00     0.009 A 
ATOM     49  C   UNL     1       6.955   9.473  -5.662  1.00  0.00     0.001 A 
ATOM     50  C   UNL     1       4.612   9.746  -5.157  1.00  0.00     0.001 A 
ATOM     51  C   UNL     1       5.657   9.763  -6.078  1.00  0.00     0.000 A 
ENDBRANCH  27  46
BRANCH  39  52
ATOM     52  C   UNL     1       9.647  12.290   1.780  1.00  0.00    -0.014 A 
ATOM     53  C   UNL     1       8.980  13.524   1.806  1.00  0.00     0.009 A 
ATOM     54  C   UNL     1      11.048  12.264   1.857  1.00  0.00     0.009 A 
ATOM     55  C   UNL     1       9.708  14.712   1.879  1.00  0.00     0.001 A 
ATOM     56  C   UNL     1      11.770  13.452   1.960  1.00  0.00     0.001 A 
ATOM     57  C   UNL     1      11.100  14.675   1.962  1.00  0.00     0.000 A 
ENDBRANCH  39  52
ENDBRANCH  13  14
ENDBRANCH   6   8
ENDBRANCH   5   6
ENDBRANCH   4   5
ENDBRANCH   3   4
ENDBRANCH   2   3
ENDBRANCH   1   2
BRANCH   1  58
ATOM     58  C   UNL     1       2.767  -0.210  -3.620  1.00  0.00     0.261 C 
BRANCH  58  59
ATOM     59  O   UNL     1       3.383  -1.391  -4.157  1.00  0.00    -0.460 OA
BRANCH  59  60
ATOM     60  C   UNL     1       4.739  -1.341  -4.206  1.00  0.00     0.338 C 
ATOM     61  O   UNL     1       5.454  -0.354  -4.183  1.00  0.00    -0.246 OA
BRANCH  60  62
ATOM     62  C   UNL     1       5.239  -2.721  -4.074  1.00  0.00     0.060 A 
ATOM     63  C   UNL     1       6.287  -2.975  -3.179  1.00  0.00     0.018 A 
ATOM     64  C   UNL     1       4.657  -3.763  -4.792  1.00  0.00     0.018 A 
ATOM     65  C   UNL     1       6.745  -4.280  -2.985  1.00  0.00     0.028 A 
ATOM     66  C   UNL     1       5.171  -5.049  -4.657  1.00  0.00     0.028 A 
ATOM     67  C   UNL     1       6.223  -5.315  -3.764  1.00  0.00     0.052 A 
BRANCH  67  68
ATOM     68  N   UNL     1       6.762  -6.613  -3.706  1.00  0.00    -0.245 N 
ATOM     69  C   UNL     1       7.048  -7.348  -4.830  1.00  0.00     0.240 C 
ATOM     70  C   UNL     1       7.030  -7.313  -2.547  1.00  0.00     0.292 C 
ATOM     71  O   UNL     1       6.907  -7.030  -6.003  1.00  0.00    -0.274 OA
ATOM     72  C   UNL     1       7.672  -8.635  -4.403  1.00  0.00     0.176 C 
ATOM     73  C   UNL     1       7.224  -8.778  -2.958  1.00  0.00     0.284 C 
ATOM     74  O   UNL     1       7.016  -6.899  -1.396  1.00  0.00    -0.267 OA
BRANCH  73  75
ATOM     75  N   UNL     1       6.016  -9.584  -2.670  1.00  0.00    -0.321 N 
ATOM     76  C   UNL     1       4.711  -9.089  -3.155  1.00  0.00     0.284 C 
ATOM     77  C   UNL     1       6.140 -11.030  -2.960  1.00  0.00     0.284 C 
ATOM     78  H   UNL     1       5.992  -9.446  -1.659  1.00  0.00     0.348 HD
ATOM     79  C   UNL     1       4.369  -9.421  -4.623  1.00  0.00     0.178 C 
ATOM     80  C   UNL     1       5.703 -11.530  -4.365  1.00  0.00     0.178 C 
ATOM     81  N   UNL     1       4.495 -10.859  -4.848  1.00  0.00    -0.360 N 
BRANCH  81  82
ATOM     82  C   UNL     1       3.355 -11.543  -5.216  1.00  0.00     0.037 A 
ATOM     83  C   UNL     1       2.689 -11.209  -6.408  1.00  0.00     0.029 A 
ATOM     84  C   UNL     1       2.785 -12.521  -4.393  1.00  0.00     0.029 A 
ATOM     85  C   UNL     1       1.485 -11.820  -6.761  1.00  0.00     0.041 A 
ATOM     86  C   UNL     1       1.572 -13.126  -4.732  1.00  0.00     0.041 A 
ATOM     87  C   UNL     1       0.932 -12.767  -5.912  1.00  0.00     0.123 A 
ATOM     88  F   UNL     1      -0.238 -13.336  -6.230  1.00  0.00    -0.207 F 
ENDBRANCH  81  82
ENDBRANCH  73  75
ENDBRANCH  67  68
ENDBRANCH  60  62
ENDBRANCH  59  60
ENDBRANCH  58  59
ENDBRANCH   1  58
TORSDOF 17
