REMARK SMILES O=C(CCc1cn(-c2ccc(Br)cc2)nc1-c1ccccc1)OCCOCCOC(=O)c1ccc(-c2c3nc(c(-c4ccccc4)c4ccc([nH]4)c(-c4ccccc4)c4nc(c(-c5ccccc5)c5ccc2[nH]5)C=C4)C=C3)cc1
REMARK SMILES IDX 25 1 24 2 23 3 2 4 1 5 3 6 4 7 5 8 6 9 16 10 7 11 15 12
REMARK SMILES IDX 17 13 18 14 22 15 19 16 21 17 20 18 8 19 9 20 14 21 10 22
REMARK SMILES IDX 13 23 11 24 12 25 26 26 27 27 28 28 29 29 30 30 31 31 32 32
REMARK SMILES IDX 33 33 79 34 34 35 78 36 35 37 36 38 37 39 72 40 38 41 77 42
REMARK SMILES IDX 71 43 73 44 39 45 76 46 70 47 69 48 40 50 62 51 47 52 61 53
REMARK SMILES IDX 48 54 51 55 60 56 74 57 49 58 50 59 59 61 75 62 52 63 41 64
REMARK SMILES IDX 42 65 46 66 43 67 45 68 44 69 63 70 64 71 68 72 65 73 67 74
REMARK SMILES IDX 66 75 53 76 54 77 58 78 55 79 57 80 56 81
REMARK H PARENT 73 49 51 60
REMARK Flexibility Score: inf
ROOT
ATOM      1  C   UNL     1       4.318   0.920   0.842  1.00  0.00     0.202 C 
ENDROOT
BRANCH   1   2
ATOM      2  C   UNL     1       3.193   1.513  -0.005  1.00  0.00     0.261 C 
BRANCH   2   3
ATOM      3  O   UNL     1       2.219   0.684  -0.689  1.00  0.00    -0.463 OA
BRANCH   3   4
ATOM      4  C   UNL     1       2.059  -0.621  -0.939  1.00  0.00     0.306 C 
ATOM      5  O   UNL     1       1.049  -0.991  -1.539  1.00  0.00    -0.252 OA
BRANCH   4   6
ATOM      6  C   UNL     1       3.076  -1.633  -0.522  1.00  0.00     0.127 C 
BRANCH   6   7
ATOM      7  C   UNL     1       3.913  -2.122  -1.693  1.00  0.00     0.051 C 
BRANCH   7   8
ATOM      8  C   UNL     1       5.018  -1.188  -2.078  1.00  0.00    -0.001 A 
ATOM      9  C   UNL     1       4.930   0.122  -2.492  1.00  0.00     0.119 A 
ATOM     10  C   UNL     1       6.419  -1.463  -2.161  1.00  0.00     0.096 A 
ATOM     11  N   UNL     1       6.205   0.635  -2.430  1.00  0.00    -0.240 N 
ATOM     12  N   UNL     1       7.122  -0.315  -2.157  1.00  0.00    -0.168 NA
BRANCH  10  13
ATOM     13  C   UNL     1       7.041  -2.783  -2.279  1.00  0.00     0.002 A 
ATOM     14  C   UNL     1       8.287  -3.076  -1.722  1.00  0.00     0.010 A 
ATOM     15  C   UNL     1       6.386  -3.775  -3.034  1.00  0.00     0.010 A 
ATOM     16  C   UNL     1       8.844  -4.351  -1.886  1.00  0.00     0.001 A 
ATOM     17  C   UNL     1       6.934  -5.046  -3.187  1.00  0.00     0.001 A 
ATOM     18  C   UNL     1       8.165  -5.334  -2.609  1.00  0.00     0.000 A 
ENDBRANCH  10  13
BRANCH  11  19
ATOM     19  C   UNL     1       6.502   2.012  -2.475  1.00  0.00     0.065 A 
ATOM     20  C   UNL     1       7.077   2.639  -1.363  1.00  0.00     0.029 A 
ATOM     21  C   UNL     1       6.071   2.758  -3.578  1.00  0.00     0.029 A 
ATOM     22  C   UNL     1       7.176   4.035  -1.345  1.00  0.00     0.018 A 
ATOM     23  C   UNL     1       6.226   4.144  -3.575  1.00  0.00     0.018 A 
ATOM     24  C   UNL     1       6.755   4.778  -2.451  1.00  0.00     0.018 A 
ATOM     25  Br  UNL     1       6.878   6.665  -2.421  1.00  0.00    -0.051 Br
ENDBRANCH  11  19
ENDBRANCH   7   8
ENDBRANCH   6   7
ENDBRANCH   4   6
ENDBRANCH   3   4
ENDBRANCH   2   3
ENDBRANCH   1   2
BRANCH   1  26
ATOM     26  O   UNL     1       4.031   0.095   1.974  1.00  0.00    -0.374 OA
BRANCH  26  27
ATOM     27  C   UNL     1       2.708  -0.025   2.484  1.00  0.00     0.202 C 
BRANCH  27  28
ATOM     28  C   UNL     1       2.371   0.964   3.587  1.00  0.00     0.261 C 
BRANCH  28  29
ATOM     29  O   UNL     1       2.598   2.276   3.109  1.00  0.00    -0.460 OA
BRANCH  29  30
ATOM     30  C   UNL     1       3.879   2.705   3.239  1.00  0.00     0.338 C 
ATOM     31  O   UNL     1       4.788   2.173   3.831  1.00  0.00    -0.246 OA
BRANCH  30  32
ATOM     32  C   UNL     1       3.959   4.028   2.594  1.00  0.00     0.060 A 
ATOM     33  C   UNL     1       5.085   4.772   2.942  1.00  0.00     0.016 A 
ATOM     34  C   UNL     1       2.769   4.616   2.153  1.00  0.00     0.016 A 
ATOM     35  C   UNL     1       4.875   6.083   3.279  1.00  0.00     0.010 A 
ATOM     36  C   UNL     1       2.549   5.906   2.526  1.00  0.00     0.010 A 
ATOM     37  C   UNL     1       3.568   6.561   3.211  1.00  0.00    -0.014 A 
BRANCH  37  38
ATOM     38  C   UNL     1       3.245   7.793   3.879  1.00  0.00     0.031 A 
ATOM     39  C   UNL     1       3.400   8.939   2.975  1.00  0.00     0.074 A 
ATOM     40  C   UNL     1       2.719   7.814   5.116  1.00  0.00     0.049 A 
ATOM     41  N   UNL     1       4.440   9.696   2.860  1.00  0.00    -0.248 NA
ATOM     42  C   UNL     1       2.432   9.056   1.869  1.00  0.00     0.031 C 
ATOM     43  C   UNL     1       2.231   6.701   5.935  1.00  0.00     0.029 A 
ATOM     44  N   UNL     1       2.407   8.896   5.866  1.00  0.00    -0.354 N 
ATOM     45  C   UNL     1       4.119  10.546   1.815  1.00  0.00     0.074 A 
ATOM     46  C   UNL     1       3.103   9.870   1.055  1.00  0.00     0.031 C 
ATOM     47  C   UNL     1       1.469   7.195   6.942  1.00  0.00     0.029 A 
ATOM     48  C   UNL     1       1.518   8.649   6.900  1.00  0.00     0.049 A 
ATOM     49  H   UNL     1       2.781   9.790   5.690  1.00  0.00     0.167 HD
ATOM     50  C   UNL     1       4.359  11.883   1.906  1.00  0.00     0.031 A 
ATOM     51  C   UNL     1       0.820   9.594   7.580  1.00  0.00     0.031 A 
ATOM     52  C   UNL     1       5.273  12.177   2.986  1.00  0.00     0.049 A 
ATOM     53  C   UNL     1       1.464  10.907   7.301  1.00  0.00     0.074 A 
ATOM     54  C   UNL     1       6.547  11.759   3.320  1.00  0.00     0.029 A 
ATOM     55  N   UNL     1       4.724  12.683   4.143  1.00  0.00    -0.354 N 
ATOM     56  N   UNL     1       2.653  11.226   7.730  1.00  0.00    -0.248 NA
ATOM     57  C   UNL     1       1.005  11.657   6.139  1.00  0.00     0.031 C 
ATOM     58  C   UNL     1       6.534  11.619   4.739  1.00  0.00     0.029 A 
ATOM     59  C   UNL     1       5.286  12.032   5.210  1.00  0.00     0.049 A 
ATOM     60  H   UNL     1       4.043  13.393   4.195  1.00  0.00     0.167 HD
ATOM     61  C   UNL     1       3.258  11.872   6.658  1.00  0.00     0.074 A 
ATOM     62  C   UNL     1       2.164  12.191   5.741  1.00  0.00     0.031 C 
ATOM     63  C   UNL     1       4.610  11.804   6.470  1.00  0.00     0.031 A 
BRANCH  50  64
ATOM     64  C   UNL     1       3.400  12.918   1.359  1.00  0.00    -0.014 A 
ATOM     65  C   UNL     1       3.746  14.271   1.489  1.00  0.00     0.009 A 
ATOM     66  C   UNL     1       2.072  12.649   0.965  1.00  0.00     0.009 A 
ATOM     67  C   UNL     1       2.793  15.283   1.322  1.00  0.00     0.001 A 
ATOM     68  C   UNL     1       1.129  13.654   0.757  1.00  0.00     0.001 A 
ATOM     69  C   UNL     1       1.483  14.974   0.968  1.00  0.00     0.000 A 
ENDBRANCH  50  64
BRANCH  51  70
ATOM     70  C   UNL     1      -0.539   9.498   8.163  1.00  0.00    -0.014 A 
ATOM     71  C   UNL     1      -1.009  10.471   9.061  1.00  0.00     0.009 A 
ATOM     72  C   UNL     1      -1.480   8.595   7.634  1.00  0.00     0.009 A 
ATOM     73  C   UNL     1      -2.371  10.558   9.386  1.00  0.00     0.001 A 
ATOM     74  C   UNL     1      -2.839   8.679   7.961  1.00  0.00     0.001 A 
ATOM     75  C   UNL     1      -3.287   9.671   8.826  1.00  0.00     0.000 A 
ENDBRANCH  51  70
BRANCH  63  76
ATOM     76  C   UNL     1       5.448  11.216   7.582  1.00  0.00    -0.014 A 
ATOM     77  C   UNL     1       5.320   9.887   8.027  1.00  0.00     0.009 A 
ATOM     78  C   UNL     1       6.506  11.985   8.086  1.00  0.00     0.009 A 
ATOM     79  C   UNL     1       6.210   9.358   8.969  1.00  0.00     0.001 A 
ATOM     80  C   UNL     1       7.405  11.450   9.011  1.00  0.00     0.001 A 
ATOM     81  C   UNL     1       7.254  10.139   9.457  1.00  0.00     0.000 A 
ENDBRANCH  63  76
ENDBRANCH  37  38
ENDBRANCH  30  32
ENDBRANCH  29  30
ENDBRANCH  28  29
ENDBRANCH  27  28
ENDBRANCH  26  27
ENDBRANCH   1  26
TORSDOF 18
