REMARK SMILES O=C(NC(=S)Nc1cc(C(=O)OCCOCCOC(=O)c2ccc(-c3c4nc(c(-c5ccccc5)c5ccc([nH]5)c(-c5ccccc5)c5nc(c(-c6ccccc6)c6ccc3[nH]6)C=C5)C=C4)cc2)ccc1Br)c1ccc(F)cc1
REMARK SMILES IDX 14 1 13 2 12 3 10 4 11 5 9 6 7 7 8 8 71 9 70 10 72 11 69 12
REMARK SMILES IDX 6 13 4 15 5 16 3 17 1 18 2 19 73 21 74 22 79 23 75 24 78 25
REMARK SMILES IDX 76 26 77 27 15 28 16 29 17 30 18 31 19 32 20 33 21 34 22 35
REMARK SMILES IDX 68 36 23 37 67 38 24 39 25 40 26 41 61 42 27 43 66 44 60 45
REMARK SMILES IDX 62 46 28 47 65 48 59 49 58 50 29 52 51 53 36 54 50 55 37 56
REMARK SMILES IDX 40 57 49 58 63 59 38 60 39 61 48 63 64 64 41 65 30 66 31 67
REMARK SMILES IDX 35 68 32 69 34 70 33 71 52 72 53 73 57 74 54 75 56 76 55 77
REMARK SMILES IDX 42 78 43 79 47 80 44 81 46 82 45 83
REMARK H PARENT 6 14 3 20 62 51 40 62
REMARK Flexibility Score: inf
ROOT
ATOM      1  C   UNL     1       5.211  -0.522   7.787  1.00  0.00     0.202 C 
ENDROOT
BRANCH   1   2
ATOM      2  C   UNL     1       4.274   0.621   7.375  1.00  0.00     0.261 C 
BRANCH   2   3
ATOM      3  O   UNL     1       3.733   0.357   6.069  1.00  0.00    -0.460 OA
BRANCH   3   4
ATOM      4  C   UNL     1       4.276   1.056   5.048  1.00  0.00     0.338 C 
ATOM      5  O   UNL     1       4.994   2.036   5.102  1.00  0.00    -0.246 OA
BRANCH   4   6
ATOM      6  C   UNL     1       4.043   0.293   3.810  1.00  0.00     0.062 A 
ATOM      7  C   UNL     1       5.120  -0.282   0.942  1.00  0.00     0.055 A 
ATOM      8  C   UNL     1       5.167   0.610   2.468  1.00  0.00     0.043 A 
ATOM      9  C   UNL     1       3.964  -1.648   0.767  1.00  0.00     0.041 A 
ATOM     10  C   UNL     1       2.659  -1.961   2.285  1.00  0.00     0.019 A 
ATOM     11  Br  UNL     1       4.505  -2.502  -1.032  1.00  0.00    -0.049 Br
ATOM     12  C   UNL     1       2.791  -0.944   3.764  1.00  0.00     0.017 A 
BRANCH   7  13
ATOM     13  N   UNL     1       5.313   0.534  -0.187  1.00  0.00    -0.331 N 
ATOM     14  H   UNL     1       6.233   0.862  -0.313  1.00  0.00     0.169 HD
BRANCH  13  15
ATOM     15  C   UNL     1       4.422   0.937  -1.128  1.00  0.00     0.177 C 
ATOM     16  S   UNL     1       5.029   1.902  -2.363  1.00  0.00    -0.040 S 
BRANCH  15  17
ATOM     17  N   UNL     1       3.042   0.719  -1.141  1.00  0.00    -0.299 N 
ATOM     18  O   UNL     1       0.775   0.261  -1.048  1.00  0.00    -0.269 OA
ATOM     19  C   UNL     1       1.889   0.105  -0.557  1.00  0.00     0.257 C 
ATOM     20  H   UNL     1       2.705   1.225  -1.915  1.00  0.00     0.172 HD
BRANCH  19  21
ATOM     21  C   UNL     1       2.026  -0.795   0.591  1.00  0.00     0.040 A 
ATOM     22  C   UNL     1       3.204  -0.223   1.789  1.00  0.00     0.017 A 
ATOM     23  C   UNL     1       1.930  -2.533   0.273  1.00  0.00     0.017 A 
ATOM     24  C   UNL     1       4.488  -1.560   2.592  1.00  0.00     0.040 A 
ATOM     25  C   UNL     1       3.016  -3.737   1.036  1.00  0.00     0.040 A 
ATOM     26  C   UNL     1       4.298  -3.287   2.153  1.00  0.00     0.123 A 
ATOM     27  F   UNL     1       5.131  -4.205   2.656  1.00  0.00    -0.207 F 
ENDBRANCH  19  21
ENDBRANCH  15  17
ENDBRANCH  13  15
ENDBRANCH   7  13
ENDBRANCH   4   6
ENDBRANCH   3   4
ENDBRANCH   2   3
ENDBRANCH   1   2
BRANCH   1  28
ATOM     28  O   UNL     1       6.440  -0.567   7.055  1.00  0.00    -0.374 OA
BRANCH  28  29
ATOM     29  C   UNL     1       6.402  -1.329   5.848  1.00  0.00     0.202 C 
BRANCH  29  30
ATOM     30  C   UNL     1       6.846  -2.786   5.992  1.00  0.00     0.261 C 
BRANCH  30  31
ATOM     31  O   UNL     1       5.815  -3.544   6.649  1.00  0.00    -0.460 OA
BRANCH  31  32
ATOM     32  C   UNL     1       6.030  -3.747   7.968  1.00  0.00     0.338 C 
ATOM     33  O   UNL     1       7.034  -3.479   8.604  1.00  0.00    -0.246 OA
BRANCH  32  34
ATOM     34  C   UNL     1       4.782  -4.191   8.614  1.00  0.00     0.060 A 
ATOM     35  C   UNL     1       4.441  -3.569   9.820  1.00  0.00     0.016 A 
ATOM     36  C   UNL     1       4.006  -5.238   8.108  1.00  0.00     0.016 A 
ATOM     37  C   UNL     1       3.377  -4.048  10.573  1.00  0.00     0.010 A 
ATOM     38  C   UNL     1       2.935  -5.721   8.868  1.00  0.00     0.010 A 
ATOM     39  C   UNL     1       2.655  -5.163  10.129  1.00  0.00    -0.014 A 
BRANCH  39  40
ATOM     40  C   UNL     1       1.750  -5.848  11.081  1.00  0.00     0.031 A 
ATOM     41  C   UNL     1       2.235  -7.096  11.771  1.00  0.00     0.074 A 
ATOM     42  C   UNL     1       0.550  -5.327  11.391  1.00  0.00     0.049 A 
ATOM     43  N   UNL     1       1.632  -7.838  12.665  1.00  0.00    -0.248 NA
ATOM     44  C   UNL     1       3.581  -7.569  11.406  1.00  0.00     0.031 C 
ATOM     45  C   UNL     1      -0.008  -4.096  10.834  1.00  0.00     0.029 A 
ATOM     46  N   UNL     1      -0.410  -5.769  12.265  1.00  0.00    -0.354 N 
ATOM     47  C   UNL     1       2.520  -8.866  12.961  1.00  0.00     0.074 A 
ATOM     48  C   UNL     1       3.685  -8.674  12.127  1.00  0.00     0.031 C 
ATOM     49  C   UNL     1      -1.214  -3.878  11.385  1.00  0.00     0.029 A 
ATOM     50  C   UNL     1      -1.523  -4.968  12.309  1.00  0.00     0.049 A 
ATOM     51  H   UNL     1      -0.310  -6.583  12.810  1.00  0.00     0.167 HD
ATOM     52  C   UNL     1       2.384  -9.874  13.854  1.00  0.00     0.031 A 
ATOM     53  C   UNL     1      -2.667  -5.106  13.007  1.00  0.00     0.031 A 
ATOM     54  C   UNL     1       1.222 -10.071  14.679  1.00  0.00     0.049 A 
ATOM     55  C   UNL     1      -2.824  -6.276  13.941  1.00  0.00     0.074 A 
ATOM     56  C   UNL     1       0.988 -11.059  15.619  1.00  0.00     0.029 A 
ATOM     57  N   UNL     1       0.095  -9.264  14.657  1.00  0.00    -0.354 N 
ATOM     58  N   UNL     1      -1.971  -7.232  14.223  1.00  0.00    -0.248 NA
ATOM     59  C   UNL     1      -4.099  -6.374  14.665  1.00  0.00     0.031 C 
ATOM     60  C   UNL     1      -0.304 -10.883  16.125  1.00  0.00     0.029 A 
ATOM     61  C   UNL     1      -0.847  -9.744  15.552  1.00  0.00     0.049 A 
ATOM     62  H   UNL     1      -0.019  -8.467  14.090  1.00  0.00     0.167 HD
ATOM     63  C   UNL     1      -2.591  -8.022  15.184  1.00  0.00     0.074 A 
ATOM     64  C   UNL     1      -3.885  -7.425  15.445  1.00  0.00     0.031 C 
ATOM     65  C   UNL     1      -2.129  -9.137  15.802  1.00  0.00     0.031 A 
BRANCH  52  66
ATOM     66  C   UNL     1       3.510 -10.866  13.955  1.00  0.00    -0.014 A 
ATOM     67  C   UNL     1       4.750 -10.515  14.514  1.00  0.00     0.009 A 
ATOM     68  C   UNL     1       3.320 -12.181  13.503  1.00  0.00     0.009 A 
ATOM     69  C   UNL     1       5.785 -11.450  14.585  1.00  0.00     0.001 A 
ATOM     70  C   UNL     1       4.346 -13.122  13.603  1.00  0.00     0.001 A 
ATOM     71  C   UNL     1       5.580 -12.754  14.135  1.00  0.00     0.000 A 
ENDBRANCH  52  66
BRANCH  53  72
ATOM     72  C   UNL     1      -3.762  -4.114  12.846  1.00  0.00    -0.014 A 
ATOM     73  C   UNL     1      -4.115  -3.255  13.897  1.00  0.00     0.009 A 
ATOM     74  C   UNL     1      -4.479  -4.040  11.640  1.00  0.00     0.009 A 
ATOM     75  C   UNL     1      -5.182  -2.364  13.755  1.00  0.00     0.001 A 
ATOM     76  C   UNL     1      -5.524  -3.126  11.491  1.00  0.00     0.001 A 
ATOM     77  C   UNL     1      -5.882  -2.297  12.552  1.00  0.00     0.000 A 
ENDBRANCH  53  72
BRANCH  65  78
ATOM     78  C   UNL     1      -3.005  -9.752  16.860  1.00  0.00    -0.014 A 
ATOM     79  C   UNL     1      -4.202 -10.408  16.537  1.00  0.00     0.009 A 
ATOM     80  C   UNL     1      -2.604  -9.693  18.205  1.00  0.00     0.009 A 
ATOM     81  C   UNL     1      -5.004 -10.951  17.544  1.00  0.00     0.001 A 
ATOM     82  C   UNL     1      -3.389 -10.267  19.206  1.00  0.00     0.001 A 
ATOM     83  C   UNL     1      -4.595 -10.883  18.876  1.00  0.00     0.000 A 
ENDBRANCH  65  78
ENDBRANCH  39  40
ENDBRANCH  32  34
ENDBRANCH  31  32
ENDBRANCH  30  31
ENDBRANCH  29  30
ENDBRANCH  28  29
ENDBRANCH   1  28
TORSDOF 18
