REMARK SMILES O=C(OCCOCCOC(=O)c1ccc(N2C(=O)[C@@H]3N=NC(c4ccccc4)=C3[C@H]2c2cccc(Br)c2)cc1)c1ccc(-c2c3nc(c(-c4ccccc4)c4ccc([nH]4)c(-c4ccccc4)c4nc(c(-c5ccccc5)c5ccc2[nH]5)C=C4)C=C3)cc1
REMARK SMILES IDX 6 1 5 2 4 3 3 4 2 5 1 6 40 7 41 8 87 9 42 10 86 11 43 12
REMARK SMILES IDX 44 13 45 14 80 15 46 16 85 17 79 18 81 19 47 20 84 21 78 22
REMARK SMILES IDX 77 23 48 25 70 26 55 27 69 28 56 29 59 30 68 31 82 32 57 33
REMARK SMILES IDX 58 34 67 36 83 37 60 38 49 39 50 40 54 41 51 42 53 43 52 44
REMARK SMILES IDX 71 45 72 46 76 47 73 48 75 49 74 50 61 51 62 52 66 53 63 54
REMARK SMILES IDX 65 55 64 56 7 57 8 58 9 59 10 60 11 61 12 62 13 63 39 64
REMARK SMILES IDX 14 65 38 66 15 67 16 68 17 69 30 70 19 71 18 72 29 73 20 74
REMARK SMILES IDX 22 75 21 76 31 77 32 78 37 79 33 80 35 81 34 82 36 83 23 84
REMARK SMILES IDX 24 85 28 86 25 87 27 88 26 89
REMARK H PARENT 81 24 59 35
REMARK Flexibility Score: inf
ROOT
ATOM      1  O   UNL     1       4.356  -0.882  -1.004  1.00  0.00    -0.374 OA
ENDROOT
BRANCH   1   2
ATOM      2  C   UNL     1       4.898  -0.906   0.312  1.00  0.00     0.202 C 
BRANCH   2   3
ATOM      3  C   UNL     1       4.581   0.282   1.217  1.00  0.00     0.261 C 
BRANCH   3   4
ATOM      4  O   UNL     1       3.191   0.399   1.570  1.00  0.00    -0.460 OA
BRANCH   4   5
ATOM      5  C   UNL     1       2.167   0.666   0.733  1.00  0.00     0.338 C 
ATOM      6  O   UNL     1       1.111   0.044   0.838  1.00  0.00    -0.246 OA
BRANCH   5   7
ATOM      7  C   UNL     1       2.189   1.887  -0.111  1.00  0.00     0.060 A 
ATOM      8  C   UNL     1       3.328   2.599  -0.477  1.00  0.00     0.016 A 
ATOM      9  C   UNL     1       0.925   2.407  -0.444  1.00  0.00     0.016 A 
ATOM     10  C   UNL     1       3.208   3.909  -0.901  1.00  0.00     0.010 A 
ATOM     11  C   UNL     1       0.796   3.696  -0.927  1.00  0.00     0.010 A 
ATOM     12  C   UNL     1       1.938   4.470  -1.057  1.00  0.00    -0.014 A 
BRANCH  12  13
ATOM     13  C   UNL     1       1.865   5.839  -1.528  1.00  0.00     0.031 A 
ATOM     14  C   UNL     1       2.465   6.012  -2.871  1.00  0.00     0.074 A 
ATOM     15  C   UNL     1       1.277   6.839  -0.844  1.00  0.00     0.049 A 
ATOM     16  N   UNL     1       3.580   6.598  -3.148  1.00  0.00    -0.248 NA
ATOM     17  C   UNL     1       1.865   5.287  -4.003  1.00  0.00     0.031 C 
ATOM     18  C   UNL     1       0.451   6.763   0.362  1.00  0.00     0.029 A 
ATOM     19  N   UNL     1       1.231   8.162  -1.156  1.00  0.00    -0.354 N 
ATOM     20  C   UNL     1       3.728   6.498  -4.525  1.00  0.00     0.074 A 
ATOM     21  C   UNL     1       2.745   5.543  -4.972  1.00  0.00     0.031 C 
ATOM     22  C   UNL     1      -0.207   7.936   0.527  1.00  0.00     0.029 A 
ATOM     23  C   UNL     1       0.266   8.885  -0.468  1.00  0.00     0.049 A 
ATOM     24  H   UNL     1       1.834   8.574  -1.816  1.00  0.00     0.167 HD
ATOM     25  C   UNL     1       4.472   7.407  -5.211  1.00  0.00     0.031 A 
ATOM     26  C   UNL     1      -0.139  10.153  -0.739  1.00  0.00     0.031 A 
ATOM     27  C   UNL     1       5.332   8.158  -4.331  1.00  0.00     0.049 A 
ATOM     28  C   UNL     1       0.929  10.798  -1.539  1.00  0.00     0.074 A 
ATOM     29  C   UNL     1       6.362   7.837  -3.470  1.00  0.00     0.029 A 
ATOM     30  N   UNL     1       4.893   9.405  -3.954  1.00  0.00    -0.354 N 
ATOM     31  N   UNL     1       2.097  11.101  -1.052  1.00  0.00    -0.248 NA
ATOM     32  C   UNL     1       0.868  10.674  -2.987  1.00  0.00     0.031 C 
ATOM     33  C   UNL     1       6.173   8.684  -2.340  1.00  0.00     0.029 A 
ATOM     34  C   UNL     1       5.096   9.532  -2.606  1.00  0.00     0.049 A 
ATOM     35  H   UNL     1       4.502  10.085  -4.548  1.00  0.00     0.167 HD
ATOM     36  C   UNL     1       2.991  10.741  -2.049  1.00  0.00     0.074 A 
ATOM     37  C   UNL     1       2.174  10.576  -3.252  1.00  0.00     0.031 C 
ATOM     38  C   UNL     1       4.255  10.326  -1.740  1.00  0.00     0.031 A 
BRANCH  25  39
ATOM     39  C   UNL     1       4.074   7.932  -6.567  1.00  0.00    -0.014 A 
ATOM     40  C   UNL     1       4.898   8.892  -7.181  1.00  0.00     0.009 A 
ATOM     41  C   UNL     1       2.787   7.760  -7.112  1.00  0.00     0.009 A 
ATOM     42  C   UNL     1       4.423   9.698  -8.221  1.00  0.00     0.001 A 
ATOM     43  C   UNL     1       2.324   8.536  -8.176  1.00  0.00     0.001 A 
ATOM     44  C   UNL     1       3.132   9.527  -8.710  1.00  0.00     0.000 A 
ENDBRANCH  25  39
BRANCH  26  45
ATOM     45  C   UNL     1      -1.485  10.759  -0.618  1.00  0.00    -0.014 A 
ATOM     46  C   UNL     1      -1.656  12.152  -0.691  1.00  0.00     0.009 A 
ATOM     47  C   UNL     1      -2.633   9.955  -0.734  1.00  0.00     0.009 A 
ATOM     48  C   UNL     1      -2.920  12.716  -0.918  1.00  0.00     0.001 A 
ATOM     49  C   UNL     1      -3.895  10.518  -0.960  1.00  0.00     0.001 A 
ATOM     50  C   UNL     1      -4.036  11.897  -1.069  1.00  0.00     0.000 A 
ENDBRANCH  26  45
BRANCH  38  51
ATOM     51  C   UNL     1       4.734  10.509  -0.320  1.00  0.00    -0.014 A 
ATOM     52  C   UNL     1       4.116   9.917   0.796  1.00  0.00     0.009 A 
ATOM     53  C   UNL     1       5.943  11.193  -0.124  1.00  0.00     0.009 A 
ATOM     54  C   UNL     1       4.678  10.039   2.072  1.00  0.00     0.001 A 
ATOM     55  C   UNL     1       6.515  11.294   1.144  1.00  0.00     0.001 A 
ATOM     56  C   UNL     1       5.879  10.724   2.244  1.00  0.00     0.000 A 
ENDBRANCH  38  51
ENDBRANCH  12  13
ENDBRANCH   5   7
ENDBRANCH   4   5
ENDBRANCH   3   4
ENDBRANCH   2   3
ENDBRANCH   1   2
BRANCH   1  57
ATOM     57  C   UNL     1       3.148  -1.619  -1.216  1.00  0.00     0.202 C 
BRANCH  57  58
ATOM     58  C   UNL     1       3.175  -3.156  -1.169  1.00  0.00     0.261 C 
BRANCH  58  59
ATOM     59  O   UNL     1       3.493  -3.700   0.130  1.00  0.00    -0.460 OA
BRANCH  59  60
ATOM     60  C   UNL     1       4.771  -4.140   0.256  1.00  0.00     0.338 C 
ATOM     61  O   UNL     1       5.632  -4.127  -0.601  1.00  0.00    -0.246 OA
BRANCH  60  62
ATOM     62  C   UNL     1       5.082  -4.480   1.664  1.00  0.00     0.060 A 
ATOM     63  C   UNL     1       6.178  -3.836   2.245  1.00  0.00     0.018 A 
ATOM     64  C   UNL     1       4.407  -5.481   2.369  1.00  0.00     0.018 A 
ATOM     65  C   UNL     1       6.619  -4.216   3.511  1.00  0.00     0.027 A 
ATOM     66  C   UNL     1       4.886  -5.896   3.628  1.00  0.00     0.027 A 
ATOM     67  C   UNL     1       6.006  -5.279   4.195  1.00  0.00     0.045 A 
BRANCH  67  68
ATOM     68  N   UNL     1       6.548  -5.710   5.445  1.00  0.00    -0.299 N 
ATOM     69  C   UNL     1       6.862  -4.676   6.390  1.00  0.00     0.259 C 
ATOM     70  C   UNL     1       7.605  -6.758   5.452  1.00  0.00     0.152 C 
ATOM     71  C   UNL     1       8.137  -5.061   7.083  1.00  0.00     0.248 C 
ATOM     72  O   UNL     1       6.242  -3.636   6.565  1.00  0.00    -0.271 OA
ATOM     73  C   UNL     1       8.690  -5.917   6.007  1.00  0.00     0.021 C 
ATOM     74  N   UNL     1       9.153  -4.010   7.199  1.00  0.00    -0.170 NA
ATOM     75  C   UNL     1       9.919  -5.468   5.765  1.00  0.00     0.097 C 
ATOM     76  N   UNL     1      10.181  -4.357   6.548  1.00  0.00    -0.154 NA
BRANCH  70  77
ATOM     77  C   UNL     1       7.324  -7.954   6.388  1.00  0.00    -0.020 A 
ATOM     78  C   UNL     1       8.221  -8.292   7.435  1.00  0.00     0.006 A 
ATOM     79  C   UNL     1       6.211  -8.791   6.216  1.00  0.00     0.022 A 
ATOM     80  C   UNL     1       7.995  -9.357   8.306  1.00  0.00     0.002 A 
ATOM     81  C   UNL     1       6.007  -9.887   7.074  1.00  0.00     0.018 A 
ATOM     82  C   UNL     1       6.883 -10.162   8.124  1.00  0.00     0.016 A 
ATOM     83  Br  UNL     1       4.532 -11.042   6.802  1.00  0.00    -0.051 Br
ENDBRANCH  70  77
BRANCH  75  84
ATOM     84  C   UNL     1      10.900  -5.799   4.730  1.00  0.00     0.002 A 
ATOM     85  C   UNL     1      11.863  -6.794   4.944  1.00  0.00     0.010 A 
ATOM     86  C   UNL     1      11.073  -4.894   3.672  1.00  0.00     0.010 A 
ATOM     87  C   UNL     1      13.034  -6.808   4.178  1.00  0.00     0.001 A 
ATOM     88  C   UNL     1      12.244  -4.909   2.914  1.00  0.00     0.001 A 
ATOM     89  C   UNL     1      13.237  -5.846   3.188  1.00  0.00     0.000 A 
ENDBRANCH  75  84
ENDBRANCH  67  68
ENDBRANCH  60  62
ENDBRANCH  59  60
ENDBRANCH  58  59
ENDBRANCH  57  58
ENDBRANCH   1  57
TORSDOF 17
