REMARK SMILES CC[C@](C)(NC(=O)CNC(=O)c1cccc(Cl)c1)C(=O)OCCOCCOC(=O)c1ccc(-c2c3nc(c(-c4ccccc4)c4ccc([nH]4)c(-c4ccccc4)c4nc(c(-c5ccccc5)c5ccc2[nH]5)C=C4)C=C3)cc1
REMARK SMILES IDX 23 1 22 2 21 3 19 4 20 5 3 6 4 7 2 8 1 9 5 10 6 11 7 13 8 14
REMARK SMILES IDX 9 15 10 16 11 18 12 19 13 20 18 21 14 22 16 23 15 24 17 25
REMARK SMILES IDX 24 26 25 27 26 28 27 29 28 30 29 31 30 32 31 33 77 34 32 35
REMARK SMILES IDX 76 36 33 37 34 38 35 39 70 40 36 41 75 42 69 43 71 44 37 45
REMARK SMILES IDX 74 46 68 47 67 48 38 50 60 51 45 52 59 53 46 54 49 55 58 56
REMARK SMILES IDX 72 57 47 58 48 59 57 61 73 62 50 63 39 64 40 65 44 66 41 67
REMARK SMILES IDX 43 68 42 69 61 70 62 71 66 72 63 73 65 74 64 75 51 76 52 77
REMARK SMILES IDX 56 78 53 79 55 80 54 81
REMARK H PARENT 5 12 9 17 71 49 49 60
REMARK Flexibility Score: inf
ROOT
ATOM      1  C   UNL     1       5.111  -1.962  -3.350  1.00  0.00     0.202 C 
ENDROOT
BRANCH   1   2
ATOM      2  C   UNL     1       4.206  -3.275  -2.927  1.00  0.00     0.261 C 
BRANCH   2   3
ATOM      3  O   UNL     1       3.080  -3.321  -1.771  1.00  0.00    -0.462 OA
BRANCH   3   4
ATOM      4  C   UNL     1       2.022  -3.260  -0.919  1.00  0.00     0.331 C 
ATOM      5  O   UNL     1       2.171  -3.845   0.162  1.00  0.00    -0.249 OA
BRANCH   4   6
ATOM      6  C   UNL     1       0.582  -2.532  -1.141  1.00  0.00     0.135 C 
ATOM      7  C   UNL     1       0.322  -1.027  -0.767  1.00  0.00     0.047 C 
BRANCH   6   8
ATOM      8  C   UNL     1      -0.480  -3.339  -0.307  1.00  0.00     0.037 C 
ATOM      9  C   UNL     1      -0.569  -2.976   1.185  1.00  0.00     0.007 C 
ENDBRANCH   6   8
BRANCH   6  10
ATOM     10  N   UNL     1       0.227  -2.651  -2.538  1.00  0.00    -0.339 N 
ATOM     11  C   UNL     1       0.792  -1.846  -3.464  1.00  0.00     0.240 C 
ATOM     12  H   UNL     1      -0.432  -3.326  -2.817  1.00  0.00     0.164 HD
ATOM     13  O   UNL     1       0.352  -1.857  -4.614  1.00  0.00    -0.273 OA
BRANCH  11  14
ATOM     14  C   UNL     1       2.114  -1.144  -3.097  1.00  0.00     0.216 C 
BRANCH  14  15
ATOM     15  N   UNL     1       2.780  -0.485  -1.839  1.00  0.00    -0.343 N 
ATOM     16  C   UNL     1       3.790  -0.543  -0.848  1.00  0.00     0.251 C 
ATOM     17  H   UNL     1       2.266   0.334  -1.657  1.00  0.00     0.164 HD
ATOM     18  O   UNL     1       4.209   0.572  -0.501  1.00  0.00    -0.269 OA
BRANCH  16  19
ATOM     19  C   UNL     1       4.295  -1.665   0.046  1.00  0.00     0.041 A 
ATOM     20  C   UNL     1       5.362  -2.557  -0.196  1.00  0.00     0.014 A 
ATOM     21  C   UNL     1       3.756  -1.727   1.338  1.00  0.00     0.034 A 
ATOM     22  C   UNL     1       5.611  -3.678   0.615  1.00  0.00     0.002 A 
ATOM     23  C   UNL     1       4.053  -2.805   2.193  1.00  0.00     0.041 A 
ATOM     24  C   UNL     1       4.915  -3.826   1.800  1.00  0.00     0.020 A 
ATOM     25  Cl  UNL     1       3.292  -2.907   3.734  1.00  0.00    -0.084 Cl
ENDBRANCH  16  19
ENDBRANCH  14  15
ENDBRANCH  11  14
ENDBRANCH   6  10
ENDBRANCH   4   6
ENDBRANCH   3   4
ENDBRANCH   2   3
ENDBRANCH   1   2
BRANCH   1  26
ATOM     26  O   UNL     1       4.457  -0.742  -3.652  1.00  0.00    -0.374 OA
BRANCH  26  27
ATOM     27  C   UNL     1       4.682   0.042  -4.810  1.00  0.00     0.202 C 
BRANCH  27  28
ATOM     28  C   UNL     1       3.887  -0.444  -6.034  1.00  0.00     0.261 C 
BRANCH  28  29
ATOM     29  O   UNL     1       4.071  -1.844  -6.267  1.00  0.00    -0.460 OA
BRANCH  29  30
ATOM     30  C   UNL     1       5.333  -2.174  -6.607  1.00  0.00     0.338 C 
ATOM     31  O   UNL     1       6.249  -1.402  -6.863  1.00  0.00    -0.246 OA
BRANCH  30  32
ATOM     32  C   UNL     1       5.527  -3.609  -6.338  1.00  0.00     0.060 A 
ATOM     33  C   UNL     1       6.708  -3.990  -5.684  1.00  0.00     0.016 A 
ATOM     34  C   UNL     1       4.558  -4.558  -6.671  1.00  0.00     0.016 A 
ATOM     35  C   UNL     1       6.952  -5.327  -5.409  1.00  0.00     0.010 A 
ATOM     36  C   UNL     1       4.824  -5.908  -6.436  1.00  0.00     0.010 A 
ATOM     37  C   UNL     1       6.043  -6.294  -5.850  1.00  0.00    -0.014 A 
BRANCH  37  38
ATOM     38  C   UNL     1       6.514  -7.690  -5.961  1.00  0.00     0.031 A 
ATOM     39  C   UNL     1       7.124  -8.115  -7.269  1.00  0.00     0.074 A 
ATOM     40  C   UNL     1       6.482  -8.539  -4.920  1.00  0.00     0.049 A 
ATOM     41  N   UNL     1       7.620  -9.274  -7.615  1.00  0.00    -0.248 NA
ATOM     42  C   UNL     1       7.194  -7.090  -8.326  1.00  0.00     0.031 C 
ATOM     43  C   UNL     1       5.991  -8.230  -3.580  1.00  0.00     0.029 A 
ATOM     44  N   UNL     1       6.886  -9.848  -4.843  1.00  0.00    -0.354 N 
ATOM     45  C   UNL     1       8.053  -9.119  -8.925  1.00  0.00     0.074 A 
ATOM     46  C   UNL     1       7.742  -7.765  -9.323  1.00  0.00     0.031 C 
ATOM     47  C   UNL     1       6.113  -9.329  -2.813  1.00  0.00     0.029 A 
ATOM     48  C   UNL     1       6.658 -10.422  -3.618  1.00  0.00     0.049 A 
ATOM     49  H   UNL     1       7.299 -10.330  -5.596  1.00  0.00     0.167 HD
ATOM     50  C   UNL     1       8.660 -10.021  -9.728  1.00  0.00     0.031 A 
ATOM     51  C   UNL     1       6.846 -11.691  -3.207  1.00  0.00     0.031 A 
ATOM     52  C   UNL     1       8.959 -11.373  -9.348  1.00  0.00     0.049 A 
ATOM     53  C   UNL     1       7.420 -12.709  -4.163  1.00  0.00     0.074 A 
ATOM     54  C   UNL     1       9.579 -12.357 -10.097  1.00  0.00     0.029 A 
ATOM     55  N   UNL     1       8.648 -11.936  -8.121  1.00  0.00    -0.354 N 
ATOM     56  N   UNL     1       7.851 -12.546  -5.391  1.00  0.00    -0.248 NA
ATOM     57  C   UNL     1       7.537 -14.089  -3.667  1.00  0.00     0.031 C 
ATOM     58  C   UNL     1       9.581 -13.537  -9.349  1.00  0.00     0.029 A 
ATOM     59  C   UNL     1       9.030 -13.267  -8.107  1.00  0.00     0.049 A 
ATOM     60  H   UNL     1       8.220 -11.461  -7.373  1.00  0.00     0.167 HD
ATOM     61  C   UNL     1       8.319 -13.792  -5.798  1.00  0.00     0.074 A 
ATOM     62  C   UNL     1       8.138 -14.694  -4.682  1.00  0.00     0.031 C 
ATOM     63  C   UNL     1       8.852 -14.156  -6.990  1.00  0.00     0.031 A 
BRANCH  50  64
ATOM     64  C   UNL     1       9.003  -9.586 -11.123  1.00  0.00    -0.014 A 
ATOM     65  C   UNL     1      10.054  -8.692 -11.373  1.00  0.00     0.009 A 
ATOM     66  C   UNL     1       8.292 -10.126 -12.206  1.00  0.00     0.009 A 
ATOM     67  C   UNL     1      10.375  -8.332 -12.683  1.00  0.00     0.001 A 
ATOM     68  C   UNL     1       8.634  -9.788 -13.515  1.00  0.00     0.001 A 
ATOM     69  C   UNL     1       9.671  -8.887 -13.752  1.00  0.00     0.000 A 
ENDBRANCH  50  64
BRANCH  51  70
ATOM     70  C   UNL     1       6.447 -12.106  -1.836  1.00  0.00    -0.014 A 
ATOM     71  C   UNL     1       7.405 -12.536  -0.905  1.00  0.00     0.009 A 
ATOM     72  C   UNL     1       5.090 -12.144  -1.477  1.00  0.00     0.009 A 
ATOM     73  C   UNL     1       7.009 -13.036   0.338  1.00  0.00     0.001 A 
ATOM     74  C   UNL     1       4.700 -12.611  -0.221  1.00  0.00     0.001 A 
ATOM     75  C   UNL     1       5.658 -13.071   0.680  1.00  0.00     0.000 A 
ENDBRANCH  51  70
BRANCH  63  76
ATOM     76  C   UNL     1       9.323 -15.578  -7.142  1.00  0.00    -0.014 A 
ATOM     77  C   UNL     1       8.417 -16.648  -7.209  1.00  0.00     0.009 A 
ATOM     78  C   UNL     1      10.696 -15.844  -7.271  1.00  0.00     0.009 A 
ATOM     79  C   UNL     1       8.880 -17.957  -7.365  1.00  0.00     0.001 A 
ATOM     80  C   UNL     1      11.153 -17.149  -7.461  1.00  0.00     0.001 A 
ATOM     81  C   UNL     1      10.246 -18.206  -7.497  1.00  0.00     0.000 A 
ENDBRANCH  63  76
ENDBRANCH  37  38
ENDBRANCH  30  32
ENDBRANCH  29  30
ENDBRANCH  28  29
ENDBRANCH  27  28
ENDBRANCH  26  27
ENDBRANCH   1  26
TORSDOF 19
