REMARK SMILES C[C@H](C(=O)OCCOCCOC(=O)c1ccc(-c2c3nc(c(-c4ccccc4)c4ccc([nH]4)c(-c4ccccc4)c4nc(c(-c5ccccc5)c5ccc2[nH]5)C=C4)C=C3)cc1)[C@H](C)n1cnc2cc(F)c(F)cc21
REMARK SMILES IDX 8 1 7 2 6 3 5 4 3 5 4 6 2 7 1 8 62 9 63 10 64 11 65 12 74 13
REMARK SMILES IDX 66 14 67 15 73 16 68 17 71 18 69 19 72 20 70 21 9 22 10 23
REMARK SMILES IDX 11 24 12 25 13 26 14 27 15 28 61 29 16 30 60 31 17 32 18 33
REMARK SMILES IDX 19 34 54 35 20 36 59 37 53 38 55 39 21 40 58 41 52 42 51 43
REMARK SMILES IDX 22 45 44 46 29 47 43 48 30 49 33 50 42 51 56 52 31 53 32 54
REMARK SMILES IDX 41 56 57 57 34 58 23 59 24 60 28 61 25 62 27 63 26 64 45 65
REMARK SMILES IDX 46 66 50 67 47 68 49 69 48 70 35 71 36 72 40 73 37 74 39 75
REMARK SMILES IDX 38 76
REMARK H PARENT 55 44 33 55
REMARK Flexibility Score: inf
ROOT
ATOM      1  O   UNL     1       2.330   4.830   1.202  1.00  0.00    -0.374 OA
ENDROOT
BRANCH   1   2
ATOM      2  C   UNL     1       1.519   5.147   2.686  1.00  0.00     0.202 C 
BRANCH   2   3
ATOM      3  C   UNL     1      -0.190   4.595   3.199  1.00  0.00     0.261 C 
BRANCH   3   4
ATOM      4  O   UNL     1      -0.921   3.228   2.677  1.00  0.00    -0.463 OA
BRANCH   4   5
ATOM      5  C   UNL     1      -1.736   3.144   1.522  1.00  0.00     0.310 C 
ATOM      6  O   UNL     1      -2.315   4.145   1.108  1.00  0.00    -0.252 OA
BRANCH   5   7
ATOM      7  C   UNL     1      -1.887   1.631   0.782  1.00  0.00     0.119 C 
ATOM      8  C   UNL     1      -3.412   1.532   0.516  1.00  0.00     0.022 C 
BRANCH   7   9
ATOM      9  C   UNL     1      -1.187   0.952  -0.683  1.00  0.00     0.099 C 
ATOM     10  C   UNL     1      -0.921  -0.558  -0.558  1.00  0.00     0.032 C 
BRANCH   9  11
ATOM     11  N   UNL     1      -0.026   1.543  -1.504  1.00  0.00    -0.327 N 
ATOM     12  C   UNL     1      -0.410   2.811  -1.983  1.00  0.00     0.200 A 
ATOM     13  C   UNL     1       1.270   1.836  -0.961  1.00  0.00     0.071 A 
ATOM     14  N   UNL     1      -0.357   3.621  -0.946  1.00  0.00    -0.237 NA
ATOM     15  C   UNL     1       0.498   2.949  -0.119  1.00  0.00     0.092 A 
ATOM     16  C   UNL     1       2.837   1.169  -0.462  1.00  0.00     0.071 A 
ATOM     17  C   UNL     1       1.013   3.249   1.522  1.00  0.00     0.073 A 
ATOM     18  C   UNL     1       3.549   1.544   1.144  1.00  0.00     0.161 A 
ATOM     19  C   UNL     1       2.655   2.649   2.213  1.00  0.00     0.161 A 
ATOM     20  F   UNL     1       4.695   0.974   1.526  1.00  0.00    -0.204 F 
ATOM     21  F   UNL     1       3.274   3.162   3.277  1.00  0.00    -0.204 F 
ENDBRANCH   9  11
ENDBRANCH   7   9
ENDBRANCH   5   7
ENDBRANCH   4   5
ENDBRANCH   3   4
ENDBRANCH   2   3
ENDBRANCH   1   2
BRANCH   1  22
ATOM     22  C   UNL     1       2.526   3.205   0.370  1.00  0.00     0.202 C 
BRANCH  22  23
ATOM     23  C   UNL     1       1.500   1.413   1.177  1.00  0.00     0.261 C 
BRANCH  23  24
ATOM     24  O   UNL     1       1.081   1.273   2.830  1.00  0.00    -0.460 OA
BRANCH  24  25
ATOM     25  C   UNL     1       1.695   0.482   3.747  1.00  0.00     0.338 C 
ATOM     26  O   UNL     1       2.454  -0.434   3.483  1.00  0.00    -0.246 OA
BRANCH  25  27
ATOM     27  C   UNL     1       1.381   0.921   5.154  1.00  0.00     0.060 A 
ATOM     28  C   UNL     1       1.775   2.173   5.656  1.00  0.00     0.016 A 
ATOM     29  C   UNL     1       0.798   0.020   6.048  1.00  0.00     0.016 A 
ATOM     30  C   UNL     1       1.591   2.523   7.007  1.00  0.00     0.010 A 
ATOM     31  C   UNL     1       0.584   0.379   7.398  1.00  0.00     0.010 A 
ATOM     32  C   UNL     1       0.983   1.633   7.896  1.00  0.00    -0.014 A 
BRANCH  32  33
ATOM     33  C   UNL     1       0.793   1.992   9.335  1.00  0.00     0.031 A 
ATOM     34  C   UNL     1       1.665   1.374  10.398  1.00  0.00     0.074 A 
ATOM     35  C   UNL     1      -0.158   2.874   9.706  1.00  0.00     0.049 A 
ATOM     36  N   UNL     1       1.576   1.459  11.704  1.00  0.00    -0.248 NA
ATOM     37  C   UNL     1       2.792   0.558   9.925  1.00  0.00     0.031 C 
ATOM     38  C   UNL     1      -1.025   3.615   8.791  1.00  0.00     0.029 A 
ATOM     39  N   UNL     1      -0.564   3.288  10.956  1.00  0.00    -0.354 N 
ATOM     40  C   UNL     1       2.621   0.692  12.209  1.00  0.00     0.074 A 
ATOM     41  C   UNL     1       3.321   0.140  11.067  1.00  0.00     0.031 C 
ATOM     42  C   UNL     1      -1.870   4.378   9.507  1.00  0.00     0.029 A 
ATOM     43  C   UNL     1      -1.643   4.142  10.931  1.00  0.00     0.049 A 
ATOM     44  H   UNL     1      -0.124   2.999  11.788  1.00  0.00     0.167 HD
ATOM     45  C   UNL     1       2.963   0.461  13.502  1.00  0.00     0.031 A 
ATOM     46  C   UNL     1      -2.391   4.648  11.933  1.00  0.00     0.031 A 
ATOM     47  C   UNL     1       2.257   0.992  14.641  1.00  0.00     0.049 A 
ATOM     48  C   UNL     1      -2.059   4.292  13.359  1.00  0.00     0.074 A 
ATOM     49  C   UNL     1       2.521   0.802  15.988  1.00  0.00     0.029 A 
ATOM     50  N   UNL     1       1.142   1.813  14.568  1.00  0.00    -0.354 N 
ATOM     51  N   UNL     1      -1.081   3.550  13.820  1.00  0.00    -0.248 NA
ATOM     52  C   UNL     1      -2.935   4.845  14.404  1.00  0.00     0.031 C 
ATOM     53  C   UNL     1       1.530   1.457  16.727  1.00  0.00     0.029 A 
ATOM     54  C   UNL     1       0.690   2.114  15.843  1.00  0.00     0.049 A 
ATOM     55  H   UNL     1       0.731   2.134  13.733  1.00  0.00     0.167 HD
ATOM     56  C   UNL     1      -1.206   3.572  15.205  1.00  0.00     0.074 A 
ATOM     57  C   UNL     1      -2.345   4.414  15.510  1.00  0.00     0.031 C 
ATOM     58  C   UNL     1      -0.444   2.953  16.139  1.00  0.00     0.031 A 
BRANCH  45  59
ATOM     59  C   UNL     1       4.131  -0.456  13.758  1.00  0.00    -0.014 A 
ATOM     60  C   UNL     1       5.449  -0.068  13.471  1.00  0.00     0.009 A 
ATOM     61  C   UNL     1       3.910  -1.722  14.327  1.00  0.00     0.009 A 
ATOM     62  C   UNL     1       6.514  -0.943  13.707  1.00  0.00     0.001 A 
ATOM     63  C   UNL     1       4.978  -2.582  14.591  1.00  0.00     0.001 A 
ATOM     64  C   UNL     1       6.278  -2.197  14.269  1.00  0.00     0.000 A 
ENDBRANCH  45  59
BRANCH  46  65
ATOM     65  C   UNL     1      -3.566   5.513  11.629  1.00  0.00    -0.014 A 
ATOM     66  C   UNL     1      -3.580   6.868  11.995  1.00  0.00     0.009 A 
ATOM     67  C   UNL     1      -4.698   4.977  10.992  1.00  0.00     0.009 A 
ATOM     68  C   UNL     1      -4.706   7.659  11.750  1.00  0.00     0.001 A 
ATOM     69  C   UNL     1      -5.809   5.778  10.717  1.00  0.00     0.001 A 
ATOM     70  C   UNL     1      -5.816   7.116  11.105  1.00  0.00     0.000 A 
ENDBRANCH  46  65
BRANCH  58  71
ATOM     71  C   UNL     1      -0.784   3.196  17.585  1.00  0.00    -0.014 A 
ATOM     72  C   UNL     1      -1.939   2.654  18.171  1.00  0.00     0.009 A 
ATOM     73  C   UNL     1       0.090   3.950  18.385  1.00  0.00     0.009 A 
ATOM     74  C   UNL     1      -2.227   2.891  19.517  1.00  0.00     0.001 A 
ATOM     75  C   UNL     1      -0.183   4.158  19.738  1.00  0.00     0.001 A 
ATOM     76  C   UNL     1      -1.347   3.637  20.300  1.00  0.00     0.000 A 
ENDBRANCH  58  71
ENDBRANCH  32  33
ENDBRANCH  25  27
ENDBRANCH  24  25
ENDBRANCH  23  24
ENDBRANCH  22  23
ENDBRANCH   1  22
TORSDOF 16
