REMARK SMILES C[C@@H]1C(C(=O)OCCOCCOC(=O)c2ccc(-c3c4nc(c(-c5ccccc5)c5ccc([nH]5)c(-c5ccccc5)c5nc(c(-c6ccccc6)c6ccc3[nH]6)C=C5)C=C4)cc2)=NC2=C1C(=O)C[C@H](c1ccccc1)C2
REMARK SMILES IDX 10 1 9 2 8 3 7 4 6 5 4 6 5 7 3 8 1 9 2 10 65 11 63 12 64 13
REMARK SMILES IDX 66 14 76 15 67 16 68 17 69 18 70 19 71 20 75 21 72 22 74 23
REMARK SMILES IDX 73 24 11 25 12 26 13 27 14 28 15 29 16 30 62 31 17 32 61 33
REMARK SMILES IDX 18 34 19 35 20 36 55 37 21 38 60 39 54 40 56 41 22 42 59 43
REMARK SMILES IDX 53 44 52 45 23 47 45 48 30 49 44 50 31 51 34 52 43 53 57 54
REMARK SMILES IDX 32 55 33 56 42 58 58 59 35 60 24 61 25 62 29 63 26 64 28 65
REMARK SMILES IDX 27 66 46 67 47 68 51 69 48 70 50 71 49 72 36 73 37 74 41 75
REMARK SMILES IDX 38 76 40 77 39 78
REMARK H PARENT 56 46 34 57
REMARK Flexibility Score: inf
ROOT
ATOM      1  C   UNL     1       3.315  -0.959  -2.880  1.00  0.00     0.202 C 
ENDROOT
BRANCH   1   2
ATOM      2  O   UNL     1       3.786   0.258  -3.454  1.00  0.00    -0.374 OA
BRANCH   2   3
ATOM      3  C   UNL     1       4.062   1.296  -2.515  1.00  0.00     0.202 C 
BRANCH   3   4
ATOM      4  C   UNL     1       2.804   2.038  -2.051  1.00  0.00     0.261 C 
BRANCH   4   5
ATOM      5  O   UNL     1       1.832   1.114  -1.510  1.00  0.00    -0.459 OA
BRANCH   5   6
ATOM      6  C   UNL     1       0.677   0.971  -2.205  1.00  0.00     0.353 C 
ATOM      7  O   UNL     1       0.249   1.703  -3.075  1.00  0.00    -0.245 OA
BRANCH   6   8
ATOM      8  C   UNL     1       0.057  -0.390  -1.884  1.00  0.00     0.133 C 
ATOM      9  C   UNL     1      -0.831  -0.642   0.397  1.00  0.00     0.020 C 
ATOM     10  C   UNL     1       0.300  -1.053  -0.545  1.00  0.00     0.078 C 
ATOM     11  C   UNL     1       0.088  -2.417  -1.099  1.00  0.00     0.026 C 
ATOM     12  N   UNL     1      -0.647  -1.088  -2.742  1.00  0.00    -0.249 NA
ATOM     13  C   UNL     1      -0.617  -2.365  -2.228  1.00  0.00     0.049 C 
ATOM     14  C   UNL     1       0.868  -3.631  -0.840  1.00  0.00     0.161 C 
ATOM     15  C   UNL     1      -0.901  -3.596  -3.033  1.00  0.00     0.065 C 
ATOM     16  O   UNL     1       1.317  -3.830   0.287  1.00  0.00    -0.294 OA
ATOM     17  C   UNL     1       1.180  -4.570  -2.025  1.00  0.00     0.089 C 
ATOM     18  C   UNL     1       0.436  -4.280  -3.377  1.00  0.00     0.033 C 
BRANCH  18  19
ATOM     19  C   UNL     1       1.226  -3.539  -4.474  1.00  0.00    -0.044 A 
ATOM     20  C   UNL     1       0.670  -2.458  -5.191  1.00  0.00     0.004 A 
ATOM     21  C   UNL     1       2.523  -3.925  -4.843  1.00  0.00     0.004 A 
ATOM     22  C   UNL     1       1.419  -1.677  -6.072  1.00  0.00     0.000 A 
ATOM     23  C   UNL     1       3.272  -3.158  -5.755  1.00  0.00     0.000 A 
ATOM     24  C   UNL     1       2.738  -2.006  -6.327  1.00  0.00     0.000 A 
ENDBRANCH  18  19
ENDBRANCH   6   8
ENDBRANCH   5   6
ENDBRANCH   4   5
ENDBRANCH   3   4
ENDBRANCH   2   3
ENDBRANCH   1   2
BRANCH   1  25
ATOM     25  C   UNL     1       4.336  -2.081  -2.967  1.00  0.00     0.261 C 
BRANCH  25  26
ATOM     26  O   UNL     1       5.210  -1.961  -1.863  1.00  0.00    -0.460 OA
BRANCH  26  27
ATOM     27  C   UNL     1       6.164  -1.010  -1.943  1.00  0.00     0.338 C 
ATOM     28  O   UNL     1       6.641  -0.495  -2.939  1.00  0.00    -0.246 OA
BRANCH  27  29
ATOM     29  C   UNL     1       6.604  -0.812  -0.549  1.00  0.00     0.060 A 
ATOM     30  C   UNL     1       7.971  -1.024  -0.425  1.00  0.00     0.016 A 
ATOM     31  C   UNL     1       5.685  -1.217   0.436  1.00  0.00     0.016 A 
ATOM     32  C   UNL     1       8.356  -2.045   0.407  1.00  0.00     0.010 A 
ATOM     33  C   UNL     1       6.056  -2.280   1.216  1.00  0.00     0.010 A 
ATOM     34  C   UNL     1       7.365  -2.745   1.106  1.00  0.00    -0.014 A 
BRANCH  34  35
ATOM     35  C   UNL     1       7.766  -3.891   1.882  1.00  0.00     0.031 A 
ATOM     36  C   UNL     1       8.230  -3.462   3.214  1.00  0.00     0.074 A 
ATOM     37  C   UNL     1       7.617  -5.168   1.494  1.00  0.00     0.049 A 
ATOM     38  N   UNL     1       9.448  -3.226   3.570  1.00  0.00    -0.248 NA
ATOM     39  C   UNL     1       7.207  -2.937   4.137  1.00  0.00     0.031 C 
ATOM     40  C   UNL     1       6.890  -5.724   0.353  1.00  0.00     0.029 A 
ATOM     41  N   UNL     1       8.037  -6.274   2.153  1.00  0.00    -0.354 N 
ATOM     42  C   UNL     1       9.337  -2.719   4.856  1.00  0.00     0.074 A 
ATOM     43  C   UNL     1       7.979  -2.263   4.987  1.00  0.00     0.031 C 
ATOM     44  C   UNL     1       6.713  -7.055   0.554  1.00  0.00     0.029 A 
ATOM     45  C   UNL     1       7.417  -7.449   1.765  1.00  0.00     0.049 A 
ATOM     46  H   UNL     1       8.728  -6.245   2.853  1.00  0.00     0.167 HD
ATOM     47  C   UNL     1      10.219  -3.065   5.832  1.00  0.00     0.031 A 
ATOM     48  C   UNL     1       7.424  -8.609   2.473  1.00  0.00     0.031 A 
ATOM     49  C   UNL     1      11.393  -3.696   5.283  1.00  0.00     0.049 A 
ATOM     50  C   UNL     1       8.529  -8.517   3.467  1.00  0.00     0.074 A 
ATOM     51  C   UNL     1      12.376  -3.322   4.387  1.00  0.00     0.029 A 
ATOM     52  N   UNL     1      11.436  -5.071   5.341  1.00  0.00    -0.354 N 
ATOM     53  N   UNL     1       9.788  -8.488   3.131  1.00  0.00    -0.248 NA
ATOM     54  C   UNL     1       8.224  -7.949   4.774  1.00  0.00     0.031 C 
ATOM     55  C   UNL     1      12.636  -4.494   3.615  1.00  0.00     0.029 A 
ATOM     56  C   UNL     1      11.854  -5.534   4.121  1.00  0.00     0.049 A 
ATOM     57  H   UNL     1      11.207  -5.625   6.123  1.00  0.00     0.167 HD
ATOM     58  C   UNL     1      10.359  -7.529   3.958  1.00  0.00     0.074 A 
ATOM     59  C   UNL     1       9.367  -7.293   5.007  1.00  0.00     0.031 C 
ATOM     60  C   UNL     1      11.438  -6.796   3.549  1.00  0.00     0.031 A 
BRANCH  47  61
ATOM     61  C   UNL     1       9.795  -3.275   7.267  1.00  0.00    -0.014 A 
ATOM     62  C   UNL     1      10.783  -3.595   8.209  1.00  0.00     0.009 A 
ATOM     63  C   UNL     1       8.456  -3.442   7.679  1.00  0.00     0.009 A 
ATOM     64  C   UNL     1      10.446  -4.131   9.457  1.00  0.00     0.001 A 
ATOM     65  C   UNL     1       8.114  -3.934   8.937  1.00  0.00     0.001 A 
ATOM     66  C   UNL     1       9.113  -4.310   9.816  1.00  0.00     0.000 A 
ENDBRANCH  47  61
BRANCH  48  67
ATOM     67  C   UNL     1       6.326  -9.595   2.605  1.00  0.00    -0.014 A 
ATOM     68  C   UNL     1       6.561 -10.887   3.104  1.00  0.00     0.009 A 
ATOM     69  C   UNL     1       4.987  -9.177   2.489  1.00  0.00     0.009 A 
ATOM     70  C   UNL     1       5.496 -11.715   3.494  1.00  0.00     0.001 A 
ATOM     71  C   UNL     1       3.925 -10.002   2.877  1.00  0.00     0.001 A 
ATOM     72  C   UNL     1       4.180 -11.268   3.391  1.00  0.00     0.000 A 
ENDBRANCH  48  67
BRANCH  60  73
ATOM     73  C   UNL     1      12.105  -7.195   2.254  1.00  0.00    -0.014 A 
ATOM     74  C   UNL     1      11.461  -7.128   1.004  1.00  0.00     0.009 A 
ATOM     75  C   UNL     1      13.475  -7.488   2.279  1.00  0.00     0.009 A 
ATOM     76  C   UNL     1      12.165  -7.374  -0.180  1.00  0.00     0.001 A 
ATOM     77  C   UNL     1      14.182  -7.715   1.095  1.00  0.00     0.001 A 
ATOM     78  C   UNL     1      13.527  -7.662  -0.133  1.00  0.00     0.000 A 
ENDBRANCH  60  73
ENDBRANCH  34  35
ENDBRANCH  27  29
ENDBRANCH  26  27
ENDBRANCH  25  26
ENDBRANCH   1  25
TORSDOF 15
