REMARK SMILES Cc1cc2c(c(C)c1Cl)C=C(C(=O)OCCOCCOC(=O)c1ccc(-c3c4nc(c(-c5ccccc5)c5ccc([nH]5)c(-c5ccccc5)c5nc(c(-c6ccccc6)c6ccc3[nH]6)C=C5)C=C4)cc1)[C@@H](C(F)(F)F)O2
REMARK SMILES IDX 18 1 17 2 16 3 15 4 14 5 12 6 13 7 11 8 1 9 2 10 3 11 8 12
REMARK SMILES IDX 4 13 6 14 9 15 5 16 76 17 7 18 10 19 71 20 72 21 73 22 74 23
REMARK SMILES IDX 75 24 19 25 20 26 21 27 22 28 23 29 24 30 70 31 25 32 69 33
REMARK SMILES IDX 26 34 27 35 28 36 63 37 29 38 68 39 62 40 64 41 30 42 67 43
REMARK SMILES IDX 61 44 60 45 31 47 53 48 38 49 52 50 39 51 42 52 51 53 65 54
REMARK SMILES IDX 40 55 41 56 50 58 66 59 43 60 32 61 33 62 37 63 34 64 36 65
REMARK SMILES IDX 35 66 54 67 55 68 59 69 56 70 58 71 57 72 44 73 45 74 49 75
REMARK SMILES IDX 46 76 48 77 47 78
REMARK H PARENT 64 46 42 57
REMARK Flexibility Score: inf
ROOT
ATOM      1  C   UNL     1       0.451  -7.353   5.125  1.00  0.00     0.202 C 
ENDROOT
BRANCH   1   2
ATOM      2  O   UNL     1      -0.421  -8.461   5.348  1.00  0.00    -0.374 OA
BRANCH   2   3
ATOM      3  C   UNL     1      -0.378  -9.533   4.406  1.00  0.00     0.202 C 
BRANCH   3   4
ATOM      4  C   UNL     1      -1.155  -9.307   3.106  1.00  0.00     0.261 C 
BRANCH   4   5
ATOM      5  O   UNL     1      -0.606  -8.201   2.370  1.00  0.00    -0.460 OA
BRANCH   5   6
ATOM      6  C   UNL     1      -1.456  -7.166   2.186  1.00  0.00     0.338 C 
ATOM      7  O   UNL     1      -2.651  -7.145   2.438  1.00  0.00    -0.246 OA
BRANCH   6   8
ATOM      8  C   UNL     1      -0.705  -5.977   1.742  1.00  0.00     0.087 C 
ATOM      9  C   UNL     1       1.100  -0.044  -0.075  1.00  0.00     0.046 C 
ATOM     10  C   UNL     1       0.589  -1.236   0.692  1.00  0.00    -0.028 A 
ATOM     11  C   UNL     1       1.000  -2.504   0.252  1.00  0.00     0.052 A 
ATOM     12  C   UNL     1      -0.315  -1.151   1.769  1.00  0.00     0.047 A 
ATOM     13  C   UNL     1       0.492  -3.665   0.829  1.00  0.00     0.128 A 
ATOM     14  C   UNL     1      -0.814  -2.321   2.391  1.00  0.00    -0.021 A 
ATOM     15  Cl  UNL     1      -0.841   0.414   2.310  1.00  0.00    -0.084 Cl
ATOM     16  C   UNL     1      -0.435  -3.585   1.872  1.00  0.00     0.022 A 
ATOM     17  O   UNL     1       0.965  -4.833   0.300  1.00  0.00    -0.475 OA
ATOM     18  C   UNL     1      -1.747  -2.256   3.580  1.00  0.00     0.047 C 
ATOM     19  C   UNL     1      -1.040  -4.828   2.341  1.00  0.00     0.027 C 
ATOM     20  C   UNL     1       0.337  -6.090   0.670  1.00  0.00     0.316 C 
BRANCH  20  21
ATOM     21  C   UNL     1      -0.192  -6.760  -0.607  1.00  0.00     0.430 C 
ATOM     22  F   UNL     1       0.766  -6.809  -1.565  1.00  0.00    -0.167 F 
ATOM     23  F   UNL     1      -0.575  -8.039  -0.382  1.00  0.00    -0.167 F 
ATOM     24  F   UNL     1      -1.252  -6.103  -1.125  1.00  0.00    -0.167 F 
ENDBRANCH  20  21
ENDBRANCH   6   8
ENDBRANCH   5   6
ENDBRANCH   4   5
ENDBRANCH   3   4
ENDBRANCH   2   3
ENDBRANCH   1   2
BRANCH   1  25
ATOM     25  C   UNL     1       1.922  -7.554   5.508  1.00  0.00     0.261 C 
BRANCH  25  26
ATOM     26  O   UNL     1       2.574  -8.517   4.660  1.00  0.00    -0.460 OA
BRANCH  26  27
ATOM     27  C   UNL     1       2.909  -9.677   5.273  1.00  0.00     0.338 C 
ATOM     28  O   UNL     1       2.778  -9.955   6.457  1.00  0.00    -0.246 OA
BRANCH  27  29
ATOM     29  C   UNL     1       3.318 -10.679   4.274  1.00  0.00     0.060 A 
ATOM     30  C   UNL     1       2.683 -11.928   4.312  1.00  0.00     0.016 A 
ATOM     31  C   UNL     1       4.358 -10.438   3.373  1.00  0.00     0.016 A 
ATOM     32  C   UNL     1       3.120 -12.958   3.483  1.00  0.00     0.010 A 
ATOM     33  C   UNL     1       4.803 -11.477   2.550  1.00  0.00     0.010 A 
ATOM     34  C   UNL     1       4.210 -12.750   2.627  1.00  0.00    -0.014 A 
BRANCH  34  35
ATOM     35  C   UNL     1       4.815 -13.901   1.919  1.00  0.00     0.031 A 
ATOM     36  C   UNL     1       6.018 -14.576   2.518  1.00  0.00     0.074 A 
ATOM     37  C   UNL     1       4.282 -14.361   0.775  1.00  0.00     0.049 A 
ATOM     38  N   UNL     1       6.724 -15.574   2.051  1.00  0.00    -0.248 NA
ATOM     39  C   UNL     1       6.481 -14.064   3.818  1.00  0.00     0.031 C 
ATOM     40  C   UNL     1       3.081 -13.834   0.129  1.00  0.00     0.029 A 
ATOM     41  N   UNL     1       4.686 -15.384  -0.045  1.00  0.00    -0.354 N 
ATOM     42  C   UNL     1       7.712 -15.810   2.998  1.00  0.00     0.074 A 
ATOM     43  C   UNL     1       7.533 -14.836   4.053  1.00  0.00     0.031 C 
ATOM     44  C   UNL     1       2.844 -14.540  -0.990  1.00  0.00     0.029 A 
ATOM     45  C   UNL     1       3.895 -15.542  -1.156  1.00  0.00     0.049 A 
ATOM     46  H   UNL     1       5.468 -15.951   0.145  1.00  0.00     0.167 HD
ATOM     47  C   UNL     1       8.680 -16.757   2.993  1.00  0.00     0.031 A 
ATOM     48  C   UNL     1       4.015 -16.389  -2.196  1.00  0.00     0.031 A 
ATOM     49  C   UNL     1       8.874 -17.712   1.936  1.00  0.00     0.049 A 
ATOM     50  C   UNL     1       5.156 -17.369  -2.226  1.00  0.00     0.074 A 
ATOM     51  C   UNL     1       9.841 -18.697   1.831  1.00  0.00     0.029 A 
ATOM     52  N   UNL     1       8.086 -17.800   0.799  1.00  0.00    -0.354 N 
ATOM     53  N   UNL     1       6.095 -17.570  -1.334  1.00  0.00    -0.248 NA
ATOM     54  C   UNL     1       5.250 -18.241  -3.406  1.00  0.00     0.031 C 
ATOM     55  C   UNL     1       9.665 -19.352   0.608  1.00  0.00     0.029 A 
ATOM     56  C   UNL     1       8.554 -18.812  -0.020  1.00  0.00     0.049 A 
ATOM     57  H   UNL     1       7.309 -17.228   0.604  1.00  0.00     0.167 HD
ATOM     58  C   UNL     1       6.872 -18.610  -1.829  1.00  0.00     0.074 A 
ATOM     59  C   UNL     1       6.292 -19.001  -3.097  1.00  0.00     0.031 C 
ATOM     60  C   UNL     1       7.966 -19.191  -1.278  1.00  0.00     0.031 A 
BRANCH  47  61
ATOM     61  C   UNL     1       9.623 -16.791   4.162  1.00  0.00    -0.014 A 
ATOM     62  C   UNL     1       9.211 -17.280   5.411  1.00  0.00     0.009 A 
ATOM     63  C   UNL     1      10.954 -16.376   3.997  1.00  0.00     0.009 A 
ATOM     64  C   UNL     1      10.110 -17.334   6.479  1.00  0.00     0.001 A 
ATOM     65  C   UNL     1      11.855 -16.453   5.060  1.00  0.00     0.001 A 
ATOM     66  C   UNL     1      11.432 -16.926   6.301  1.00  0.00     0.000 A 
ENDBRANCH  47  61
BRANCH  48  67
ATOM     67  C   UNL     1       3.024 -16.344  -3.301  1.00  0.00    -0.014 A 
ATOM     68  C   UNL     1       2.091 -17.378  -3.464  1.00  0.00     0.009 A 
ATOM     69  C   UNL     1       3.001 -15.261  -4.195  1.00  0.00     0.009 A 
ATOM     70  C   UNL     1       1.162 -17.336  -4.507  1.00  0.00     0.001 A 
ATOM     71  C   UNL     1       2.056 -15.210  -5.221  1.00  0.00     0.001 A 
ATOM     72  C   UNL     1       1.141 -16.249  -5.380  1.00  0.00     0.000 A 
ENDBRANCH  48  67
BRANCH  60  73
ATOM     73  C   UNL     1       8.588 -20.340  -2.019  1.00  0.00    -0.014 A 
ATOM     74  C   UNL     1       9.350 -20.134  -3.179  1.00  0.00     0.009 A 
ATOM     75  C   UNL     1       8.460 -21.643  -1.510  1.00  0.00     0.009 A 
ATOM     76  C   UNL     1       9.950 -21.215  -3.829  1.00  0.00     0.001 A 
ATOM     77  C   UNL     1       9.082 -22.717  -2.147  1.00  0.00     0.001 A 
ATOM     78  C   UNL     1       9.821 -22.503  -3.309  1.00  0.00     0.000 A 
ENDBRANCH  60  73
ENDBRANCH  34  35
ENDBRANCH  27  29
ENDBRANCH  26  27
ENDBRANCH  25  26
ENDBRANCH   1  25
TORSDOF 15
