REMARK SMILES CC1=C([C@H](NC(=O)c2cccc3ccccc23)C(=O)OCCOCCOC(=O)c2ccc(-c3c4nc(c(-c5ccccc5)c5ccc([nH]5)c(-c5ccccc5)c5nc(c(-c6ccccc6)c6ccc3[nH]6)C=C5)C=C4)cc2)[C@H](C)N=N1
REMARK SMILES IDX 23 1 22 2 21 3 20 4 18 5 19 6 4 7 3 8 1 9 2 10 80 11 77 12
REMARK SMILES IDX 79 13 78 14 5 15 6 16 7 18 8 19 9 20 17 21 10 22 12 23 16 24
REMARK SMILES IDX 11 25 13 26 15 27 14 28 24 29 25 30 26 31 27 32 28 33 29 34
REMARK SMILES IDX 30 35 76 36 31 37 75 38 32 39 33 40 34 41 69 42 35 43 74 44
REMARK SMILES IDX 68 45 70 46 36 47 73 48 67 49 66 50 37 52 59 53 44 54 58 55
REMARK SMILES IDX 45 56 48 57 57 58 71 59 46 60 47 61 56 63 72 64 49 65 38 66
REMARK SMILES IDX 39 67 43 68 40 69 42 70 41 71 60 72 61 73 65 74 62 75 64 76
REMARK SMILES IDX 63 77 50 78 51 79 55 80 52 81 54 82 53 83
REMARK H PARENT 5 17 70 51 48 62
REMARK Flexibility Score: inf
ROOT
ATOM      1  O   UNL     1       5.278   3.728   1.351  1.00  0.00    -0.374 OA
ENDROOT
BRANCH   1   2
ATOM      2  C   UNL     1       4.835   4.619   2.384  1.00  0.00     0.202 C 
BRANCH   2   3
ATOM      3  C   UNL     1       3.629   5.487   2.056  1.00  0.00     0.261 C 
BRANCH   3   4
ATOM      4  O   UNL     1       2.476   4.657   1.832  1.00  0.00    -0.461 OA
BRANCH   4   5
ATOM      5  C   UNL     1       1.971   4.608   0.581  1.00  0.00     0.333 C 
ATOM      6  O   UNL     1       2.385   5.300  -0.342  1.00  0.00    -0.249 OA
BRANCH   5   7
ATOM      7  C   UNL     1       0.805   3.575   0.417  1.00  0.00     0.223 C 
BRANCH   7   8
ATOM      8  C   UNL     1      -0.524   4.180   0.075  1.00  0.00     0.012 C 
ATOM      9  C   UNL     1      -0.040   4.514  -2.386  1.00  0.00     0.069 C 
ATOM     10  C   UNL     1      -0.870   4.579  -1.153  1.00  0.00     0.064 C 
ATOM     11  N   UNL     1      -2.123   5.122  -1.210  1.00  0.00    -0.160 NA
ATOM     12  C   UNL     1      -1.725   4.503   0.924  1.00  0.00     0.156 C 
ATOM     13  N   UNL     1      -2.656   5.111  -0.071  1.00  0.00    -0.181 NA
ATOM     14  C   UNL     1      -2.520   3.401   1.627  1.00  0.00     0.040 C 
ENDBRANCH   7   8
BRANCH   7  15
ATOM     15  N   UNL     1       0.585   2.428   1.263  1.00  0.00    -0.335 N 
ATOM     16  C   UNL     1       0.302   2.342   2.579  1.00  0.00     0.252 C 
ATOM     17  H   UNL     1       0.653   1.560   0.802  1.00  0.00     0.165 HD
ATOM     18  O   UNL     1      -0.302   1.347   2.985  1.00  0.00    -0.269 OA
BRANCH  16  19
ATOM     19  C   UNL     1       0.841   3.301   3.542  1.00  0.00     0.047 A 
ATOM     20  C   UNL     1       0.442   4.627   3.703  1.00  0.00     0.014 A 
ATOM     21  C   UNL     1       1.702   2.710   4.424  1.00  0.00    -0.006 A 
ATOM     22  C   UNL     1       0.857   5.437   4.778  1.00  0.00     0.001 A 
ATOM     23  C   UNL     1       1.968   3.580   5.942  1.00  0.00    -0.018 A 
ATOM     24  C   UNL     1       2.258   1.009   4.122  1.00  0.00     0.009 A 
ATOM     25  C   UNL     1       1.557   4.935   5.892  1.00  0.00     0.009 A 
ATOM     26  C   UNL     1       2.777   2.600   7.262  1.00  0.00     0.009 A 
ATOM     27  C   UNL     1       3.174   0.059   5.214  1.00  0.00     0.001 A 
ATOM     28  C   UNL     1       3.494   0.771   6.768  1.00  0.00     0.001 A 
ENDBRANCH  16  19
ENDBRANCH   7  15
ENDBRANCH   5   7
ENDBRANCH   4   5
ENDBRANCH   3   4
ENDBRANCH   2   3
ENDBRANCH   1   2
BRANCH   1  29
ATOM     29  C   UNL     1       4.542   2.534   1.071  1.00  0.00     0.202 C 
BRANCH  29  30
ATOM     30  C   UNL     1       4.578   1.491   2.157  1.00  0.00     0.261 C 
BRANCH  30  31
ATOM     31  O   UNL     1       3.989   2.138   3.270  1.00  0.00    -0.460 OA
BRANCH  31  32
ATOM     32  C   UNL     1       4.636   2.188   4.435  1.00  0.00     0.338 C 
ATOM     33  O   UNL     1       5.849   2.103   4.557  1.00  0.00    -0.246 OA
BRANCH  32  34
ATOM     34  C   UNL     1       3.659   2.244   5.635  1.00  0.00     0.060 A 
ATOM     35  C   UNL     1       4.828   2.387   7.046  1.00  0.00     0.016 A 
ATOM     36  C   UNL     1       1.856   1.461   6.117  1.00  0.00     0.016 A 
ATOM     37  C   UNL     1       4.327   1.651   8.600  1.00  0.00     0.010 A 
ATOM     38  C   UNL     1       1.511   0.816   7.614  1.00  0.00     0.010 A 
ATOM     39  C   UNL     1       2.771   0.774   8.747  1.00  0.00    -0.014 A 
BRANCH  39  40
ATOM     40  C   UNL     1       2.341  -0.508   9.433  1.00  0.00     0.031 A 
ATOM     41  C   UNL     1       1.633   0.166  10.546  1.00  0.00     0.074 A 
ATOM     42  C   UNL     1       2.187  -1.829   8.959  1.00  0.00     0.049 A 
ATOM     43  N   UNL     1       2.295   0.539  11.599  1.00  0.00    -0.248 NA
ATOM     44  C   UNL     1       0.426   1.042  10.329  1.00  0.00     0.031 C 
ATOM     45  C   UNL     1       2.664  -2.549   7.731  1.00  0.00     0.029 A 
ATOM     46  N   UNL     1       1.475  -2.906   9.533  1.00  0.00    -0.354 N 
ATOM     47  C   UNL     1       1.335   1.168  12.355  1.00  0.00     0.074 A 
ATOM     48  C   UNL     1       0.481   1.821  11.415  1.00  0.00     0.031 C 
ATOM     49  C   UNL     1       2.067  -3.775   7.566  1.00  0.00     0.029 A 
ATOM     50  C   UNL     1       1.223  -4.078   8.707  1.00  0.00     0.049 A 
ATOM     51  H   UNL     1       1.158  -2.865  10.464  1.00  0.00     0.167 HD
ATOM     52  C   UNL     1       0.965   0.529  13.495  1.00  0.00     0.031 A 
ATOM     53  C   UNL     1       0.506  -5.239   9.020  1.00  0.00     0.031 A 
ATOM     54  C   UNL     1       1.953  -0.483  13.838  1.00  0.00     0.049 A 
ATOM     55  C   UNL     1       0.446  -5.297  10.498  1.00  0.00     0.074 A 
ATOM     56  C   UNL     1       3.331  -0.468  13.969  1.00  0.00     0.029 A 
ATOM     57  N   UNL     1       1.607  -1.763  13.479  1.00  0.00    -0.354 N 
ATOM     58  N   UNL     1       1.503  -5.481  11.231  1.00  0.00    -0.248 NA
ATOM     59  C   UNL     1      -0.650  -4.555  11.089  1.00  0.00     0.031 C 
ATOM     60  C   UNL     1       3.795  -1.684  13.390  1.00  0.00     0.029 A 
ATOM     61  C   UNL     1       2.702  -2.499  13.112  1.00  0.00     0.049 A 
ATOM     62  H   UNL     1       0.685  -2.108  13.484  1.00  0.00     0.167 HD
ATOM     63  C   UNL     1       1.455  -4.408  12.102  1.00  0.00     0.074 A 
ATOM     64  C   UNL     1       0.083  -3.882  11.980  1.00  0.00     0.031 C 
ATOM     65  C   UNL     1       2.615  -3.812  12.512  1.00  0.00     0.031 A 
BRANCH  52  66
ATOM     66  C   UNL     1      -0.475   0.426  13.920  1.00  0.00    -0.014 A 
ATOM     67  C   UNL     1      -0.710   0.011  15.231  1.00  0.00     0.009 A 
ATOM     68  C   UNL     1      -1.595   0.500  13.059  1.00  0.00     0.009 A 
ATOM     69  C   UNL     1      -1.997  -0.316  15.662  1.00  0.00     0.001 A 
ATOM     70  C   UNL     1      -2.888   0.207  13.494  1.00  0.00     0.001 A 
ATOM     71  C   UNL     1      -3.084  -0.213  14.798  1.00  0.00     0.000 A 
ENDBRANCH  52  66
BRANCH  53  72
ATOM     72  C   UNL     1      -0.398  -6.251   8.301  1.00  0.00    -0.014 A 
ATOM     73  C   UNL     1      -0.914  -7.438   8.919  1.00  0.00     0.009 A 
ATOM     74  C   UNL     1      -1.074  -5.850   7.143  1.00  0.00     0.009 A 
ATOM     75  C   UNL     1      -2.055  -8.130   8.426  1.00  0.00     0.001 A 
ATOM     76  C   UNL     1      -2.218  -6.529   6.661  1.00  0.00     0.001 A 
ATOM     77  C   UNL     1      -2.721  -7.657   7.304  1.00  0.00     0.000 A 
ENDBRANCH  53  72
BRANCH  65  78
ATOM     78  C   UNL     1       3.927  -4.529  12.252  1.00  0.00    -0.014 A 
ATOM     79  C   UNL     1       4.503  -4.783  10.990  1.00  0.00     0.009 A 
ATOM     80  C   UNL     1       4.680  -4.842  13.391  1.00  0.00     0.009 A 
ATOM     81  C   UNL     1       5.778  -5.369  10.892  1.00  0.00     0.001 A 
ATOM     82  C   UNL     1       5.953  -5.401  13.293  1.00  0.00     0.001 A 
ATOM     83  C   UNL     1       6.498  -5.679  12.045  1.00  0.00     0.000 A 
ENDBRANCH  65  78
ENDBRANCH  39  40
ENDBRANCH  32  34
ENDBRANCH  31  32
ENDBRANCH  30  31
ENDBRANCH  29  30
ENDBRANCH   1  29
TORSDOF 17
