REMARK SMILES COc1ccccc1N1C(=O)CC[C@H]1CC(=O)OCCOCCOC(=O)c1ccc(-c2c3nc(c(-c4ccccc4)c4ccc([nH]4)c(-c4ccccc4)c4nc(c(-c5ccccc5)c5ccc2[nH]5)C=C4)C=C3)cc1
REMARK SMILES IDX 20 1 19 2 18 3 16 4 17 5 15 6 14 7 9 8 10 9 11 10 12 11
REMARK SMILES IDX 13 12 8 13 3 14 4 15 5 16 7 17 6 18 2 19 1 20 21 21 22 22
REMARK SMILES IDX 23 23 24 24 25 25 26 26 27 27 28 28 74 29 29 30 73 31 30 32
REMARK SMILES IDX 31 33 32 34 67 35 33 36 72 37 66 38 68 39 34 40 71 41 65 42
REMARK SMILES IDX 64 43 35 45 57 46 42 47 56 48 43 49 46 50 55 51 69 52 44 53
REMARK SMILES IDX 45 54 54 56 70 57 47 58 36 59 37 60 41 61 38 62 40 63 39 64
REMARK SMILES IDX 58 65 59 66 63 67 60 68 62 69 61 70 48 71 49 72 53 73 50 74
REMARK SMILES IDX 52 75 51 76
REMARK H PARENT 68 44 46 55
REMARK Flexibility Score: inf
ROOT
ATOM      1  C   UNL     1       4.017   3.111   5.643  1.00  0.00     0.202 C 
ENDROOT
BRANCH   1   2
ATOM      2  C   UNL     1       5.256   2.288   5.212  1.00  0.00     0.261 C 
BRANCH   2   3
ATOM      3  O   UNL     1       5.076   1.670   3.922  1.00  0.00    -0.463 OA
BRANCH   3   4
ATOM      4  C   UNL     1       5.567   0.418   3.788  1.00  0.00     0.307 C 
ATOM      5  O   UNL     1       6.514  -0.022   4.428  1.00  0.00    -0.252 OA
BRANCH   4   6
ATOM      6  C   UNL     1       4.648  -0.464   2.973  1.00  0.00     0.148 C 
BRANCH   6   7
ATOM      7  C   UNL     1       4.269  -0.132   1.537  1.00  0.00     0.102 C 
ATOM      8  N   UNL     1       3.622   1.085   1.073  1.00  0.00    -0.305 N 
ATOM      9  C   UNL     1       3.780   1.148  -0.326  1.00  0.00     0.227 C 
ATOM     10  O   UNL     1       3.156   1.805  -1.140  1.00  0.00    -0.275 OA
ATOM     11  C   UNL     1       4.847   0.156  -0.732  1.00  0.00     0.103 C 
ATOM     12  C   UNL     1       5.457  -0.260   0.592  1.00  0.00     0.036 C 
BRANCH   8  13
ATOM     13  C   UNL     1       2.525   1.720   1.716  1.00  0.00     0.086 A 
ATOM     14  C   UNL     1       0.800   1.353   1.348  1.00  0.00     0.142 A 
ATOM     15  C   UNL     1      -0.525   2.221   2.212  1.00  0.00     0.048 A 
ATOM     16  C   UNL     1      -0.145   3.545   3.395  1.00  0.00     0.004 A 
ATOM     17  C   UNL     1       2.910   3.056   2.868  1.00  0.00     0.030 A 
ATOM     18  C   UNL     1       1.576   3.959   3.729  1.00  0.00     0.002 A 
BRANCH  14  19
ATOM     19  O   UNL     1       0.378   0.650   0.252  1.00  0.00    -0.495 OA
ATOM     20  C   UNL     1       0.822  -0.690   0.213  1.00  0.00     0.278 C 
ENDBRANCH  14  19
ENDBRANCH   8  13
ENDBRANCH   6   7
ENDBRANCH   4   6
ENDBRANCH   3   4
ENDBRANCH   2   3
ENDBRANCH   1   2
BRANCH   1  21
ATOM     21  O   UNL     1       2.717   2.501   5.752  1.00  0.00    -0.374 OA
BRANCH  21  22
ATOM     22  C   UNL     1       2.291   1.539   4.792  1.00  0.00     0.202 C 
BRANCH  22  23
ATOM     23  C   UNL     1       1.185   1.783   3.571  1.00  0.00     0.261 C 
BRANCH  23  24
ATOM     24  O   UNL     1       1.214   3.117   2.057  1.00  0.00    -0.460 OA
BRANCH  24  25
ATOM     25  C   UNL     1       0.830   4.073   1.084  1.00  0.00     0.338 C 
ATOM     26  O   UNL     1      -0.302   4.440   0.778  1.00  0.00    -0.246 OA
BRANCH  25  27
ATOM     27  C   UNL     1       1.979   4.809   0.511  1.00  0.00     0.060 A 
ATOM     28  C   UNL     1       2.530   5.910   1.183  1.00  0.00     0.016 A 
ATOM     29  C   UNL     1       2.377   4.524  -0.789  1.00  0.00     0.016 A 
ATOM     30  C   UNL     1       3.486   6.713   0.552  1.00  0.00     0.010 A 
ATOM     31  C   UNL     1       3.368   5.291  -1.404  1.00  0.00     0.010 A 
ATOM     32  C   UNL     1       3.889   6.425  -0.760  1.00  0.00    -0.014 A 
BRANCH  32  33
ATOM     33  C   UNL     1       4.652   7.423  -1.553  1.00  0.00     0.031 A 
ATOM     34  C   UNL     1       3.909   8.238  -2.581  1.00  0.00     0.074 A 
ATOM     35  C   UNL     1       5.971   7.619  -1.382  1.00  0.00     0.049 A 
ATOM     36  N   UNL     1       4.366   9.130  -3.423  1.00  0.00    -0.248 NA
ATOM     37  C   UNL     1       2.457   8.009  -2.677  1.00  0.00     0.031 C 
ATOM     38  C   UNL     1       6.820   6.925  -0.416  1.00  0.00     0.029 A 
ATOM     39  N   UNL     1       6.830   8.468  -2.038  1.00  0.00    -0.354 N 
ATOM     40  C   UNL     1       3.265   9.547  -4.160  1.00  0.00     0.074 A 
ATOM     41  C   UNL     1       2.125   8.793  -3.690  1.00  0.00     0.031 C 
ATOM     42  C   UNL     1       8.081   7.377  -0.544  1.00  0.00     0.029 A 
ATOM     43  C   UNL     1       8.132   8.370  -1.617  1.00  0.00     0.049 A 
ATOM     44  H   UNL     1       6.538   9.088  -2.745  1.00  0.00     0.167 HD
ATOM     45  C   UNL     1       3.196  10.484  -5.135  1.00  0.00     0.031 A 
ATOM     46  C   UNL     1       9.241   8.998  -2.055  1.00  0.00     0.031 A 
ATOM     47  C   UNL     1       4.310  11.257  -5.607  1.00  0.00     0.049 A 
ATOM     48  C   UNL     1       9.151  10.000  -3.176  1.00  0.00     0.074 A 
ATOM     49  C   UNL     1       4.318  12.263  -6.558  1.00  0.00     0.029 A 
ATOM     50  N   UNL     1       5.614  11.106  -5.169  1.00  0.00    -0.354 N 
ATOM     51  N   UNL     1       8.097  10.415  -3.833  1.00  0.00    -0.248 NA
ATOM     52  C   UNL     1      10.412  10.624  -3.610  1.00  0.00     0.031 C 
ATOM     53  C   UNL     1       5.638  12.692  -6.727  1.00  0.00     0.029 A 
ATOM     54  C   UNL     1       6.441  11.982  -5.850  1.00  0.00     0.049 A 
ATOM     55  H   UNL     1       5.908  10.470  -4.477  1.00  0.00     0.167 HD
ATOM     56  C   UNL     1       8.562  11.362  -4.739  1.00  0.00     0.074 A 
ATOM     57  C   UNL     1       9.991  11.469  -4.542  1.00  0.00     0.031 C 
ATOM     58  C   UNL     1       7.862  12.082  -5.650  1.00  0.00     0.031 A 
BRANCH  45  59
ATOM     59  C   UNL     1       1.856  10.706  -5.771  1.00  0.00    -0.014 A 
ATOM     60  C   UNL     1       0.834  11.389  -5.092  1.00  0.00     0.009 A 
ATOM     61  C   UNL     1       1.618  10.234  -7.070  1.00  0.00     0.009 A 
ATOM     62  C   UNL     1      -0.413  11.564  -5.693  1.00  0.00     0.001 A 
ATOM     63  C   UNL     1       0.378  10.433  -7.677  1.00  0.00     0.001 A 
ATOM     64  C   UNL     1      -0.639  11.090  -6.984  1.00  0.00     0.000 A 
ENDBRANCH  45  59
BRANCH  46  65
ATOM     65  C   UNL     1      10.558   8.694  -1.439  1.00  0.00    -0.014 A 
ATOM     66  C   UNL     1      11.180   9.625  -0.594  1.00  0.00     0.009 A 
ATOM     67  C   UNL     1      11.214   7.487  -1.724  1.00  0.00     0.009 A 
ATOM     68  C   UNL     1      12.444   9.361  -0.063  1.00  0.00     0.001 A 
ATOM     69  C   UNL     1      12.468   7.218  -1.175  1.00  0.00     0.001 A 
ATOM     70  C   UNL     1      13.086   8.158  -0.351  1.00  0.00     0.000 A 
ENDBRANCH  46  65
BRANCH  58  71
ATOM     71  C   UNL     1       8.621  13.071  -6.488  1.00  0.00    -0.014 A 
ATOM     72  C   UNL     1       9.435  12.649  -7.550  1.00  0.00     0.009 A 
ATOM     73  C   UNL     1       8.473  14.446  -6.247  1.00  0.00     0.009 A 
ATOM     74  C   UNL     1      10.105  13.586  -8.340  1.00  0.00     0.001 A 
ATOM     75  C   UNL     1       9.126  15.380  -7.053  1.00  0.00     0.001 A 
ATOM     76  C   UNL     1       9.946  14.950  -8.094  1.00  0.00     0.000 A 
ENDBRANCH  58  71
ENDBRANCH  32  33
ENDBRANCH  25  27
ENDBRANCH  24  25
ENDBRANCH  23  24
ENDBRANCH  22  23
ENDBRANCH  21  22
ENDBRANCH   1  21
TORSDOF 17
