REMARK SMILES O=C(OCCOCCOC(=O)[C@@H]1CSCN1C(=O)c1cccc(Cl)c1)c1ccc(-c2c3nc(c(-c4ccccc4)c4ccc([nH]4)c(-c4ccccc4)c4nc(c(-c5ccccc5)c5ccc2[nH]5)C=C4)C=C3)cc1
REMARK SMILES IDX 6 1 5 2 4 3 3 4 2 5 1 6 26 7 27 8 73 9 28 10 72 11 29 12
REMARK SMILES IDX 30 13 31 14 66 15 32 16 71 17 65 18 67 19 33 20 70 21 64 22
REMARK SMILES IDX 63 23 34 25 56 26 41 27 55 28 42 29 45 30 54 31 68 32 43 33
REMARK SMILES IDX 44 34 53 36 69 37 46 38 35 39 36 40 40 41 37 42 39 43 38 44
REMARK SMILES IDX 57 45 58 46 62 47 59 48 61 49 60 50 47 51 48 52 52 53 49 54
REMARK SMILES IDX 51 55 50 56 7 57 8 58 9 59 10 60 11 61 12 62 13 63 16 64
REMARK SMILES IDX 14 65 15 66 17 67 18 68 19 69 20 70 25 71 21 72 23 73 22 74
REMARK SMILES IDX 24 75
REMARK H PARENT 67 24 45 35
REMARK Flexibility Score: inf
ROOT
ATOM      1  O   UNL     1       7.168  -2.356   3.697  1.00  0.00    -0.374 OA
ENDROOT
BRANCH   1   2
ATOM      2  C   UNL     1       7.212  -1.526   2.541  1.00  0.00     0.202 C 
BRANCH   2   3
ATOM      3  C   UNL     1       8.510  -1.592   1.744  1.00  0.00     0.261 C 
BRANCH   3   4
ATOM      4  O   UNL     1       8.774  -2.942   1.333  1.00  0.00    -0.460 OA
BRANCH   4   5
ATOM      5  C   UNL     1       9.749  -3.745   1.821  1.00  0.00     0.338 C 
ATOM      6  O   UNL     1       9.927  -4.862   1.348  1.00  0.00    -0.246 OA
BRANCH   5   7
ATOM      7  C   UNL     1      10.641  -3.288   2.915  1.00  0.00     0.060 A 
ATOM      8  C   UNL     1      10.160  -2.667   4.067  1.00  0.00     0.016 A 
ATOM      9  C   UNL     1      12.002  -3.589   2.831  1.00  0.00     0.016 A 
ATOM     10  C   UNL     1      11.000  -2.264   5.082  1.00  0.00     0.010 A 
ATOM     11  C   UNL     1      12.850  -3.272   3.895  1.00  0.00     0.010 A 
ATOM     12  C   UNL     1      12.340  -2.615   5.025  1.00  0.00    -0.014 A 
BRANCH  12  13
ATOM     13  C   UNL     1      13.177  -2.277   6.182  1.00  0.00     0.031 A 
ATOM     14  C   UNL     1      14.207  -1.212   6.030  1.00  0.00     0.074 A 
ATOM     15  C   UNL     1      12.925  -2.875   7.362  1.00  0.00     0.049 A 
ATOM     16  N   UNL     1      15.153  -0.864   6.855  1.00  0.00    -0.248 NA
ATOM     17  C   UNL     1      14.167  -0.431   4.781  1.00  0.00     0.031 C 
ATOM     18  C   UNL     1      11.834  -3.825   7.617  1.00  0.00     0.029 A 
ATOM     19  N   UNL     1      13.549  -2.760   8.573  1.00  0.00    -0.354 N 
ATOM     20  C   UNL     1      15.865   0.129   6.199  1.00  0.00     0.074 A 
ATOM     21  C   UNL     1      15.227   0.351   4.922  1.00  0.00     0.031 C 
ATOM     22  C   UNL     1      11.855  -4.186   8.909  1.00  0.00     0.029 A 
ATOM     23  C   UNL     1      13.020  -3.582   9.539  1.00  0.00     0.049 A 
ATOM     24  H   UNL     1      14.303  -2.148   8.737  1.00  0.00     0.167 HD
ATOM     25  C   UNL     1      16.976   0.764   6.633  1.00  0.00     0.031 A 
ATOM     26  C   UNL     1      13.478  -3.866  10.770  1.00  0.00     0.031 A 
ATOM     27  C   UNL     1      17.569   0.505   7.915  1.00  0.00     0.049 A 
ATOM     28  C   UNL     1      14.766  -3.215  11.188  1.00  0.00     0.074 A 
ATOM     29  C   UNL     1      18.714   1.044   8.466  1.00  0.00     0.029 A 
ATOM     30  N   UNL     1      17.045  -0.382   8.849  1.00  0.00    -0.354 N 
ATOM     31  N   UNL     1      15.484  -2.324  10.544  1.00  0.00    -0.248 NA
ATOM     32  C   UNL     1      15.327  -3.629  12.478  1.00  0.00     0.031 C 
ATOM     33  C   UNL     1      18.913   0.441   9.712  1.00  0.00     0.029 A 
ATOM     34  C   UNL     1      17.862  -0.431   9.961  1.00  0.00     0.049 A 
ATOM     35  H   UNL     1      16.215  -0.898   8.734  1.00  0.00     0.167 HD
ATOM     36  C   UNL     1      16.581  -2.067  11.350  1.00  0.00     0.074 A 
ATOM     37  C   UNL     1      16.416  -2.874  12.544  1.00  0.00     0.031 C 
ATOM     38  C   UNL     1      17.640  -1.251  11.125  1.00  0.00     0.031 A 
BRANCH  25  39
ATOM     39  C   UNL     1      17.654   1.692   5.669  1.00  0.00    -0.014 A 
ATOM     40  C   UNL     1      17.116   2.944   5.335  1.00  0.00     0.009 A 
ATOM     41  C   UNL     1      18.849   1.280   5.057  1.00  0.00     0.009 A 
ATOM     42  C   UNL     1      17.745   3.749   4.381  1.00  0.00     0.001 A 
ATOM     43  C   UNL     1      19.488   2.097   4.123  1.00  0.00     0.001 A 
ATOM     44  C   UNL     1      18.930   3.326   3.778  1.00  0.00     0.000 A 
ENDBRANCH  25  39
BRANCH  26  45
ATOM     45  C   UNL     1      12.796  -4.877  11.623  1.00  0.00    -0.014 A 
ATOM     46  C   UNL     1      12.226  -4.521  12.854  1.00  0.00     0.009 A 
ATOM     47  C   UNL     1      12.725  -6.221  11.214  1.00  0.00     0.009 A 
ATOM     48  C   UNL     1      11.627  -5.490  13.666  1.00  0.00     0.001 A 
ATOM     49  C   UNL     1      12.095  -7.181  12.010  1.00  0.00     0.001 A 
ATOM     50  C   UNL     1      11.557  -6.817  13.241  1.00  0.00     0.000 A 
ENDBRANCH  26  45
BRANCH  38  51
ATOM     51  C   UNL     1      18.675  -1.185  12.207  1.00  0.00    -0.014 A 
ATOM     52  C   UNL     1      19.590  -2.231  12.394  1.00  0.00     0.009 A 
ATOM     53  C   UNL     1      18.772  -0.031  12.999  1.00  0.00     0.009 A 
ATOM     54  C   UNL     1      20.578  -2.127  13.371  1.00  0.00     0.001 A 
ATOM     55  C   UNL     1      19.779   0.080  13.954  1.00  0.00     0.001 A 
ATOM     56  C   UNL     1      20.677  -0.970  14.144  1.00  0.00     0.000 A 
ENDBRANCH  38  51
ENDBRANCH  12  13
ENDBRANCH   5   7
ENDBRANCH   4   5
ENDBRANCH   3   4
ENDBRANCH   2   3
ENDBRANCH   1   2
BRANCH   1  57
ATOM     57  C   UNL     1       6.818  -3.733   3.483  1.00  0.00     0.202 C 
BRANCH  57  58
ATOM     58  C   UNL     1       5.684  -4.081   4.440  1.00  0.00     0.261 C 
BRANCH  58  59
ATOM     59  O   UNL     1       4.623  -3.169   4.134  1.00  0.00    -0.462 OA
BRANCH  59  60
ATOM     60  C   UNL     1       4.656  -1.995   4.827  1.00  0.00     0.329 C 
ATOM     61  O   UNL     1       5.216  -1.814   5.903  1.00  0.00    -0.250 OA
BRANCH  60  62
ATOM     62  C   UNL     1       3.870  -0.926   4.069  1.00  0.00     0.206 C 
ATOM     63  C   UNL     1       4.738   0.318   3.862  1.00  0.00     0.108 C 
ATOM     64  N   UNL     1       2.726  -0.592   4.902  1.00  0.00    -0.315 N 
ATOM     65  S   UNL     1       3.867   1.699   4.640  1.00  0.00    -0.138 SA
ATOM     66  C   UNL     1       2.917   0.600   5.700  1.00  0.00     0.191 C 
BRANCH  64  67
ATOM     67  C   UNL     1       1.705  -1.518   4.984  1.00  0.00     0.255 C 
ATOM     68  O   UNL     1       1.653  -2.542   4.322  1.00  0.00    -0.269 OA
BRANCH  67  69
ATOM     69  C   UNL     1       0.668  -1.286   5.990  1.00  0.00     0.041 A 
ATOM     70  C   UNL     1      -0.227  -0.228   5.832  1.00  0.00     0.014 A 
ATOM     71  C   UNL     1       0.636  -2.120   7.107  1.00  0.00     0.034 A 
ATOM     72  C   UNL     1      -1.137   0.042   6.847  1.00  0.00     0.002 A 
ATOM     73  C   UNL     1      -0.287  -1.849   8.107  1.00  0.00     0.041 A 
ATOM     74  C   UNL     1      -1.162  -0.766   7.988  1.00  0.00     0.020 A 
ATOM     75  Cl  UNL     1      -0.336  -2.839   9.512  1.00  0.00    -0.084 Cl
ENDBRANCH  67  69
ENDBRANCH  64  67
ENDBRANCH  60  62
ENDBRANCH  59  60
ENDBRANCH  58  59
ENDBRANCH  57  58
ENDBRANCH   1  57
TORSDOF 16
