REMARK SMILES CCOc1ccc(SCC(=O)N2CSC[C@@H]2C(=O)OCCOCCOC(=O)c2ccc(-c3c4nc(c(-c5ccccc5)c5ccc([nH]5)c(-c5ccccc5)c5nc(c(-c6ccccc6)c6ccc3[nH]6)C=C5)C=C4)cc2)cc1
REMARK SMILES IDX 20 1 19 2 17 3 18 4 16 5 12 6 13 7 14 8 15 9 10 10 11 11
REMARK SMILES IDX 9 12 8 13 7 14 4 15 5 16 77 17 6 18 76 19 3 20 2 21 1 22
REMARK SMILES IDX 21 23 22 24 23 25 24 26 25 27 26 28 27 29 28 30 29 31 75 32
REMARK SMILES IDX 30 33 74 34 31 35 32 36 33 37 68 38 34 39 73 40 67 41 69 42
REMARK SMILES IDX 35 43 72 44 66 45 65 46 36 48 58 49 43 50 57 51 44 52 47 53
REMARK SMILES IDX 56 54 70 55 45 56 46 57 55 59 71 60 48 61 37 62 38 63 42 64
REMARK SMILES IDX 39 65 41 66 40 67 59 68 60 69 64 70 61 71 63 72 62 73 49 74
REMARK SMILES IDX 50 75 54 76 51 77 53 78 52 79
REMARK H PARENT 69 47 47 58
REMARK Flexibility Score: inf
ROOT
ATOM      1  C   UNL     1      11.467   1.356  -1.915  1.00  0.00     0.261 C 
ENDROOT
BRANCH   1   2
ATOM      2  O   UNL     1      10.280   0.701  -2.402  1.00  0.00    -0.462 OA
BRANCH   2   3
ATOM      3  C   UNL     1      10.091  -0.588  -1.989  1.00  0.00     0.329 C 
ATOM      4  O   UNL     1      10.895  -1.238  -1.332  1.00  0.00    -0.250 OA
BRANCH   3   5
ATOM      5  C   UNL     1       8.707  -1.097  -2.430  1.00  0.00     0.205 C 
ATOM      6  N   UNL     1       8.126  -1.915  -1.354  1.00  0.00    -0.318 N 
ATOM      7  C   UNL     1       8.153  -3.341  -1.575  1.00  0.00     0.190 C 
ATOM      8  S   UNL     1       8.991  -3.643  -3.142  1.00  0.00    -0.138 SA
ATOM      9  C   UNL     1       8.857  -1.925  -3.694  1.00  0.00     0.108 C 
BRANCH   6  10
ATOM     10  C   UNL     1       7.512  -1.320  -0.272  1.00  0.00     0.234 C 
ATOM     11  O   UNL     1       6.972  -0.215  -0.382  1.00  0.00    -0.274 OA
BRANCH  10  12
ATOM     12  C   UNL     1       7.726  -1.930   1.107  1.00  0.00     0.175 C 
BRANCH  12  13
ATOM     13  S   UNL     1       6.783  -3.433   1.455  1.00  0.00    -0.116 SA
BRANCH  13  14
ATOM     14  C   UNL     1       5.088  -2.939   1.230  1.00  0.00     0.008 A 
ATOM     15  C   UNL     1       2.374  -2.362   0.851  1.00  0.00     0.119 A 
ATOM     16  C   UNL     1       2.829  -3.667   0.697  1.00  0.00     0.047 A 
ATOM     17  C   UNL     1       3.253  -1.357   1.244  1.00  0.00     0.047 A 
ATOM     18  C   UNL     1       4.183  -3.951   0.885  1.00  0.00     0.019 A 
ATOM     19  C   UNL     1       4.608  -1.643   1.427  1.00  0.00     0.019 A 
BRANCH  15  20
ATOM     20  O   UNL     1       1.035  -2.121   0.738  1.00  0.00    -0.494 OA
BRANCH  20  21
ATOM     21  C   UNL     1       0.698  -1.407  -0.458  1.00  0.00     0.226 C 
ATOM     22  C   UNL     1       0.704   0.097  -0.232  1.00  0.00     0.049 C 
ENDBRANCH  20  21
ENDBRANCH  15  20
ENDBRANCH  13  14
ENDBRANCH  12  13
ENDBRANCH  10  12
ENDBRANCH   6  10
ENDBRANCH   3   5
ENDBRANCH   2   3
ENDBRANCH   1   2
BRANCH   1  23
ATOM     23  C   UNL     1      11.153   2.403  -0.836  1.00  0.00     0.202 C 
BRANCH  23  24
ATOM     24  O   UNL     1      10.688   1.911   0.421  1.00  0.00    -0.374 OA
BRANCH  24  25
ATOM     25  C   UNL     1       9.319   1.513   0.481  1.00  0.00     0.202 C 
BRANCH  25  26
ATOM     26  C   UNL     1       8.281   2.607   0.744  1.00  0.00     0.261 C 
BRANCH  26  27
ATOM     27  O   UNL     1       8.278   3.597  -0.293  1.00  0.00    -0.460 OA
BRANCH  27  28
ATOM     28  C   UNL     1       8.916   4.741   0.030  1.00  0.00     0.338 C 
ATOM     29  O   UNL     1       9.413   5.044   1.108  1.00  0.00    -0.246 OA
BRANCH  28  30
ATOM     30  C   UNL     1       9.091   5.557  -1.179  1.00  0.00     0.060 A 
ATOM     31  C   UNL     1      10.366   6.080  -1.428  1.00  0.00     0.016 A 
ATOM     32  C   UNL     1       8.016   5.852  -2.022  1.00  0.00     0.016 A 
ATOM     33  C   UNL     1      10.558   6.960  -2.485  1.00  0.00     0.010 A 
ATOM     34  C   UNL     1       8.210   6.738  -3.081  1.00  0.00     0.010 A 
ATOM     35  C   UNL     1       9.469   7.329  -3.285  1.00  0.00    -0.014 A 
BRANCH  35  36
ATOM     36  C   UNL     1       9.603   8.469  -4.216  1.00  0.00     0.031 A 
ATOM     37  C   UNL     1       9.070   9.808  -3.791  1.00  0.00     0.074 A 
ATOM     38  C   UNL     1      10.204   8.314  -5.407  1.00  0.00     0.049 A 
ATOM     39  N   UNL     1       9.036  10.935  -4.453  1.00  0.00    -0.248 NA
ATOM     40  C   UNL     1       8.492   9.883  -2.438  1.00  0.00     0.031 C 
ATOM     41  C   UNL     1      10.799   7.073  -5.901  1.00  0.00     0.029 A 
ATOM     42  N   UNL     1      10.408   9.215  -6.419  1.00  0.00    -0.354 N 
ATOM     43  C   UNL     1       8.423  11.848  -3.603  1.00  0.00     0.074 A 
ATOM     44  C   UNL     1       8.070  11.137  -2.395  1.00  0.00     0.031 C 
ATOM     45  C   UNL     1      11.301   7.291  -7.128  1.00  0.00     0.029 A 
ATOM     46  C   UNL     1      11.029   8.673  -7.516  1.00  0.00     0.049 A 
ATOM     47  H   UNL     1      10.136  10.159  -6.365  1.00  0.00     0.167 HD
ATOM     48  C   UNL     1       8.181  13.164  -3.811  1.00  0.00     0.031 A 
ATOM     49  C   UNL     1      11.325   9.230  -8.706  1.00  0.00     0.031 A 
ATOM     50  C   UNL     1       8.520  13.858  -5.023  1.00  0.00     0.049 A 
ATOM     51  C   UNL     1      10.973  10.674  -8.945  1.00  0.00     0.074 A 
ATOM     52  C   UNL     1       8.331  15.192  -5.337  1.00  0.00     0.029 A 
ATOM     53  N   UNL     1       9.113  13.265  -6.128  1.00  0.00    -0.354 N 
ATOM     54  N   UNL     1      10.413  11.535  -8.129  1.00  0.00    -0.248 NA
ATOM     55  C   UNL     1      11.304  11.223 -10.266  1.00  0.00     0.031 C 
ATOM     56  C   UNL     1       8.755  15.392  -6.654  1.00  0.00     0.029 A 
ATOM     57  C   UNL     1       9.271  14.199  -7.137  1.00  0.00     0.049 A 
ATOM     58  H   UNL     1       9.381  12.320  -6.186  1.00  0.00     0.167 HD
ATOM     59  C   UNL     1      10.354  12.736  -8.825  1.00  0.00     0.074 A 
ATOM     60  C   UNL     1      10.945  12.492 -10.126  1.00  0.00     0.031 C 
ATOM     61  C   UNL     1       9.862  13.934  -8.424  1.00  0.00     0.031 A 
BRANCH  48  62
ATOM     62  C   UNL     1       7.480  13.916  -2.713  1.00  0.00    -0.014 A 
ATOM     63  C   UNL     1       8.112  14.186  -1.488  1.00  0.00     0.009 A 
ATOM     64  C   UNL     1       6.165  14.367  -2.910  1.00  0.00     0.009 A 
ATOM     65  C   UNL     1       7.426  14.851  -0.469  1.00  0.00     0.001 A 
ATOM     66  C   UNL     1       5.494  15.060  -1.902  1.00  0.00     0.001 A 
ATOM     67  C   UNL     1       6.120  15.291  -0.678  1.00  0.00     0.000 A 
ENDBRANCH  48  62
BRANCH  49  68
ATOM     68  C   UNL     1      11.984   8.418  -9.761  1.00  0.00    -0.014 A 
ATOM     69  C   UNL     1      13.312   8.673 -10.133  1.00  0.00     0.009 A 
ATOM     70  C   UNL     1      11.288   7.380 -10.401  1.00  0.00     0.009 A 
ATOM     71  C   UNL     1      13.923   7.919 -11.138  1.00  0.00     0.001 A 
ATOM     72  C   UNL     1      11.911   6.609 -11.385  1.00  0.00     0.001 A 
ATOM     73  C   UNL     1      13.225   6.885 -11.758  1.00  0.00     0.000 A 
ENDBRANCH  49  68
BRANCH  61  74
ATOM     74  C   UNL     1       9.984  15.085  -9.384  1.00  0.00    -0.014 A 
ATOM     75  C   UNL     1       9.191  15.164 -10.538  1.00  0.00     0.009 A 
ATOM     76  C   UNL     1      10.873  16.132  -9.095  1.00  0.00     0.009 A 
ATOM     77  C   UNL     1       9.310  16.255 -11.402  1.00  0.00     0.001 A 
ATOM     78  C   UNL     1      10.968  17.236  -9.943  1.00  0.00     0.001 A 
ATOM     79  C   UNL     1      10.193  17.292 -11.100  1.00  0.00     0.000 A 
ENDBRANCH  61  74
ENDBRANCH  35  36
ENDBRANCH  28  30
ENDBRANCH  27  28
ENDBRANCH  26  27
ENDBRANCH  25  26
ENDBRANCH  24  25
ENDBRANCH  23  24
ENDBRANCH   1  23
TORSDOF 20
