REMARK SMILES O=C(OCCOCCOC(=O)[C@@H]1CCCC[C@@H]1C(=O)Nc1cccc(C(F)(F)F)c1)c1ccc(-c2c3nc(c(-c4ccccc4)c4ccc([nH]4)c(-c4ccccc4)c4nc(c(-c5ccccc5)c5ccc2[nH]5)C=C4)C=C3)cc1
REMARK SMILES IDX 7 1 6 2 5 3 4 4 3 5 2 6 1 7 31 8 32 9 78 10 33 11 77 12
REMARK SMILES IDX 34 13 35 14 36 15 71 16 37 17 76 18 70 19 72 20 38 21 75 22
REMARK SMILES IDX 69 23 68 24 39 26 61 27 46 28 60 29 47 30 50 31 59 32 73 33
REMARK SMILES IDX 48 34 49 35 58 37 74 38 51 39 40 40 41 41 45 42 42 43 44 44
REMARK SMILES IDX 43 45 62 46 63 47 67 48 64 49 66 50 65 51 52 52 53 53 57 54
REMARK SMILES IDX 54 55 56 56 55 57 8 58 9 59 10 60 11 61 12 62 13 63 17 64
REMARK SMILES IDX 14 65 16 66 15 67 18 68 19 69 20 70 21 72 22 73 30 74 23 75
REMARK SMILES IDX 25 76 24 77 26 78 27 79 28 80 29 81
REMARK H PARENT 72 25 50 36 20 71
REMARK Flexibility Score: inf
ROOT
ATOM      1  C   UNL     1       2.400   2.025   0.238  1.00  0.00     0.202 C 
ENDROOT
BRANCH   1   2
ATOM      2  O   UNL     1       3.691   1.437   0.079  1.00  0.00    -0.374 OA
BRANCH   2   3
ATOM      3  C   UNL     1       4.031   0.900  -1.195  1.00  0.00     0.202 C 
BRANCH   3   4
ATOM      4  C   UNL     1       3.796  -0.603  -1.318  1.00  0.00     0.261 C 
BRANCH   4   5
ATOM      5  O   UNL     1       2.442  -0.921  -0.975  1.00  0.00    -0.460 OA
BRANCH   5   6
ATOM      6  C   UNL     1       1.977  -1.223   0.260  1.00  0.00     0.338 C 
ATOM      7  O   UNL     1       0.762  -1.306   0.432  1.00  0.00    -0.246 OA
BRANCH   6   8
ATOM      8  C   UNL     1       2.867  -1.523   1.422  1.00  0.00     0.060 A 
ATOM      9  C   UNL     1       4.090  -0.901   1.680  1.00  0.00     0.016 A 
ATOM     10  C   UNL     1       2.384  -2.440   2.368  1.00  0.00     0.016 A 
ATOM     11  C   UNL     1       4.831  -1.187   2.805  1.00  0.00     0.010 A 
ATOM     12  C   UNL     1       3.111  -2.718   3.529  1.00  0.00     0.010 A 
ATOM     13  C   UNL     1       4.340  -2.086   3.740  1.00  0.00    -0.014 A 
BRANCH  13  14
ATOM     14  C   UNL     1       5.240  -2.410   4.852  1.00  0.00     0.031 A 
ATOM     15  C   UNL     1       5.994  -3.697   4.784  1.00  0.00     0.074 A 
ATOM     16  C   UNL     1       5.518  -1.458   5.761  1.00  0.00     0.049 A 
ATOM     17  N   UNL     1       6.848  -4.197   5.631  1.00  0.00    -0.248 NA
ATOM     18  C   UNL     1       5.774  -4.524   3.583  1.00  0.00     0.031 C 
ATOM     19  C   UNL     1       4.944  -0.106   5.772  1.00  0.00     0.029 A 
ATOM     20  N   UNL     1       6.391  -1.456   6.811  1.00  0.00    -0.354 N 
ATOM     21  C   UNL     1       7.248  -5.406   5.081  1.00  0.00     0.074 A 
ATOM     22  C   UNL     1       6.540  -5.574   3.834  1.00  0.00     0.031 C 
ATOM     23  C   UNL     1       5.504   0.600   6.767  1.00  0.00     0.029 A 
ATOM     24  C   UNL     1       6.406  -0.272   7.507  1.00  0.00     0.049 A 
ATOM     25  H   UNL     1       6.954  -2.229   7.047  1.00  0.00     0.167 HD
ATOM     26  C   UNL     1       8.131  -6.295   5.588  1.00  0.00     0.031 A 
ATOM     27  C   UNL     1       7.051   0.043   8.644  1.00  0.00     0.031 A 
ATOM     28  C   UNL     1       8.799  -6.095   6.843  1.00  0.00     0.049 A 
ATOM     29  C   UNL     1       7.914  -1.023   9.261  1.00  0.00     0.074 A 
ATOM     30  C   UNL     1       9.629  -6.955   7.534  1.00  0.00     0.029 A 
ATOM     31  N   UNL     1       8.705  -4.928   7.594  1.00  0.00    -0.354 N 
ATOM     32  N   UNL     1       8.210  -2.216   8.798  1.00  0.00    -0.248 NA
ATOM     33  C   UNL     1       8.521  -0.709  10.558  1.00  0.00     0.031 C 
ATOM     34  C   UNL     1       9.999  -6.326   8.728  1.00  0.00     0.029 A 
ATOM     35  C   UNL     1       9.453  -5.050   8.749  1.00  0.00     0.049 A 
ATOM     36  H   UNL     1       8.183  -4.133   7.340  1.00  0.00     0.167 HD
ATOM     37  C   UNL     1       9.050  -2.792   9.738  1.00  0.00     0.074 A 
ATOM     38  C   UNL     1       9.241  -1.800  10.780  1.00  0.00     0.031 C 
ATOM     39  C   UNL     1       9.610  -4.027   9.753  1.00  0.00     0.031 A 
BRANCH  26  40
ATOM     40  C   UNL     1       8.328  -7.569   4.820  1.00  0.00    -0.014 A 
ATOM     41  C   UNL     1       9.013  -7.592   3.594  1.00  0.00     0.009 A 
ATOM     42  C   UNL     1       7.769  -8.760   5.308  1.00  0.00     0.009 A 
ATOM     43  C   UNL     1       9.099  -8.774   2.855  1.00  0.00     0.001 A 
ATOM     44  C   UNL     1       7.881  -9.946   4.580  1.00  0.00     0.001 A 
ATOM     45  C   UNL     1       8.535  -9.950   3.350  1.00  0.00     0.000 A 
ENDBRANCH  26  40
BRANCH  27  46
ATOM     46  C   UNL     1       6.830   1.356   9.310  1.00  0.00    -0.014 A 
ATOM     47  C   UNL     1       7.885   2.256   9.521  1.00  0.00     0.009 A 
ATOM     48  C   UNL     1       5.551   1.699   9.783  1.00  0.00     0.009 A 
ATOM     49  C   UNL     1       7.672   3.447  10.224  1.00  0.00     0.001 A 
ATOM     50  C   UNL     1       5.333   2.905  10.451  1.00  0.00     0.001 A 
ATOM     51  C   UNL     1       6.397   3.771  10.686  1.00  0.00     0.000 A 
ENDBRANCH  27  46
BRANCH  39  52
ATOM     52  C   UNL     1      10.508  -4.338  10.914  1.00  0.00    -0.014 A 
ATOM     53  C   UNL     1       9.990  -4.546  12.201  1.00  0.00     0.009 A 
ATOM     54  C   UNL     1      11.889  -4.456  10.701  1.00  0.00     0.009 A 
ATOM     55  C   UNL     1      10.848  -4.827  13.264  1.00  0.00     0.001 A 
ATOM     56  C   UNL     1      12.740  -4.774  11.758  1.00  0.00     0.001 A 
ATOM     57  C   UNL     1      12.220  -4.947  13.040  1.00  0.00     0.000 A 
ENDBRANCH  39  52
ENDBRANCH  13  14
ENDBRANCH   6   8
ENDBRANCH   5   6
ENDBRANCH   4   5
ENDBRANCH   3   4
ENDBRANCH   2   3
ENDBRANCH   1   2
BRANCH   1  58
ATOM     58  C   UNL     1       2.576   3.428   0.829  1.00  0.00     0.261 C 
BRANCH  58  59
ATOM     59  O   UNL     1       3.302   4.213  -0.122  1.00  0.00    -0.463 OA
BRANCH  59  60
ATOM     60  C   UNL     1       4.654   4.000  -0.122  1.00  0.00     0.309 C 
ATOM     61  O   UNL     1       5.332   3.583   0.808  1.00  0.00    -0.252 OA
BRANCH  60  62
ATOM     62  C   UNL     1       5.136   4.179  -1.542  1.00  0.00     0.111 C 
ATOM     63  C   UNL     1       6.515   3.553  -1.803  1.00  0.00     0.016 C 
ATOM     64  C   UNL     1       5.056   5.641  -2.013  1.00  0.00     0.093 C 
ATOM     65  C   UNL     1       6.816   3.539  -3.300  1.00  0.00     0.001 C 
ATOM     66  C   UNL     1       5.379   5.596  -3.519  1.00  0.00     0.014 C 
ATOM     67  C   UNL     1       6.715   4.943  -3.874  1.00  0.00     0.001 C 
BRANCH  64  68
ATOM     68  C   UNL     1       5.769   6.535  -0.951  1.00  0.00     0.228 C 
ATOM     69  O   UNL     1       5.336   6.581   0.205  1.00  0.00    -0.274 OA
ATOM     70  N   UNL     1       6.949   7.165  -1.193  1.00  0.00    -0.326 N 
ATOM     71  H   UNL     1       7.638   7.102  -0.493  1.00  0.00     0.169 HD
BRANCH  70  72
ATOM     72  C   UNL     1       7.281   7.891  -2.333  1.00  0.00     0.041 A 
ATOM     73  C   UNL     1       8.606   7.930  -2.751  1.00  0.00     0.026 A 
ATOM     74  C   UNL     1       6.279   8.485  -3.094  1.00  0.00     0.039 A 
ATOM     75  C   UNL     1       8.891   8.390  -4.036  1.00  0.00     0.003 A 
ATOM     76  C   UNL     1       6.539   8.886  -4.405  1.00  0.00     0.058 A 
ATOM     77  C   UNL     1       7.858   8.829  -4.873  1.00  0.00     0.013 A 
BRANCH  76  78
ATOM     78  C   UNL     1       5.386   9.216  -5.319  1.00  0.00     0.416 C 
ATOM     79  F   UNL     1       5.416  10.492  -5.780  1.00  0.00    -0.166 F 
ATOM     80  F   UNL     1       5.362   8.410  -6.418  1.00  0.00    -0.166 F 
ATOM     81  F   UNL     1       4.167   9.054  -4.728  1.00  0.00    -0.166 F 
ENDBRANCH  76  78
ENDBRANCH  70  72
ENDBRANCH  64  68
ENDBRANCH  60  62
ENDBRANCH  59  60
ENDBRANCH  58  59
ENDBRANCH   1  58
TORSDOF 17
