REMARK SMILES Cc1nc(-c2ccccc2Cl)nc2sc(C(=O)OCCOCCOC(=O)c3ccc(-c4c5nc(c(-c6ccccc6)c6ccc([nH]6)c(-c6ccccc6)c6nc(c(-c7ccccc7)c7ccc4[nH]7)C=C6)C=C5)cc3)c(N)c12
REMARK SMILES IDX 22 1 21 2 20 3 19 4 18 5 16 6 17 7 15 8 1 9 2 10 3 11 77 12
REMARK SMILES IDX 4 13 13 14 75 15 12 16 14 17 5 18 6 19 10 20 7 21 9 22 11 23
REMARK SMILES IDX 8 24 76 25 23 28 24 29 25 30 26 31 27 32 28 33 74 34 29 35
REMARK SMILES IDX 73 36 30 37 31 38 32 39 67 40 33 41 72 42 66 43 68 44 34 45
REMARK SMILES IDX 71 46 65 47 64 48 35 50 57 51 42 52 56 53 43 54 46 55 55 56
REMARK SMILES IDX 69 57 44 58 45 59 54 61 70 62 47 63 36 64 37 65 41 66 38 67
REMARK SMILES IDX 40 68 39 69 58 70 59 71 63 72 60 73 62 74 61 75 48 76 49 77
REMARK SMILES IDX 53 78 50 79 52 80 51 81
REMARK H PARENT 76 26 76 27 68 49 46 60
REMARK Flexibility Score: inf
ROOT
ATOM      1  C   UNL     1      -1.458   6.508  -2.174  1.00  0.00     0.202 C 
ENDROOT
BRANCH   1   2
ATOM      2  O   UNL     1      -0.972   7.665  -2.842  1.00  0.00    -0.374 OA
BRANCH   2   3
ATOM      3  C   UNL     1      -0.859   7.646  -4.265  1.00  0.00     0.202 C 
BRANCH   3   4
ATOM      4  C   UNL     1       0.339   6.892  -4.846  1.00  0.00     0.261 C 
BRANCH   4   5
ATOM      5  O   UNL     1       0.218   5.475  -4.658  1.00  0.00    -0.459 OA
BRANCH   5   6
ATOM      6  C   UNL     1       0.972   4.928  -3.656  1.00  0.00     0.350 C 
ATOM      7  O   UNL     1       1.764   5.551  -2.966  1.00  0.00    -0.245 OA
BRANCH   6   8
ATOM      8  C   UNL     1       0.590   3.544  -3.434  1.00  0.00     0.138 A 
ATOM      9  C   UNL     1       0.843   0.174  -0.239  1.00  0.00     0.067 C 
ATOM     10  C   UNL     1       0.359   0.245  -1.656  1.00  0.00     0.052 A 
ATOM     11  N   UNL     1       0.006  -0.947  -2.228  1.00  0.00    -0.233 NA
ATOM     12  C   UNL     1       0.335   1.412  -2.454  1.00  0.00     0.057 A 
ATOM     13  C   UNL     1      -0.413  -0.972  -3.505  1.00  0.00     0.162 A 
ATOM     14  C   UNL     1      -0.116   1.227  -3.750  1.00  0.00     0.130 A 
ATOM     15  C   UNL     1       0.691   2.799  -2.267  1.00  0.00     0.069 A 
ATOM     16  N   UNL     1      -0.516   0.086  -4.310  1.00  0.00    -0.217 NA
ATOM     17  S   UNL     1      -0.101   2.628  -4.696  1.00  0.00    -0.106 S 
BRANCH  13  18
ATOM     18  C   UNL     1      -0.663  -2.252  -4.169  1.00  0.00     0.038 A 
ATOM     19  C   UNL     1      -0.030  -2.488  -5.414  1.00  0.00     0.013 A 
ATOM     20  C   UNL     1      -1.567  -3.219  -3.708  1.00  0.00     0.052 A 
ATOM     21  C   UNL     1      -0.311  -3.616  -6.183  1.00  0.00     0.001 A 
ATOM     22  C   UNL     1      -1.848  -4.355  -4.482  1.00  0.00     0.021 A 
ATOM     23  Cl  UNL     1      -2.444  -3.041  -2.227  1.00  0.00    -0.084 Cl
ATOM     24  C   UNL     1      -1.230  -4.547  -5.719  1.00  0.00     0.002 A 
ENDBRANCH  13  18
BRANCH  15  25
ATOM     25  N   UNL     1       1.100   3.342  -1.098  1.00  0.00    -0.397 N 
ATOM     26  H   UNL     1       1.325   4.300  -1.052  1.00  0.00     0.156 HD
ATOM     27  H   UNL     1       1.172   2.780  -0.292  1.00  0.00     0.156 HD
ENDBRANCH  15  25
ENDBRANCH   6   8
ENDBRANCH   5   6
ENDBRANCH   4   5
ENDBRANCH   3   4
ENDBRANCH   2   3
ENDBRANCH   1   2
BRANCH   1  28
ATOM     28  C   UNL     1      -2.943   6.201  -2.272  1.00  0.00     0.261 C 
BRANCH  28  29
ATOM     29  O   UNL     1      -3.363   5.935  -3.604  1.00  0.00    -0.460 OA
BRANCH  29  30
ATOM     30  C   UNL     1      -4.060   6.950  -4.164  1.00  0.00     0.338 C 
ATOM     31  O   UNL     1      -4.004   8.130  -3.874  1.00  0.00    -0.246 OA
BRANCH  30  32
ATOM     32  C   UNL     1      -5.082   6.375  -5.048  1.00  0.00     0.060 A 
ATOM     33  C   UNL     1      -5.972   7.271  -5.641  1.00  0.00     0.016 A 
ATOM     34  C   UNL     1      -5.308   4.989  -5.067  1.00  0.00     0.016 A 
ATOM     35  C   UNL     1      -7.179   6.787  -6.097  1.00  0.00     0.010 A 
ATOM     36  C   UNL     1      -6.518   4.509  -5.514  1.00  0.00     0.010 A 
ATOM     37  C   UNL     1      -7.469   5.420  -5.959  1.00  0.00    -0.014 A 
BRANCH  37  38
ATOM     38  C   UNL     1      -8.725   4.936  -6.493  1.00  0.00     0.031 A 
ATOM     39  C   UNL     1      -8.735   5.020  -7.968  1.00  0.00     0.074 A 
ATOM     40  C   UNL     1      -9.730   4.428  -5.753  1.00  0.00     0.049 A 
ATOM     41  N   UNL     1      -9.303   5.942  -8.668  1.00  0.00    -0.248 NA
ATOM     42  C   UNL     1      -7.831   4.151  -8.739  1.00  0.00     0.031 C 
ATOM     43  C   UNL     1      -9.723   4.093  -4.326  1.00  0.00     0.029 A 
ATOM     44  N   UNL     1     -10.970   4.024  -6.151  1.00  0.00    -0.354 N 
ATOM     45  C   UNL     1      -9.048   5.612  -9.991  1.00  0.00     0.074 A 
ATOM     46  C   UNL     1      -7.971   4.658  -9.967  1.00  0.00     0.031 C 
ATOM     47  C   UNL     1     -10.803   3.326  -4.038  1.00  0.00     0.029 A 
ATOM     48  C   UNL     1     -11.652   3.249  -5.216  1.00  0.00     0.049 A 
ATOM     49  H   UNL     1     -11.351   4.261  -7.027  1.00  0.00     0.167 HD
ATOM     50  C   UNL     1      -9.989   5.875 -10.938  1.00  0.00     0.031 A 
ATOM     51  C   UNL     1     -12.819   2.587  -5.420  1.00  0.00     0.031 A 
ATOM     52  C   UNL     1     -10.995   6.770 -10.419  1.00  0.00     0.049 A 
ATOM     53  C   UNL     1     -13.503   3.257  -6.544  1.00  0.00     0.074 A 
ATOM     54  C   UNL     1     -11.083   8.097 -10.065  1.00  0.00     0.029 A 
ATOM     55  N   UNL     1     -12.028   6.109  -9.806  1.00  0.00    -0.354 N 
ATOM     56  N   UNL     1     -13.999   4.457  -6.458  1.00  0.00    -0.248 NA
ATOM     57  C   UNL     1     -13.330   2.740  -7.895  1.00  0.00     0.031 C 
ATOM     58  C   UNL     1     -12.095   8.165  -9.062  1.00  0.00     0.029 A 
ATOM     59  C   UNL     1     -12.637   6.894  -8.874  1.00  0.00     0.049 A 
ATOM     60  H   UNL     1     -12.295   5.184 -10.012  1.00  0.00     0.167 HD
ATOM     61  C   UNL     1     -13.762   5.005  -7.703  1.00  0.00     0.074 A 
ATOM     62  C   UNL     1     -13.525   3.867  -8.586  1.00  0.00     0.031 C 
ATOM     63  C   UNL     1     -13.458   6.328  -7.826  1.00  0.00     0.031 A 
BRANCH  50  64
ATOM     64  C   UNL     1     -10.360   4.884 -12.027  1.00  0.00    -0.014 A 
ATOM     65  C   UNL     1     -11.456   5.203 -12.852  1.00  0.00     0.009 A 
ATOM     66  C   UNL     1      -9.925   3.546 -12.050  1.00  0.00     0.009 A 
ATOM     67  C   UNL     1     -12.134   4.219 -13.580  1.00  0.00     0.001 A 
ATOM     68  C   UNL     1     -10.580   2.567 -12.802  1.00  0.00     0.001 A 
ATOM     69  C   UNL     1     -11.703   2.898 -13.544  1.00  0.00     0.000 A 
ENDBRANCH  50  64
BRANCH  51  70
ATOM     70  C   UNL     1     -13.326   1.299  -4.891  1.00  0.00    -0.014 A 
ATOM     71  C   UNL     1     -14.684   0.957  -5.035  1.00  0.00     0.009 A 
ATOM     72  C   UNL     1     -12.428   0.272  -4.558  1.00  0.00     0.009 A 
ATOM     73  C   UNL     1     -15.115  -0.373  -4.924  1.00  0.00     0.001 A 
ATOM     74  C   UNL     1     -12.860  -1.057  -4.445  1.00  0.00     0.001 A 
ATOM     75  C   UNL     1     -14.198  -1.383  -4.651  1.00  0.00     0.000 A 
ENDBRANCH  51  70
BRANCH  63  76
ATOM     76  C   UNL     1     -13.848   7.251  -6.710  1.00  0.00    -0.014 A 
ATOM     77  C   UNL     1     -13.250   7.242  -5.440  1.00  0.00     0.009 A 
ATOM     78  C   UNL     1     -14.755   8.274  -7.026  1.00  0.00     0.009 A 
ATOM     79  C   UNL     1     -13.553   8.248  -4.514  1.00  0.00     0.001 A 
ATOM     80  C   UNL     1     -15.037   9.285  -6.112  1.00  0.00     0.001 A 
ATOM     81  C   UNL     1     -14.434   9.274  -4.857  1.00  0.00     0.000 A 
ENDBRANCH  63  76
ENDBRANCH  37  38
ENDBRANCH  30  32
ENDBRANCH  29  30
ENDBRANCH  28  29
ENDBRANCH   1  28
TORSDOF 16
