REMARK SMILES C/C(=C\CN1CC(=O)N2CCC[C@H]2C1=O)C(=O)OCCOCCOC(=O)c1ccc(-c2c3nc(c(-c4ccccc4)c4ccc([nH]4)c(-c4ccccc4)c4nc(c(-c5ccccc5)c5ccc2[nH]5)C=C4)C=C3)cc1
REMARK SMILES IDX 21 1 20 2 19 3 18 4 16 5 17 6 2 7 1 8 3 9 4 10 5 11 6 12
REMARK SMILES IDX 14 13 7 14 13 15 15 16 8 17 9 18 12 19 10 20 11 21 22 22
REMARK SMILES IDX 23 23 24 24 25 25 26 26 27 27 28 28 74 29 29 30 73 31 30 32
REMARK SMILES IDX 31 33 32 34 67 35 33 36 72 37 66 38 68 39 34 40 71 41 65 42
REMARK SMILES IDX 64 43 35 45 57 46 42 47 56 48 43 49 46 50 55 51 69 52 44 53
REMARK SMILES IDX 45 54 54 56 70 57 47 58 36 59 37 60 41 61 38 62 40 63 39 64
REMARK SMILES IDX 58 65 59 66 63 67 60 68 62 69 61 70 48 71 49 72 53 73 50 74
REMARK SMILES IDX 52 75 51 76
REMARK H PARENT 68 44 46 55
REMARK Flexibility Score: inf
ROOT
ATOM      1  O   UNL     1       0.870   1.289   4.279  1.00  0.00    -0.374 OA
ENDROOT
BRANCH   1   2
ATOM      2  C   UNL     1       0.888   2.711   4.148  1.00  0.00     0.202 C 
BRANCH   2   3
ATOM      3  C   UNL     1       1.704   3.261   2.974  1.00  0.00     0.261 C 
BRANCH   3   4
ATOM      4  O   UNL     1       1.107   2.895   1.717  1.00  0.00    -0.460 OA
BRANCH   4   5
ATOM      5  C   UNL     1       1.846   2.050   0.955  1.00  0.00     0.333 C 
ATOM      6  O   UNL     1       2.995   1.699   1.176  1.00  0.00    -0.247 OA
BRANCH   5   7
ATOM      7  C   UNL     1       1.029   1.461  -0.150  1.00  0.00     0.032 C 
ATOM      8  C   UNL     1       1.362   0.022  -0.415  1.00  0.00     0.052 C 
ATOM      9  C   UNL     1       0.140   2.217  -0.826  1.00  0.00     0.005 C 
BRANCH   9  10
ATOM     10  C   UNL     1      -0.582   1.838  -2.085  1.00  0.00     0.148 C 
BRANCH  10  11
ATOM     11  N   UNL     1      -2.002   1.580  -1.903  1.00  0.00    -0.328 N 
ATOM     12  C   UNL     1      -2.857   2.495  -1.126  1.00  0.00     0.220 C 
ATOM     13  C   UNL     1      -2.605   0.582  -2.685  1.00  0.00     0.246 C 
ATOM     14  C   UNL     1      -3.986   3.055  -1.996  1.00  0.00     0.242 C 
ATOM     15  C   UNL     1      -4.136   0.706  -2.777  1.00  0.00     0.174 C 
ATOM     16  O   UNL     1      -1.985  -0.354  -3.184  1.00  0.00    -0.272 OA
ATOM     17  O   UNL     1      -4.453   4.179  -1.850  1.00  0.00    -0.273 OA
ATOM     18  N   UNL     1      -4.500   2.118  -2.864  1.00  0.00    -0.329 N 
ATOM     19  C   UNL     1      -4.744   0.112  -4.046  1.00  0.00     0.037 C 
ATOM     20  C   UNL     1      -5.505   2.378  -3.871  1.00  0.00     0.120 C 
ATOM     21  C   UNL     1      -5.971   0.992  -4.293  1.00  0.00     0.024 C 
ENDBRANCH  10  11
ENDBRANCH   9  10
ENDBRANCH   5   7
ENDBRANCH   4   5
ENDBRANCH   3   4
ENDBRANCH   2   3
ENDBRANCH   1   2
BRANCH   1  22
ATOM     22  C   UNL     1      -0.021   0.570   3.427  1.00  0.00     0.202 C 
BRANCH  22  23
ATOM     23  C   UNL     1      -1.482   0.505   3.884  1.00  0.00     0.261 C 
BRANCH  23  24
ATOM     24  O   UNL     1      -2.102   1.804   3.884  1.00  0.00    -0.460 OA
BRANCH  24  25
ATOM     25  C   UNL     1      -2.349   2.312   5.114  1.00  0.00     0.338 C 
ATOM     26  O   UNL     1      -2.196   1.752   6.192  1.00  0.00    -0.246 OA
BRANCH  25  27
ATOM     27  C   UNL     1      -2.687   3.743   5.013  1.00  0.00     0.060 A 
ATOM     28  C   UNL     1      -1.997   4.628   5.851  1.00  0.00     0.016 A 
ATOM     29  C   UNL     1      -3.698   4.208   4.169  1.00  0.00     0.016 A 
ATOM     30  C   UNL     1      -2.349   5.975   5.886  1.00  0.00     0.010 A 
ATOM     31  C   UNL     1      -4.054   5.560   4.209  1.00  0.00     0.010 A 
ATOM     32  C   UNL     1      -3.405   6.442   5.092  1.00  0.00    -0.014 A 
BRANCH  32  33
ATOM     33  C   UNL     1      -3.909   7.822   5.286  1.00  0.00     0.031 A 
ATOM     34  C   UNL     1      -5.134   8.046   6.128  1.00  0.00     0.074 A 
ATOM     35  C   UNL     1      -3.266   8.869   4.742  1.00  0.00     0.049 A 
ATOM     36  N   UNL     1      -5.742   9.166   6.426  1.00  0.00    -0.248 NA
ATOM     37  C   UNL     1      -5.757   6.848   6.713  1.00  0.00     0.031 C 
ATOM     38  C   UNL     1      -2.050   8.789   3.934  1.00  0.00     0.029 A 
ATOM     39  N   UNL     1      -3.554  10.210   4.787  1.00  0.00    -0.354 N 
ATOM     40  C   UNL     1      -6.821   8.809   7.224  1.00  0.00     0.074 A 
ATOM     41  C   UNL     1      -6.801   7.367   7.342  1.00  0.00     0.031 C 
ATOM     42  C   UNL     1      -1.699  10.029   3.553  1.00  0.00     0.029 A 
ATOM     43  C   UNL     1      -2.679  10.984   4.066  1.00  0.00     0.049 A 
ATOM     44  H   UNL     1      -4.315  10.581   5.289  1.00  0.00     0.167 HD
ATOM     45  C   UNL     1      -7.744   9.608   7.810  1.00  0.00     0.031 A 
ATOM     46  C   UNL     1      -2.679  12.310   3.832  1.00  0.00     0.031 A 
ATOM     47  C   UNL     1      -7.774  11.041   7.684  1.00  0.00     0.049 A 
ATOM     48  C   UNL     1      -3.753  13.171   4.439  1.00  0.00     0.074 A 
ATOM     49  C   UNL     1      -8.653  11.940   8.263  1.00  0.00     0.029 A 
ATOM     50  N   UNL     1      -6.892  11.783   6.914  1.00  0.00    -0.354 N 
ATOM     51  N   UNL     1      -4.744  12.825   5.224  1.00  0.00    -0.248 NA
ATOM     52  C   UNL     1      -3.701  14.607   4.132  1.00  0.00     0.031 C 
ATOM     53  C   UNL     1      -8.337  13.221   7.799  1.00  0.00     0.029 A 
ATOM     54  C   UNL     1      -7.226  13.126   6.977  1.00  0.00     0.049 A 
ATOM     55  H   UNL     1      -6.141  11.411   6.399  1.00  0.00     0.167 HD
ATOM     56  C   UNL     1      -5.420  14.002   5.523  1.00  0.00     0.074 A 
ATOM     57  C   UNL     1      -4.716  15.072   4.847  1.00  0.00     0.031 C 
ATOM     58  C   UNL     1      -6.522  14.180   6.292  1.00  0.00     0.031 A 
BRANCH  45  59
ATOM     59  C   UNL     1      -8.823   8.939   8.614  1.00  0.00    -0.014 A 
ATOM     60  C   UNL     1      -8.550   8.354   9.860  1.00  0.00     0.009 A 
ATOM     61  C   UNL     1     -10.139   8.915   8.125  1.00  0.00     0.009 A 
ATOM     62  C   UNL     1      -9.567   7.728  10.584  1.00  0.00     0.001 A 
ATOM     63  C   UNL     1     -11.158   8.311   8.863  1.00  0.00     0.001 A 
ATOM     64  C   UNL     1     -10.870   7.710  10.087  1.00  0.00     0.000 A 
ENDBRANCH  45  59
BRANCH  46  65
ATOM     65  C   UNL     1      -1.630  12.906   2.966  1.00  0.00    -0.014 A 
ATOM     66  C   UNL     1      -0.626  13.719   3.511  1.00  0.00     0.009 A 
ATOM     67  C   UNL     1      -1.633  12.665   1.582  1.00  0.00     0.009 A 
ATOM     68  C   UNL     1       0.343  14.294   2.685  1.00  0.00     0.001 A 
ATOM     69  C   UNL     1      -0.648  13.220   0.764  1.00  0.00     0.001 A 
ATOM     70  C   UNL     1       0.335  14.040   1.315  1.00  0.00     0.000 A 
ENDBRANCH  46  65
BRANCH  58  71
ATOM     71  C   UNL     1      -7.021  15.587   6.465  1.00  0.00    -0.014 A 
ATOM     72  C   UNL     1      -7.671  16.263   5.421  1.00  0.00     0.009 A 
ATOM     73  C   UNL     1      -6.873  16.230   7.704  1.00  0.00     0.009 A 
ATOM     74  C   UNL     1      -8.134  17.568   5.606  1.00  0.00     0.001 A 
ATOM     75  C   UNL     1      -7.362  17.523   7.895  1.00  0.00     0.001 A 
ATOM     76  C   UNL     1      -7.984  18.194   6.843  1.00  0.00     0.000 A 
ENDBRANCH  58  71
ENDBRANCH  32  33
ENDBRANCH  25  27
ENDBRANCH  24  25
ENDBRANCH  23  24
ENDBRANCH  22  23
ENDBRANCH   1  22
TORSDOF 16
