REMARK SMILES Cc1ccnc(C(=O)c2[nH]c3ccc(F)cc3c2CC(=O)OCCOCCOC(=O)c2ccc(-c3c4nc(c(-c5ccccc5)c5ccc([nH]5)c(-c5ccccc5)c5nc(c(-c6ccccc6)c6ccc3[nH]6)C=C5)C=C4)cc2)c1
REMARK SMILES IDX 24 1 23 2 22 3 20 4 21 5 19 6 18 7 9 8 10 9 11 10 17 12
REMARK SMILES IDX 12 13 16 14 13 15 14 16 15 17 7 18 8 19 6 20 1 21 2 22 3 23
REMARK SMILES IDX 79 24 4 25 5 26 25 27 26 28 27 29 28 30 29 31 30 32 31 33
REMARK SMILES IDX 32 34 78 35 33 36 77 37 34 38 35 39 36 40 71 41 37 42 76 43
REMARK SMILES IDX 70 44 72 45 38 46 75 47 69 48 68 49 39 51 61 52 46 53 60 54
REMARK SMILES IDX 47 55 50 56 59 57 73 58 48 59 49 60 58 62 74 63 51 64 40 65
REMARK SMILES IDX 41 66 45 67 42 68 44 69 43 70 62 71 63 72 67 73 64 74 66 75
REMARK SMILES IDX 65 76 52 77 53 78 57 79 54 80 56 81 55 82
REMARK H PARENT 10 11 72 50 50 61
REMARK Flexibility Score: inf
ROOT
ATOM      1  C   UNL     1      -3.512  -2.053  -0.535  1.00  0.00     0.202 C 
ENDROOT
BRANCH   1   2
ATOM      2  C   UNL     1      -3.227  -2.215  -2.050  1.00  0.00     0.261 C 
BRANCH   2   3
ATOM      3  O   UNL     1      -2.082  -3.046  -2.343  1.00  0.00    -0.463 OA
BRANCH   3   4
ATOM      4  C   UNL     1      -1.046  -2.433  -2.994  1.00  0.00     0.310 C 
ATOM      5  O   UNL     1      -1.108  -1.314  -3.490  1.00  0.00    -0.252 OA
BRANCH   4   6
ATOM      6  C   UNL     1       0.205  -3.288  -3.075  1.00  0.00     0.161 C 
BRANCH   6   7
ATOM      7  C   UNL     1       0.760  -3.789  -1.767  1.00  0.00     0.000 A 
ATOM      8  C   UNL     1       1.692  -3.200  -0.897  1.00  0.00     0.093 A 
ATOM      9  N   UNL     1       2.031  -4.211   0.001  1.00  0.00    -0.352 N 
ATOM     10  C   UNL     1       1.151  -5.262  -0.045  1.00  0.00     0.046 A 
ATOM     11  H   UNL     1       2.813  -4.175   0.599  1.00  0.00     0.167 HD
ATOM     12  C   UNL     1       0.360  -5.056  -1.169  1.00  0.00     0.007 A 
ATOM     13  C   UNL     1       0.980  -6.342   0.838  1.00  0.00     0.030 A 
ATOM     14  C   UNL     1      -0.637  -6.018  -1.455  1.00  0.00     0.049 A 
ATOM     15  C   UNL     1      -0.051  -7.244   0.564  1.00  0.00     0.041 A 
ATOM     16  C   UNL     1      -0.834  -7.083  -0.570  1.00  0.00     0.123 A 
ATOM     17  F   UNL     1      -1.823  -7.956  -0.807  1.00  0.00    -0.207 F 
BRANCH   8  18
ATOM     18  C   UNL     1       2.448  -1.940  -0.774  1.00  0.00     0.227 C 
ATOM     19  O   UNL     1       3.619  -2.038  -0.390  1.00  0.00    -0.285 OA
BRANCH  18  20
ATOM     20  C   UNL     1       1.914  -0.512  -0.881  1.00  0.00     0.113 A 
ATOM     21  C   UNL     1      -1.019   1.769   0.027  1.00  0.00     0.044 C 
ATOM     22  C   UNL     1       0.345   1.287  -0.385  1.00  0.00    -0.047 A 
ATOM     23  C   UNL     1       1.347   2.206  -0.671  1.00  0.00     0.023 A 
ATOM     24  C   UNL     1       0.640  -0.087  -0.508  1.00  0.00     0.036 A 
ATOM     25  C   UNL     1       2.585   1.718  -1.046  1.00  0.00     0.112 A 
ATOM     26  N   UNL     1       2.884   0.403  -1.160  1.00  0.00    -0.253 NA
ENDBRANCH  18  20
ENDBRANCH   8  18
ENDBRANCH   6   7
ENDBRANCH   4   6
ENDBRANCH   3   4
ENDBRANCH   2   3
ENDBRANCH   1   2
BRANCH   1  27
ATOM     27  O   UNL     1      -2.401  -1.718   0.318  1.00  0.00    -0.374 OA
BRANCH  27  28
ATOM     28  C   UNL     1      -1.470  -2.797   0.394  1.00  0.00     0.202 C 
BRANCH  28  29
ATOM     29  C   UNL     1      -0.430  -2.781   1.515  1.00  0.00     0.261 C 
BRANCH  29  30
ATOM     30  O   UNL     1      -1.000  -2.521   2.759  1.00  0.00    -0.460 OA
BRANCH  30  31
ATOM     31  C   UNL     1      -1.062  -1.215   3.105  1.00  0.00     0.338 C 
ATOM     32  O   UNL     1      -0.407  -0.281   2.721  1.00  0.00    -0.246 OA
BRANCH  31  33
ATOM     33  C   UNL     1      -2.340  -1.205   3.813  1.00  0.00     0.060 A 
ATOM     34  C   UNL     1      -3.278  -0.233   3.464  1.00  0.00     0.016 A 
ATOM     35  C   UNL     1      -2.669  -2.345   4.563  1.00  0.00     0.016 A 
ATOM     36  C   UNL     1      -4.585  -0.408   3.880  1.00  0.00     0.010 A 
ATOM     37  C   UNL     1      -3.980  -2.573   4.874  1.00  0.00     0.010 A 
ATOM     38  C   UNL     1      -4.916  -1.573   4.586  1.00  0.00    -0.014 A 
BRANCH  38  39
ATOM     39  C   UNL     1      -6.183  -1.692   5.298  1.00  0.00     0.031 A 
ATOM     40  C   UNL     1      -6.107  -1.527   6.783  1.00  0.00     0.074 A 
ATOM     41  C   UNL     1      -7.282  -2.069   4.635  1.00  0.00     0.049 A 
ATOM     42  N   UNL     1      -7.004  -1.790   7.688  1.00  0.00    -0.248 NA
ATOM     43  C   UNL     1      -4.811  -1.066   7.329  1.00  0.00     0.031 C 
ATOM     44  C   UNL     1      -7.380  -2.274   3.188  1.00  0.00     0.029 A 
ATOM     45  N   UNL     1      -8.521  -2.374   5.110  1.00  0.00    -0.354 N 
ATOM     46  C   UNL     1      -6.369  -1.560   8.901  1.00  0.00     0.074 A 
ATOM     47  C   UNL     1      -4.999  -1.210   8.627  1.00  0.00     0.031 C 
ATOM     48  C   UNL     1      -8.631  -2.665   2.892  1.00  0.00     0.029 A 
ATOM     49  C   UNL     1      -9.392  -2.776   4.132  1.00  0.00     0.049 A 
ATOM     50  H   UNL     1      -8.767  -2.311   6.061  1.00  0.00     0.167 HD
ATOM     51  C   UNL     1      -6.907  -1.618  10.137  1.00  0.00     0.031 A 
ATOM     52  C   UNL     1     -10.661  -3.198   4.258  1.00  0.00     0.031 A 
ATOM     53  C   UNL     1      -8.280  -1.964  10.356  1.00  0.00     0.049 A 
ATOM     54  C   UNL     1     -11.243  -3.244   5.645  1.00  0.00     0.074 A 
ATOM     55  C   UNL     1      -8.983  -2.017  11.540  1.00  0.00     0.029 A 
ATOM     56  N   UNL     1      -9.159  -2.317   9.338  1.00  0.00    -0.354 N 
ATOM     57  N   UNL     1     -10.665  -2.970   6.793  1.00  0.00    -0.248 NA
ATOM     58  C   UNL     1     -12.649  -3.642   5.753  1.00  0.00     0.031 C 
ATOM     59  C   UNL     1     -10.280  -2.449  11.243  1.00  0.00     0.029 A 
ATOM     60  C   UNL     1     -10.399  -2.606   9.868  1.00  0.00     0.049 A 
ATOM     61  H   UNL     1      -8.931  -2.355   8.381  1.00  0.00     0.167 HD
ATOM     62  C   UNL     1     -11.644  -3.135   7.762  1.00  0.00     0.074 A 
ATOM     63  C   UNL     1     -12.855  -3.518   7.058  1.00  0.00     0.031 C 
ATOM     64  C   UNL     1     -11.565  -2.986   9.109  1.00  0.00     0.031 A 
BRANCH  51  65
ATOM     65  C   UNL     1      -5.998  -1.320  11.295  1.00  0.00    -0.014 A 
ATOM     66  C   UNL     1      -5.447  -0.040  11.485  1.00  0.00     0.009 A 
ATOM     67  C   UNL     1      -5.654  -2.342  12.191  1.00  0.00     0.009 A 
ATOM     68  C   UNL     1      -4.536   0.195  12.517  1.00  0.00     0.001 A 
ATOM     69  C   UNL     1      -4.771  -2.095  13.243  1.00  0.00     0.001 A 
ATOM     70  C   UNL     1      -4.203  -0.831  13.399  1.00  0.00     0.000 A 
ENDBRANCH  51  65
BRANCH  52  71
ATOM     71  C   UNL     1     -11.445  -3.565   3.054  1.00  0.00    -0.014 A 
ATOM     72  C   UNL     1     -12.487  -2.738   2.608  1.00  0.00     0.009 A 
ATOM     73  C   UNL     1     -11.134  -4.719   2.317  1.00  0.00     0.009 A 
ATOM     74  C   UNL     1     -13.216  -3.071   1.464  1.00  0.00     0.001 A 
ATOM     75  C   UNL     1     -11.847  -5.035   1.158  1.00  0.00     0.001 A 
ATOM     76  C   UNL     1     -12.893  -4.215   0.737  1.00  0.00     0.000 A 
ENDBRANCH  52  71
BRANCH  64  77
ATOM     77  C   UNL     1     -12.830  -3.207   9.882  1.00  0.00    -0.014 A 
ATOM     78  C   UNL     1     -13.352  -4.495  10.069  1.00  0.00     0.009 A 
ATOM     79  C   UNL     1     -13.472  -2.110  10.477  1.00  0.00     0.009 A 
ATOM     80  C   UNL     1     -14.520  -4.675  10.809  1.00  0.00     0.001 A 
ATOM     81  C   UNL     1     -14.619  -2.298  11.244  1.00  0.00     0.001 A 
ATOM     82  C   UNL     1     -15.148  -3.578  11.400  1.00  0.00     0.000 A 
ENDBRANCH  64  77
ENDBRANCH  38  39
ENDBRANCH  31  33
ENDBRANCH  30  31
ENDBRANCH  29  30
ENDBRANCH  28  29
ENDBRANCH  27  28
ENDBRANCH   1  27
TORSDOF 17
