REMARK SMILES CC[C@@](C)([NH2+][C@H]1CC[C@H](C)[C@H](C)C1)C(=O)OCCOCCOC(=O)c1ccc(-c2c3nc(c(-c4ccccc4)c4ccc([nH]4)c(-c4ccccc4)c4nc(c(-c5ccccc5)c5ccc2[nH]5)C=C4)C=C3)cc1
REMARK SMILES IDX 19 1 18 2 17 3 16 4 14 5 15 6 3 7 4 8 2 9 1 10 5 11 6 14
REMARK SMILES IDX 7 15 13 16 8 17 11 18 9 19 12 20 10 21 20 22 21 23 22 24
REMARK SMILES IDX 23 25 24 26 25 27 26 28 72 29 27 30 71 31 28 32 29 33 30 34
REMARK SMILES IDX 65 35 31 36 70 37 64 38 66 39 32 40 69 41 63 42 62 43 33 45
REMARK SMILES IDX 55 46 40 47 54 48 41 49 44 50 53 51 67 52 42 53 43 54 52 56
REMARK SMILES IDX 68 57 45 58 34 59 35 60 39 61 36 62 38 63 37 64 56 65 57 66
REMARK SMILES IDX 61 67 58 68 60 69 59 70 46 71 47 72 51 73 48 74 50 75 49 76
REMARK H PARENT 5 12 5 13 66 44 44 55
REMARK Flexibility Score: inf
ROOT
ATOM      1  O   UNL     1       3.067   8.088  -4.224  1.00  0.00    -0.374 OA
ENDROOT
BRANCH   1   2
ATOM      2  C   UNL     1       1.730   8.499  -3.924  1.00  0.00     0.202 C 
BRANCH   2   3
ATOM      3  C   UNL     1       0.663   7.629  -4.577  1.00  0.00     0.261 C 
BRANCH   3   4
ATOM      4  O   UNL     1       0.737   6.323  -3.986  1.00  0.00    -0.459 OA
BRANCH   4   5
ATOM      5  C   UNL     1       0.831   5.265  -4.829  1.00  0.00     0.367 C 
ATOM      6  O   UNL     1       0.673   5.357  -6.043  1.00  0.00    -0.245 OA
BRANCH   5   7
ATOM      7  C   UNL     1       1.130   3.916  -4.103  1.00  0.00     0.191 C 
ATOM      8  C   UNL     1      -0.029   2.953  -4.390  1.00  0.00     0.092 C 
BRANCH   7   9
ATOM      9  C   UNL     1       2.465   3.340  -4.688  1.00  0.00     0.077 C 
ATOM     10  C   UNL     1       2.541   3.100  -6.195  1.00  0.00     0.011 C 
ENDBRANCH   7   9
BRANCH   7  11
ATOM     11  N   UNL     1       1.435   4.062  -2.646  1.00  0.00    -0.330 N 
ATOM     12  H   UNL     1       2.102   4.832  -2.588  1.00  0.00     0.347 HD
ATOM     13  H   UNL     1       1.688   3.100  -2.421  1.00  0.00     0.347 HD
BRANCH  11  14
ATOM     14  C   UNL     1       0.453   4.321  -1.581  1.00  0.00     0.183 C 
ATOM     15  C   UNL     1       1.117   5.354  -0.645  1.00  0.00     0.065 C 
ATOM     16  C   UNL     1      -0.989   4.654  -1.994  1.00  0.00     0.068 C 
ATOM     17  C   UNL     1       0.181   5.964   0.390  1.00  0.00     0.010 C 
ATOM     18  C   UNL     1      -1.857   5.400  -0.981  1.00  0.00    -0.006 C 
ATOM     19  C   UNL     1      -1.056   6.521  -0.309  1.00  0.00    -0.011 C 
ATOM     20  C   UNL     1      -2.539   4.443   0.001  1.00  0.00     0.008 C 
ATOM     21  C   UNL     1      -1.938   7.320   0.631  1.00  0.00     0.008 C 
ENDBRANCH  11  14
ENDBRANCH   7  11
ENDBRANCH   5   7
ENDBRANCH   4   5
ENDBRANCH   3   4
ENDBRANCH   2   3
ENDBRANCH   1   2
BRANCH   1  22
ATOM     22  C   UNL     1       3.606   7.080  -3.366  1.00  0.00     0.202 C 
BRANCH  22  23
ATOM     23  C   UNL     1       4.273   7.617  -2.093  1.00  0.00     0.261 C 
BRANCH  23  24
ATOM     24  O   UNL     1       3.315   8.168  -1.168  1.00  0.00    -0.460 OA
BRANCH  24  25
ATOM     25  C   UNL     1       3.142   9.511  -1.223  1.00  0.00     0.338 C 
ATOM     26  O   UNL     1       3.763  10.312  -1.902  1.00  0.00    -0.246 OA
BRANCH  25  27
ATOM     27  C   UNL     1       1.933   9.873  -0.449  1.00  0.00     0.060 A 
ATOM     28  C   UNL     1       0.989  10.738  -1.023  1.00  0.00     0.016 A 
ATOM     29  C   UNL     1       1.729   9.373   0.834  1.00  0.00     0.016 A 
ATOM     30  C   UNL     1      -0.152  11.127  -0.307  1.00  0.00     0.010 A 
ATOM     31  C   UNL     1       0.586   9.753   1.540  1.00  0.00     0.010 A 
ATOM     32  C   UNL     1      -0.357  10.656   0.993  1.00  0.00    -0.014 A 
BRANCH  32  33
ATOM     33  C   UNL     1      -1.454  11.156   1.877  1.00  0.00     0.031 A 
ATOM     34  C   UNL     1      -1.063  11.881   3.138  1.00  0.00     0.074 A 
ATOM     35  C   UNL     1      -2.761  10.905   1.657  1.00  0.00     0.049 A 
ATOM     36  N   UNL     1      -1.793  12.219   4.169  1.00  0.00    -0.248 NA
ATOM     37  C   UNL     1       0.356  12.255   3.252  1.00  0.00     0.031 C 
ATOM     38  C   UNL     1      -3.328  10.277   0.468  1.00  0.00     0.029 A 
ATOM     39  N   UNL     1      -3.851  11.087   2.482  1.00  0.00    -0.354 N 
ATOM     40  C   UNL     1      -0.919  12.831   5.056  1.00  0.00     0.074 A 
ATOM     41  C   UNL     1       0.405  12.735   4.483  1.00  0.00     0.031 C 
ATOM     42  C   UNL     1      -4.631  10.021   0.682  1.00  0.00     0.029 A 
ATOM     43  C   UNL     1      -4.998  10.487   2.016  1.00  0.00     0.049 A 
ATOM     44  H   UNL     1      -3.812  11.597   3.324  1.00  0.00     0.167 HD
ATOM     45  C   UNL     1      -1.189  13.456   6.226  1.00  0.00     0.031 A 
ATOM     46  C   UNL     1      -6.202  10.306   2.598  1.00  0.00     0.031 A 
ATOM     47  C   UNL     1      -2.500  13.564   6.801  1.00  0.00     0.049 A 
ATOM     48  C   UNL     1      -6.477  10.913   3.948  1.00  0.00     0.074 A 
ATOM     49  C   UNL     1      -2.886  14.241   7.944  1.00  0.00     0.029 A 
ATOM     50  N   UNL     1      -3.638  12.966   6.284  1.00  0.00    -0.354 N 
ATOM     51  N   UNL     1      -5.662  11.564   4.740  1.00  0.00    -0.248 NA
ATOM     52  C   UNL     1      -7.853  10.806   4.461  1.00  0.00     0.031 C 
ATOM     53  C   UNL     1      -4.246  13.995   8.157  1.00  0.00     0.029 A 
ATOM     54  C   UNL     1      -4.721  13.226   7.106  1.00  0.00     0.049 A 
ATOM     55  H   UNL     1      -3.671  12.435   5.456  1.00  0.00     0.167 HD
ATOM     56  C   UNL     1      -6.437  12.002   5.809  1.00  0.00     0.074 A 
ATOM     57  C   UNL     1      -7.783  11.523   5.575  1.00  0.00     0.031 C 
ATOM     58  C   UNL     1      -6.064  12.758   6.870  1.00  0.00     0.031 A 
BRANCH  45  59
ATOM     59  C   UNL     1      -0.018  14.053   6.956  1.00  0.00    -0.014 A 
ATOM     60  C   UNL     1       0.707  15.131   6.419  1.00  0.00     0.009 A 
ATOM     61  C   UNL     1       0.389  13.506   8.181  1.00  0.00     0.009 A 
ATOM     62  C   UNL     1       1.857  15.598   7.056  1.00  0.00     0.001 A 
ATOM     63  C   UNL     1       1.516  14.002   8.837  1.00  0.00     0.001 A 
ATOM     64  C   UNL     1       2.260  15.033   8.264  1.00  0.00     0.000 A 
ENDBRANCH  45  59
BRANCH  46  65
ATOM     65  C   UNL     1      -7.260   9.536   1.889  1.00  0.00    -0.014 A 
ATOM     66  C   UNL     1      -8.343  10.195   1.288  1.00  0.00     0.009 A 
ATOM     67  C   UNL     1      -7.191   8.136   1.810  1.00  0.00     0.009 A 
ATOM     68  C   UNL     1      -9.345   9.467   0.640  1.00  0.00     0.001 A 
ATOM     69  C   UNL     1      -8.184   7.412   1.143  1.00  0.00     0.001 A 
ATOM     70  C   UNL     1      -9.263   8.078   0.564  1.00  0.00     0.000 A 
ENDBRANCH  46  65
BRANCH  58  71
ATOM     71  C   UNL     1      -7.128  13.185   7.843  1.00  0.00    -0.014 A 
ATOM     72  C   UNL     1      -7.713  12.284   8.744  1.00  0.00     0.009 A 
ATOM     73  C   UNL     1      -7.484  14.543   7.914  1.00  0.00     0.009 A 
ATOM     74  C   UNL     1      -8.645  12.731   9.684  1.00  0.00     0.001 A 
ATOM     75  C   UNL     1      -8.392  14.992   8.874  1.00  0.00     0.001 A 
ATOM     76  C   UNL     1      -8.976  14.085   9.755  1.00  0.00     0.000 A 
ENDBRANCH  58  71
ENDBRANCH  32  33
ENDBRANCH  25  27
ENDBRANCH  24  25
ENDBRANCH  23  24
ENDBRANCH  22  23
ENDBRANCH   1  22
TORSDOF 17
