REMARK SMILES Cc1c[nH]c(C[N@@H+](C)[C@@H](C(=O)OCCOCCOC(=O)c2ccc(-c3c4nc(c(-c5ccccc5)c5ccc([nH]5)c(-c5ccccc5)c5nc(c(-c6ccccc6)c6ccc3[nH]6)C=C5)C=C4)cc2)c2ccc(NC(=O)N3CCCC3)cc2)n1
REMARK SMILES IDX 14 1 13 2 12 3 10 4 11 5 9 6 7 7 8 8 6 10 5 11 1 12 2 13
REMARK SMILES IDX 3 14 83 15 4 16 69 18 70 19 82 20 71 21 81 22 72 23 73 24
REMARK SMILES IDX 74 25 75 27 76 28 77 29 80 30 78 31 79 32 15 33 16 34 17 35
REMARK SMILES IDX 18 36 19 37 20 38 21 39 22 40 68 41 23 42 67 43 24 44 25 45
REMARK SMILES IDX 26 46 61 47 27 48 66 49 60 50 62 51 28 52 65 53 59 54 58 55
REMARK SMILES IDX 29 57 51 58 36 59 50 60 37 61 40 62 49 63 63 64 38 65 39 66
REMARK SMILES IDX 48 68 64 69 41 70 30 71 31 72 35 73 32 74 34 75 33 76 52 77
REMARK SMILES IDX 53 78 57 79 54 80 56 81 55 82 42 83 43 84 47 85 44 86 46 87
REMARK SMILES IDX 45 88
REMARK H PARENT 7 9 4 17 73 26 62 56 40 67
REMARK Flexibility Score: inf
ROOT
ATOM      1  C   UNL     1      -6.336  -0.229   1.989  1.00  0.00     0.202 C 
ENDROOT
BRANCH   1   2
ATOM      2  C   UNL     1      -5.614   0.629   3.029  1.00  0.00     0.261 C 
BRANCH   2   3
ATOM      3  O   UNL     1      -4.457   1.284   2.474  1.00  0.00    -0.459 OA
BRANCH   3   4
ATOM      4  C   UNL     1      -3.601   1.765   3.421  1.00  0.00     0.369 C 
ATOM      5  O   UNL     1      -3.885   1.794   4.618  1.00  0.00    -0.245 OA
BRANCH   4   6
ATOM      6  C   UNL     1      -2.196   2.138   2.888  1.00  0.00     0.326 C 
BRANCH   6   7
ATOM      7  N   UNL     1      -2.132   2.841   1.564  1.00  0.00    -0.316 N 
ATOM      8  C   UNL     1      -3.118   3.924   1.491  1.00  0.00     0.334 C 
ATOM      9  H   UNL     1      -1.167   3.168   1.596  1.00  0.00     0.349 HD
BRANCH   7  10
ATOM     10  C   UNL     1      -2.149   2.081   0.302  1.00  0.00     0.339 C 
BRANCH  10  11
ATOM     11  C   UNL     1      -0.965   1.207  -0.030  1.00  0.00     0.161 A 
ATOM     12  C   UNL     1       2.469   0.357  -0.538  1.00  0.00     0.068 C 
ATOM     13  C   UNL     1       0.992   0.395  -0.473  1.00  0.00     0.056 A 
ATOM     14  C   UNL     1       0.106  -0.636  -0.675  1.00  0.00     0.107 A 
ATOM     15  N   UNL     1       0.308   1.548  -0.140  1.00  0.00    -0.233 NA
ATOM     16  N   UNL     1      -1.119  -0.114  -0.382  1.00  0.00    -0.344 N 
ATOM     17  H   UNL     1      -1.973  -0.602  -0.416  1.00  0.00     0.167 HD
ENDBRANCH  10  11
ENDBRANCH   7  10
ENDBRANCH   6   7
BRANCH   6  18
ATOM     18  C   UNL     1      -1.163   1.036   3.107  1.00  0.00     0.021 A 
ATOM     19  C   UNL     1      -1.504  -0.256   3.525  1.00  0.00     0.012 A 
ATOM     20  C   UNL     1       0.199   1.314   2.912  1.00  0.00     0.012 A 
ATOM     21  C   UNL     1      -0.534  -1.257   3.602  1.00  0.00     0.027 A 
ATOM     22  C   UNL     1       1.155   0.292   2.929  1.00  0.00     0.027 A 
ATOM     23  C   UNL     1       0.768  -1.023   3.172  1.00  0.00     0.042 A 
BRANCH  23  24
ATOM     24  N   UNL     1       1.716  -2.044   2.969  1.00  0.00    -0.308 N 
ATOM     25  C   UNL     1       1.589  -3.400   2.967  1.00  0.00     0.321 C 
ATOM     26  H   UNL     1       2.630  -1.721   2.800  1.00  0.00     0.171 HD
ATOM     27  O   UNL     1       2.584  -4.083   3.217  1.00  0.00    -0.248 OA
ATOM     28  N   UNL     1       0.380  -3.975   2.702  1.00  0.00    -0.325 N 
ATOM     29  C   UNL     1      -0.529  -3.645   1.622  1.00  0.00     0.121 C 
ATOM     30  C   UNL     1       0.032  -5.264   3.252  1.00  0.00     0.121 C 
ATOM     31  C   UNL     1      -1.851  -4.214   2.106  1.00  0.00     0.023 C 
ATOM     32  C   UNL     1      -1.450  -5.445   2.924  1.00  0.00     0.023 C 
ENDBRANCH  23  24
ENDBRANCH   6  18
ENDBRANCH   4   6
ENDBRANCH   3   4
ENDBRANCH   2   3
ENDBRANCH   1   2
BRANCH   1  33
ATOM     33  O   UNL     1      -5.574  -1.299   1.428  1.00  0.00    -0.374 OA
BRANCH  33  34
ATOM     34  C   UNL     1      -4.532  -0.943   0.525  1.00  0.00     0.202 C 
BRANCH  34  35
ATOM     35  C   UNL     1      -4.978  -0.454  -0.862  1.00  0.00     0.261 C 
BRANCH  35  36
ATOM     36  O   UNL     1      -5.716   0.780  -0.797  1.00  0.00    -0.460 OA
BRANCH  36  37
ATOM     37  C   UNL     1      -6.942   0.724  -1.372  1.00  0.00     0.338 C 
ATOM     38  O   UNL     1      -7.399  -0.190  -2.048  1.00  0.00    -0.246 OA
BRANCH  37  39
ATOM     39  C   UNL     1      -7.782   1.847  -0.924  1.00  0.00     0.060 A 
ATOM     40  C   UNL     1      -8.956   1.526  -0.231  1.00  0.00     0.016 A 
ATOM     41  C   UNL     1      -7.500   3.169  -1.270  1.00  0.00     0.016 A 
ATOM     42  C   UNL     1      -9.886   2.518   0.065  1.00  0.00     0.010 A 
ATOM     43  C   UNL     1      -8.441   4.166  -0.978  1.00  0.00     0.010 A 
ATOM     44  C   UNL     1      -9.657   3.837  -0.349  1.00  0.00    -0.014 A 
BRANCH  44  45
ATOM     45  C   UNL     1     -10.774   4.812  -0.275  1.00  0.00     0.031 A 
ATOM     46  C   UNL     1     -11.587   5.086  -1.513  1.00  0.00     0.074 A 
ATOM     47  C   UNL     1     -11.116   5.386   0.893  1.00  0.00     0.049 A 
ATOM     48  N   UNL     1     -12.624   5.870  -1.668  1.00  0.00    -0.248 NA
ATOM     49  C   UNL     1     -11.181   4.378  -2.739  1.00  0.00     0.031 C 
ATOM     50  C   UNL     1     -10.449   5.161   2.174  1.00  0.00     0.029 A 
ATOM     51  N   UNL     1     -12.122   6.272   1.188  1.00  0.00    -0.354 N 
ATOM     52  C   UNL     1     -12.990   5.752  -3.004  1.00  0.00     0.074 A 
ATOM     53  C   UNL     1     -12.049   4.845  -3.623  1.00  0.00     0.031 C 
ATOM     54  C   UNL     1     -11.067   5.889   3.121  1.00  0.00     0.029 A 
ATOM     55  C   UNL     1     -12.151   6.653   2.507  1.00  0.00     0.049 A 
ATOM     56  H   UNL     1     -12.762   6.603   0.517  1.00  0.00     0.167 HD
ATOM     57  C   UNL     1     -14.022   6.338  -3.656  1.00  0.00     0.031 A 
ATOM     58  C   UNL     1     -12.953   7.529   3.144  1.00  0.00     0.031 A 
ATOM     59  C   UNL     1     -14.958   7.244  -3.047  1.00  0.00     0.049 A 
ATOM     60  C   UNL     1     -14.041   8.231   2.375  1.00  0.00     0.074 A 
ATOM     61  C   UNL     1     -16.042   7.881  -3.626  1.00  0.00     0.029 A 
ATOM     62  N   UNL     1     -14.917   7.646  -1.722  1.00  0.00    -0.354 N 
ATOM     63  N   UNL     1     -14.388   8.092   1.119  1.00  0.00    -0.248 NA
ATOM     64  C   UNL     1     -14.855   9.205   3.119  1.00  0.00     0.031 C 
ATOM     65  C   UNL     1     -16.625   8.711  -2.664  1.00  0.00     0.029 A 
ATOM     66  C   UNL     1     -15.939   8.546  -1.471  1.00  0.00     0.049 A 
ATOM     67  H   UNL     1     -14.258   7.339  -1.058  1.00  0.00     0.167 HD
ATOM     68  C   UNL     1     -15.475   8.938   0.930  1.00  0.00     0.074 A 
ATOM     69  C   UNL     1     -15.740   9.573   2.204  1.00  0.00     0.031 C 
ATOM     70  C   UNL     1     -16.192   9.167  -0.198  1.00  0.00     0.031 A 
BRANCH  57  71
ATOM     71  C   UNL     1     -14.174   6.043  -5.122  1.00  0.00    -0.014 A 
ATOM     72  C   UNL     1     -14.640   4.798  -5.572  1.00  0.00     0.009 A 
ATOM     73  C   UNL     1     -13.890   7.045  -6.064  1.00  0.00     0.009 A 
ATOM     74  C   UNL     1     -14.793   4.554  -6.939  1.00  0.00     0.001 A 
ATOM     75  C   UNL     1     -14.069   6.806  -7.428  1.00  0.00     0.001 A 
ATOM     76  C   UNL     1     -14.514   5.560  -7.864  1.00  0.00     0.000 A 
ENDBRANCH  57  71
BRANCH  58  77
ATOM     77  C   UNL     1     -12.744   7.821   4.587  1.00  0.00    -0.014 A 
ATOM     78  C   UNL     1     -13.694   7.434   5.545  1.00  0.00     0.009 A 
ATOM     79  C   UNL     1     -11.604   8.523   5.008  1.00  0.00     0.009 A 
ATOM     80  C   UNL     1     -13.519   7.770   6.890  1.00  0.00     0.001 A 
ATOM     81  C   UNL     1     -11.418   8.832   6.357  1.00  0.00     0.001 A 
ATOM     82  C   UNL     1     -12.380   8.465   7.295  1.00  0.00     0.000 A 
ENDBRANCH  58  77
BRANCH  70  83
ATOM     83  C   UNL     1     -17.355  10.114  -0.098  1.00  0.00    -0.014 A 
ATOM     84  C   UNL     1     -17.161  11.497   0.033  1.00  0.00     0.009 A 
ATOM     85  C   UNL     1     -18.665   9.615  -0.181  1.00  0.00     0.009 A 
ATOM     86  C   UNL     1     -18.257  12.359   0.113  1.00  0.00     0.001 A 
ATOM     87  C   UNL     1     -19.758  10.481  -0.131  1.00  0.00     0.001 A 
ATOM     88  C   UNL     1     -19.553  11.851   0.026  1.00  0.00     0.000 A 
ENDBRANCH  70  83
ENDBRANCH  44  45
ENDBRANCH  37  39
ENDBRANCH  36  37
ENDBRANCH  35  36
ENDBRANCH  34  35
ENDBRANCH  33  34
ENDBRANCH   1  33
TORSDOF 19
