REMARK SMILES COc1cccc(-c2nn(-c3cc4c(cc3C(N)=O)OCO4)cc2C(=O)OCCOCCOC(=O)c2ccc(-c3c4nc(c(-c5ccccc5)c5ccc([nH]5)c(-c5ccccc5)c5nc(c(-c6ccccc6)c6ccc3[nH]6)C=C5)C=C4)cc2)c1
REMARK SMILES IDX 30 1 29 2 28 3 27 4 25 5 26 6 24 7 8 8 9 9 10 10 23 11 7 12
REMARK SMILES IDX 3 13 4 14 84 15 5 16 6 17 2 18 1 19 11 20 12 21 16 22 13 23
REMARK SMILES IDX 15 24 14 25 22 26 20 27 21 28 17 29 18 30 19 31 31 34 32 35
REMARK SMILES IDX 33 36 34 37 35 38 36 39 37 40 83 41 38 42 82 43 39 44 40 45
REMARK SMILES IDX 41 46 76 47 42 48 81 49 75 50 77 51 43 52 80 53 74 54 73 55
REMARK SMILES IDX 44 57 66 58 51 59 65 60 52 61 55 62 64 63 78 64 53 65 54 66
REMARK SMILES IDX 63 68 79 69 56 70 45 71 46 72 50 73 47 74 49 75 48 76 67 77
REMARK SMILES IDX 68 78 72 79 69 80 71 81 70 82 57 83 58 84 62 85 59 86 61 87
REMARK SMILES IDX 60 88
REMARK H PARENT 18 32 18 33 77 56 55 67
REMARK Flexibility Score: inf
ROOT
ATOM      1  O   UNL     1       1.059  -1.573  -7.450  1.00  0.00    -0.374 OA
ENDROOT
BRANCH   1   2
ATOM      2  C   UNL     1       2.152  -0.888  -8.063  1.00  0.00     0.202 C 
BRANCH   2   3
ATOM      3  C   UNL     1       3.160  -0.158  -7.173  1.00  0.00     0.261 C 
BRANCH   3   4
ATOM      4  O   UNL     1       3.963  -1.065  -6.404  1.00  0.00    -0.460 OA
BRANCH   4   5
ATOM      5  C   UNL     1       3.729  -1.046  -5.056  1.00  0.00     0.342 C 
ATOM      6  O   UNL     1       2.954  -0.290  -4.495  1.00  0.00    -0.246 OA
BRANCH   5   7
ATOM      7  C   UNL     1       4.431  -2.103  -4.365  1.00  0.00     0.106 A 
ATOM      8  C   UNL     1       4.013  -2.869  -3.241  1.00  0.00     0.107 A 
ATOM      9  N   UNL     1       5.015  -3.651  -2.795  1.00  0.00    -0.167 NA
ATOM     10  N   UNL     1       6.092  -3.197  -3.491  1.00  0.00    -0.239 N 
ATOM     11  C   UNL     1       5.690  -2.583  -4.652  1.00  0.00     0.131 A 
BRANCH   8  12
ATOM     12  C   UNL     1       2.670  -2.904  -2.672  1.00  0.00     0.007 A 
ATOM     13  C   UNL     1       0.985  -2.003  -1.185  1.00  0.00     0.119 A 
ATOM     14  C   UNL     1       0.019  -2.804  -1.800  1.00  0.00     0.046 A 
ATOM     15  C   UNL     1       2.313  -2.050  -1.622  1.00  0.00     0.056 A 
ATOM     16  C   UNL     1       0.370  -3.663  -2.837  1.00  0.00     0.005 A 
ATOM     17  C   UNL     1       1.699  -3.730  -3.253  1.00  0.00     0.011 A 
BRANCH  13  18
ATOM     18  O   UNL     1       0.531  -1.260  -0.130  1.00  0.00    -0.497 OA
ATOM     19  C   UNL     1       1.129   0.023   0.012  1.00  0.00     0.278 C 
ENDBRANCH  13  18
ENDBRANCH   8  12
BRANCH  10  20
ATOM     20  C   UNL     1       7.426  -3.421  -3.067  1.00  0.00     0.081 A 
ATOM     21  C   UNL     1       7.702  -4.623  -2.383  1.00  0.00     0.079 A 
ATOM     22  C   UNL     1       8.468  -2.474  -3.323  1.00  0.00     0.069 A 
ATOM     23  C   UNL     1       9.014  -4.881  -2.050  1.00  0.00     0.167 A 
ATOM     24  C   UNL     1       9.799  -2.849  -3.077  1.00  0.00     0.066 A 
ATOM     25  C   UNL     1      10.031  -4.035  -2.420  1.00  0.00     0.166 A 
ATOM     26  O   UNL     1       9.476  -5.944  -1.338  1.00  0.00    -0.454 OA
ATOM     27  O   UNL     1      11.250  -4.463  -1.993  1.00  0.00    -0.454 OA
ATOM     28  C   UNL     1      10.847  -5.543  -1.126  1.00  0.00     0.468 C 
BRANCH  22  29
ATOM     29  C   UNL     1       8.188  -1.013  -3.592  1.00  0.00     0.251 C 
ATOM     30  N   UNL     1       9.223  -0.120  -3.549  1.00  0.00    -0.366 N 
ATOM     31  O   UNL     1       7.070  -0.546  -3.759  1.00  0.00    -0.269 OA
ATOM     32  H   UNL     1      10.144  -0.440  -3.417  1.00  0.00     0.159 HD
ATOM     33  H   UNL     1       9.046   0.844  -3.650  1.00  0.00     0.159 HD
ENDBRANCH  22  29
ENDBRANCH  10  20
ENDBRANCH   5   7
ENDBRANCH   4   5
ENDBRANCH   3   4
ENDBRANCH   2   3
ENDBRANCH   1   2
BRANCH   1  34
ATOM     34  C   UNL     1       1.294  -2.638  -6.540  1.00  0.00     0.202 C 
BRANCH  34  35
ATOM     35  C   UNL     1       1.848  -3.955  -7.066  1.00  0.00     0.261 C 
BRANCH  35  36
ATOM     36  O   UNL     1       2.946  -3.787  -7.940  1.00  0.00    -0.460 OA
BRANCH  36  37
ATOM     37  C   UNL     1       2.574  -3.778  -9.240  1.00  0.00     0.338 C 
ATOM     38  O   UNL     1       1.452  -3.631  -9.691  1.00  0.00    -0.246 OA
BRANCH  37  39
ATOM     39  C   UNL     1       3.724  -4.182 -10.049  1.00  0.00     0.060 A 
ATOM     40  C   UNL     1       3.471  -4.336 -11.412  1.00  0.00     0.016 A 
ATOM     41  C   UNL     1       4.848  -4.741  -9.422  1.00  0.00     0.016 A 
ATOM     42  C   UNL     1       4.196  -5.282 -12.091  1.00  0.00     0.010 A 
ATOM     43  C   UNL     1       5.565  -5.692 -10.100  1.00  0.00     0.010 A 
ATOM     44  C   UNL     1       5.159  -6.018 -11.389  1.00  0.00    -0.014 A 
BRANCH  44  45
ATOM     45  C   UNL     1       5.852  -7.060 -12.104  1.00  0.00     0.031 A 
ATOM     46  C   UNL     1       6.838  -6.479 -13.030  1.00  0.00     0.074 A 
ATOM     47  C   UNL     1       5.657  -8.373 -11.886  1.00  0.00     0.049 A 
ATOM     48  N   UNL     1       6.676  -6.267 -14.291  1.00  0.00    -0.248 NA
ATOM     49  C   UNL     1       8.015  -5.814 -12.447  1.00  0.00     0.031 C 
ATOM     50  C   UNL     1       4.927  -9.007 -10.784  1.00  0.00     0.029 A 
ATOM     51  N   UNL     1       6.164  -9.433 -12.568  1.00  0.00    -0.354 N 
ATOM     52  C   UNL     1       7.866  -5.688 -14.705  1.00  0.00     0.074 A 
ATOM     53  C   UNL     1       8.505  -5.187 -13.518  1.00  0.00     0.031 C 
ATOM     54  C   UNL     1       5.246 -10.323 -10.740  1.00  0.00     0.029 A 
ATOM     55  C   UNL     1       6.066 -10.645 -11.897  1.00  0.00     0.049 A 
ATOM     56  H   UNL     1       6.566  -9.350 -13.463  1.00  0.00     0.167 HD
ATOM     57  C   UNL     1       8.409  -6.048 -15.899  1.00  0.00     0.031 A 
ATOM     58  C   UNL     1       6.667 -11.804 -12.261  1.00  0.00     0.031 A 
ATOM     59  C   UNL     1       7.449  -6.761 -16.707  1.00  0.00     0.049 A 
ATOM     60  C   UNL     1       6.988 -11.702 -13.703  1.00  0.00     0.074 A 
ATOM     61  C   UNL     1       6.333  -6.457 -17.453  1.00  0.00     0.029 A 
ATOM     62  N   UNL     1       7.399  -8.102 -16.421  1.00  0.00    -0.354 N 
ATOM     63  N   UNL     1       6.075 -11.647 -14.630  1.00  0.00    -0.248 NA
ATOM     64  C   UNL     1       8.321 -11.276 -14.113  1.00  0.00     0.031 C 
ATOM     65  C   UNL     1       5.538  -7.643 -17.480  1.00  0.00     0.029 A 
ATOM     66  C   UNL     1       6.208  -8.656 -16.796  1.00  0.00     0.049 A 
ATOM     67  H   UNL     1       8.133  -8.604 -15.998  1.00  0.00     0.167 HD
ATOM     68  C   UNL     1       6.598 -10.785 -15.574  1.00  0.00     0.074 A 
ATOM     69  C   UNL     1       8.029 -10.733 -15.298  1.00  0.00     0.031 C 
ATOM     70  C   UNL     1       5.788  -9.940 -16.275  1.00  0.00     0.031 A 
BRANCH  57  71
ATOM     71  C   UNL     1       9.893  -6.299 -16.078  1.00  0.00    -0.014 A 
ATOM     72  C   UNL     1      10.349  -6.698 -17.346  1.00  0.00     0.009 A 
ATOM     73  C   UNL     1      10.800  -6.452 -15.009  1.00  0.00     0.009 A 
ATOM     74  C   UNL     1      11.616  -7.268 -17.519  1.00  0.00     0.001 A 
ATOM     75  C   UNL     1      12.076  -6.991 -15.182  1.00  0.00     0.001 A 
ATOM     76  C   UNL     1      12.477  -7.421 -16.436  1.00  0.00     0.000 A 
ENDBRANCH  57  71
BRANCH  58  77
ATOM     77  C   UNL     1       7.248 -12.867 -11.412  1.00  0.00    -0.014 A 
ATOM     78  C   UNL     1       7.533 -14.136 -11.944  1.00  0.00     0.009 A 
ATOM     79  C   UNL     1       7.811 -12.538 -10.166  1.00  0.00     0.009 A 
ATOM     80  C   UNL     1       8.392 -15.021 -11.277  1.00  0.00     0.001 A 
ATOM     81  C   UNL     1       8.670 -13.421  -9.502  1.00  0.00     0.001 A 
ATOM     82  C   UNL     1       8.974 -14.656 -10.066  1.00  0.00     0.000 A 
ENDBRANCH  58  77
BRANCH  70  83
ATOM     83  C   UNL     1       4.334 -10.299 -16.381  1.00  0.00    -0.014 A 
ATOM     84  C   UNL     1       3.444 -10.316 -15.294  1.00  0.00     0.009 A 
ATOM     85  C   UNL     1       3.831 -10.555 -17.665  1.00  0.00     0.009 A 
ATOM     86  C   UNL     1       2.088 -10.601 -15.495  1.00  0.00     0.001 A 
ATOM     87  C   UNL     1       2.478 -10.819 -17.866  1.00  0.00     0.001 A 
ATOM     88  C   UNL     1       1.607 -10.848 -16.781  1.00  0.00     0.000 A 
ENDBRANCH  70  83
ENDBRANCH  44  45
ENDBRANCH  37  39
ENDBRANCH  36  37
ENDBRANCH  35  36
ENDBRANCH  34  35
ENDBRANCH   1  34
TORSDOF 18
