REMARK SMILES Cc1cc(C)cc(C2(C(=O)OCCOCCOC(=O)c3ccc(-c4c5nc(c(-c6ccccc6)c6ccc([nH]6)c(-c6ccccc6)c6nc(c(-c7ccccc7)c7ccc4[nH]7)C=C6)C=C5)cc3)CCOCC2)c1
REMARK SMILES IDX 15 1 14 2 13 3 12 4 11 5 9 6 10 7 8 8 68 9 72 10 69 11 71 12
REMARK SMILES IDX 70 13 7 14 1 15 2 16 3 17 73 18 4 19 5 20 6 21 16 22 17 23
REMARK SMILES IDX 18 24 19 25 20 26 21 27 67 28 22 29 66 30 23 31 24 32 25 33
REMARK SMILES IDX 60 34 26 35 65 36 59 37 61 38 27 39 64 40 58 41 57 42 28 44
REMARK SMILES IDX 50 45 35 46 49 47 36 48 39 49 48 50 62 51 37 52 38 53 47 55
REMARK SMILES IDX 63 56 40 57 29 58 30 59 34 60 31 61 33 62 32 63 51 64 52 65
REMARK SMILES IDX 56 66 53 67 55 68 54 69 41 70 42 71 46 72 43 73 45 74 44 75
REMARK H PARENT 61 43 39 54
REMARK Flexibility Score: inf
ROOT
ATOM      1  C   UNL     1      -3.130  -2.469   2.063  1.00  0.00     0.202 C 
ENDROOT
BRANCH   1   2
ATOM      2  O   UNL     1      -4.303  -2.584   1.257  1.00  0.00    -0.374 OA
BRANCH   2   3
ATOM      3  C   UNL     1      -4.551  -3.830   0.610  1.00  0.00     0.202 C 
BRANCH   3   4
ATOM      4  C   UNL     1      -3.619  -4.211  -0.544  1.00  0.00     0.261 C 
BRANCH   4   5
ATOM      5  O   UNL     1      -2.240  -4.164  -0.149  1.00  0.00    -0.463 OA
BRANCH   5   6
ATOM      6  C   UNL     1      -1.383  -3.749  -1.122  1.00  0.00     0.316 C 
ATOM      7  O   UNL     1      -1.697  -3.659  -2.305  1.00  0.00    -0.251 OA
BRANCH   6   8
ATOM      8  C   UNL     1       0.003  -3.324  -0.570  1.00  0.00     0.097 C 
ATOM      9  C   UNL     1       0.318  -3.865   0.850  1.00  0.00     0.052 C 
ATOM     10  C   UNL     1       1.022  -3.980  -1.540  1.00  0.00     0.052 C 
ATOM     11  C   UNL     1       0.405  -5.383   0.904  1.00  0.00     0.161 C 
ATOM     12  C   UNL     1       0.994  -5.502  -1.391  1.00  0.00     0.161 C 
ATOM     13  O   UNL     1       1.335  -5.871  -0.057  1.00  0.00    -0.381 OA
BRANCH   8  14
ATOM     14  C   UNL     1       0.103  -1.775  -0.508  1.00  0.00    -0.030 A 
ATOM     15  C   UNL     1       2.768   0.943  -0.060  1.00  0.00     0.044 C 
ATOM     16  C   UNL     1       1.436   0.263  -0.196  1.00  0.00    -0.051 A 
ATOM     17  C   UNL     1       0.267   1.028  -0.131  1.00  0.00     0.006 A 
ATOM     18  C   UNL     1       1.346  -1.127  -0.380  1.00  0.00     0.008 A 
ATOM     19  C   UNL     1      -0.983   0.420  -0.246  1.00  0.00    -0.051 A 
ATOM     20  C   UNL     1      -2.233   1.247  -0.152  1.00  0.00     0.044 C 
ATOM     21  C   UNL     1      -1.052  -0.965  -0.456  1.00  0.00     0.008 A 
ENDBRANCH   8  14
ENDBRANCH   6   8
ENDBRANCH   5   6
ENDBRANCH   4   5
ENDBRANCH   3   4
ENDBRANCH   2   3
ENDBRANCH   1   2
BRANCH   1  22
ATOM     22  C   UNL     1      -3.051  -3.313   3.341  1.00  0.00     0.261 C 
BRANCH  22  23
ATOM     23  O   UNL     1      -3.018  -4.730   3.080  1.00  0.00    -0.460 OA
BRANCH  23  24
ATOM     24  C   UNL     1      -4.047  -5.424   3.623  1.00  0.00     0.338 C 
ATOM     25  O   UNL     1      -4.939  -4.991   4.340  1.00  0.00    -0.246 OA
BRANCH  24  26
ATOM     26  C   UNL     1      -4.082  -6.797   3.095  1.00  0.00     0.060 A 
ATOM     27  C   UNL     1      -5.227  -7.191   2.390  1.00  0.00     0.016 A 
ATOM     28  C   UNL     1      -3.080  -7.720   3.400  1.00  0.00     0.016 A 
ATOM     29  C   UNL     1      -5.399  -8.524   2.029  1.00  0.00     0.010 A 
ATOM     30  C   UNL     1      -3.262  -9.063   3.049  1.00  0.00     0.010 A 
ATOM     31  C   UNL     1      -4.440  -9.475   2.399  1.00  0.00    -0.014 A 
BRANCH  31  32
ATOM     32  C   UNL     1      -4.759 -10.915   2.251  1.00  0.00     0.031 A 
ATOM     33  C   UNL     1      -5.306 -11.664   3.435  1.00  0.00     0.074 A 
ATOM     34  C   UNL     1      -4.612 -11.534   1.068  1.00  0.00     0.049 A 
ATOM     35  N   UNL     1      -5.661 -12.921   3.529  1.00  0.00    -0.248 NA
ATOM     36  C   UNL     1      -5.482 -10.894   4.677  1.00  0.00     0.031 C 
ATOM     37  C   UNL     1      -4.142 -10.904  -0.165  1.00  0.00     0.029 A 
ATOM     38  N   UNL     1      -4.852 -12.837   0.713  1.00  0.00    -0.354 N 
ATOM     39  C   UNL     1      -6.098 -13.091   4.837  1.00  0.00     0.074 A 
ATOM     40  C   UNL     1      -5.939 -11.819   5.508  1.00  0.00     0.031 C 
ATOM     41  C   UNL     1      -4.122 -11.826  -1.143  1.00  0.00     0.029 A 
ATOM     42  C   UNL     1      -4.550 -13.113  -0.598  1.00  0.00     0.049 A 
ATOM     43  H   UNL     1      -5.205 -13.511   1.338  1.00  0.00     0.167 HD
ATOM     44  C   UNL     1      -6.591 -14.206   5.427  1.00  0.00     0.031 A 
ATOM     45  C   UNL     1      -4.599 -14.276  -1.275  1.00  0.00     0.031 A 
ATOM     46  C   UNL     1      -6.734 -15.476   4.768  1.00  0.00     0.049 A 
ATOM     47  C   UNL     1      -5.071 -15.521  -0.573  1.00  0.00     0.074 A 
ATOM     48  C   UNL     1      -7.234 -16.661   5.278  1.00  0.00     0.029 A 
ATOM     49  N   UNL     1      -6.367 -15.726   3.456  1.00  0.00    -0.354 N 
ATOM     50  N   UNL     1      -5.503 -15.663   0.657  1.00  0.00    -0.248 NA
ATOM     51  C   UNL     1      -5.066 -16.764  -1.357  1.00  0.00     0.031 C 
ATOM     52  C   UNL     1      -7.120 -17.643   4.288  1.00  0.00     0.029 A 
ATOM     53  C   UNL     1      -6.600 -17.055   3.146  1.00  0.00     0.049 A 
ATOM     54  H   UNL     1      -5.996 -15.058   2.835  1.00  0.00     0.167 HD
ATOM     55  C   UNL     1      -5.841 -17.004   0.787  1.00  0.00     0.074 A 
ATOM     56  C   UNL     1      -5.579 -17.629  -0.493  1.00  0.00     0.031 C 
ATOM     57  C   UNL     1      -6.327 -17.661   1.869  1.00  0.00     0.031 A 
BRANCH  44  58
ATOM     58  C   UNL     1      -6.979 -14.104   6.875  1.00  0.00    -0.014 A 
ATOM     59  C   UNL     1      -8.133 -13.412   7.275  1.00  0.00     0.009 A 
ATOM     60  C   UNL     1      -6.190 -14.731   7.852  1.00  0.00     0.009 A 
ATOM     61  C   UNL     1      -8.471 -13.324   8.627  1.00  0.00     0.001 A 
ATOM     62  C   UNL     1      -6.543 -14.662   9.200  1.00  0.00     0.001 A 
ATOM     63  C   UNL     1      -7.678 -13.951   9.588  1.00  0.00     0.000 A 
ENDBRANCH  44  58
BRANCH  45  64
ATOM     64  C   UNL     1      -4.167 -14.328  -2.695  1.00  0.00    -0.014 A 
ATOM     65  C   UNL     1      -5.100 -14.532  -3.723  1.00  0.00     0.009 A 
ATOM     66  C   UNL     1      -2.810 -14.189  -3.028  1.00  0.00     0.009 A 
ATOM     67  C   UNL     1      -4.680 -14.618  -5.052  1.00  0.00     0.001 A 
ATOM     68  C   UNL     1      -2.396 -14.249  -4.360  1.00  0.00     0.001 A 
ATOM     69  C   UNL     1      -3.330 -14.472  -5.370  1.00  0.00     0.000 A 
ENDBRANCH  45  64
BRANCH  57  70
ATOM     70  C   UNL     1      -6.630 -19.123   1.707  1.00  0.00    -0.014 A 
ATOM     71  C   UNL     1      -5.601 -20.075   1.636  1.00  0.00     0.009 A 
ATOM     72  C   UNL     1      -7.965 -19.557   1.667  1.00  0.00     0.009 A 
ATOM     73  C   UNL     1      -5.904 -21.431   1.497  1.00  0.00     0.001 A 
ATOM     74  C   UNL     1      -8.264 -20.916   1.554  1.00  0.00     0.001 A 
ATOM     75  C   UNL     1      -7.234 -21.850   1.461  1.00  0.00     0.000 A 
ENDBRANCH  57  70
ENDBRANCH  31  32
ENDBRANCH  24  26
ENDBRANCH  23  24
ENDBRANCH  22  23
ENDBRANCH   1  22
TORSDOF 15
