REMARK SMILES O=C(NC1(C(=O)OCCOCCOC(=O)c2ccc(-c3c4nc(c(-c5ccccc5)c5ccc([nH]5)c(-c5ccccc5)c5nc(c(-c6ccccc6)c6ccc3[nH]6)C=C5)C=C4)cc2)CC[NH2+]CC1)OCC1c2ccccc2-c2ccccc21
REMARK SMILES IDX 9 1 8 2 7 3 5 4 6 5 4 6 64 7 68 8 65 9 67 10 66 11 3 14 1 15
REMARK SMILES IDX 2 16 69 18 70 19 71 20 72 21 83 22 73 23 77 24 78 25 82 26
REMARK SMILES IDX 74 27 76 28 79 29 81 30 75 31 80 32 10 33 11 34 12 35 13 36
REMARK SMILES IDX 14 37 15 38 16 39 17 40 63 41 18 42 62 43 19 44 20 45 21 46
REMARK SMILES IDX 56 47 22 48 61 49 55 50 57 51 23 52 60 53 54 54 53 55 24 57
REMARK SMILES IDX 46 58 31 59 45 60 32 61 35 62 44 63 58 64 33 65 34 66 43 68
REMARK SMILES IDX 59 69 36 70 25 71 26 72 30 73 27 74 29 75 28 76 47 77 48 78
REMARK SMILES IDX 52 79 49 80 51 81 50 82 37 83 38 84 42 85 39 86 41 87 40 88
REMARK H PARENT 66 12 66 13 3 17 57 56 35 67
REMARK Flexibility Score: inf
ROOT
ATOM      1  C   UNL     1       5.711  -2.598   2.146  1.00  0.00     0.202 C 
ENDROOT
BRANCH   1   2
ATOM      2  C   UNL     1       6.192  -1.459   1.228  1.00  0.00     0.261 C 
BRANCH   2   3
ATOM      3  O   UNL     1       5.444  -0.264   0.972  1.00  0.00    -0.461 OA
BRANCH   3   4
ATOM      4  C   UNL     1       4.172  -0.400   0.519  1.00  0.00     0.332 C 
ATOM      5  O   UNL     1       3.561  -1.452   0.695  1.00  0.00    -0.249 OA
BRANCH   4   6
ATOM      6  C   UNL     1       3.555   0.965  -0.237  1.00  0.00     0.151 C 
ATOM      7  C   UNL     1       4.159   2.070   1.050  1.00  0.00     0.102 C 
ATOM      8  C   UNL     1       3.615   1.568  -2.101  1.00  0.00     0.102 C 
ATOM      9  C   UNL     1       5.670   2.973   0.748  1.00  0.00     0.263 C 
ATOM     10  C   UNL     1       5.166   2.726  -2.571  1.00  0.00     0.263 C 
ATOM     11  N   UNL     1       6.203   3.376  -0.871  1.00  0.00    -0.346 N 
ATOM     12  H   UNL     1       7.152   3.013  -0.958  1.00  0.00     0.346 HD
ATOM     13  H   UNL     1       6.054   4.385  -0.901  1.00  0.00     0.346 HD
BRANCH   6  14
ATOM     14  N   UNL     1       2.206   0.494  -0.204  1.00  0.00    -0.305 N 
ATOM     15  O   UNL     1       0.709  -0.910  -1.145  1.00  0.00    -0.225 OA
ATOM     16  C   UNL     1       1.870  -0.518  -1.091  1.00  0.00     0.408 C 
ATOM     17  H   UNL     1       1.544   0.870   0.421  1.00  0.00     0.168 HD
BRANCH  16  18
ATOM     18  O   UNL     1       2.833  -0.998  -1.962  1.00  0.00    -0.449 OA
BRANCH  18  19
ATOM     19  C   UNL     1       4.321  -1.225  -1.923  1.00  0.00     0.248 C 
BRANCH  19  20
ATOM     20  C   UNL     1       5.427  -0.045  -1.947  1.00  0.00     0.088 C 
ATOM     21  C   UNL     1       6.912  -0.505  -1.967  1.00  0.00    -0.029 A 
ATOM     22  C   UNL     1       5.526   1.565  -1.099  1.00  0.00    -0.029 A 
ATOM     23  C   UNL     1       7.410  -1.804  -2.001  1.00  0.00     0.005 A 
ATOM     24  C   UNL     1       7.810   0.587  -1.975  1.00  0.00    -0.014 A 
ATOM     25  C   UNL     1       7.102   1.835  -1.908  1.00  0.00    -0.014 A 
ATOM     26  C   UNL     1       4.308   3.119  -0.956  1.00  0.00     0.005 A 
ATOM     27  C   UNL     1       8.791  -2.000  -1.904  1.00  0.00     0.000 A 
ATOM     28  C   UNL     1       9.179   0.397  -1.888  1.00  0.00     0.009 A 
ATOM     29  C   UNL     1       7.403   3.354  -2.698  1.00  0.00     0.009 A 
ATOM     30  C   UNL     1       4.768   4.670  -1.734  1.00  0.00     0.000 A 
ATOM     31  C   UNL     1       9.666  -0.908  -1.836  1.00  0.00     0.001 A 
ATOM     32  C   UNL     1       6.276   4.707  -2.645  1.00  0.00     0.001 A 
ENDBRANCH  19  20
ENDBRANCH  18  19
ENDBRANCH  16  18
ENDBRANCH   6  14
ENDBRANCH   4   6
ENDBRANCH   3   4
ENDBRANCH   2   3
ENDBRANCH   1   2
BRANCH   1  33
ATOM     33  O   UNL     1       4.864  -2.475   3.270  1.00  0.00    -0.374 OA
BRANCH  33  34
ATOM     34  C   UNL     1       4.376  -1.230   3.706  1.00  0.00     0.202 C 
BRANCH  34  35
ATOM     35  C   UNL     1       5.364  -0.347   4.467  1.00  0.00     0.261 C 
BRANCH  35  36
ATOM     36  O   UNL     1       6.677  -0.281   3.894  1.00  0.00    -0.460 OA
BRANCH  36  37
ATOM     37  C   UNL     1       7.540  -1.201   4.391  1.00  0.00     0.338 C 
ATOM     38  O   UNL     1       7.309  -2.060   5.226  1.00  0.00    -0.246 OA
BRANCH  37  39
ATOM     39  C   UNL     1       8.854  -1.090   3.735  1.00  0.00     0.060 A 
ATOM     40  C   UNL     1       9.420  -2.248   3.186  1.00  0.00     0.016 A 
ATOM     41  C   UNL     1       9.586   0.096   3.807  1.00  0.00     0.016 A 
ATOM     42  C   UNL     1      10.753  -2.248   2.784  1.00  0.00     0.010 A 
ATOM     43  C   UNL     1      10.927   0.090   3.416  1.00  0.00     0.010 A 
ATOM     44  C   UNL     1      11.530  -1.097   2.960  1.00  0.00    -0.014 A 
BRANCH  44  45
ATOM     45  C   UNL     1      13.006  -1.187   2.864  1.00  0.00     0.031 A 
ATOM     46  C   UNL     1      13.809  -1.268   4.133  1.00  0.00     0.074 A 
ATOM     47  C   UNL     1      13.626  -1.220   1.673  1.00  0.00     0.049 A 
ATOM     48  N   UNL     1      15.107  -1.287   4.292  1.00  0.00    -0.248 NA
ATOM     49  C   UNL     1      13.045  -1.339   5.390  1.00  0.00     0.031 C 
ATOM     50  C   UNL     1      12.953  -1.225   0.380  1.00  0.00     0.029 A 
ATOM     51  N   UNL     1      14.961  -1.246   1.360  1.00  0.00    -0.354 N 
ATOM     52  C   UNL     1      15.316  -1.360   5.663  1.00  0.00     0.074 A 
ATOM     53  C   UNL     1      14.013  -1.347   6.293  1.00  0.00     0.031 C 
ATOM     54  C   UNL     1      13.877  -1.229  -0.595  1.00  0.00     0.029 A 
ATOM     55  C   UNL     1      15.206  -1.188   0.011  1.00  0.00     0.049 A 
ATOM     56  H   UNL     1      15.674  -1.300   2.037  1.00  0.00     0.167 HD
ATOM     57  C   UNL     1      16.488  -1.437   6.336  1.00  0.00     0.031 A 
ATOM     58  C   UNL     1      16.370  -1.085  -0.658  1.00  0.00     0.031 A 
ATOM     59  C   UNL     1      17.781  -1.431   5.705  1.00  0.00     0.049 A 
ATOM     60  C   UNL     1      17.661  -1.063   0.117  1.00  0.00     0.074 A 
ATOM     61  C   UNL     1      19.029  -1.517   6.296  1.00  0.00     0.029 A 
ATOM     62  N   UNL     1      17.991  -1.321   4.338  1.00  0.00    -0.354 N 
ATOM     63  N   UNL     1      17.848  -1.151   1.412  1.00  0.00    -0.248 NA
ATOM     64  C   UNL     1      18.900  -0.943  -0.664  1.00  0.00     0.031 C 
ATOM     65  C   UNL     1      19.995  -1.389   5.293  1.00  0.00     0.029 A 
ATOM     66  C   UNL     1      19.350  -1.301   4.070  1.00  0.00     0.049 A 
ATOM     67  H   UNL     1      17.280  -1.266   3.660  1.00  0.00     0.167 HD
ATOM     68  C   UNL     1      19.225  -1.135   1.598  1.00  0.00     0.074 A 
ATOM     69  C   UNL     1      19.823  -1.041   0.282  1.00  0.00     0.031 C 
ATOM     70  C   UNL     1      19.930  -1.201   2.755  1.00  0.00     0.031 A 
BRANCH  57  71
ATOM     71  C   UNL     1      16.419  -1.484   7.838  1.00  0.00    -0.014 A 
ATOM     72  C   UNL     1      15.917  -2.606   8.517  1.00  0.00     0.009 A 
ATOM     73  C   UNL     1      16.883  -0.391   8.587  1.00  0.00     0.009 A 
ATOM     74  C   UNL     1      15.844  -2.615   9.912  1.00  0.00     0.001 A 
ATOM     75  C   UNL     1      16.840  -0.416   9.982  1.00  0.00     0.001 A 
ATOM     76  C   UNL     1      16.310  -1.522  10.643  1.00  0.00     0.000 A 
ENDBRANCH  57  71
BRANCH  58  77
ATOM     77  C   UNL     1      16.371  -0.977  -2.141  1.00  0.00    -0.014 A 
ATOM     78  C   UNL     1      16.882  -2.013  -2.936  1.00  0.00     0.009 A 
ATOM     79  C   UNL     1      15.870   0.175  -2.771  1.00  0.00     0.009 A 
ATOM     80  C   UNL     1      16.916  -1.888  -4.327  1.00  0.00     0.001 A 
ATOM     81  C   UNL     1      15.875   0.284  -4.163  1.00  0.00     0.001 A 
ATOM     82  C   UNL     1      16.408  -0.743  -4.939  1.00  0.00     0.000 A 
ENDBRANCH  58  77
BRANCH  70  83
ATOM     83  C   UNL     1      21.431  -1.220   2.646  1.00  0.00    -0.014 A 
ATOM     84  C   UNL     1      22.154  -0.083   2.254  1.00  0.00     0.009 A 
ATOM     85  C   UNL     1      22.134  -2.389   2.981  1.00  0.00     0.009 A 
ATOM     86  C   UNL     1      23.547  -0.129   2.163  1.00  0.00     0.001 A 
ATOM     87  C   UNL     1      23.527  -2.421   2.923  1.00  0.00     0.001 A 
ATOM     88  C   UNL     1      24.232  -1.295   2.503  1.00  0.00     0.000 A 
ENDBRANCH  70  83
ENDBRANCH  44  45
ENDBRANCH  37  39
ENDBRANCH  36  37
ENDBRANCH  35  36
ENDBRANCH  34  35
ENDBRANCH  33  34
ENDBRANCH   1  33
TORSDOF 18
