REMARK SMILES C[C@H](Cc1cccc2c1OC(C)(C)C2)C(=O)OCCOCCOC(=O)c1ccc(-c2c3nc(c(-c4ccccc4)c4ccc([nH]4)c(-c4ccccc4)c4nc(c(-c5ccccc5)c5ccc2[nH]5)C=C4)C=C3)cc1
REMARK SMILES IDX 20 1 19 2 18 3 17 4 15 5 16 6 2 7 1 8 3 9 4 10 5 11 9 12
REMARK SMILES IDX 6 13 8 14 10 15 7 16 14 17 11 18 12 19 13 20 21 21 22 22
REMARK SMILES IDX 23 23 24 24 25 25 26 26 27 27 73 28 28 29 72 30 29 31 30 32
REMARK SMILES IDX 31 33 66 34 32 35 71 36 65 37 67 38 33 39 70 40 64 41 63 42
REMARK SMILES IDX 34 44 56 45 41 46 55 47 42 48 45 49 54 50 68 51 43 52 44 53
REMARK SMILES IDX 53 55 69 56 46 57 35 58 36 59 40 60 37 61 39 62 38 63 57 64
REMARK SMILES IDX 58 65 62 66 59 67 61 68 60 69 47 70 48 71 52 72 49 73 51 74
REMARK SMILES IDX 50 75
REMARK H PARENT 67 43 45 54
REMARK Flexibility Score: inf
ROOT
ATOM      1  O   UNL     1      -3.370   1.735  -0.399  1.00  0.00    -0.374 OA
ENDROOT
BRANCH   1   2
ATOM      2  C   UNL     1      -3.639   0.400  -0.837  1.00  0.00     0.202 C 
BRANCH   2   3
ATOM      3  C   UNL     1      -2.816  -0.077  -2.033  1.00  0.00     0.261 C 
BRANCH   3   4
ATOM      4  O   UNL     1      -1.443  -0.219  -1.641  1.00  0.00    -0.463 OA
BRANCH   4   5
ATOM      5  C   UNL     1      -0.515   0.272  -2.497  1.00  0.00     0.309 C 
ATOM      6  O   UNL     1      -0.769   0.717  -3.612  1.00  0.00    -0.252 OA
BRANCH   5   7
ATOM      7  C   UNL     1       0.883   0.328  -1.891  1.00  0.00     0.100 C 
ATOM      8  C   UNL     1       1.929  -0.124  -2.914  1.00  0.00     0.020 C 
BRANCH   7   9
ATOM      9  C   UNL     1       1.091  -0.274  -0.483  1.00  0.00     0.054 C 
BRANCH   9  10
ATOM     10  C   UNL     1       0.728  -1.693  -0.124  1.00  0.00    -0.005 A 
ATOM     11  C   UNL     1       0.695  -2.051   1.239  1.00  0.00     0.007 A 
ATOM     12  C   UNL     1       0.430  -2.699  -1.026  1.00  0.00     0.126 A 
ATOM     13  C   UNL     1       0.354  -3.350   1.651  1.00  0.00     0.001 A 
ATOM     14  C   UNL     1       0.078  -3.980  -0.625  1.00  0.00    -0.002 A 
ATOM     15  O   UNL     1       0.424  -2.540  -2.381  1.00  0.00    -0.487 OA
ATOM     16  C   UNL     1       0.027  -4.325   0.713  1.00  0.00     0.008 A 
ATOM     17  C   UNL     1      -0.252  -4.809  -1.809  1.00  0.00     0.087 C 
ATOM     18  C   UNL     1       0.165  -3.850  -2.944  1.00  0.00     0.108 C 
ATOM     19  C   UNL     1       1.453  -4.308  -3.634  1.00  0.00     0.057 C 
ATOM     20  C   UNL     1      -0.953  -3.668  -3.971  1.00  0.00     0.057 C 
ENDBRANCH   9  10
ENDBRANCH   7   9
ENDBRANCH   5   7
ENDBRANCH   4   5
ENDBRANCH   3   4
ENDBRANCH   2   3
ENDBRANCH   1   2
BRANCH   1  21
ATOM     21  C   UNL     1      -2.149   1.958   0.304  1.00  0.00     0.202 C 
BRANCH  21  22
ATOM     22  C   UNL     1      -2.147   1.575   1.789  1.00  0.00     0.261 C 
BRANCH  22  23
ATOM     23  O   UNL     1      -2.349   0.167   2.001  1.00  0.00    -0.460 OA
BRANCH  23  24
ATOM     24  C   UNL     1      -3.561  -0.156   2.508  1.00  0.00     0.338 C 
ATOM     25  O   UNL     1      -4.441   0.615   2.872  1.00  0.00    -0.246 OA
BRANCH  24  26
ATOM     26  C   UNL     1      -3.785  -1.612   2.451  1.00  0.00     0.060 A 
ATOM     27  C   UNL     1      -4.997  -2.055   1.908  1.00  0.00     0.016 A 
ATOM     28  C   UNL     1      -2.889  -2.521   3.017  1.00  0.00     0.016 A 
ATOM     29  C   UNL     1      -5.352  -3.399   1.995  1.00  0.00     0.010 A 
ATOM     30  C   UNL     1      -3.245  -3.872   3.101  1.00  0.00     0.010 A 
ATOM     31  C   UNL     1      -4.500  -4.306   2.638  1.00  0.00    -0.014 A 
BRANCH  31  32
ATOM     32  C   UNL     1      -5.019  -5.649   2.997  1.00  0.00     0.031 A 
ATOM     33  C   UNL     1      -5.516  -5.882   4.400  1.00  0.00     0.074 A 
ATOM     34  C   UNL     1      -5.113  -6.629   2.082  1.00  0.00     0.049 A 
ATOM     35  N   UNL     1      -6.049  -6.957   4.925  1.00  0.00    -0.248 NA
ATOM     36  C   UNL     1      -5.395  -4.751   5.334  1.00  0.00     0.031 C 
ATOM     37  C   UNL     1      -4.714  -6.522   0.680  1.00  0.00     0.029 A 
ATOM     38  N   UNL     1      -5.592  -7.910   2.202  1.00  0.00    -0.354 N 
ATOM     39  C   UNL     1      -6.317  -6.634   6.250  1.00  0.00     0.074 A 
ATOM     40  C   UNL     1      -5.858  -5.277   6.457  1.00  0.00     0.031 C 
ATOM     41  C   UNL     1      -4.979  -7.687   0.064  1.00  0.00     0.029 A 
ATOM     42  C   UNL     1      -5.540  -8.627   1.033  1.00  0.00     0.049 A 
ATOM     43  H   UNL     1      -5.939  -8.279   3.046  1.00  0.00     0.167 HD
ATOM     44  C   UNL     1      -6.901  -7.390   7.210  1.00  0.00     0.031 A 
ATOM     45  C   UNL     1      -5.903  -9.899   0.775  1.00  0.00     0.031 A 
ATOM     46  C   UNL     1      -7.357  -8.739   7.014  1.00  0.00     0.049 A 
ATOM     47  C   UNL     1      -6.491 -10.743   1.873  1.00  0.00     0.074 A 
ATOM     48  C   UNL     1      -7.977  -9.581   7.921  1.00  0.00     0.029 A 
ATOM     49  N   UNL     1      -7.237  -9.446   5.829  1.00  0.00    -0.354 N 
ATOM     50  N   UNL     1      -6.759 -10.418   3.114  1.00  0.00    -0.248 NA
ATOM     51  C   UNL     1      -6.836 -12.130   1.526  1.00  0.00     0.031 C 
ATOM     52  C   UNL     1      -8.188 -10.816   7.297  1.00  0.00     0.029 A 
ATOM     53  C   UNL     1      -7.748 -10.723   5.986  1.00  0.00     0.049 A 
ATOM     54  H   UNL     1      -6.846  -9.092   4.997  1.00  0.00     0.167 HD
ATOM     55  C   UNL     1      -7.333 -11.547   3.687  1.00  0.00     0.074 A 
ATOM     56  C   UNL     1      -7.379 -12.563   2.656  1.00  0.00     0.031 C 
ATOM     57  C   UNL     1      -7.788 -11.724   4.952  1.00  0.00     0.031 A 
BRANCH  44  58
ATOM     58  C   UNL     1      -7.039  -6.775   8.574  1.00  0.00    -0.014 A 
ATOM     59  C   UNL     1      -7.963  -5.747   8.823  1.00  0.00     0.009 A 
ATOM     60  C   UNL     1      -6.230  -7.231   9.626  1.00  0.00     0.009 A 
ATOM     61  C   UNL     1      -8.043  -5.160  10.088  1.00  0.00     0.001 A 
ATOM     62  C   UNL     1      -6.332  -6.662  10.896  1.00  0.00     0.001 A 
ATOM     63  C   UNL     1      -7.229  -5.619  11.123  1.00  0.00     0.000 A 
ENDBRANCH  44  58
BRANCH  45  64
ATOM     64  C   UNL     1      -5.728 -10.455  -0.591  1.00  0.00    -0.014 A 
ATOM     65  C   UNL     1      -6.841 -10.703  -1.408  1.00  0.00     0.009 A 
ATOM     66  C   UNL     1      -4.446 -10.750  -1.080  1.00  0.00     0.009 A 
ATOM     67  C   UNL     1      -6.675 -11.253  -2.681  1.00  0.00     0.001 A 
ATOM     68  C   UNL     1      -4.281 -11.277  -2.363  1.00  0.00     0.001 A 
ATOM     69  C   UNL     1      -5.395 -11.534  -3.159  1.00  0.00     0.000 A 
ENDBRANCH  45  64
BRANCH  57  70
ATOM     70  C   UNL     1      -8.413 -13.050   5.282  1.00  0.00    -0.014 A 
ATOM     71  C   UNL     1      -7.634 -14.207   5.440  1.00  0.00     0.009 A 
ATOM     72  C   UNL     1      -9.801 -13.132   5.479  1.00  0.00     0.009 A 
ATOM     73  C   UNL     1      -8.239 -15.426   5.755  1.00  0.00     0.001 A 
ATOM     74  C   UNL     1     -10.398 -14.346   5.820  1.00  0.00     0.001 A 
ATOM     75  C   UNL     1      -9.618 -15.494   5.949  1.00  0.00     0.000 A 
ENDBRANCH  57  70
ENDBRANCH  31  32
ENDBRANCH  24  26
ENDBRANCH  23  24
ENDBRANCH  22  23
ENDBRANCH  21  22
ENDBRANCH   1  21
TORSDOF 16
