REMARK SMILES C[C@@H]1CC[C@H](C)[N@H+]1Cc1cc2c(cc1Cl)C=C(C(=O)OCCOCCOC(=O)c1ccc(-c3c4nc(c(-c5ccccc5)c5ccc([nH]5)c(-c5ccccc5)c5nc(c(-c6ccccc6)c6ccc3[nH]6)C=C5)C=C4)cc1)[C@@H](C(F)(F)F)O2
REMARK SMILES IDX 23 1 22 2 21 3 20 4 18 5 19 6 17 7 9 8 10 9 14 10 11 11
REMARK SMILES IDX 13 12 15 13 12 14 82 15 16 16 77 17 8 18 7 19 6 20 5 21 4 22
REMARK SMILES IDX 3 23 2 24 1 26 78 27 79 28 80 29 81 30 24 31 25 32 26 33
REMARK SMILES IDX 27 34 28 35 29 36 30 37 76 38 31 39 75 40 32 41 33 42 34 43
REMARK SMILES IDX 69 44 35 45 74 46 68 47 70 48 36 49 73 50 67 51 66 52 37 54
REMARK SMILES IDX 59 55 44 56 58 57 45 58 48 59 57 60 71 61 46 62 47 63 56 65
REMARK SMILES IDX 72 66 49 67 38 68 39 69 43 70 40 71 42 72 41 73 60 74 61 75
REMARK SMILES IDX 65 76 62 77 64 78 63 79 50 80 51 81 55 82 52 83 54 84 53 85
REMARK H PARENT 7 25 70 53 48 64
REMARK Flexibility Score: inf
ROOT
ATOM      1  O   UNL     1      -6.073  -0.535   8.652  1.00  0.00    -0.374 OA
ENDROOT
BRANCH   1   2
ATOM      2  C   UNL     1      -7.370  -0.946   8.233  1.00  0.00     0.202 C 
BRANCH   2   3
ATOM      3  C   UNL     1      -8.039  -0.171   7.093  1.00  0.00     0.261 C 
BRANCH   3   4
ATOM      4  O   UNL     1      -7.218  -0.119   5.917  1.00  0.00    -0.460 OA
BRANCH   4   5
ATOM      5  C   UNL     1      -6.742   1.119   5.648  1.00  0.00     0.338 C 
ATOM      6  O   UNL     1      -7.058   2.159   6.204  1.00  0.00    -0.246 OA
BRANCH   5   7
ATOM      7  C   UNL     1      -5.659   1.050   4.655  1.00  0.00     0.087 C 
ATOM      8  C   UNL     1      -1.845   2.563   1.773  1.00  0.00     0.029 A 
ATOM      9  C   UNL     1      -2.737   1.462   1.717  1.00  0.00     0.058 A 
ATOM     10  C   UNL     1      -1.970   3.447   2.858  1.00  0.00     0.050 A 
ATOM     11  C   UNL     1      -3.675   1.239   2.730  1.00  0.00     0.128 A 
ATOM     12  C   UNL     1      -2.806   3.143   3.930  1.00  0.00     0.033 A 
ATOM     13  Cl  UNL     1      -1.264   5.026   2.897  1.00  0.00    -0.084 Cl
ATOM     14  C   UNL     1      -3.662   2.050   3.861  1.00  0.00     0.019 A 
ATOM     15  O   UNL     1      -4.576   0.220   2.564  1.00  0.00    -0.475 OA
ATOM     16  C   UNL     1      -4.623   1.852   4.920  1.00  0.00     0.027 C 
ATOM     17  C   UNL     1      -5.780   0.234   3.400  1.00  0.00     0.316 C 
BRANCH   8  18
ATOM     18  C   UNL     1      -0.821   2.750   0.663  1.00  0.00     0.301 C 
BRANCH  18  19
ATOM     19  N   UNL     1       0.538   2.224   0.897  1.00  0.00    -0.327 N 
ATOM     20  C   UNL     1       0.988   0.034  -0.163  1.00  0.00     0.075 C 
ATOM     21  C   UNL     1       0.633   0.772   1.122  1.00  0.00     0.181 C 
ATOM     22  C   UNL     1       1.715   0.594   2.187  1.00  0.00     0.071 C 
ATOM     23  C   UNL     1       1.628   1.877   2.982  1.00  0.00     0.071 C 
ATOM     24  C   UNL     1       1.325   2.923   1.920  1.00  0.00     0.181 C 
ATOM     25  H   UNL     1       0.958   2.425  -0.011  1.00  0.00     0.348 HD
ATOM     26  C   UNL     1       2.588   3.512   1.293  1.00  0.00     0.075 C 
ENDBRANCH  18  19
ENDBRANCH   8  18
BRANCH  17  27
ATOM     27  C   UNL     1      -7.004   0.655   2.571  1.00  0.00     0.430 C 
ATOM     28  F   UNL     1      -7.092  -0.053   1.421  1.00  0.00    -0.167 F 
ATOM     29  F   UNL     1      -8.155   0.433   3.251  1.00  0.00    -0.167 F 
ATOM     30  F   UNL     1      -6.974   1.966   2.245  1.00  0.00    -0.167 F 
ENDBRANCH  17  27
ENDBRANCH   5   7
ENDBRANCH   4   5
ENDBRANCH   3   4
ENDBRANCH   2   3
ENDBRANCH   1   2
BRANCH   1  31
ATOM     31  C   UNL     1      -4.954  -0.825   7.817  1.00  0.00     0.202 C 
BRANCH  31  32
ATOM     32  C   UNL     1      -4.523  -2.287   7.636  1.00  0.00     0.261 C 
BRANCH  32  33
ATOM     33  O   UNL     1      -5.515  -3.092   6.976  1.00  0.00    -0.460 OA
BRANCH  33  34
ATOM     34  C   UNL     1      -6.110  -4.024   7.761  1.00  0.00     0.338 C 
ATOM     35  O   UNL     1      -5.882  -4.258   8.939  1.00  0.00    -0.246 OA
BRANCH  34  36
ATOM     36  C   UNL     1      -7.252  -4.607   7.037  1.00  0.00     0.060 A 
ATOM     37  C   UNL     1      -7.072  -5.270   5.824  1.00  0.00     0.016 A 
ATOM     38  C   UNL     1      -8.524  -4.513   7.618  1.00  0.00     0.016 A 
ATOM     39  C   UNL     1      -8.174  -5.856   5.197  1.00  0.00     0.010 A 
ATOM     40  C   UNL     1      -9.623  -5.095   6.988  1.00  0.00     0.010 A 
ATOM     41  C   UNL     1      -9.453  -5.784   5.779  1.00  0.00    -0.014 A 
BRANCH  41  42
ATOM     42  C   UNL     1     -10.594  -6.515   5.177  1.00  0.00     0.031 A 
ATOM     43  C   UNL     1     -11.685  -5.788   4.450  1.00  0.00     0.074 A 
ATOM     44  C   UNL     1     -10.640  -7.855   5.303  1.00  0.00     0.049 A 
ATOM     45  N   UNL     1     -12.722  -6.284   3.823  1.00  0.00    -0.248 NA
ATOM     46  C   UNL     1     -11.608  -4.319   4.417  1.00  0.00     0.031 C 
ATOM     47  C   UNL     1      -9.638  -8.666   5.997  1.00  0.00     0.029 A 
ATOM     48  N   UNL     1     -11.552  -8.773   4.842  1.00  0.00    -0.354 N 
ATOM     49  C   UNL     1     -13.407  -5.195   3.302  1.00  0.00     0.074 A 
ATOM     50  C   UNL     1     -12.699  -4.007   3.729  1.00  0.00     0.031 C 
ATOM     51  C   UNL     1      -9.965  -9.961   5.878  1.00  0.00     0.029 A 
ATOM     52  C   UNL     1     -11.221 -10.073   5.140  1.00  0.00     0.049 A 
ATOM     53  H   UNL     1     -12.364  -8.523   4.346  1.00  0.00     0.167 HD
ATOM     54  C   UNL     1     -14.512  -5.194   2.520  1.00  0.00     0.031 A 
ATOM     55  C   UNL     1     -11.851 -11.228   4.848  1.00  0.00     0.031 A 
ATOM     56  C   UNL     1     -15.221  -6.381   2.117  1.00  0.00     0.049 A 
ATOM     57  C   UNL     1     -13.123 -11.188   4.045  1.00  0.00     0.074 A 
ATOM     58  C   UNL     1     -16.342  -6.473   1.310  1.00  0.00     0.029 A 
ATOM     59  N   UNL     1     -14.888  -7.674   2.488  1.00  0.00    -0.354 N 
ATOM     60  N   UNL     1     -13.725 -10.155   3.508  1.00  0.00    -0.248 NA
ATOM     61  C   UNL     1     -13.797 -12.471   3.795  1.00  0.00     0.031 C 
ATOM     62  C   UNL     1     -16.732  -7.811   1.255  1.00  0.00     0.029 A 
ATOM     63  C   UNL     1     -15.802  -8.566   1.952  1.00  0.00     0.049 A 
ATOM     64  H   UNL     1     -14.117  -7.921   3.049  1.00  0.00     0.167 HD
ATOM     65  C   UNL     1     -14.824 -10.665   2.829  1.00  0.00     0.074 A 
ATOM     66  C   UNL     1     -14.801 -12.101   3.011  1.00  0.00     0.031 C 
ATOM     67  C   UNL     1     -15.765  -9.997   2.119  1.00  0.00     0.031 A 
BRANCH  54  68
ATOM     68  C   UNL     1     -15.034  -3.874   2.019  1.00  0.00    -0.014 A 
ATOM     69  C   UNL     1     -16.300  -3.419   2.423  1.00  0.00     0.009 A 
ATOM     70  C   UNL     1     -14.339  -3.158   1.032  1.00  0.00     0.009 A 
ATOM     71  C   UNL     1     -16.872  -2.293   1.828  1.00  0.00     0.001 A 
ATOM     72  C   UNL     1     -14.901  -2.013   0.462  1.00  0.00     0.001 A 
ATOM     73  C   UNL     1     -16.172  -1.591   0.849  1.00  0.00     0.000 A 
ENDBRANCH  54  68
BRANCH  55  74
ATOM     74  C   UNL     1     -11.257 -12.522   5.284  1.00  0.00    -0.014 A 
ATOM     75  C   UNL     1     -11.147 -12.841   6.648  1.00  0.00     0.009 A 
ATOM     76  C   UNL     1     -10.760 -13.430   4.337  1.00  0.00     0.009 A 
ATOM     77  C   UNL     1     -10.530 -14.027   7.054  1.00  0.00     0.001 A 
ATOM     78  C   UNL     1     -10.177 -14.633   4.745  1.00  0.00     0.001 A 
ATOM     79  C   UNL     1     -10.052 -14.925   6.102  1.00  0.00     0.000 A 
ENDBRANCH  55  74
BRANCH  67  80
ATOM     80  C   UNL     1     -16.851 -10.790   1.442  1.00  0.00    -0.014 A 
ATOM     81  C   UNL     1     -16.928 -10.800   0.038  1.00  0.00     0.009 A 
ATOM     82  C   UNL     1     -17.876 -11.399   2.180  1.00  0.00     0.009 A 
ATOM     83  C   UNL     1     -18.023 -11.373  -0.610  1.00  0.00     0.001 A 
ATOM     84  C   UNL     1     -18.953 -12.003   1.527  1.00  0.00     0.001 A 
ATOM     85  C   UNL     1     -19.034 -11.975   0.135  1.00  0.00     0.000 A 
ENDBRANCH  67  80
ENDBRANCH  41  42
ENDBRANCH  34  36
ENDBRANCH  33  34
ENDBRANCH  32  33
ENDBRANCH  31  32
ENDBRANCH   1  31
TORSDOF 17
