REMARK SMILES CC1(C)C[C@@H]([NH2+]C[C@@H]2CCCC[C@@H]2C(=O)OCCOCCOC(=O)c2ccc(-c3c4nc(c(-c5ccccc5)c5ccc([nH]5)c(-c5ccccc5)c5nc(c(-c6ccccc6)c6ccc3[nH]6)C=C5)C=C4)cc2)C(C)(C)O1
REMARK SMILES IDX 18 1 17 2 16 3 14 4 15 5 13 6 8 7 9 8 10 9 12 10 11 11 7 12
REMARK SMILES IDX 6 13 5 16 1 17 2 18 3 19 4 20 76 21 73 22 74 23 75 24 19 25
REMARK SMILES IDX 20 26 21 27 22 28 23 29 24 30 25 31 26 32 72 33 27 34 71 35
REMARK SMILES IDX 28 36 29 37 30 38 65 39 31 40 70 41 64 42 66 43 32 44 69 45
REMARK SMILES IDX 63 46 62 47 33 49 55 50 40 51 54 52 41 53 44 54 53 55 67 56
REMARK SMILES IDX 42 57 43 58 52 60 68 61 45 62 34 63 35 64 39 65 36 66 38 67
REMARK SMILES IDX 37 68 56 69 57 70 61 71 58 72 60 73 59 74 46 75 47 76 51 77
REMARK SMILES IDX 48 78 50 79 49 80
REMARK H PARENT 6 14 6 15 66 48 44 59
REMARK Flexibility Score: inf
ROOT
ATOM      1  C   UNL     1      -3.867  -3.069   0.318  1.00  0.00     0.202 C 
ENDROOT
BRANCH   1   2
ATOM      2  C   UNL     1      -2.782  -3.142   1.395  1.00  0.00     0.261 C 
BRANCH   2   3
ATOM      3  O   UNL     1      -1.464  -3.024   0.829  1.00  0.00    -0.463 OA
BRANCH   3   4
ATOM      4  C   UNL     1      -0.602  -4.073   0.985  1.00  0.00     0.309 C 
ATOM      5  O   UNL     1      -0.901  -5.166   1.433  1.00  0.00    -0.252 OA
BRANCH   4   6
ATOM      6  C   UNL     1       0.799  -3.618   0.577  1.00  0.00     0.108 C 
ATOM      7  C   UNL     1       1.565  -4.454  -0.468  1.00  0.00     0.058 C 
ATOM      8  C   UNL     1       1.806  -5.866   0.094  1.00  0.00     0.010 C 
ATOM      9  C   UNL     1       2.566  -5.819   1.426  1.00  0.00     0.001 C 
ATOM     10  C   UNL     1       1.712  -3.427   1.785  1.00  0.00     0.016 C 
ATOM     11  C   UNL     1       2.093  -4.755   2.424  1.00  0.00     0.001 C 
BRANCH   7  12
ATOM     12  C   UNL     1       0.998  -4.464  -1.898  1.00  0.00     0.265 C 
BRANCH  12  13
ATOM     13  N   UNL     1       0.232  -3.294  -2.279  1.00  0.00    -0.341 N 
ATOM     14  H   UNL     1      -0.327  -3.579  -3.083  1.00  0.00     0.346 HD
ATOM     15  H   UNL     1      -0.209  -3.055  -1.391  1.00  0.00     0.346 HD
BRANCH  13  16
ATOM     16  C   UNL     1       0.828  -2.004  -2.648  1.00  0.00     0.217 C 
ATOM     17  C   UNL     1       1.322   1.004  -0.678  1.00  0.00     0.042 C 
ATOM     18  C   UNL     1       1.526   0.245  -1.999  1.00  0.00     0.069 C 
ATOM     19  C   UNL     1       2.604   0.926  -2.828  1.00  0.00     0.042 C 
ATOM     20  C   UNL     1       1.813  -1.250  -1.758  1.00  0.00     0.103 C 
ATOM     21  O   UNL     1       0.323   0.343  -2.773  1.00  0.00    -0.363 OA
ATOM     22  C   UNL     1      -0.298  -0.947  -2.838  1.00  0.00     0.115 C 
ATOM     23  C   UNL     1      -1.340  -0.934  -1.711  1.00  0.00     0.048 C 
ATOM     24  C   UNL     1      -0.948  -1.110  -4.210  1.00  0.00     0.048 C 
ENDBRANCH  13  16
ENDBRANCH  12  13
ENDBRANCH   7  12
ENDBRANCH   4   6
ENDBRANCH   3   4
ENDBRANCH   2   3
ENDBRANCH   1   2
BRANCH   1  25
ATOM     25  O   UNL     1      -4.050  -4.279  -0.418  1.00  0.00    -0.374 OA
BRANCH  25  26
ATOM     26  C   UNL     1      -3.180  -4.460  -1.534  1.00  0.00     0.202 C 
BRANCH  26  27
ATOM     27  C   UNL     1      -3.728  -3.929  -2.870  1.00  0.00     0.261 C 
BRANCH  27  28
ATOM     28  O   UNL     1      -3.848  -2.491  -2.895  1.00  0.00    -0.460 OA
BRANCH  28  29
ATOM     29  C   UNL     1      -5.076  -1.986  -2.636  1.00  0.00     0.338 C 
ATOM     30  O   UNL     1      -6.111  -2.618  -2.487  1.00  0.00    -0.246 OA
BRANCH  29  31
ATOM     31  C   UNL     1      -4.982  -0.531  -2.366  1.00  0.00     0.060 A 
ATOM     32  C   UNL     1      -5.642  -0.038  -1.237  1.00  0.00     0.016 A 
ATOM     33  C   UNL     1      -4.299   0.354  -3.202  1.00  0.00     0.016 A 
ATOM     34  C   UNL     1      -5.664   1.335  -0.976  1.00  0.00     0.010 A 
ATOM     35  C   UNL     1      -4.258   1.723  -2.900  1.00  0.00     0.010 A 
ATOM     36  C   UNL     1      -5.002   2.236  -1.825  1.00  0.00    -0.014 A 
BRANCH  36  37
ATOM     37  C   UNL     1      -5.281   3.697  -1.704  1.00  0.00     0.031 A 
ATOM     38  C   UNL     1      -6.105   4.372  -2.780  1.00  0.00     0.074 A 
ATOM     39  C   UNL     1      -4.892   4.409  -0.626  1.00  0.00     0.049 A 
ATOM     40  N   UNL     1      -6.548   5.604  -2.837  1.00  0.00    -0.248 NA
ATOM     41  C   UNL     1      -6.478   3.554  -3.947  1.00  0.00     0.031 C 
ATOM     42  C   UNL     1      -4.100   3.897   0.492  1.00  0.00     0.029 A 
ATOM     43  N   UNL     1      -5.130   5.722  -0.290  1.00  0.00    -0.354 N 
ATOM     44  C   UNL     1      -7.232   5.704  -4.044  1.00  0.00     0.074 A 
ATOM     45  C   UNL     1      -7.107   4.431  -4.713  1.00  0.00     0.031 C 
ATOM     46  C   UNL     1      -3.939   4.877   1.401  1.00  0.00     0.029 A 
ATOM     47  C   UNL     1      -4.591   6.093   0.920  1.00  0.00     0.049 A 
ATOM     48  H   UNL     1      -5.639   6.339  -0.863  1.00  0.00     0.167 HD
ATOM     49  C   UNL     1      -7.929   6.749  -4.549  1.00  0.00     0.031 A 
ATOM     50  C   UNL     1      -4.620   7.277   1.567  1.00  0.00     0.031 A 
ATOM     51  C   UNL     1      -8.086   8.014  -3.887  1.00  0.00     0.049 A 
ATOM     52  C   UNL     1      -5.368   8.439   0.960  1.00  0.00     0.074 A 
ATOM     53  C   UNL     1      -8.820   9.113  -4.299  1.00  0.00     0.029 A 
ATOM     54  N   UNL     1      -7.498   8.350  -2.680  1.00  0.00    -0.354 N 
ATOM     55  N   UNL     1      -6.074   8.486  -0.144  1.00  0.00    -0.248 NA
ATOM     56  C   UNL     1      -5.334   9.711   1.700  1.00  0.00     0.031 C 
ATOM     57  C   UNL     1      -8.622  10.140  -3.373  1.00  0.00     0.029 A 
ATOM     58  C   UNL     1      -7.824   9.654  -2.350  1.00  0.00     0.049 A 
ATOM     59  H   UNL     1      -6.934   7.753  -2.139  1.00  0.00     0.167 HD
ATOM     60  C   UNL     1      -6.597   9.774  -0.207  1.00  0.00     0.074 A 
ATOM     61  C   UNL     1      -6.144  10.471   0.977  1.00  0.00     0.031 C 
ATOM     62  C   UNL     1      -7.381  10.332  -1.161  1.00  0.00     0.031 A 
BRANCH  49  63
ATOM     63  C   UNL     1      -8.572   6.580  -5.898  1.00  0.00    -0.014 A 
ATOM     64  C   UNL     1      -9.697   5.760  -6.075  1.00  0.00     0.009 A 
ATOM     65  C   UNL     1      -8.083   7.310  -6.993  1.00  0.00     0.009 A 
ATOM     66  C   UNL     1     -10.306   5.658  -7.327  1.00  0.00     0.001 A 
ATOM     67  C   UNL     1      -8.712   7.229  -8.236  1.00  0.00     0.001 A 
ATOM     68  C   UNL     1      -9.819   6.399  -8.403  1.00  0.00     0.000 A 
ENDBRANCH  49  63
BRANCH  50  69
ATOM     69  C   UNL     1      -3.909   7.455   2.866  1.00  0.00    -0.014 A 
ATOM     70  C   UNL     1      -4.618   7.729   4.047  1.00  0.00     0.009 A 
ATOM     71  C   UNL     1      -2.506   7.431   2.914  1.00  0.00     0.009 A 
ATOM     72  C   UNL     1      -3.938   8.022   5.233  1.00  0.00     0.001 A 
ATOM     73  C   UNL     1      -1.830   7.688   4.109  1.00  0.00     0.001 A 
ATOM     74  C   UNL     1      -2.545   7.999   5.264  1.00  0.00     0.000 A 
ENDBRANCH  50  69
BRANCH  62  75
ATOM     75  C   UNL     1      -7.848  11.745  -0.946  1.00  0.00    -0.014 A 
ATOM     76  C   UNL     1      -6.964  12.832  -1.033  1.00  0.00     0.009 A 
ATOM     77  C   UNL     1      -9.209  11.995  -0.706  1.00  0.00     0.009 A 
ATOM     78  C   UNL     1      -7.428  14.136  -0.847  1.00  0.00     0.001 A 
ATOM     79  C   UNL     1      -9.676  13.301  -0.555  1.00  0.00     0.001 A 
ATOM     80  C   UNL     1      -8.784  14.369  -0.615  1.00  0.00     0.000 A 
ENDBRANCH  62  75
ENDBRANCH  36  37
ENDBRANCH  29  31
ENDBRANCH  28  29
ENDBRANCH  27  28
ENDBRANCH  26  27
ENDBRANCH  25  26
ENDBRANCH   1  25
TORSDOF 17
