REMARK SMILES Cc1ccc2[nH]cc([C@@H](C(=O)OCCOCCOC(=O)c3ccc(-c4c5nc(c(-c6ccccc6)c6ccc([nH]6)c(-c6ccccc6)c6nc(c(-c7ccccc7)c7ccc4[nH]7)C=C6)C=C5)cc3)[NH+]3CCN(c4ccc(F)cc4)CC3)c2c1
REMARK SMILES IDX 15 1 14 2 13 3 12 4 10 5 11 6 9 7 8 8 1 9 2 10 3 11 83 12
REMARK SMILES IDX 4 13 82 14 5 15 6 16 7 17 69 19 70 20 81 21 71 23 80 24
REMARK SMILES IDX 72 25 73 26 74 27 79 28 75 29 78 30 76 31 77 32 16 33 17 34
REMARK SMILES IDX 18 35 19 36 20 37 21 38 22 39 68 40 23 41 67 42 24 43 25 44
REMARK SMILES IDX 26 45 61 46 27 47 66 48 60 49 62 50 28 51 65 52 59 53 58 54
REMARK SMILES IDX 29 56 51 57 36 58 50 59 37 60 40 61 49 62 63 63 38 64 39 65
REMARK SMILES IDX 48 67 64 68 41 69 30 70 31 71 35 72 32 73 34 74 33 75 52 76
REMARK SMILES IDX 53 77 57 78 54 79 56 80 55 81 42 82 43 83 47 84 44 85 46 86
REMARK SMILES IDX 45 87
REMARK H PARENT 6 18 69 22 62 55 40 66
REMARK Flexibility Score: inf
ROOT
ATOM      1  O   UNL     1      -5.214  -3.552   3.247  1.00  0.00    -0.374 OA
ENDROOT
BRANCH   1   2
ATOM      2  C   UNL     1      -4.000  -3.546   3.997  1.00  0.00     0.202 C 
BRANCH   2   3
ATOM      3  C   UNL     1      -2.746  -4.066   3.287  1.00  0.00     0.261 C 
BRANCH   3   4
ATOM      4  O   UNL     1      -2.267  -3.185   2.247  1.00  0.00    -0.459 OA
BRANCH   4   5
ATOM      5  C   UNL     1      -2.209  -3.733   0.997  1.00  0.00     0.370 C 
ATOM      6  O   UNL     1      -2.581  -4.881   0.754  1.00  0.00    -0.245 OA
BRANCH   5   7
ATOM      7  C   UNL     1      -1.578  -2.822  -0.079  1.00  0.00     0.328 C 
BRANCH   7   8
ATOM      8  C   UNL     1      -1.348  -1.364   0.247  1.00  0.00     0.046 A 
ATOM      9  C   UNL     1       3.740  -0.756  -0.084  1.00  0.00     0.044 C 
ATOM     10  C   UNL     1       2.333  -0.247   0.037  1.00  0.00    -0.050 A 
ATOM     11  C   UNL     1       2.068   1.121   0.136  1.00  0.00     0.005 A 
ATOM     12  C   UNL     1       1.268  -1.164   0.063  1.00  0.00     0.014 A 
ATOM     13  C   UNL     1       0.765   1.599   0.306  1.00  0.00     0.027 A 
ATOM     14  C   UNL     1      -0.060  -0.712   0.232  1.00  0.00     0.009 A 
ATOM     15  C   UNL     1      -0.270   0.659   0.376  1.00  0.00     0.046 A 
ATOM     16  N   UNL     1      -1.616   0.837   0.575  1.00  0.00    -0.361 N 
ATOM     17  C   UNL     1      -2.261  -0.372   0.561  1.00  0.00     0.094 A 
ATOM     18  H   UNL     1      -2.055   1.708   0.709  1.00  0.00     0.166 HD
ENDBRANCH   7   8
BRANCH   7  19
ATOM     19  N   UNL     1      -2.235  -3.026  -1.393  1.00  0.00    -0.316 N 
ATOM     20  C   UNL     1      -3.667  -2.752  -1.538  1.00  0.00     0.284 C 
ATOM     21  C   UNL     1      -1.476  -2.611  -2.577  1.00  0.00     0.284 C 
ATOM     22  H   UNL     1      -2.205  -4.045  -1.358  1.00  0.00     0.349 HD
ATOM     23  C   UNL     1      -4.076  -1.383  -2.131  1.00  0.00     0.178 C 
ATOM     24  C   UNL     1      -1.796  -1.203  -3.123  1.00  0.00     0.178 C 
ATOM     25  N   UNL     1      -3.248  -1.017  -3.284  1.00  0.00    -0.360 N 
BRANCH  25  26
ATOM     26  C   UNL     1      -3.609   0.132  -3.986  1.00  0.00     0.037 A 
ATOM     27  C   UNL     1      -3.806   1.371  -3.359  1.00  0.00     0.029 A 
ATOM     28  C   UNL     1      -3.756   0.056  -5.378  1.00  0.00     0.029 A 
ATOM     29  C   UNL     1      -4.158   2.501  -4.102  1.00  0.00     0.041 A 
ATOM     30  C   UNL     1      -4.112   1.181  -6.124  1.00  0.00     0.041 A 
ATOM     31  C   UNL     1      -4.311   2.393  -5.478  1.00  0.00     0.123 A 
ATOM     32  F   UNL     1      -4.651   3.474  -6.190  1.00  0.00    -0.207 F 
ENDBRANCH  25  26
ENDBRANCH   7  19
ENDBRANCH   5   7
ENDBRANCH   4   5
ENDBRANCH   3   4
ENDBRANCH   2   3
ENDBRANCH   1   2
BRANCH   1  33
ATOM     33  C   UNL     1      -5.314  -2.636   2.159  1.00  0.00     0.202 C 
BRANCH  33  34
ATOM     34  C   UNL     1      -5.520  -1.170   2.547  1.00  0.00     0.261 C 
BRANCH  34  35
ATOM     35  O   UNL     1      -4.389  -0.670   3.280  1.00  0.00    -0.460 OA
BRANCH  35  36
ATOM     36  C   UNL     1      -4.711   0.044   4.378  1.00  0.00     0.338 C 
ATOM     37  O   UNL     1      -5.813   0.497   4.671  1.00  0.00    -0.246 OA
BRANCH  36  38
ATOM     38  C   UNL     1      -3.582   0.070   5.319  1.00  0.00     0.060 A 
ATOM     39  C   UNL     1      -3.727  -0.643   6.514  1.00  0.00     0.016 A 
ATOM     40  C   UNL     1      -2.466   0.881   5.102  1.00  0.00     0.016 A 
ATOM     41  C   UNL     1      -2.790  -0.490   7.532  1.00  0.00     0.010 A 
ATOM     42  C   UNL     1      -1.529   1.041   6.131  1.00  0.00     0.010 A 
ATOM     43  C   UNL     1      -1.716   0.396   7.367  1.00  0.00    -0.014 A 
BRANCH  43  44
ATOM     44  C   UNL     1      -0.920   0.772   8.562  1.00  0.00     0.031 A 
ATOM     45  C   UNL     1      -1.288   2.022   9.319  1.00  0.00     0.074 A 
ATOM     46  C   UNL     1       0.055  -0.028   9.026  1.00  0.00     0.049 A 
ATOM     47  N   UNL     1      -0.798   2.487  10.440  1.00  0.00    -0.248 NA
ATOM     48  C   UNL     1      -2.357   2.851   8.738  1.00  0.00     0.031 C 
ATOM     49  C   UNL     1       0.482  -1.285   8.415  1.00  0.00     0.029 A 
ATOM     50  N   UNL     1       0.851   0.096  10.138  1.00  0.00    -0.354 N 
ATOM     51  C   UNL     1      -1.502   3.657  10.701  1.00  0.00     0.074 A 
ATOM     52  C   UNL     1      -2.427   3.849   9.606  1.00  0.00     0.031 C 
ATOM     53  C   UNL     1       1.459  -1.823   9.166  1.00  0.00     0.029 A 
ATOM     54  C   UNL     1       1.736  -0.941  10.298  1.00  0.00     0.049 A 
ATOM     55  H   UNL     1       0.793   0.856  10.761  1.00  0.00     0.167 HD
ATOM     56  C   UNL     1      -1.398   4.492  11.762  1.00  0.00     0.031 A 
ATOM     57  C   UNL     1       2.665  -1.155  11.250  1.00  0.00     0.031 A 
ATOM     58  C   UNL     1      -0.471   4.319  12.848  1.00  0.00     0.049 A 
ATOM     59  C   UNL     1       2.808  -0.175  12.384  1.00  0.00     0.074 A 
ATOM     60  C   UNL     1      -0.298   5.111  13.970  1.00  0.00     0.029 A 
ATOM     61  N   UNL     1       0.445   3.284  12.943  1.00  0.00    -0.354 N 
ATOM     62  N   UNL     1       2.113   0.908  12.635  1.00  0.00    -0.248 NA
ATOM     63  C   UNL     1       3.857  -0.460  13.375  1.00  0.00     0.031 C 
ATOM     64  C   UNL     1       0.757   4.581  14.720  1.00  0.00     0.029 A 
ATOM     65  C   UNL     1       1.204   3.430  14.091  1.00  0.00     0.049 A 
ATOM     66  H   UNL     1       0.542   2.553  12.290  1.00  0.00     0.167 HD
ATOM     67  C   UNL     1       2.622   1.418  13.824  1.00  0.00     0.074 A 
ATOM     68  C   UNL     1       3.674   0.518  14.251  1.00  0.00     0.031 C 
ATOM     69  C   UNL     1       2.249   2.530  14.503  1.00  0.00     0.031 A 
BRANCH  56  70
ATOM     70  C   UNL     1      -2.299   5.694  11.781  1.00  0.00    -0.014 A 
ATOM     71  C   UNL     1      -3.672   5.571  12.050  1.00  0.00     0.009 A 
ATOM     72  C   UNL     1      -1.763   6.971  11.554  1.00  0.00     0.009 A 
ATOM     73  C   UNL     1      -4.494   6.699  12.059  1.00  0.00     0.001 A 
ATOM     74  C   UNL     1      -2.583   8.100  11.588  1.00  0.00     0.001 A 
ATOM     75  C   UNL     1      -3.948   7.963  11.832  1.00  0.00     0.000 A 
ENDBRANCH  56  70
BRANCH  57  76
ATOM     76  C   UNL     1       3.544  -2.350  11.175  1.00  0.00    -0.014 A 
ATOM     77  C   UNL     1       3.406  -3.403  12.091  1.00  0.00     0.009 A 
ATOM     78  C   UNL     1       4.545  -2.430  10.194  1.00  0.00     0.009 A 
ATOM     79  C   UNL     1       4.268  -4.501  12.041  1.00  0.00     0.001 A 
ATOM     80  C   UNL     1       5.388  -3.540  10.130  1.00  0.00     0.001 A 
ATOM     81  C   UNL     1       5.255  -4.570  11.059  1.00  0.00     0.000 A 
ENDBRANCH  57  76
BRANCH  69  82
ATOM     82  C   UNL     1       2.960   2.819  15.795  1.00  0.00    -0.014 A 
ATOM     83  C   UNL     1       4.283   3.287  15.810  1.00  0.00     0.009 A 
ATOM     84  C   UNL     1       2.283   2.654  17.013  1.00  0.00     0.009 A 
ATOM     85  C   UNL     1       4.925   3.550  17.023  1.00  0.00     0.001 A 
ATOM     86  C   UNL     1       2.918   2.942  18.222  1.00  0.00     0.001 A 
ATOM     87  C   UNL     1       4.241   3.381  18.227  1.00  0.00     0.000 A 
ENDBRANCH  69  82
ENDBRANCH  43  44
ENDBRANCH  36  38
ENDBRANCH  35  36
ENDBRANCH  34  35
ENDBRANCH  33  34
ENDBRANCH   1  33
TORSDOF 17
