REMARK SMILES Cc1c(CCC(=O)NCC(=O)OCCOCCOC(=O)c2ccc(-c3c4nc(c(-c5ccccc5)c5ccc([nH]5)c(-c5ccccc5)c5nc(c(-c6ccccc6)c6ccc3[nH]6)C=C5)C=C4)cc2)c(=O)oc2cc(O)ccc12
REMARK SMILES IDX 13 1 12 2 10 3 11 4 9 5 8 6 6 7 7 8 5 10 4 11 3 12 1 13 2 14
REMARK SMILES IDX 78 15 69 16 72 17 77 18 70 19 71 20 73 21 76 22 74 23 75 24
REMARK SMILES IDX 14 26 15 27 16 28 17 29 18 30 19 31 20 32 21 33 22 34 68 35
REMARK SMILES IDX 23 36 67 37 24 38 25 39 26 40 61 41 27 42 66 43 60 44 62 45
REMARK SMILES IDX 28 46 65 47 59 48 58 49 29 51 51 52 36 53 50 54 37 55 40 56
REMARK SMILES IDX 49 57 63 58 38 59 39 60 48 62 64 63 41 64 30 65 31 66 35 67
REMARK SMILES IDX 32 68 34 69 33 70 52 71 53 72 57 73 54 74 56 75 55 76 42 77
REMARK SMILES IDX 43 78 47 79 44 80 46 81 45 82
REMARK H PARENT 8 9 75 25 62 50 40 61
REMARK Flexibility Score: inf
ROOT
ATOM      1  C   UNL     1       0.666   2.688  -1.337  1.00  0.00     0.261 C 
ENDROOT
BRANCH   1   2
ATOM      2  O   UNL     1       0.078   3.167  -0.086  1.00  0.00    -0.462 OA
BRANCH   2   3
ATOM      3  C   UNL     1       0.274   2.570   1.122  1.00  0.00     0.325 C 
ATOM      4  O   UNL     1       1.357   2.139   1.499  1.00  0.00    -0.250 OA
BRANCH   3   5
ATOM      5  C   UNL     1      -1.036   2.367   1.931  1.00  0.00     0.238 C 
BRANCH   5   6
ATOM      6  N   UNL     1      -2.222   3.041   1.408  1.00  0.00    -0.345 N 
ATOM      7  C   UNL     1      -3.491   2.599   1.185  1.00  0.00     0.220 C 
ATOM      8  O   UNL     1      -4.270   3.382   0.636  1.00  0.00    -0.275 OA
ATOM      9  H   UNL     1      -2.078   3.986   1.175  1.00  0.00     0.164 HD
BRANCH   7  10
ATOM     10  C   UNL     1      -3.961   1.212   1.608  1.00  0.00     0.105 C 
BRANCH  10  11
ATOM     11  C   UNL     1      -4.103   0.182   0.467  1.00  0.00     0.053 C 
BRANCH  11  12
ATOM     12  C   UNL     1      -2.840  -0.626   0.204  1.00  0.00     0.042 A 
ATOM     13  C   UNL     1      -1.966   1.023  -1.399  1.00  0.00     0.046 C 
ATOM     14  C   UNL     1      -1.782  -0.155  -0.482  1.00  0.00    -0.030 A 
ATOM     15  C   UNL     1      -0.516  -0.915  -0.366  1.00  0.00     0.021 A 
ATOM     16  C   UNL     1      -2.843  -2.067   0.600  1.00  0.00     0.339 A 
ATOM     17  C   UNL     1      -0.582  -2.282  -0.185  1.00  0.00     0.142 A 
ATOM     18  C   UNL     1       0.768  -0.382  -0.254  1.00  0.00     0.016 A 
ATOM     19  O   UNL     1      -3.774  -2.553   1.233  1.00  0.00    -0.246 OA
ATOM     20  O   UNL     1      -1.826  -2.872   0.084  1.00  0.00    -0.422 OA
ATOM     21  C   UNL     1       0.565  -3.094  -0.120  1.00  0.00     0.094 A 
ATOM     22  C   UNL     1       1.938  -1.139  -0.137  1.00  0.00     0.047 A 
ATOM     23  C   UNL     1       1.827  -2.509  -0.116  1.00  0.00     0.119 A 
BRANCH  23  24
ATOM     24  O   UNL     1       2.934  -3.293  -0.025  1.00  0.00    -0.508 OA
ATOM     25  H   UNL     1       2.848  -4.226  -0.011  1.00  0.00     0.293 HD
ENDBRANCH  23  24
ENDBRANCH  11  12
ENDBRANCH  10  11
ENDBRANCH   7  10
ENDBRANCH   5   6
ENDBRANCH   3   5
ENDBRANCH   2   3
ENDBRANCH   1   2
BRANCH   1  26
ATOM     26  C   UNL     1       2.171   2.570  -1.603  1.00  0.00     0.202 C 
BRANCH  26  27
ATOM     27  O   UNL     1       2.946   3.752  -1.609  1.00  0.00    -0.374 OA
BRANCH  27  28
ATOM     28  C   UNL     1       2.704   4.615  -0.518  1.00  0.00     0.202 C 
BRANCH  28  29
ATOM     29  C   UNL     1       1.735   5.754  -0.877  1.00  0.00     0.261 C 
BRANCH  29  30
ATOM     30  O   UNL     1       0.738   5.451  -1.879  1.00  0.00    -0.460 OA
BRANCH  30  31
ATOM     31  C   UNL     1       1.162   5.404  -3.164  1.00  0.00     0.338 C 
ATOM     32  O   UNL     1       2.297   5.654  -3.577  1.00  0.00    -0.246 OA
BRANCH  31  33
ATOM     33  C   UNL     1       0.085   4.943  -4.072  1.00  0.00     0.060 A 
ATOM     34  C   UNL     1       0.374   3.981  -5.053  1.00  0.00     0.016 A 
ATOM     35  C   UNL     1      -1.174   5.549  -4.043  1.00  0.00     0.016 A 
ATOM     36  C   UNL     1      -0.541   3.725  -6.080  1.00  0.00     0.010 A 
ATOM     37  C   UNL     1      -2.085   5.298  -5.075  1.00  0.00     0.010 A 
ATOM     38  C   UNL     1      -1.742   4.443  -6.139  1.00  0.00    -0.014 A 
BRANCH  38  39
ATOM     39  C   UNL     1      -2.519   4.506  -7.407  1.00  0.00     0.031 A 
ATOM     40  C   UNL     1      -2.344   5.718  -8.293  1.00  0.00     0.074 A 
ATOM     41  C   UNL     1      -3.358   3.523  -7.779  1.00  0.00     0.049 A 
ATOM     42  N   UNL     1      -2.970   6.045  -9.395  1.00  0.00    -0.248 NA
ATOM     43  C   UNL     1      -1.327   6.696  -7.870  1.00  0.00     0.031 C 
ATOM     44  C   UNL     1      -3.581   2.279  -7.047  1.00  0.00     0.029 A 
ATOM     45  N   UNL     1      -4.191   3.429  -8.867  1.00  0.00    -0.354 N 
ATOM     46  C   UNL     1      -2.439   7.272  -9.781  1.00  0.00     0.074 A 
ATOM     47  C   UNL     1      -1.459   7.643  -8.786  1.00  0.00     0.031 C 
ATOM     48  C   UNL     1      -4.503   1.550  -7.700  1.00  0.00     0.029 A 
ATOM     49  C   UNL     1      -4.965   2.294  -8.871  1.00  0.00     0.049 A 
ATOM     50  H   UNL     1      -4.231   4.111  -9.577  1.00  0.00     0.167 HD
ATOM     51  C   UNL     1      -2.738   8.024 -10.868  1.00  0.00     0.031 A 
ATOM     52  C   UNL     1      -5.952   1.913  -9.706  1.00  0.00     0.031 A 
ATOM     53  C   UNL     1      -3.718   7.659 -11.855  1.00  0.00     0.049 A 
ATOM     54  C   UNL     1      -6.322   2.801 -10.867  1.00  0.00     0.074 A 
ATOM     55  C   UNL     1      -4.081   8.339 -13.005  1.00  0.00     0.029 A 
ATOM     56  N   UNL     1      -4.498   6.514 -11.803  1.00  0.00    -0.354 N 
ATOM     57  N   UNL     1      -5.798   3.947 -11.233  1.00  0.00    -0.248 NA
ATOM     58  C   UNL     1      -7.418   2.339 -11.733  1.00  0.00     0.031 C 
ATOM     59  C   UNL     1      -5.127   7.638 -13.613  1.00  0.00     0.029 A 
ATOM     60  C   UNL     1      -5.365   6.485 -12.882  1.00  0.00     0.049 A 
ATOM     61  H   UNL     1      -4.444   5.824 -11.103  1.00  0.00     0.167 HD
ATOM     62  C   UNL     1      -6.477   4.326 -12.385  1.00  0.00     0.074 A 
ATOM     63  C   UNL     1      -7.440   3.281 -12.666  1.00  0.00     0.031 C 
ATOM     64  C   UNL     1      -6.318   5.437 -13.145  1.00  0.00     0.031 A 
BRANCH  51  65
ATOM     65  C   UNL     1      -2.026   9.342 -11.023  1.00  0.00    -0.014 A 
ATOM     66  C   UNL     1      -0.658   9.410 -11.333  1.00  0.00     0.009 A 
ATOM     67  C   UNL     1      -2.748  10.540 -10.891  1.00  0.00     0.009 A 
ATOM     68  C   UNL     1      -0.022  10.647 -11.470  1.00  0.00     0.001 A 
ATOM     69  C   UNL     1      -2.117  11.774 -11.059  1.00  0.00     0.001 A 
ATOM     70  C   UNL     1      -0.753  11.827 -11.338  1.00  0.00     0.000 A 
ENDBRANCH  51  65
BRANCH  52  71
ATOM     71  C   UNL     1      -6.687   0.642  -9.462  1.00  0.00    -0.014 A 
ATOM     72  C   UNL     1      -6.568  -0.441 -10.347  1.00  0.00     0.009 A 
ATOM     73  C   UNL     1      -7.529   0.510  -8.345  1.00  0.00     0.009 A 
ATOM     74  C   UNL     1      -7.290  -1.617 -10.131  1.00  0.00     0.001 A 
ATOM     75  C   UNL     1      -8.224  -0.678  -8.113  1.00  0.00     0.001 A 
ATOM     76  C   UNL     1      -8.112  -1.738  -9.011  1.00  0.00     0.000 A 
ENDBRANCH  52  71
BRANCH  64  77
ATOM     77  C   UNL     1      -7.173   5.563 -14.377  1.00  0.00    -0.014 A 
ATOM     78  C   UNL     1      -8.549   5.824 -14.290  1.00  0.00     0.009 A 
ATOM     79  C   UNL     1      -6.579   5.466 -15.645  1.00  0.00     0.009 A 
ATOM     80  C   UNL     1      -9.318   5.949 -15.450  1.00  0.00     0.001 A 
ATOM     81  C   UNL     1      -7.343   5.624 -16.802  1.00  0.00     0.001 A 
ATOM     82  C   UNL     1      -8.714   5.855 -16.703  1.00  0.00     0.000 A 
ENDBRANCH  64  77
ENDBRANCH  38  39
ENDBRANCH  31  33
ENDBRANCH  30  31
ENDBRANCH  29  30
ENDBRANCH  28  29
ENDBRANCH  27  28
ENDBRANCH  26  27
ENDBRANCH   1  26
TORSDOF 19
