REMARK SMILES Cc1ccc([C@@]23C[C@@H]4C[C@@H](C[C@@](C(=O)N5CCC(C(=O)OCCOCCOC(=O)c6ccc(-c7c8nc(c(-c9ccccc9)c9ccc([nH]9)c(-c9ccccc9)c9nc(c(-c%10ccccc%10)c%10ccc7[nH]%10)C=C9)C=C8)cc6)CC5)(C4)C2)C3)cc1
REMARK SMILES IDX 24 1 23 2 22 3 21 4 19 5 20 6 18 7 13 8 14 9 15 10 16 11
REMARK SMILES IDX 79 12 17 13 78 14 12 15 6 16 7 17 81 18 82 19 8 20 10 21
REMARK SMILES IDX 9 22 80 23 11 24 5 25 1 26 2 27 3 28 84 29 4 30 83 31 25 32
REMARK SMILES IDX 26 33 27 34 28 35 29 36 30 37 31 38 77 39 32 40 76 41 33 42
REMARK SMILES IDX 34 43 35 44 70 45 36 46 75 47 69 48 71 49 37 50 74 51 68 52
REMARK SMILES IDX 67 53 38 55 60 56 45 57 59 58 46 59 49 60 58 61 72 62 47 63
REMARK SMILES IDX 48 64 57 66 73 67 50 68 39 69 40 70 44 71 41 72 43 73 42 74
REMARK SMILES IDX 61 75 62 76 66 77 63 78 65 79 64 80 51 81 52 82 56 83 53 84
REMARK SMILES IDX 55 85 54 86
REMARK H PARENT 71 54 49 65
REMARK Flexibility Score: inf
ROOT
ATOM      1  O   UNL     1      -6.572  -3.152  -6.825  1.00  0.00    -0.374 OA
ENDROOT
BRANCH   1   2
ATOM      2  C   UNL     1      -7.385  -2.341  -5.995  1.00  0.00     0.202 C 
BRANCH   2   3
ATOM      3  C   UNL     1      -8.091  -3.292  -5.090  1.00  0.00     0.261 C 
BRANCH   3   4
ATOM      4  O   UNL     1      -7.238  -3.776  -4.048  1.00  0.00    -0.463 OA
BRANCH   4   5
ATOM      5  C   UNL     1      -6.314  -4.752  -4.335  1.00  0.00     0.309 C 
ATOM      6  O   UNL     1      -6.341  -5.552  -5.239  1.00  0.00    -0.252 OA
BRANCH   5   7
ATOM      7  C   UNL     1      -5.194  -4.624  -3.330  1.00  0.00     0.103 C 
ATOM      8  C   UNL     1      -5.619  -2.397  -0.077  1.00  0.00     0.228 C 
ATOM      9  O   UNL     1      -6.524  -2.891   0.598  1.00  0.00    -0.274 OA
ATOM     10  N   UNL     1      -4.809  -3.181  -0.918  1.00  0.00    -0.342 N 
ATOM     11  C   UNL     1      -4.865  -4.626  -0.803  1.00  0.00     0.120 C 
ATOM     12  C   UNL     1      -4.042  -2.749  -2.097  1.00  0.00     0.120 C 
ATOM     13  C   UNL     1      -5.657  -5.179  -1.972  1.00  0.00     0.037 C 
ATOM     14  C   UNL     1      -4.799  -3.137  -3.332  1.00  0.00     0.037 C 
BRANCH   8  15
ATOM     15  C   UNL     1      -5.286  -0.899   0.044  1.00  0.00     0.051 C 
ATOM     16  C   UNL     1      -3.165   0.543   0.215  1.00  0.00    -0.003 C 
ATOM     17  C   UNL     1      -3.660   1.218  -1.101  1.00  0.00     0.015 C 
ATOM     18  C   UNL     1      -3.775  -0.851   0.296  1.00  0.00     0.028 C 
ATOM     19  C   UNL     1      -3.768   1.295   1.427  1.00  0.00     0.015 C 
ATOM     20  C   UNL     1      -5.198   1.308  -1.159  1.00  0.00    -0.009 C 
ATOM     21  C   UNL     1      -5.320   1.284   1.349  1.00  0.00    -0.009 C 
ATOM     22  C   UNL     1      -5.729   2.046   0.078  1.00  0.00     0.007 C 
ATOM     23  C   UNL     1      -5.785  -0.105  -1.180  1.00  0.00     0.020 C 
ATOM     24  C   UNL     1      -5.884  -0.169   1.279  1.00  0.00     0.020 C 
BRANCH  16  25
ATOM     25  C   UNL     1      -1.627   0.431   0.223  1.00  0.00    -0.042 A 
ATOM     26  C   UNL     1       2.698   0.100  -0.029  1.00  0.00     0.044 C 
ATOM     27  C   UNL     1       1.209   0.234   0.057  1.00  0.00    -0.051 A 
ATOM     28  C   UNL     1       0.434  -0.914   0.141  1.00  0.00     0.004 A 
ATOM     29  C   UNL     1       0.571   1.479   0.063  1.00  0.00     0.004 A 
ATOM     30  C   UNL     1      -0.952  -0.813   0.239  1.00  0.00     0.004 A 
ATOM     31  C   UNL     1      -0.827   1.577   0.142  1.00  0.00     0.004 A 
ENDBRANCH  16  25
ENDBRANCH   8  15
ENDBRANCH   5   7
ENDBRANCH   4   5
ENDBRANCH   3   4
ENDBRANCH   2   3
ENDBRANCH   1   2
BRANCH   1  32
ATOM     32  C   UNL     1      -5.890  -2.476  -7.861  1.00  0.00     0.202 C 
BRANCH  32  33
ATOM     33  C   UNL     1      -6.824  -1.695  -8.798  1.00  0.00     0.261 C 
BRANCH  33  34
ATOM     34  O   UNL     1      -7.757  -2.608  -9.416  1.00  0.00    -0.460 OA
BRANCH  34  35
ATOM     35  C   UNL     1      -9.049  -2.547  -8.990  1.00  0.00     0.338 C 
ATOM     36  O   UNL     1      -9.690  -1.523  -8.813  1.00  0.00    -0.246 OA
BRANCH  35  37
ATOM     37  C   UNL     1      -9.468  -3.886  -8.474  1.00  0.00     0.060 A 
ATOM     38  C   UNL     1     -10.641  -4.007  -7.703  1.00  0.00     0.016 A 
ATOM     39  C   UNL     1      -8.525  -4.910  -8.462  1.00  0.00     0.016 A 
ATOM     40  C   UNL     1     -10.783  -5.067  -6.791  1.00  0.00     0.010 A 
ATOM     41  C   UNL     1      -8.625  -5.893  -7.500  1.00  0.00     0.010 A 
ATOM     42  C   UNL     1      -9.725  -5.958  -6.625  1.00  0.00    -0.014 A 
BRANCH  42  43
ATOM     43  C   UNL     1      -9.547  -6.897  -5.509  1.00  0.00     0.031 A 
ATOM     44  C   UNL     1      -9.366  -8.324  -5.840  1.00  0.00     0.074 A 
ATOM     45  C   UNL     1      -9.259  -6.472  -4.250  1.00  0.00     0.049 A 
ATOM     46  N   UNL     1      -9.342  -9.253  -4.955  1.00  0.00    -0.248 NA
ATOM     47  C   UNL     1      -9.224  -8.849  -7.199  1.00  0.00     0.031 C 
ATOM     48  C   UNL     1      -8.600  -7.188  -3.153  1.00  0.00     0.029 A 
ATOM     49  N   UNL     1      -9.541  -5.241  -3.660  1.00  0.00    -0.354 N 
ATOM     50  C   UNL     1      -8.791 -10.360  -5.542  1.00  0.00     0.074 A 
ATOM     51  C   UNL     1      -8.890 -10.120  -6.957  1.00  0.00     0.031 C 
ATOM     52  C   UNL     1      -8.829  -6.546  -1.991  1.00  0.00     0.029 A 
ATOM     53  C   UNL     1      -9.703  -5.424  -2.284  1.00  0.00     0.049 A 
ATOM     54  H   UNL     1      -9.615  -4.383  -4.136  1.00  0.00     0.167 HD
ATOM     55  C   UNL     1      -8.177 -11.265  -4.734  1.00  0.00     0.031 A 
ATOM     56  C   UNL     1     -10.874  -5.080  -1.696  1.00  0.00     0.031 A 
ATOM     57  C   UNL     1      -8.440 -10.969  -3.312  1.00  0.00     0.049 A 
ATOM     58  C   UNL     1     -11.507  -6.369  -1.254  1.00  0.00     0.074 A 
ATOM     59  C   UNL     1      -7.654 -10.579  -2.241  1.00  0.00     0.029 A 
ATOM     60  N   UNL     1      -9.764 -10.737  -2.913  1.00  0.00    -0.354 N 
ATOM     61  N   UNL     1     -11.200  -7.524  -1.793  1.00  0.00    -0.248 NA
ATOM     62  C   UNL     1     -12.344  -6.507  -0.071  1.00  0.00     0.031 C 
ATOM     63  C   UNL     1      -8.519 -10.011  -1.248  1.00  0.00     0.029 A 
ATOM     64  C   UNL     1      -9.833 -10.090  -1.692  1.00  0.00     0.049 A 
ATOM     65  H   UNL     1     -10.552 -11.003  -3.439  1.00  0.00     0.167 HD
ATOM     66  C   UNL     1     -11.567  -8.524  -0.947  1.00  0.00     0.074 A 
ATOM     67  C   UNL     1     -12.356  -7.845   0.075  1.00  0.00     0.031 C 
ATOM     68  C   UNL     1     -11.136  -9.815  -1.068  1.00  0.00     0.031 A 
BRANCH  55  69
ATOM     69  C   UNL     1      -7.196 -12.302  -5.244  1.00  0.00    -0.014 A 
ATOM     70  C   UNL     1      -6.627 -13.227  -4.354  1.00  0.00     0.009 A 
ATOM     71  C   UNL     1      -6.733 -12.381  -6.576  1.00  0.00     0.009 A 
ATOM     72  C   UNL     1      -5.686 -14.184  -4.776  1.00  0.00     0.001 A 
ATOM     73  C   UNL     1      -5.824 -13.355  -7.013  1.00  0.00     0.001 A 
ATOM     74  C   UNL     1      -5.298 -14.260  -6.109  1.00  0.00     0.000 A 
ENDBRANCH  55  69
BRANCH  56  75
ATOM     75  C   UNL     1     -11.430  -3.820  -2.291  1.00  0.00    -0.014 A 
ATOM     76  C   UNL     1     -10.707  -2.628  -2.013  1.00  0.00     0.009 A 
ATOM     77  C   UNL     1     -12.233  -3.829  -3.440  1.00  0.00     0.009 A 
ATOM     78  C   UNL     1     -10.680  -1.553  -2.916  1.00  0.00     0.001 A 
ATOM     79  C   UNL     1     -12.203  -2.746  -4.343  1.00  0.00     0.001 A 
ATOM     80  C   UNL     1     -11.402  -1.629  -4.102  1.00  0.00     0.000 A 
ENDBRANCH  56  75
BRANCH  68  81
ATOM     81  C   UNL     1     -11.946 -10.986  -0.575  1.00  0.00    -0.014 A 
ATOM     82  C   UNL     1     -13.263 -10.883  -0.109  1.00  0.00     0.009 A 
ATOM     83  C   UNL     1     -11.445 -12.291  -0.771  1.00  0.00     0.009 A 
ATOM     84  C   UNL     1     -14.024 -12.018   0.180  1.00  0.00     0.001 A 
ATOM     85  C   UNL     1     -12.225 -13.425  -0.554  1.00  0.00     0.001 A 
ATOM     86  C   UNL     1     -13.513 -13.287  -0.063  1.00  0.00     0.000 A 
ENDBRANCH  68  81
ENDBRANCH  42  43
ENDBRANCH  35  37
ENDBRANCH  34  35
ENDBRANCH  33  34
ENDBRANCH  32  33
ENDBRANCH   1  32
TORSDOF 16
