REMARK SMILES CC[C@]1(C(=O)OCCOCCOC(=O)c2ccc(-c3c4nc(c(-c5ccccc5)c5ccc([nH]5)c(-c5ccccc5)c5nc(c(-c6ccccc6)c6ccc3[nH]6)C=C5)C=C4)cc2)CCN(C(=O)[C@]2(C)CCCO2)C1
REMARK SMILES IDX 9 1 8 2 7 3 6 4 4 5 5 6 3 7 63 8 74 9 64 10 65 11 2 12 1 13
REMARK SMILES IDX 66 14 67 15 68 16 70 17 73 18 69 19 71 20 72 21 10 22 11 23
REMARK SMILES IDX 12 24 13 25 14 26 15 27 16 28 62 29 17 30 61 31 18 32 19 33
REMARK SMILES IDX 20 34 55 35 21 36 60 37 54 38 56 39 22 40 59 41 53 42 52 43
REMARK SMILES IDX 23 45 45 46 30 47 44 48 31 49 34 50 43 51 57 52 32 53 33 54
REMARK SMILES IDX 42 56 58 57 35 58 24 59 25 60 29 61 26 62 28 63 27 64 46 65
REMARK SMILES IDX 47 66 51 67 48 68 50 69 49 70 36 71 37 72 41 73 38 74 40 75
REMARK SMILES IDX 39 76
REMARK H PARENT 56 44 34 55
REMARK Flexibility Score: inf
ROOT
ATOM      1  O   UNL     1      -5.929 -12.159  -3.615  1.00  0.00    -0.374 OA
ENDROOT
BRANCH   1   2
ATOM      2  C   UNL     1      -5.219 -12.167  -2.376  1.00  0.00     0.202 C 
BRANCH   2   3
ATOM      3  C   UNL     1      -3.699 -12.012  -2.465  1.00  0.00     0.261 C 
BRANCH   3   4
ATOM      4  O   UNL     1      -3.368 -10.698  -2.945  1.00  0.00    -0.463 OA
BRANCH   4   5
ATOM      5  C   UNL     1      -2.556 -10.645  -4.033  1.00  0.00     0.314 C 
ATOM      6  O   UNL     1      -1.945 -11.610  -4.473  1.00  0.00    -0.252 OA
BRANCH   5   7
ATOM      7  C   UNL     1      -2.489  -9.245  -4.646  1.00  0.00     0.087 C 
ATOM      8  C   UNL     1      -3.621  -8.287  -4.199  1.00  0.00     0.042 C 
ATOM      9  C   UNL     1      -1.250  -8.548  -4.067  1.00  0.00     0.138 C 
ATOM     10  C   UNL     1      -2.983  -6.913  -4.273  1.00  0.00     0.121 C 
ATOM     11  N   UNL     1      -1.615  -7.146  -3.886  1.00  0.00    -0.339 N 
BRANCH   7  12
ATOM     12  C   UNL     1      -2.571  -9.353  -6.195  1.00  0.00     0.017 C 
ATOM     13  C   UNL     1      -1.355  -9.904  -6.927  1.00  0.00     0.005 C 
ENDBRANCH   7  12
BRANCH  11  14
ATOM     14  C   UNL     1      -0.710  -6.244  -3.361  1.00  0.00     0.254 C 
ATOM     15  O   UNL     1       0.322  -6.663  -2.825  1.00  0.00    -0.272 OA
BRANCH  14  16
ATOM     16  C   UNL     1      -0.977  -4.710  -3.502  1.00  0.00     0.144 C 
ATOM     17  C   UNL     1      -2.189  -4.160  -2.748  1.00  0.00     0.048 C 
ATOM     18  O   UNL     1      -1.171  -4.420  -4.899  1.00  0.00    -0.365 OA
ATOM     19  C   UNL     1       0.278  -3.950  -3.041  1.00  0.00     0.053 C 
ATOM     20  C   UNL     1      -3.105  -3.581  -3.806  1.00  0.00     0.032 C 
ATOM     21  C   UNL     1      -2.282  -3.548  -5.071  1.00  0.00     0.162 C 
ENDBRANCH  14  16
ENDBRANCH  11  14
ENDBRANCH   5   7
ENDBRANCH   4   5
ENDBRANCH   3   4
ENDBRANCH   2   3
ENDBRANCH   1   2
BRANCH   1  22
ATOM     22  C   UNL     1      -6.114 -10.898  -4.255  1.00  0.00     0.202 C 
BRANCH  22  23
ATOM     23  C   UNL     1      -7.203  -9.982  -3.677  1.00  0.00     0.261 C 
BRANCH  23  24
ATOM     24  O   UNL     1      -6.921  -9.566  -2.328  1.00  0.00    -0.460 OA
BRANCH  24  25
ATOM     25  C   UNL     1      -7.768 -10.066  -1.392  1.00  0.00     0.338 C 
ATOM     26  O   UNL     1      -8.765 -10.740  -1.575  1.00  0.00    -0.246 OA
BRANCH  25  27
ATOM     27  C   UNL     1      -7.213  -9.828  -0.046  1.00  0.00     0.060 A 
ATOM     28  C   UNL     1      -6.908 -10.948   0.739  1.00  0.00     0.016 A 
ATOM     29  C   UNL     1      -7.054  -8.539   0.464  1.00  0.00     0.016 A 
ATOM     30  C   UNL     1      -6.450 -10.782   2.045  1.00  0.00     0.010 A 
ATOM     31  C   UNL     1      -6.612  -8.376   1.781  1.00  0.00     0.010 A 
ATOM     32  C   UNL     1      -6.322  -9.495   2.582  1.00  0.00    -0.014 A 
BRANCH  32  33
ATOM     33  C   UNL     1      -5.968  -9.319   4.011  1.00  0.00     0.031 A 
ATOM     34  C   UNL     1      -7.056  -9.068   5.016  1.00  0.00     0.074 A 
ATOM     35  C   UNL     1      -4.685  -9.390   4.407  1.00  0.00     0.049 A 
ATOM     36  N   UNL     1      -6.955  -8.800   6.293  1.00  0.00    -0.248 NA
ATOM     37  C   UNL     1      -8.440  -9.131   4.519  1.00  0.00     0.031 C 
ATOM     38  C   UNL     1      -3.545  -9.684   3.539  1.00  0.00     0.029 A 
ATOM     39  N   UNL     1      -4.125  -9.205   5.647  1.00  0.00    -0.354 N 
ATOM     40  C   UNL     1      -8.259  -8.665   6.753  1.00  0.00     0.074 A 
ATOM     41  C   UNL     1      -9.133  -8.855   5.615  1.00  0.00     0.031 C 
ATOM     42  C   UNL     1      -2.418  -9.637   4.270  1.00  0.00     0.029 A 
ATOM     43  C   UNL     1      -2.753  -9.271   5.644  1.00  0.00     0.049 A 
ATOM     44  H   UNL     1      -4.656  -9.041   6.460  1.00  0.00     0.167 HD
ATOM     45  C   UNL     1      -8.688  -8.411   8.012  1.00  0.00     0.031 A 
ATOM     46  C   UNL     1      -1.867  -9.024   6.628  1.00  0.00     0.031 A 
ATOM     47  C   UNL     1      -7.820  -8.200   9.139  1.00  0.00     0.049 A 
ATOM     48  C   UNL     1      -2.369  -8.623   7.990  1.00  0.00     0.074 A 
ATOM     49  C   UNL     1      -8.164  -7.934  10.454  1.00  0.00     0.029 A 
ATOM     50  N   UNL     1      -6.437  -8.222   9.083  1.00  0.00    -0.354 N 
ATOM     51  N   UNL     1      -3.603  -8.512   8.417  1.00  0.00    -0.248 NA
ATOM     52  C   UNL     1      -1.352  -8.307   9.005  1.00  0.00     0.031 C 
ATOM     53  C   UNL     1      -6.986  -7.742  11.182  1.00  0.00     0.029 A 
ATOM     54  C   UNL     1      -5.910  -7.941  10.332  1.00  0.00     0.049 A 
ATOM     55  H   UNL     1      -5.906  -8.410   8.275  1.00  0.00     0.167 HD
ATOM     56  C   UNL     1      -3.511  -8.130   9.749  1.00  0.00     0.074 A 
ATOM     57  C   UNL     1      -2.101  -8.051  10.068  1.00  0.00     0.031 C 
ATOM     58  C   UNL     1      -4.505  -7.863  10.631  1.00  0.00     0.031 A 
BRANCH  45  59
ATOM     59  C   UNL     1     -10.170  -8.323   8.237  1.00  0.00    -0.014 A 
ATOM     60  C   UNL     1     -10.969  -9.476   8.253  1.00  0.00     0.009 A 
ATOM     61  C   UNL     1     -10.764  -7.079   8.499  1.00  0.00     0.009 A 
ATOM     62  C   UNL     1     -12.339  -9.382   8.509  1.00  0.00     0.001 A 
ATOM     63  C   UNL     1     -12.130  -6.990   8.777  1.00  0.00     0.001 A 
ATOM     64  C   UNL     1     -12.916  -8.141   8.776  1.00  0.00     0.000 A 
ENDBRANCH  45  59
BRANCH  46  65
ATOM     65  C   UNL     1      -0.407  -9.081   6.354  1.00  0.00    -0.014 A 
ATOM     66  C   UNL     1       0.400 -10.063   6.948  1.00  0.00     0.009 A 
ATOM     67  C   UNL     1       0.195  -8.117   5.529  1.00  0.00     0.009 A 
ATOM     68  C   UNL     1       1.783 -10.059   6.745  1.00  0.00     0.001 A 
ATOM     69  C   UNL     1       1.573  -8.134   5.303  1.00  0.00     0.001 A 
ATOM     70  C   UNL     1       2.367  -9.098   5.921  1.00  0.00     0.000 A 
ENDBRANCH  46  65
BRANCH  58  71
ATOM     71  C   UNL     1      -4.105  -7.476  12.026  1.00  0.00    -0.014 A 
ATOM     72  C   UNL     1      -3.580  -6.204  12.300  1.00  0.00     0.009 A 
ATOM     73  C   UNL     1      -4.303  -8.376  13.085  1.00  0.00     0.009 A 
ATOM     74  C   UNL     1      -3.239  -5.849  13.607  1.00  0.00     0.001 A 
ATOM     75  C   UNL     1      -3.986  -8.009  14.393  1.00  0.00     0.001 A 
ATOM     76  C   UNL     1      -3.447  -6.749  14.652  1.00  0.00     0.000 A 
ENDBRANCH  58  71
ENDBRANCH  32  33
ENDBRANCH  25  27
ENDBRANCH  24  25
ENDBRANCH  23  24
ENDBRANCH  22  23
ENDBRANCH   1  22
TORSDOF 17
