REMARK SMILES COc1cccc(O[C@@H](C)c2nnc(SCC(=O)OCCOCCOC(=O)c3ccc(-c4c5nc(c(-c6ccccc6)c6ccc([nH]6)c(-c6ccccc6)c6nc(c(-c7ccccc7)c7ccc4[nH]7)C=C6)C=C5)cc3)n2C)c1
REMARK SMILES IDX 20 1 19 2 17 3 18 4 16 5 15 6 14 7 11 8 12 9 76 10 13 11
REMARK SMILES IDX 77 12 9 13 10 14 8 15 7 16 3 17 4 18 78 19 5 20 6 21 2 22
REMARK SMILES IDX 1 23 21 24 22 25 23 26 24 27 25 28 26 29 27 30 28 31 29 32
REMARK SMILES IDX 75 33 30 34 74 35 31 36 32 37 33 38 68 39 34 40 73 41 67 42
REMARK SMILES IDX 69 43 35 44 72 45 66 46 65 47 36 49 58 50 43 51 57 52 44 53
REMARK SMILES IDX 47 54 56 55 70 56 45 57 46 58 55 60 71 61 48 62 37 63 38 64
REMARK SMILES IDX 42 65 39 66 41 67 40 68 59 69 60 70 64 71 61 72 63 73 62 74
REMARK SMILES IDX 49 75 50 76 54 77 51 78 53 79 52 80
REMARK H PARENT 69 48 47 59
REMARK Flexibility Score: inf
ROOT
ATOM      1  C   UNL     1       6.594  -3.366   1.637  1.00  0.00     0.261 C 
ENDROOT
BRANCH   1   2
ATOM      2  O   UNL     1       5.973  -3.353   0.328  1.00  0.00    -0.463 OA
BRANCH   2   3
ATOM      3  C   UNL     1       4.614  -3.414   0.284  1.00  0.00     0.316 C 
ATOM      4  O   UNL     1       3.895  -3.432   1.279  1.00  0.00    -0.251 OA
BRANCH   3   5
ATOM      5  C   UNL     1       4.030  -3.475  -1.118  1.00  0.00     0.200 C 
BRANCH   5   6
ATOM      6  S   UNL     1       5.050  -2.722  -2.389  1.00  0.00    -0.074 SA
BRANCH   6   7
ATOM      7  C   UNL     1       4.472  -1.133  -2.779  1.00  0.00     0.191 A 
ATOM      8  C   UNL     1       4.225   1.054  -2.613  1.00  0.00     0.174 A 
ATOM      9  N   UNL     1       4.560   0.750  -3.856  1.00  0.00    -0.130 NA
ATOM     10  N   UNL     1       3.994  -0.143  -1.947  1.00  0.00    -0.306 N 
ATOM     11  N   UNL     1       4.722  -0.603  -3.954  1.00  0.00    -0.123 NA
ATOM     12  C   UNL     1       3.368  -0.327  -0.673  1.00  0.00     0.154 C 
BRANCH   8  13
ATOM     13  C   UNL     1       4.299   2.472  -2.086  1.00  0.00     0.238 C 
ATOM     14  C   UNL     1       4.495   2.767  -0.610  1.00  0.00     0.062 C 
BRANCH  13  15
ATOM     15  O   UNL     1       3.318   3.342  -2.667  1.00  0.00    -0.483 OA
BRANCH  15  16
ATOM     16  C   UNL     1       1.986   3.075  -2.657  1.00  0.00     0.124 A 
ATOM     17  C   UNL     1      -0.060   1.983  -1.960  1.00  0.00     0.122 A 
ATOM     18  C   UNL     1      -0.747   2.634  -2.985  1.00  0.00     0.046 A 
ATOM     19  C   UNL     1       1.305   2.224  -1.787  1.00  0.00     0.092 A 
ATOM     20  C   UNL     1      -0.092   3.549  -3.804  1.00  0.00     0.008 A 
ATOM     21  C   UNL     1       1.272   3.766  -3.637  1.00  0.00     0.047 A 
BRANCH  17  22
ATOM     22  O   UNL     1      -0.822   1.117  -1.226  1.00  0.00    -0.497 OA
ATOM     23  C   UNL     1      -0.349   0.762   0.065  1.00  0.00     0.278 C 
ENDBRANCH  17  22
ENDBRANCH  15  16
ENDBRANCH  13  15
ENDBRANCH   8  13
ENDBRANCH   6   7
ENDBRANCH   5   6
ENDBRANCH   3   5
ENDBRANCH   2   3
ENDBRANCH   1   2
BRANCH   1  24
ATOM     24  C   UNL     1       7.780  -2.393   1.695  1.00  0.00     0.202 C 
BRANCH  24  25
ATOM     25  O   UNL     1       7.462  -1.028   2.002  1.00  0.00    -0.374 OA
BRANCH  25  26
ATOM     26  C   UNL     1       6.510  -0.392   1.163  1.00  0.00     0.202 C 
BRANCH  26  27
ATOM     27  C   UNL     1       7.025   0.118  -0.183  1.00  0.00     0.261 C 
BRANCH  27  28
ATOM     28  O   UNL     1       7.981  -0.737  -0.782  1.00  0.00    -0.460 OA
BRANCH  28  29
ATOM     29  C   UNL     1       9.185  -0.158  -0.952  1.00  0.00     0.338 C 
ATOM     30  O   UNL     1       9.501   1.013  -0.791  1.00  0.00    -0.246 OA
BRANCH  29  31
ATOM     31  C   UNL     1      10.145  -1.230  -1.162  1.00  0.00     0.060 A 
ATOM     32  C   UNL     1      11.063  -1.463  -0.136  1.00  0.00     0.016 A 
ATOM     33  C   UNL     1      10.138  -1.982  -2.338  1.00  0.00     0.016 A 
ATOM     34  C   UNL     1      12.031  -2.437  -0.308  1.00  0.00     0.010 A 
ATOM     35  C   UNL     1      11.113  -2.959  -2.510  1.00  0.00     0.010 A 
ATOM     36  C   UNL     1      12.079  -3.157  -1.509  1.00  0.00    -0.014 A 
BRANCH  36  37
ATOM     37  C   UNL     1      13.254  -4.008  -1.762  1.00  0.00     0.031 A 
ATOM     38  C   UNL     1      14.388  -3.433  -2.557  1.00  0.00     0.074 A 
ATOM     39  C   UNL     1      13.314  -5.237  -1.227  1.00  0.00     0.049 A 
ATOM     40  N   UNL     1      15.549  -3.963  -2.835  1.00  0.00    -0.248 NA
ATOM     41  C   UNL     1      14.192  -2.081  -3.111  1.00  0.00     0.031 C 
ATOM     42  C   UNL     1      12.263  -5.863  -0.423  1.00  0.00     0.029 A 
ATOM     43  N   UNL     1      14.309  -6.176  -1.274  1.00  0.00    -0.354 N 
ATOM     44  C   UNL     1      16.218  -3.013  -3.596  1.00  0.00     0.074 A 
ATOM     45  C   UNL     1      15.329  -1.886  -3.760  1.00  0.00     0.031 C 
ATOM     46  C   UNL     1      12.671  -7.088  -0.052  1.00  0.00     0.029 A 
ATOM     47  C   UNL     1      13.998  -7.335  -0.609  1.00  0.00     0.049 A 
ATOM     48  H   UNL     1      15.164  -6.033  -1.741  1.00  0.00     0.167 HD
ATOM     49  C   UNL     1      17.468  -3.080  -4.107  1.00  0.00     0.031 A 
ATOM     50  C   UNL     1      14.711  -8.468  -0.479  1.00  0.00     0.031 A 
ATOM     51  C   UNL     1      18.334  -4.213  -3.939  1.00  0.00     0.049 A 
ATOM     52  C   UNL     1      16.084  -8.527  -1.091  1.00  0.00     0.074 A 
ATOM     53  C   UNL     1      19.632  -4.380  -4.385  1.00  0.00     0.029 A 
ATOM     54  N   UNL     1      17.979  -5.379  -3.278  1.00  0.00    -0.354 N 
ATOM     55  N   UNL     1      16.734  -7.598  -1.753  1.00  0.00    -0.248 NA
ATOM     56  C   UNL     1      16.829  -9.782  -0.926  1.00  0.00     0.031 C 
ATOM     57  C   UNL     1      20.044  -5.671  -4.040  1.00  0.00     0.029 A 
ATOM     58  C   UNL     1      19.021  -6.285  -3.332  1.00  0.00     0.049 A 
ATOM     59  H   UNL     1      17.113  -5.538  -2.837  1.00  0.00     0.167 HD
ATOM     60  C   UNL     1      17.970  -8.148  -2.064  1.00  0.00     0.074 A 
ATOM     61  C   UNL     1      17.986  -9.483  -1.500  1.00  0.00     0.031 C 
ATOM     62  C   UNL     1      19.001  -7.604  -2.756  1.00  0.00     0.031 A 
BRANCH  49  63
ATOM     63  C   UNL     1      17.951  -1.917  -4.922  1.00  0.00    -0.014 A 
ATOM     64  C   UNL     1      18.306  -0.699  -4.321  1.00  0.00     0.009 A 
ATOM     65  C   UNL     1      18.086  -2.055  -6.312  1.00  0.00     0.009 A 
ATOM     66  C   UNL     1      18.769   0.364  -5.100  1.00  0.00     0.001 A 
ATOM     67  C   UNL     1      18.570  -0.999  -7.085  1.00  0.00     0.001 A 
ATOM     68  C   UNL     1      18.905   0.211  -6.480  1.00  0.00     0.000 A 
ENDBRANCH  49  63
BRANCH  50  69
ATOM     69  C   UNL     1      14.137  -9.638   0.234  1.00  0.00    -0.014 A 
ATOM     70  C   UNL     1      14.667 -10.073   1.458  1.00  0.00     0.009 A 
ATOM     71  C   UNL     1      13.059 -10.343  -0.325  1.00  0.00     0.009 A 
ATOM     72  C   UNL     1      14.152 -11.209   2.088  1.00  0.00     0.001 A 
ATOM     73  C   UNL     1      12.527 -11.461   0.321  1.00  0.00     0.001 A 
ATOM     74  C   UNL     1      13.082 -11.900   1.521  1.00  0.00     0.000 A 
ENDBRANCH  50  69
BRANCH  62  75
ATOM     75  C   UNL     1      20.233  -8.446  -2.913  1.00  0.00    -0.014 A 
ATOM     76  C   UNL     1      20.258  -9.540  -3.791  1.00  0.00     0.009 A 
ATOM     77  C   UNL     1      21.399  -8.106  -2.208  1.00  0.00     0.009 A 
ATOM     78  C   UNL     1      21.419 -10.299  -3.935  1.00  0.00     0.001 A 
ATOM     79  C   UNL     1      22.567  -8.848  -2.377  1.00  0.00     0.001 A 
ATOM     80  C   UNL     1      22.573  -9.949  -3.233  1.00  0.00     0.000 A 
ENDBRANCH  62  75
ENDBRANCH  36  37
ENDBRANCH  29  31
ENDBRANCH  28  29
ENDBRANCH  27  28
ENDBRANCH  26  27
ENDBRANCH  25  26
ENDBRANCH  24  25
ENDBRANCH   1  24
TORSDOF 20
