REMARK SMILES O=C(OCCOCCOC(=O)[C@H]1CC=CC[C@@H]1C(=O)N[C@@H]1CCCN(c2ccccc2F)C1=O)c1ccc(-c2c3nc(c(-c4ccccc4)c4ccc([nH]4)c(-c4ccccc4)c4nc(c(-c5ccccc5)c5ccc2[nH]5)C=C4)C=C3)cc1
REMARK SMILES IDX 7 1 6 2 5 3 4 4 3 5 2 6 1 7 35 8 36 9 82 10 37 11 81 12
REMARK SMILES IDX 38 13 39 14 40 15 75 16 41 17 80 18 74 19 76 20 42 21 79 22
REMARK SMILES IDX 73 23 72 24 43 26 65 27 50 28 64 29 51 30 54 31 63 32 77 33
REMARK SMILES IDX 52 34 53 35 62 37 78 38 55 39 44 40 45 41 49 42 46 43 48 44
REMARK SMILES IDX 47 45 66 46 67 47 71 48 68 49 70 50 69 51 56 52 57 53 61 54
REMARK SMILES IDX 58 55 60 56 59 57 8 58 9 59 10 60 11 61 12 62 13 63 17 64
REMARK SMILES IDX 14 65 16 66 15 67 18 68 19 69 20 70 21 72 22 73 33 74 23 75
REMARK SMILES IDX 25 76 34 77 24 78 26 79 27 80 31 81 28 82 30 83 32 84 29 85
REMARK H PARENT 76 25 54 36 20 71
REMARK Flexibility Score: inf
ROOT
ATOM      1  C   UNL     1       3.795  -5.610   2.886  1.00  0.00     0.202 C 
ENDROOT
BRANCH   1   2
ATOM      2  O   UNL     1       3.208  -4.329   3.143  1.00  0.00    -0.374 OA
BRANCH   2   3
ATOM      3  C   UNL     1       2.328  -4.267   4.268  1.00  0.00     0.202 C 
BRANCH   3   4
ATOM      4  C   UNL     1       0.854  -4.366   3.865  1.00  0.00     0.261 C 
BRANCH   4   5
ATOM      5  O   UNL     1       0.609  -5.567   3.118  1.00  0.00    -0.460 OA
BRANCH   5   6
ATOM      6  C   UNL     1       0.791  -5.781   1.795  1.00  0.00     0.338 C 
ATOM      7  O   UNL     1       0.779  -6.944   1.391  1.00  0.00    -0.246 OA
BRANCH   6   8
ATOM      8  C   UNL     1       0.964  -4.699   0.771  1.00  0.00     0.060 A 
ATOM      9  C   UNL     1       1.504  -3.429   0.991  1.00  0.00     0.016 A 
ATOM     10  C   UNL     1       0.633  -5.045  -0.553  1.00  0.00     0.016 A 
ATOM     11  C   UNL     1       1.708  -2.532  -0.050  1.00  0.00     0.010 A 
ATOM     12  C   UNL     1       0.839  -4.154  -1.609  1.00  0.00     0.010 A 
ATOM     13  C   UNL     1       1.379  -2.893  -1.352  1.00  0.00    -0.014 A 
BRANCH  13  14
ATOM     14  C   UNL     1       1.542  -1.886  -2.410  1.00  0.00     0.031 A 
ATOM     15  C   UNL     1       0.347  -1.087  -2.820  1.00  0.00     0.074 A 
ATOM     16  C   UNL     1       2.770  -1.633  -2.896  1.00  0.00     0.049 A 
ATOM     17  N   UNL     1       0.246  -0.172  -3.744  1.00  0.00    -0.248 NA
ATOM     18  C   UNL     1      -0.899  -1.340  -2.075  1.00  0.00     0.031 C 
ATOM     19  C   UNL     1       4.005  -2.287  -2.454  1.00  0.00     0.029 A 
ATOM     20  N   UNL     1       3.185  -0.744  -3.849  1.00  0.00    -0.354 N 
ATOM     21  C   UNL     1      -1.077   0.244  -3.708  1.00  0.00     0.074 A 
ATOM     22  C   UNL     1      -1.741  -0.507  -2.668  1.00  0.00     0.031 C 
ATOM     23  C   UNL     1       5.041  -1.767  -3.132  1.00  0.00     0.029 A 
ATOM     24  C   UNL     1       4.536  -0.793  -4.092  1.00  0.00     0.049 A 
ATOM     25  H   UNL     1       2.574  -0.128  -4.315  1.00  0.00     0.167 HD
ATOM     26  C   UNL     1      -1.681   1.162  -4.496  1.00  0.00     0.031 A 
ATOM     27  C   UNL     1       5.264  -0.145  -5.020  1.00  0.00     0.031 A 
ATOM     28  C   UNL     1      -1.000   1.875  -5.539  1.00  0.00     0.049 A 
ATOM     29  C   UNL     1       4.543   0.789  -5.954  1.00  0.00     0.074 A 
ATOM     30  C   UNL     1      -1.512   2.784  -6.444  1.00  0.00     0.029 A 
ATOM     31  N   UNL     1       0.355   1.745  -5.815  1.00  0.00    -0.354 N 
ATOM     32  N   UNL     1       3.280   1.149  -5.947  1.00  0.00    -0.248 NA
ATOM     33  C   UNL     1       5.336   1.387  -7.034  1.00  0.00     0.031 C 
ATOM     34  C   UNL     1      -0.474   3.167  -7.302  1.00  0.00     0.029 A 
ATOM     35  C   UNL     1       0.692   2.533  -6.898  1.00  0.00     0.049 A 
ATOM     36  H   UNL     1       0.982   1.176  -5.313  1.00  0.00     0.167 HD
ATOM     37  C   UNL     1       3.127   2.015  -7.019  1.00  0.00     0.074 A 
ATOM     38  C   UNL     1       4.434   2.152  -7.633  1.00  0.00     0.031 C 
ATOM     39  C   UNL     1       2.009   2.633  -7.472  1.00  0.00     0.031 A 
BRANCH  26  40
ATOM     40  C   UNL     1      -3.154   1.363  -4.305  1.00  0.00    -0.014 A 
ATOM     41  C   UNL     1      -3.663   2.089  -3.217  1.00  0.00     0.009 A 
ATOM     42  C   UNL     1      -4.048   0.796  -5.226  1.00  0.00     0.009 A 
ATOM     43  C   UNL     1      -5.043   2.221  -3.043  1.00  0.00     0.001 A 
ATOM     44  C   UNL     1      -5.426   0.946  -5.060  1.00  0.00     0.001 A 
ATOM     45  C   UNL     1      -5.922   1.651  -3.965  1.00  0.00     0.000 A 
ENDBRANCH  26  40
BRANCH  27  46
ATOM     46  C   UNL     1       6.719  -0.420  -5.173  1.00  0.00    -0.014 A 
ATOM     47  C   UNL     1       7.674   0.582  -4.947  1.00  0.00     0.009 A 
ATOM     48  C   UNL     1       7.159  -1.689  -5.586  1.00  0.00     0.009 A 
ATOM     49  C   UNL     1       9.033   0.327  -5.159  1.00  0.00     0.001 A 
ATOM     50  C   UNL     1       8.519  -1.951  -5.766  1.00  0.00     0.001 A 
ATOM     51  C   UNL     1       9.454  -0.939  -5.564  1.00  0.00     0.000 A 
ENDBRANCH  27  46
BRANCH  39  52
ATOM     52  C   UNL     1       2.167   3.509  -8.678  1.00  0.00    -0.014 A 
ATOM     53  C   UNL     1       2.310   2.950  -9.957  1.00  0.00     0.009 A 
ATOM     54  C   UNL     1       2.120   4.904  -8.537  1.00  0.00     0.009 A 
ATOM     55  C   UNL     1       2.429   3.778 -11.073  1.00  0.00     0.001 A 
ATOM     56  C   UNL     1       2.214   5.727  -9.658  1.00  0.00     0.001 A 
ATOM     57  C   UNL     1       2.375   5.163 -10.923  1.00  0.00     0.000 A 
ENDBRANCH  39  52
ENDBRANCH  13  14
ENDBRANCH   6   8
ENDBRANCH   5   6
ENDBRANCH   4   5
ENDBRANCH   3   4
ENDBRANCH   2   3
ENDBRANCH   1   2
BRANCH   1  58
ATOM     58  C   UNL     1       5.294  -5.564   3.170  1.00  0.00     0.261 C 
BRANCH  58  59
ATOM     59  O   UNL     1       5.480  -5.191   4.540  1.00  0.00    -0.463 OA
BRANCH  59  60
ATOM     60  C   UNL     1       5.536  -3.852   4.753  1.00  0.00     0.310 C 
ATOM     61  O   UNL     1       5.712  -3.011   3.877  1.00  0.00    -0.252 OA
BRANCH  60  62
ATOM     62  C   UNL     1       5.308  -3.475   6.206  1.00  0.00     0.115 C 
ATOM     63  C   UNL     1       5.091  -4.651   7.168  1.00  0.00     0.043 C 
ATOM     64  C   UNL     1       6.476  -2.557   6.597  1.00  0.00     0.097 C 
ATOM     65  C   UNL     1       6.359  -5.315   7.600  1.00  0.00    -0.030 C 
ATOM     66  C   UNL     1       7.735  -3.320   7.003  1.00  0.00     0.041 C 
ATOM     67  C   UNL     1       7.549  -4.711   7.515  1.00  0.00    -0.030 C 
BRANCH  64  68
ATOM     68  C   UNL     1       6.033  -1.478   7.566  1.00  0.00     0.224 C 
ATOM     69  O   UNL     1       5.101  -1.664   8.351  1.00  0.00    -0.275 OA
ATOM     70  N   UNL     1       6.614  -0.246   7.555  1.00  0.00    -0.344 N 
ATOM     71  H   UNL     1       6.116   0.413   8.089  1.00  0.00     0.164 HD
BRANCH  70  72
ATOM     72  C   UNL     1       7.818   0.324   6.925  1.00  0.00     0.172 C 
ATOM     73  C   UNL     1       7.915   0.304   5.400  1.00  0.00     0.037 C 
ATOM     74  C   UNL     1       9.060  -0.041   7.756  1.00  0.00     0.249 C 
ATOM     75  C   UNL     1       9.332   0.113   4.885  1.00  0.00     0.025 C 
ATOM     76  N   UNL     1      10.118  -0.674   7.109  1.00  0.00    -0.308 N 
ATOM     77  O   UNL     1       9.077   0.274   8.951  1.00  0.00    -0.272 OA
ATOM     78  C   UNL     1      10.100  -0.933   5.672  1.00  0.00     0.126 C 
BRANCH  76  79
ATOM     79  C   UNL     1      11.197  -1.217   7.887  1.00  0.00     0.080 A 
ATOM     80  C   UNL     1      12.524  -1.071   7.461  1.00  0.00     0.029 A 
ATOM     81  C   UNL     1      10.970  -1.888   9.103  1.00  0.00     0.146 A 
ATOM     82  C   UNL     1      13.583  -1.550   8.244  1.00  0.00     0.002 A 
ATOM     83  C   UNL     1      12.021  -2.373   9.879  1.00  0.00     0.041 A 
ATOM     84  F   UNL     1       9.724  -2.166   9.515  1.00  0.00    -0.205 F 
ATOM     85  C   UNL     1      13.333  -2.195   9.454  1.00  0.00     0.003 A 
ENDBRANCH  76  79
ENDBRANCH  70  72
ENDBRANCH  64  68
ENDBRANCH  60  62
ENDBRANCH  59  60
ENDBRANCH  58  59
ENDBRANCH   1  58
TORSDOF 17
