REMARK SMILES CC[NH2+][C@@]1(C(=O)OCCOCCOC(=O)c2ccc(-c3c4nc(c(-c5ccccc5)c5ccc([nH]5)c(-c5ccccc5)c5nc(c(-c6ccccc6)c6ccc3[nH]6)C=C5)C=C4)cc2)CC[C@@H](SCC2CCCC2)C1
REMARK SMILES IDX 9 1 8 2 7 3 5 4 6 5 4 6 64 7 74 8 65 9 66 10 3 11 2 14 1 15
REMARK SMILES IDX 67 16 68 17 69 18 70 19 73 20 71 21 72 22 10 23 11 24 12 25
REMARK SMILES IDX 13 26 14 27 15 28 16 29 17 30 63 31 18 32 62 33 19 34 20 35
REMARK SMILES IDX 21 36 56 37 22 38 61 39 55 40 57 41 23 42 60 43 54 44 53 45
REMARK SMILES IDX 24 47 46 48 31 49 45 50 32 51 35 52 44 53 58 54 33 55 34 56
REMARK SMILES IDX 43 58 59 59 36 60 25 61 26 62 30 63 27 64 29 65 28 66 47 67
REMARK SMILES IDX 48 68 52 69 49 70 51 71 50 72 37 73 38 74 42 75 39 76 41 77
REMARK SMILES IDX 40 78
REMARK H PARENT 3 12 3 13 57 46 35 57
REMARK Flexibility Score: inf
ROOT
ATOM      1  C   UNL     1       1.752  -1.325   7.205  1.00  0.00     0.202 C 
ENDROOT
BRANCH   1   2
ATOM      2  C   UNL     1       0.327  -1.545   6.692  1.00  0.00     0.261 C 
BRANCH   2   3
ATOM      3  O   UNL     1       0.295  -2.169   5.399  1.00  0.00    -0.459 OA
BRANCH   3   4
ATOM      4  C   UNL     1      -0.200  -1.376   4.407  1.00  0.00     0.368 C 
ATOM      5  O   UNL     1      -0.690  -0.266   4.597  1.00  0.00    -0.245 OA
BRANCH   4   6
ATOM      6  C   UNL     1      -0.112  -2.034   2.990  1.00  0.00     0.195 C 
ATOM      7  C   UNL     1      -1.549  -2.490   2.702  1.00  0.00     0.082 C 
ATOM      8  C   UNL     1       0.710  -3.343   2.882  1.00  0.00     0.095 C 
ATOM      9  C   UNL     1      -1.635  -3.857   3.384  1.00  0.00     0.022 C 
ATOM     10  C   UNL     1      -0.268  -4.499   3.155  1.00  0.00     0.053 C 
BRANCH   6  11
ATOM     11  N   UNL     1       0.468  -0.984   2.125  1.00  0.00    -0.332 N 
ATOM     12  H   UNL     1       0.146  -0.086   2.485  1.00  0.00     0.347 HD
ATOM     13  H   UNL     1       1.473  -1.153   2.169  1.00  0.00     0.347 HD
BRANCH  11  14
ATOM     14  C   UNL     1       0.167  -1.009   0.707  1.00  0.00     0.257 C 
ATOM     15  C   UNL     1       0.936   0.102   0.004  1.00  0.00     0.071 C 
ENDBRANCH  11  14
ENDBRANCH   6  11
BRANCH  10  16
ATOM     16  S   UNL     1      -0.253  -5.893   1.935  1.00  0.00    -0.158 SA
BRANCH  16  17
ATOM     17  C   UNL     1      -0.565  -5.102   0.308  1.00  0.00     0.073 C 
BRANCH  17  18
ATOM     18  C   UNL     1      -2.024  -4.739   0.063  1.00  0.00    -0.001 C 
ATOM     19  C   UNL     1      -2.205  -3.618  -0.961  1.00  0.00     0.004 C 
ATOM     20  C   UNL     1      -2.916  -5.825  -0.532  1.00  0.00     0.004 C 
ATOM     21  C   UNL     1      -3.716  -3.587  -1.132  1.00  0.00     0.000 C 
ATOM     22  C   UNL     1      -4.156  -5.048  -0.995  1.00  0.00     0.000 C 
ENDBRANCH  17  18
ENDBRANCH  16  17
ENDBRANCH  10  16
ENDBRANCH   4   6
ENDBRANCH   3   4
ENDBRANCH   2   3
ENDBRANCH   1   2
BRANCH   1  23
ATOM     23  O   UNL     1       2.650  -0.604   6.368  1.00  0.00    -0.374 OA
BRANCH  23  24
ATOM     24  C   UNL     1       3.143  -1.243   5.192  1.00  0.00     0.202 C 
BRANCH  24  25
ATOM     25  C   UNL     1       4.070  -2.450   5.378  1.00  0.00     0.261 C 
BRANCH  25  26
ATOM     26  O   UNL     1       3.410  -3.565   6.008  1.00  0.00    -0.460 OA
BRANCH  26  27
ATOM     27  C   UNL     1       3.987  -3.968   7.165  1.00  0.00     0.338 C 
ATOM     28  O   UNL     1       5.029  -3.552   7.657  1.00  0.00    -0.246 OA
BRANCH  27  29
ATOM     29  C   UNL     1       3.108  -4.888   7.905  1.00  0.00     0.060 A 
ATOM     30  C   UNL     1       2.766  -4.526   9.215  1.00  0.00     0.016 A 
ATOM     31  C   UNL     1       2.760  -6.143   7.401  1.00  0.00     0.016 A 
ATOM     32  C   UNL     1       2.152  -5.449  10.054  1.00  0.00     0.010 A 
ATOM     33  C   UNL     1       2.148  -7.074   8.251  1.00  0.00     0.010 A 
ATOM     34  C   UNL     1       1.896  -6.748   9.596  1.00  0.00    -0.014 A 
BRANCH  34  35
ATOM     35  C   UNL     1       1.572  -7.792  10.599  1.00  0.00     0.031 A 
ATOM     36  C   UNL     1       2.686  -8.653  11.136  1.00  0.00     0.074 A 
ATOM     37  C   UNL     1       0.332  -7.906  11.106  1.00  0.00     0.049 A 
ATOM     38  N   UNL     1       2.658  -9.545  12.095  1.00  0.00    -0.248 NA
ATOM     39  C   UNL     1       4.011  -8.477  10.518  1.00  0.00     0.031 C 
ATOM     40  C   UNL     1      -0.824  -7.107  10.705  1.00  0.00     0.029 A 
ATOM     41  N   UNL     1      -0.151  -8.733  12.089  1.00  0.00    -0.354 N 
ATOM     42  C   UNL     1       3.956 -10.031  12.195  1.00  0.00     0.074 A 
ATOM     43  C   UNL     1       4.739  -9.364  11.179  1.00  0.00     0.031 C 
ATOM     44  C   UNL     1      -1.884  -7.476  11.445  1.00  0.00     0.029 A 
ATOM     45  C   UNL     1      -1.483  -8.544  12.360  1.00  0.00     0.049 A 
ATOM     46  H   UNL     1       0.405  -9.398  12.555  1.00  0.00     0.167 HD
ATOM     47  C   UNL     1       4.459 -10.941  13.062  1.00  0.00     0.031 A 
ATOM     48  C   UNL     1      -2.287  -9.161  13.247  1.00  0.00     0.031 A 
ATOM     49  C   UNL     1       3.687 -11.618  14.069  1.00  0.00     0.049 A 
ATOM     50  C   UNL     1      -1.718 -10.214  14.159  1.00  0.00     0.074 A 
ATOM     51  C   UNL     1       4.110 -12.551  15.000  1.00  0.00     0.029 A 
ATOM     52  N   UNL     1       2.328 -11.439  14.270  1.00  0.00    -0.354 N 
ATOM     53  N   UNL     1      -0.482 -10.639  14.264  1.00  0.00    -0.248 NA
ATOM     54  C   UNL     1      -2.658 -10.860  15.087  1.00  0.00     0.031 C 
ATOM     55  C   UNL     1       2.996 -12.970  15.736  1.00  0.00     0.029 A 
ATOM     56  C   UNL     1       1.891 -12.261  15.295  1.00  0.00     0.049 A 
ATOM     57  H   UNL     1       1.758 -10.819  13.761  1.00  0.00     0.167 HD
ATOM     58  C   UNL     1      -0.492 -11.585  15.282  1.00  0.00     0.074 A 
ATOM     59  C   UNL     1      -1.852 -11.657  15.775  1.00  0.00     0.031 C 
ATOM     60  C   UNL     1       0.533 -12.327  15.767  1.00  0.00     0.031 A 
BRANCH  47  61
ATOM     61  C   UNL     1       5.918 -11.276  12.935  1.00  0.00    -0.014 A 
ATOM     62  C   UNL     1       6.909 -10.374  13.354  1.00  0.00     0.009 A 
ATOM     63  C   UNL     1       6.305 -12.517  12.407  1.00  0.00     0.009 A 
ATOM     64  C   UNL     1       8.261 -10.697  13.215  1.00  0.00     0.001 A 
ATOM     65  C   UNL     1       7.656 -12.846  12.291  1.00  0.00     0.001 A 
ATOM     66  C   UNL     1       8.633 -11.933  12.687  1.00  0.00     0.000 A 
ENDBRANCH  47  61
BRANCH  48  67
ATOM     67  C   UNL     1      -3.726  -8.802  13.320  1.00  0.00    -0.014 A 
ATOM     68  C   UNL     1      -4.236  -8.101  14.424  1.00  0.00     0.009 A 
ATOM     69  C   UNL     1      -4.603  -9.183  12.293  1.00  0.00     0.009 A 
ATOM     70  C   UNL     1      -5.599  -7.811  14.508  1.00  0.00     0.001 A 
ATOM     71  C   UNL     1      -5.961  -8.870  12.368  1.00  0.00     0.001 A 
ATOM     72  C   UNL     1      -6.460  -8.193  13.479  1.00  0.00     0.000 A 
ENDBRANCH  48  67
BRANCH  60  73
ATOM     73  C   UNL     1       0.224 -13.262  16.902  1.00  0.00    -0.014 A 
ATOM     74  C   UNL     1      -0.504 -14.444  16.693  1.00  0.00     0.009 A 
ATOM     75  C   UNL     1       0.689 -12.969  18.193  1.00  0.00     0.009 A 
ATOM     76  C   UNL     1      -0.793 -15.293  17.763  1.00  0.00     0.001 A 
ATOM     77  C   UNL     1       0.422 -13.833  19.256  1.00  0.00     0.001 A 
ATOM     78  C   UNL     1      -0.328 -14.989  19.042  1.00  0.00     0.000 A 
ENDBRANCH  60  73
ENDBRANCH  34  35
ENDBRANCH  27  29
ENDBRANCH  26  27
ENDBRANCH  25  26
ENDBRANCH  24  25
ENDBRANCH  23  24
ENDBRANCH   1  23
TORSDOF 19
