REMARK SMILES C[C@H]1CN(C(=O)N[C@@H]2CCCCC[C@@H]2C(=O)OCCOCCOC(=O)c2ccc(-c3c4nc(c(-c5ccccc5)c5ccc([nH]5)c(-c5ccccc5)c5nc(c(-c6ccccc6)c6ccc3[nH]6)C=C5)C=C4)cc2)C[C@H](C)O1
REMARK SMILES IDX 19 1 18 2 17 3 15 4 16 5 14 6 8 7 7 8 1 9 2 10 3 11 77 12
REMARK SMILES IDX 4 13 75 14 5 15 74 16 76 17 6 18 9 20 10 21 11 22 13 24
REMARK SMILES IDX 12 25 20 27 21 28 22 29 23 30 24 31 25 32 26 33 27 34 73 35
REMARK SMILES IDX 28 36 72 37 29 38 30 39 31 40 66 41 32 42 71 43 65 44 67 45
REMARK SMILES IDX 33 46 70 47 64 48 63 49 34 51 56 52 41 53 55 54 42 55 45 56
REMARK SMILES IDX 54 57 68 58 43 59 44 60 53 62 69 63 46 64 35 65 36 66 40 67
REMARK SMILES IDX 37 68 39 69 38 70 57 71 58 72 62 73 59 74 61 75 60 76 47 77
REMARK SMILES IDX 48 78 52 79 49 80 51 81 50 82
REMARK H PARENT 7 19 67 50 45 61
REMARK Flexibility Score: 90.00
ROOT
ATOM      1  C   UNL     1      -6.103   2.211   0.620  1.00  0.00     0.202 C 
ENDROOT
BRANCH   1   2
ATOM      2  C   UNL     1      -5.252   1.718   1.794  1.00  0.00     0.261 C 
BRANCH   2   3
ATOM      3  O   UNL     1      -4.291   0.779   1.309  1.00  0.00    -0.463 OA
BRANCH   3   4
ATOM      4  C   UNL     1      -3.869  -0.158   2.180  1.00  0.00     0.311 C 
ATOM      5  O   UNL     1      -3.970  -0.069   3.398  1.00  0.00    -0.252 OA
BRANCH   4   6
ATOM      6  C   UNL     1      -3.424  -1.430   1.474  1.00  0.00     0.121 C 
BRANCH   6   7
ATOM      7  C   UNL     1      -2.321  -1.345   0.383  1.00  0.00     0.098 C 
BRANCH   7   8
ATOM      8  N   UNL     1      -2.356  -0.177  -0.502  1.00  0.00    -0.334 N 
ATOM      9  C   UNL     1       1.272   0.007   2.835  1.00  0.00     0.040 C 
ATOM     10  C   UNL     1       0.710   0.741   1.626  1.00  0.00     0.135 C 
ATOM     11  C   UNL     1      -0.781   1.042   1.802  1.00  0.00     0.153 C 
ATOM     12  O   UNL     1       1.431   1.978   1.452  1.00  0.00    -0.372 OA
ATOM     13  N   UNL     1      -1.246   1.649   0.563  1.00  0.00    -0.320 N 
ATOM     14  C   UNL     1       0.938   2.796   0.364  1.00  0.00     0.135 C 
ATOM     15  C   UNL     1      -1.889   1.086  -0.497  1.00  0.00     0.317 C 
ATOM     16  C   UNL     1      -0.603   2.952   0.369  1.00  0.00     0.153 C 
ATOM     17  C   UNL     1       1.469   2.280  -0.970  1.00  0.00     0.040 C 
ATOM     18  O   UNL     1      -2.063   1.707  -1.550  1.00  0.00    -0.249 OA
ATOM     19  H   UNL     1      -2.858  -0.369  -1.327  1.00  0.00     0.165 HD
ENDBRANCH   7   8
BRANCH   7  20
ATOM     20  C   UNL     1      -2.268  -2.606  -0.516  1.00  0.00     0.026 C 
BRANCH  20  21
ATOM     21  C   UNL     1      -2.280  -3.930   0.249  1.00  0.00     0.002 C 
BRANCH  21  22
ATOM     22  C   UNL     1      -3.682  -4.495   0.474  1.00  0.00     0.000 CG0
ATOM     23  G   UNL     1      -4.585  -3.693   1.405  1.00  0.00     0.000 G0
ENDBRANCH  21  22
ENDBRANCH  20  21
ENDBRANCH   7  20
ENDBRANCH   6   7
BRANCH   6  24
ATOM     24  C   UNL     1      -4.694  -2.207   1.065  1.00  0.00     0.017 C 
BRANCH  24  25
ATOM     25  C   UNL     1      -4.585  -3.693   1.405  1.00  0.00     0.001 CG0
ATOM     26  G   UNL     1      -3.682  -4.495   0.474  1.00  0.00     0.000 G0
ENDBRANCH  24  25
ENDBRANCH   6  24
ENDBRANCH   4   6
ENDBRANCH   3   4
ENDBRANCH   2   3
ENDBRANCH   1   2
BRANCH   1  27
ATOM     27  O   UNL     1      -6.728   1.190  -0.167  1.00  0.00    -0.374 OA
BRANCH  27  28
ATOM     28  C   UNL     1      -5.899   0.500  -1.107  1.00  0.00     0.202 C 
BRANCH  28  29
ATOM     29  C   UNL     1      -5.593   1.218  -2.425  1.00  0.00     0.261 C 
BRANCH  29  30
ATOM     30  O   UNL     1      -4.908   2.460  -2.214  1.00  0.00    -0.460 OA
BRANCH  30  31
ATOM     31  C   UNL     1      -5.628   3.562  -2.506  1.00  0.00     0.338 C 
ATOM     32  O   UNL     1      -6.737   3.606  -3.027  1.00  0.00    -0.246 OA
BRANCH  31  33
ATOM     33  C   UNL     1      -4.980   4.762  -1.951  1.00  0.00     0.060 A 
ATOM     34  C   UNL     1      -5.793   5.634  -1.217  1.00  0.00     0.016 A 
ATOM     35  C   UNL     1      -3.641   5.079  -2.198  1.00  0.00     0.016 A 
ATOM     36  C   UNL     1      -5.297   6.863  -0.797  1.00  0.00     0.010 A 
ATOM     37  C   UNL     1      -3.145   6.322  -1.784  1.00  0.00     0.010 A 
ATOM     38  C   UNL     1      -3.986   7.235  -1.123  1.00  0.00    -0.014 A 
BRANCH  38  39
ATOM     39  C   UNL     1      -3.573   8.641  -0.901  1.00  0.00     0.031 A 
ATOM     40  C   UNL     1      -3.636   9.611  -2.050  1.00  0.00     0.074 A 
ATOM     41  C   UNL     1      -3.226   9.069   0.326  1.00  0.00     0.049 A 
ATOM     42  N   UNL     1      -3.381  10.895  -2.066  1.00  0.00    -0.248 NA
ATOM     43  C   UNL     1      -4.050   9.062  -3.352  1.00  0.00     0.031 C 
ATOM     44  C   UNL     1      -3.179   8.240   1.528  1.00  0.00     0.029 A 
ATOM     45  N   UNL     1      -2.861  10.318   0.760  1.00  0.00    -0.354 N 
ATOM     46  C   UNL     1      -3.603  11.306  -3.375  1.00  0.00     0.074 A 
ATOM     47  C   UNL     1      -3.983  10.132  -4.130  1.00  0.00     0.031 C 
ATOM     48  C   UNL     1      -2.807   9.005   2.569  1.00  0.00     0.029 A 
ATOM     49  C   UNL     1      -2.567  10.369   2.100  1.00  0.00     0.049 A 
ATOM     50  H   UNL     1      -2.814  11.103   0.168  1.00  0.00     0.167 HD
ATOM     51  C   UNL     1      -3.506  12.550  -3.900  1.00  0.00     0.031 A 
ATOM     52  C   UNL     1      -2.142  11.396   2.860  1.00  0.00     0.031 A 
ATOM     53  C   UNL     1      -3.113  13.716  -3.155  1.00  0.00     0.049 A 
ATOM     54  C   UNL     1      -1.963  12.753   2.233  1.00  0.00     0.074 A 
ATOM     55  C   UNL     1      -2.996  15.023  -3.596  1.00  0.00     0.029 A 
ATOM     56  N   UNL     1      -2.764  13.712  -1.814  1.00  0.00    -0.354 N 
ATOM     57  N   UNL     1      -2.202  13.134   1.002  1.00  0.00    -0.248 NA
ATOM     58  C   UNL     1      -1.462  13.824   3.107  1.00  0.00     0.031 C 
ATOM     59  C   UNL     1      -2.522  15.800  -2.534  1.00  0.00     0.029 A 
ATOM     60  C   UNL     1      -2.400  14.988  -1.418  1.00  0.00     0.049 A 
ATOM     61  H   UNL     1      -2.773  12.920  -1.230  1.00  0.00     0.167 HD
ATOM     62  C   UNL     1      -1.905  14.490   0.959  1.00  0.00     0.074 A 
ATOM     63  C   UNL     1      -1.483  14.869   2.292  1.00  0.00     0.031 C 
ATOM     64  C   UNL     1      -1.976  15.347  -0.089  1.00  0.00     0.031 A 
BRANCH  51  65
ATOM     65  C   UNL     1      -3.799  12.706  -5.366  1.00  0.00    -0.014 A 
ATOM     66  C   UNL     1      -5.109  12.617  -5.863  1.00  0.00     0.009 A 
ATOM     67  C   UNL     1      -2.750  12.976  -6.259  1.00  0.00     0.009 A 
ATOM     68  C   UNL     1      -5.357  12.764  -7.230  1.00  0.00     0.001 A 
ATOM     69  C   UNL     1      -3.004  13.148  -7.621  1.00  0.00     0.001 A 
ATOM     70  C   UNL     1      -4.306  13.034  -8.106  1.00  0.00     0.000 A 
ENDBRANCH  51  65
BRANCH  52  71
ATOM     71  C   UNL     1      -1.836  11.180   4.298  1.00  0.00    -0.014 A 
ATOM     72  C   UNL     1      -2.643  11.742   5.298  1.00  0.00     0.009 A 
ATOM     73  C   UNL     1      -0.718  10.419   4.675  1.00  0.00     0.009 A 
ATOM     74  C   UNL     1      -2.325  11.563   6.646  1.00  0.00     0.001 A 
ATOM     75  C   UNL     1      -0.418  10.219   6.024  1.00  0.00     0.001 A 
ATOM     76  C   UNL     1      -1.216  10.798   7.008  1.00  0.00     0.000 A 
ENDBRANCH  52  71
BRANCH  64  77
ATOM     77  C   UNL     1      -1.616  16.783   0.169  1.00  0.00    -0.014 A 
ATOM     78  C   UNL     1      -0.283  17.175   0.369  1.00  0.00     0.009 A 
ATOM     79  C   UNL     1      -2.622  17.762   0.173  1.00  0.00     0.009 A 
ATOM     80  C   UNL     1       0.030  18.516   0.599  1.00  0.00     0.001 A 
ATOM     81  C   UNL     1      -2.302  19.105   0.376  1.00  0.00     0.001 A 
ATOM     82  C   UNL     1      -0.978  19.480   0.598  1.00  0.00     0.000 A 
ENDBRANCH  64  77
ENDBRANCH  38  39
ENDBRANCH  31  33
ENDBRANCH  30  31
ENDBRANCH  29  30
ENDBRANCH  28  29
ENDBRANCH  27  28
ENDBRANCH   1  27
TORSDOF 15
