REMARK SMILES O=C(OCCOCCOC(=O)c1cccc2nc(Cl)c(Cl)nc12)c1ccc(-c2c3nc(c(-c4ccccc4)c4ccc([nH]4)c(-c4ccccc4)c4nc(c(-c5ccccc5)c5ccc2[nH]5)C=C4)C=C3)cc1
REMARK SMILES IDX 5 1 4 2 3 3 2 4 1 5 24 6 25 7 71 8 26 9 70 10 27 11 28 12
REMARK SMILES IDX 29 13 64 14 30 15 69 16 63 17 65 18 31 19 68 20 62 21 61 22
REMARK SMILES IDX 32 24 54 25 39 26 53 27 40 28 43 29 52 30 66 31 41 32 42 33
REMARK SMILES IDX 51 35 67 36 44 37 33 38 34 39 38 40 35 41 37 42 36 43 55 44
REMARK SMILES IDX 56 45 60 46 57 47 59 48 58 49 45 50 46 51 50 52 47 53 49 54
REMARK SMILES IDX 48 55 6 56 7 57 8 58 9 59 10 60 11 61 12 62 13 63 23 64
REMARK SMILES IDX 14 65 16 66 22 67 15 68 17 69 20 70 18 71 21 72 19 73
REMARK H PARENT 65 23 43 34
REMARK Flexibility Score: inf
ROOT
ATOM      1  C   UNL     1       4.288  -1.148   0.640  1.00  0.00     0.202 C 
ENDROOT
BRANCH   1   2
ATOM      2  C   UNL     1       4.179   0.240   1.273  1.00  0.00     0.261 C 
BRANCH   2   3
ATOM      3  O   UNL     1       2.836   0.731   1.244  1.00  0.00    -0.460 OA
BRANCH   3   4
ATOM      4  C   UNL     1       2.180   1.269   0.190  1.00  0.00     0.338 C 
ATOM      5  O   UNL     1       0.966   1.445   0.311  1.00  0.00    -0.246 OA
BRANCH   4   6
ATOM      6  C   UNL     1       2.807   1.665  -1.119  1.00  0.00     0.060 A 
ATOM      7  C   UNL     1       1.990   2.424  -1.980  1.00  0.00     0.016 A 
ATOM      8  C   UNL     1       4.061   1.280  -1.605  1.00  0.00     0.016 A 
ATOM      9  C   UNL     1       2.377   2.704  -3.291  1.00  0.00     0.010 A 
ATOM     10  C   UNL     1       4.444   1.524  -2.917  1.00  0.00     0.010 A 
ATOM     11  C   UNL     1       3.595   2.220  -3.768  1.00  0.00    -0.014 A 
BRANCH  11  12
ATOM     12  C   UNL     1       4.096   2.543  -5.108  1.00  0.00     0.031 A 
ATOM     13  C   UNL     1       4.048   1.530  -6.206  1.00  0.00     0.074 A 
ATOM     14  C   UNL     1       4.735   3.717  -5.237  1.00  0.00     0.049 A 
ATOM     15  N   UNL     1       4.462   1.651  -7.439  1.00  0.00    -0.248 NA
ATOM     16  C   UNL     1       3.483   0.208  -5.886  1.00  0.00     0.031 C 
ATOM     17  C   UNL     1       4.909   4.691  -4.155  1.00  0.00     0.029 A 
ATOM     18  N   UNL     1       5.388   4.272  -6.300  1.00  0.00    -0.354 N 
ATOM     19  C   UNL     1       4.189   0.434  -8.049  1.00  0.00     0.074 A 
ATOM     20  C   UNL     1       3.618  -0.432  -7.042  1.00  0.00     0.031 C 
ATOM     21  C   UNL     1       5.636   5.720  -4.607  1.00  0.00     0.029 A 
ATOM     22  C   UNL     1       5.984   5.471  -6.001  1.00  0.00     0.049 A 
ATOM     23  H   UNL     1       5.428   3.854  -7.190  1.00  0.00     0.167 HD
ATOM     24  C   UNL     1       4.393   0.101  -9.343  1.00  0.00     0.031 A 
ATOM     25  C   UNL     1       6.731   6.281  -6.772  1.00  0.00     0.031 A 
ATOM     26  C   UNL     1       4.997   0.997 -10.296  1.00  0.00     0.049 A 
ATOM     27  C   UNL     1       6.915   5.901  -8.210  1.00  0.00     0.074 A 
ATOM     28  C   UNL     1       5.176   0.811 -11.654  1.00  0.00     0.029 A 
ATOM     29  N   UNL     1       5.536   2.238  -9.983  1.00  0.00    -0.354 N 
ATOM     30  N   UNL     1       6.516   4.811  -8.824  1.00  0.00    -0.248 NA
ATOM     31  C   UNL     1       7.607   6.862  -9.073  1.00  0.00     0.031 C 
ATOM     32  C   UNL     1       5.892   1.901 -12.147  1.00  0.00     0.029 A 
ATOM     33  C   UNL     1       6.080   2.812 -11.117  1.00  0.00     0.049 A 
ATOM     34  H   UNL     1       5.531   2.648  -9.088  1.00  0.00     0.167 HD
ATOM     35  C   UNL     1       6.888   4.962 -10.150  1.00  0.00     0.074 A 
ATOM     36  C   UNL     1       7.528   6.260 -10.254  1.00  0.00     0.031 C 
ATOM     37  C   UNL     1       6.715   4.106 -11.185  1.00  0.00     0.031 A 
BRANCH  24  38
ATOM     38  C   UNL     1       3.944  -1.248  -9.839  1.00  0.00    -0.014 A 
ATOM     39  C   UNL     1       4.883  -2.157 -10.356  1.00  0.00     0.009 A 
ATOM     40  C   UNL     1       2.578  -1.549  -9.962  1.00  0.00     0.009 A 
ATOM     41  C   UNL     1       4.465  -3.313 -11.020  1.00  0.00     0.001 A 
ATOM     42  C   UNL     1       2.163  -2.720 -10.603  1.00  0.00     0.001 A 
ATOM     43  C   UNL     1       3.106  -3.591 -11.146  1.00  0.00     0.000 A 
ENDBRANCH  24  38
BRANCH  25  44
ATOM     44  C   UNL     1       7.260   7.537  -6.183  1.00  0.00    -0.014 A 
ATOM     45  C   UNL     1       8.236   7.492  -5.171  1.00  0.00     0.009 A 
ATOM     46  C   UNL     1       6.695   8.774  -6.521  1.00  0.00     0.009 A 
ATOM     47  C   UNL     1       8.607   8.653  -4.488  1.00  0.00     0.001 A 
ATOM     48  C   UNL     1       7.092   9.939  -5.859  1.00  0.00     0.001 A 
ATOM     49  C   UNL     1       8.036   9.875  -4.835  1.00  0.00     0.000 A 
ENDBRANCH  25  44
BRANCH  37  50
ATOM     50  C   UNL     1       7.227   4.528 -12.533  1.00  0.00    -0.014 A 
ATOM     51  C   UNL     1       6.318   4.763 -13.578  1.00  0.00     0.009 A 
ATOM     52  C   UNL     1       8.602   4.545 -12.805  1.00  0.00     0.009 A 
ATOM     53  C   UNL     1       6.776   4.973 -14.878  1.00  0.00     0.001 A 
ATOM     54  C   UNL     1       9.058   4.791 -14.101  1.00  0.00     0.001 A 
ATOM     55  C   UNL     1       8.145   4.988 -15.137  1.00  0.00     0.000 A 
ENDBRANCH  37  50
ENDBRANCH  11  12
ENDBRANCH   4   6
ENDBRANCH   3   4
ENDBRANCH   2   3
ENDBRANCH   1   2
BRANCH   1  56
ATOM     56  O   UNL     1       3.675  -1.259  -0.642  1.00  0.00    -0.374 OA
BRANCH  56  57
ATOM     57  C   UNL     1       2.446  -1.978  -0.679  1.00  0.00     0.202 C 
BRANCH  57  58
ATOM     58  C   UNL     1       2.684  -3.448  -1.019  1.00  0.00     0.261 C 
BRANCH  58  59
ATOM     59  O   UNL     1       3.358  -4.101   0.073  1.00  0.00    -0.460 OA
BRANCH  59  60
ATOM     60  C   UNL     1       4.707  -4.214  -0.033  1.00  0.00     0.340 C 
ATOM     61  O   UNL     1       5.398  -3.948  -1.001  1.00  0.00    -0.246 OA
BRANCH  60  62
ATOM     62  C   UNL     1       5.223  -4.687   1.267  1.00  0.00     0.088 A 
ATOM     63  C   UNL     1       4.613  -5.809   1.845  1.00  0.00     0.018 A 
ATOM     64  C   UNL     1       6.280  -4.006   1.897  1.00  0.00     0.105 A 
ATOM     65  C   UNL     1       5.082  -6.292   3.054  1.00  0.00     0.003 A 
ATOM     66  C   UNL     1       6.751  -4.526   3.130  1.00  0.00     0.091 A 
ATOM     67  N   UNL     1       6.822  -2.859   1.415  1.00  0.00    -0.230 NA
ATOM     68  C   UNL     1       6.157  -5.656   3.673  1.00  0.00     0.031 A 
ATOM     69  N   UNL     1       7.744  -3.942   3.828  1.00  0.00    -0.231 NA
ATOM     70  C   UNL     1       7.794  -2.258   2.140  1.00  0.00     0.167 A 
ATOM     71  C   UNL     1       8.257  -2.798   3.321  1.00  0.00     0.167 A 
ATOM     72  Cl  UNL     1       8.296  -0.744   1.505  1.00  0.00    -0.059 Cl
ATOM     73  Cl  UNL     1       9.471  -2.084   4.299  1.00  0.00    -0.059 Cl
ENDBRANCH  60  62
ENDBRANCH  59  60
ENDBRANCH  58  59
ENDBRANCH  57  58
ENDBRANCH  56  57
ENDBRANCH   1  56
TORSDOF 14
