REMARK SMILES CC(C)(C)OC(=O)[C@H]1CC[C@]1([NH3+])C(=O)OCCOCCOC(=O)c1ccc(-c2c3nc(c(-c4ccccc4)c4ccc([nH]4)c(-c4ccccc4)c4nc(c(-c5ccccc5)c5ccc2[nH]5)C=C4)C=C3)cc1
REMARK SMILES IDX 17 1 16 2 15 3 13 4 14 5 11 6 8 7 9 8 10 9 6 10 7 11 5 12
REMARK SMILES IDX 2 13 1 14 3 15 4 16 12 17 18 21 19 22 20 23 21 24 22 25
REMARK SMILES IDX 23 26 24 27 25 28 71 29 26 30 70 31 27 32 28 33 29 34 64 35
REMARK SMILES IDX 30 36 69 37 63 38 65 39 31 40 68 41 62 42 61 43 32 45 54 46
REMARK SMILES IDX 39 47 53 48 40 49 43 50 52 51 66 52 41 53 42 54 51 56 67 57
REMARK SMILES IDX 44 58 33 59 34 60 38 61 35 62 37 63 36 64 55 65 56 66 60 67
REMARK SMILES IDX 57 68 59 69 58 70 45 71 46 72 50 73 47 74 49 75 48 76
REMARK H PARENT 12 18 12 19 12 20 65 44 43 55
REMARK Flexibility Score: inf
ROOT
ATOM      1  C   UNL     1      -3.215  -3.959   5.045  1.00  0.00     0.202 C 
ENDROOT
BRANCH   1   2
ATOM      2  C   UNL     1      -2.129  -4.559   5.942  1.00  0.00     0.261 C 
BRANCH   2   3
ATOM      3  O   UNL     1      -0.821  -4.313   5.389  1.00  0.00    -0.459 OA
BRANCH   3   4
ATOM      4  C   UNL     1       0.016  -5.393   5.311  1.00  0.00     0.368 C 
ATOM      5  O   UNL     1      -0.269  -6.498   5.774  1.00  0.00    -0.245 OA
BRANCH   4   6
ATOM      6  C   UNL     1       1.379  -5.070   4.569  1.00  0.00     0.206 C 
ATOM      7  C   UNL     1       1.430  -4.003   3.422  1.00  0.00     0.172 C 
ATOM      8  C   UNL     1       1.299  -5.196   2.423  1.00  0.00     0.030 C 
ATOM      9  C   UNL     1       1.841  -6.123   3.519  1.00  0.00     0.083 C 
BRANCH   7  10
ATOM     10  C   UNL     1       2.649  -3.052   3.273  1.00  0.00     0.316 C 
ATOM     11  O   UNL     1       2.924  -2.130   4.037  1.00  0.00    -0.252 OA
BRANCH  10  12
ATOM     12  O   UNL     1       3.385  -3.343   2.159  1.00  0.00    -0.460 OA
BRANCH  12  13
ATOM     13  C   UNL     1       4.623  -2.649   1.854  1.00  0.00     0.104 C 
ATOM     14  C   UNL     1       5.083  -3.244   0.513  1.00  0.00     0.056 C 
ATOM     15  C   UNL     1       5.681  -2.960   2.917  1.00  0.00     0.056 C 
ATOM     16  C   UNL     1       4.415  -1.143   1.667  1.00  0.00     0.056 C 
ENDBRANCH  12  13
ENDBRANCH  10  12
ENDBRANCH   7  10
BRANCH   6  17
ATOM     17  N   UNL     1       2.494  -4.893   5.522  1.00  0.00    -0.343 N 
ATOM     18  H   UNL     1       3.351  -4.687   5.008  1.00  0.00     0.345 HD
ATOM     19  H   UNL     1       2.619  -5.750   6.062  1.00  0.00     0.345 HD
ATOM     20  H   UNL     1       2.283  -4.121   6.154  1.00  0.00     0.345 HD
ENDBRANCH   6  17
ENDBRANCH   4   6
ENDBRANCH   3   4
ENDBRANCH   2   3
ENDBRANCH   1   2
BRANCH   1  21
ATOM     21  O   UNL     1      -3.421  -4.625   3.796  1.00  0.00    -0.374 OA
BRANCH  21  22
ATOM     22  C   UNL     1      -2.428  -4.426   2.793  1.00  0.00     0.202 C 
BRANCH  22  23
ATOM     23  C   UNL     1      -2.550  -3.138   1.970  1.00  0.00     0.261 C 
BRANCH  23  24
ATOM     24  O   UNL     1      -2.459  -1.960   2.790  1.00  0.00    -0.460 OA
BRANCH  24  25
ATOM     25  C   UNL     1      -3.626  -1.288   2.927  1.00  0.00     0.338 C 
ATOM     26  O   UNL     1      -4.681  -1.514   2.348  1.00  0.00    -0.246 OA
BRANCH  25  27
ATOM     27  C   UNL     1      -3.538  -0.296   4.015  1.00  0.00     0.060 A 
ATOM     28  C   UNL     1      -4.576  -0.294   4.954  1.00  0.00     0.016 A 
ATOM     29  C   UNL     1      -2.529   0.670   4.073  1.00  0.00     0.016 A 
ATOM     30  C   UNL     1      -4.651   0.714   5.910  1.00  0.00     0.010 A 
ATOM     31  C   UNL     1      -2.609   1.687   5.035  1.00  0.00     0.010 A 
ATOM     32  C   UNL     1      -3.694   1.738   5.927  1.00  0.00    -0.014 A 
BRANCH  32  33
ATOM     33  C   UNL     1      -3.949   2.927   6.778  1.00  0.00     0.031 A 
ATOM     34  C   UNL     1      -4.578   4.148   6.161  1.00  0.00     0.074 A 
ATOM     35  C   UNL     1      -3.721   2.885   8.103  1.00  0.00     0.049 A 
ATOM     36  N   UNL     1      -4.983   5.252   6.737  1.00  0.00    -0.248 NA
ATOM     37  C   UNL     1      -4.790   4.117   4.704  1.00  0.00     0.031 C 
ATOM     38  C   UNL     1      -3.153   1.751   8.831  1.00  0.00     0.029 A 
ATOM     39  N   UNL     1      -3.962   3.823   9.076  1.00  0.00    -0.354 N 
ATOM     40  C   UNL     1      -5.508   6.038   5.718  1.00  0.00     0.074 A 
ATOM     41  C   UNL     1      -5.335   5.304   4.483  1.00  0.00     0.031 C 
ATOM     42  C   UNL     1      -3.101   2.056  10.139  1.00  0.00     0.029 A 
ATOM     43  C   UNL     1      -3.615   3.409  10.338  1.00  0.00     0.049 A 
ATOM     44  H   UNL     1      -4.348   4.709   8.886  1.00  0.00     0.167 HD
ATOM     45  C   UNL     1      -6.097   7.255   5.800  1.00  0.00     0.031 A 
ATOM     46  C   UNL     1      -3.704   4.049  11.520  1.00  0.00     0.031 A 
ATOM     47  C   UNL     1      -6.257   8.002   7.019  1.00  0.00     0.049 A 
ATOM     48  C   UNL     1      -4.303   5.430  11.572  1.00  0.00     0.074 A 
ATOM     49  C   UNL     1      -6.825   9.252   7.198  1.00  0.00     0.029 A 
ATOM     50  N   UNL     1      -5.848   7.565   8.268  1.00  0.00    -0.354 N 
ATOM     51  N   UNL     1      -4.812   6.150  10.603  1.00  0.00    -0.248 NA
ATOM     52  C   UNL     1      -4.353   6.076  12.892  1.00  0.00     0.031 C 
ATOM     53  C   UNL     1      -6.725   9.588   8.552  1.00  0.00     0.029 A 
ATOM     54  C   UNL     1      -6.139   8.526   9.222  1.00  0.00     0.049 A 
ATOM     55  H   UNL     1      -5.414   6.701   8.451  1.00  0.00     0.167 HD
ATOM     56  C   UNL     1      -5.270   7.318  11.200  1.00  0.00     0.074 A 
ATOM     57  C   UNL     1      -4.995   7.202  12.617  1.00  0.00     0.031 C 
ATOM     58  C   UNL     1      -5.864   8.394  10.627  1.00  0.00     0.031 A 
BRANCH  45  59
ATOM     59  C   UNL     1      -6.604   7.865   4.524  1.00  0.00    -0.014 A 
ATOM     60  C   UNL     1      -7.776   7.391   3.915  1.00  0.00     0.009 A 
ATOM     61  C   UNL     1      -5.929   8.953   3.951  1.00  0.00     0.009 A 
ATOM     62  C   UNL     1      -8.251   7.982   2.743  1.00  0.00     0.001 A 
ATOM     63  C   UNL     1      -6.419   9.557   2.791  1.00  0.00     0.001 A 
ATOM     64  C   UNL     1      -7.576   9.068   2.185  1.00  0.00     0.000 A 
ENDBRANCH  45  59
BRANCH  46  65
ATOM     65  C   UNL     1      -3.211   3.403  12.764  1.00  0.00    -0.014 A 
ATOM     66  C   UNL     1      -4.104   3.003  13.770  1.00  0.00     0.009 A 
ATOM     67  C   UNL     1      -1.834   3.233  12.973  1.00  0.00     0.009 A 
ATOM     68  C   UNL     1      -3.626   2.480  14.973  1.00  0.00     0.001 A 
ATOM     69  C   UNL     1      -1.360   2.684  14.165  1.00  0.00     0.001 A 
ATOM     70  C   UNL     1      -2.255   2.320  15.170  1.00  0.00     0.000 A 
ENDBRANCH  46  65
BRANCH  58  71
ATOM     71  C   UNL     1      -6.292   9.506  11.542  1.00  0.00    -0.014 A 
ATOM     72  C   UNL     1      -5.353  10.358  12.144  1.00  0.00     0.009 A 
ATOM     73  C   UNL     1      -7.657   9.710  11.795  1.00  0.00     0.009 A 
ATOM     74  C   UNL     1      -5.771  11.364  13.017  1.00  0.00     0.001 A 
ATOM     75  C   UNL     1      -8.074  10.735  12.646  1.00  0.00     0.001 A 
ATOM     76  C   UNL     1      -7.130  11.553  13.266  1.00  0.00     0.000 A 
ENDBRANCH  58  71
ENDBRANCH  32  33
ENDBRANCH  25  27
ENDBRANCH  24  25
ENDBRANCH  23  24
ENDBRANCH  22  23
ENDBRANCH  21  22
ENDBRANCH   1  21
TORSDOF 18
