REMARK SMILES COC(=O)c1c(NC(=O)[C@@H]2C[C@@H]2C(=O)OCCOCCOC(=O)c2ccc(-c3c4nc(c(-c5ccccc5)c5ccc([nH]5)c(-c5ccccc5)c5nc(c(-c6ccccc6)c6ccc3[nH]6)C=C5)C=C4)cc2)sc2c1CC[N@@H+](Cc1ccccc1)C2
REMARK SMILES IDX 17 1 16 2 15 3 13 4 14 5 12 6 10 7 11 8 8 9 7 10 9 12 6 13
REMARK SMILES IDX 5 14 74 15 72 16 73 17 75 18 85 19 76 20 77 21 3 23 4 24
REMARK SMILES IDX 2 25 1 26 78 27 79 28 80 29 84 30 81 31 83 32 82 33 18 34
REMARK SMILES IDX 19 35 20 36 21 37 22 38 23 39 24 40 25 41 71 42 26 43 70 44
REMARK SMILES IDX 27 45 28 46 29 47 64 48 30 49 69 50 63 51 65 52 31 53 68 54
REMARK SMILES IDX 62 55 61 56 32 58 54 59 39 60 53 61 40 62 43 63 52 64 66 65
REMARK SMILES IDX 41 66 42 67 51 69 67 70 44 71 33 72 34 73 38 74 35 75 37 76
REMARK SMILES IDX 36 77 55 78 56 79 60 80 57 81 59 82 58 83 45 84 46 85 50 86
REMARK SMILES IDX 47 87 49 88 48 89
REMARK H PARENT 7 11 77 22 65 57 43 68
REMARK Flexibility Score: inf
ROOT
ATOM      1  C   UNL     1      -4.563  -2.778  -2.652  1.00  0.00     0.202 C 
ENDROOT
BRANCH   1   2
ATOM      2  C   UNL     1      -3.134  -3.266  -2.378  1.00  0.00     0.261 C 
BRANCH   2   3
ATOM      3  O   UNL     1      -2.417  -2.515  -1.373  1.00  0.00    -0.463 OA
BRANCH   3   4
ATOM      4  C   UNL     1      -1.387  -1.783  -1.883  1.00  0.00     0.309 C 
ATOM      5  O   UNL     1      -1.081  -1.721  -3.064  1.00  0.00    -0.252 OA
BRANCH   4   6
ATOM      6  C   UNL     1      -0.616  -0.968  -0.916  1.00  0.00     0.112 C 
ATOM      7  C   UNL     1      -0.866  -0.581   0.516  1.00  0.00     0.094 C 
ATOM      8  C   UNL     1      -1.132   0.411  -0.582  1.00  0.00     0.030 C 
BRANCH   7   9
ATOM      9  C   UNL     1      -1.934  -1.110   1.352  1.00  0.00     0.229 C 
ATOM     10  N   UNL     1      -1.857  -2.358   1.891  1.00  0.00    -0.317 N 
ATOM     11  H   UNL     1      -2.690  -2.628   2.342  1.00  0.00     0.170 HD
ATOM     12  O   UNL     1      -2.862  -0.364   1.654  1.00  0.00    -0.274 OA
BRANCH  10  13
ATOM     13  C   UNL     1      -0.888  -3.326   1.952  1.00  0.00     0.110 A 
ATOM     14  C   UNL     1       0.418  -3.576   1.564  1.00  0.00     0.098 A 
ATOM     15  C   UNL     1       0.872  -4.830   2.136  1.00  0.00    -0.006 A 
ATOM     16  S   UNL     1      -1.563  -4.631   2.855  1.00  0.00    -0.116 S 
ATOM     17  C   UNL     1      -0.069  -5.401   2.965  1.00  0.00     0.065 A 
ATOM     18  C   UNL     1       2.272  -5.378   2.084  1.00  0.00     0.099 C 
ATOM     19  C   UNL     1       0.203  -6.511   3.932  1.00  0.00     0.310 C 
ATOM     20  C   UNL     1       2.477  -6.558   3.068  1.00  0.00     0.267 C 
ATOM     21  N   UNL     1       1.633  -6.579   4.278  1.00  0.00    -0.326 N 
ATOM     22  H   UNL     1       1.783  -7.494   4.704  1.00  0.00     0.348 HD
BRANCH  14  23
ATOM     23  C   UNL     1       1.328  -2.744   0.791  1.00  0.00     0.341 C 
ATOM     24  O   UNL     1       1.809  -3.108  -0.274  1.00  0.00    -0.246 OA
BRANCH  23  25
ATOM     25  O   UNL     1       1.649  -1.578   1.416  1.00  0.00    -0.465 OA
ATOM     26  C   UNL     1       2.496  -0.674   0.692  1.00  0.00     0.282 C 
ENDBRANCH  23  25
ENDBRANCH  14  23
BRANCH  21  27
ATOM     27  C   UNL     1       2.064  -5.701   5.382  1.00  0.00     0.299 C 
BRANCH  27  28
ATOM     28  C   UNL     1       2.102  -4.203   5.153  1.00  0.00     0.006 A 
ATOM     29  C   UNL     1       3.301  -3.564   4.803  1.00  0.00     0.009 A 
ATOM     30  C   UNL     1       0.940  -3.423   5.258  1.00  0.00     0.009 A 
ATOM     31  C   UNL     1       3.318  -2.204   4.481  1.00  0.00     0.001 A 
ATOM     32  C   UNL     1       0.951  -2.069   4.914  1.00  0.00     0.001 A 
ATOM     33  C   UNL     1       2.139  -1.463   4.517  1.00  0.00     0.000 A 
ENDBRANCH  27  28
ENDBRANCH  21  27
ENDBRANCH  10  13
ENDBRANCH   7   9
ENDBRANCH   4   6
ENDBRANCH   3   4
ENDBRANCH   2   3
ENDBRANCH   1   2
BRANCH   1  34
ATOM     34  O   UNL     1      -4.774  -1.441  -3.099  1.00  0.00    -0.374 OA
BRANCH  34  35
ATOM     35  C   UNL     1      -4.370  -0.357  -2.274  1.00  0.00     0.202 C 
BRANCH  35  36
ATOM     36  C   UNL     1      -5.106  -0.133  -0.962  1.00  0.00     0.261 C 
BRANCH  36  37
ATOM     37  O   UNL     1      -5.107  -1.289  -0.141  1.00  0.00    -0.460 OA
BRANCH  37  38
ATOM     38  C   UNL     1      -6.295  -1.934  -0.085  1.00  0.00     0.338 C 
ATOM     39  O   UNL     1      -7.236  -1.824  -0.842  1.00  0.00    -0.246 OA
BRANCH  38  40
ATOM     40  C   UNL     1      -6.330  -2.720   1.155  1.00  0.00     0.060 A 
ATOM     41  C   UNL     1      -7.479  -3.456   1.414  1.00  0.00     0.016 A 
ATOM     42  C   UNL     1      -5.374  -2.481   2.149  1.00  0.00     0.016 A 
ATOM     43  C   UNL     1      -7.779  -3.720   2.731  1.00  0.00     0.010 A 
ATOM     44  C   UNL     1      -5.632  -2.803   3.452  1.00  0.00     0.010 A 
ATOM     45  C   UNL     1      -6.894  -3.291   3.732  1.00  0.00    -0.014 A 
BRANCH  45  46
ATOM     46  C   UNL     1      -7.292  -3.426   5.112  1.00  0.00     0.031 A 
ATOM     47  C   UNL     1      -7.365  -4.843   5.500  1.00  0.00     0.074 A 
ATOM     48  C   UNL     1      -7.492  -2.377   5.931  1.00  0.00     0.049 A 
ATOM     49  N   UNL     1      -8.431  -5.563   5.584  1.00  0.00    -0.248 NA
ATOM     50  C   UNL     1      -6.106  -5.608   5.529  1.00  0.00     0.031 C 
ATOM     51  C   UNL     1      -7.170  -0.963   5.711  1.00  0.00     0.029 A 
ATOM     52  N   UNL     1      -7.967  -2.379   7.202  1.00  0.00    -0.354 N 
ATOM     53  C   UNL     1      -7.982  -6.828   5.930  1.00  0.00     0.074 A 
ATOM     54  C   UNL     1      -6.575  -6.852   5.628  1.00  0.00     0.031 C 
ATOM     55  C   UNL     1      -7.238  -0.298   6.891  1.00  0.00     0.029 A 
ATOM     56  C   UNL     1      -7.755  -1.201   7.906  1.00  0.00     0.049 A 
ATOM     57  H   UNL     1      -8.427  -3.156   7.595  1.00  0.00     0.167 HD
ATOM     58  C   UNL     1      -8.721  -7.600   6.772  1.00  0.00     0.031 A 
ATOM     59  C   UNL     1      -7.949  -1.018   9.237  1.00  0.00     0.031 A 
ATOM     60  C   UNL     1     -10.082  -7.120   6.856  1.00  0.00     0.049 A 
ATOM     61  C   UNL     1      -8.836  -2.108   9.706  1.00  0.00     0.074 A 
ATOM     62  C   UNL     1     -11.124  -6.950   5.968  1.00  0.00     0.029 A 
ATOM     63  N   UNL     1     -10.370  -6.331   7.944  1.00  0.00    -0.354 N 
ATOM     64  N   UNL     1     -10.085  -2.214   9.355  1.00  0.00    -0.248 NA
ATOM     65  C   UNL     1      -8.216  -3.335  10.181  1.00  0.00     0.031 C 
ATOM     66  C   UNL     1     -11.787  -5.758   6.389  1.00  0.00     0.029 A 
ATOM     67  C   UNL     1     -11.168  -5.293   7.551  1.00  0.00     0.049 A 
ATOM     68  H   UNL     1     -10.052  -6.489   8.863  1.00  0.00     0.167 HD
ATOM     69  C   UNL     1     -10.276  -3.570   9.131  1.00  0.00     0.074 A 
ATOM     70  C   UNL     1      -9.125  -4.219   9.760  1.00  0.00     0.031 C 
ATOM     71  C   UNL     1     -11.188  -4.003   8.210  1.00  0.00     0.031 A 
BRANCH  58  72
ATOM     72  C   UNL     1      -8.084  -8.383   7.902  1.00  0.00    -0.014 A 
ATOM     73  C   UNL     1      -8.936  -9.041   8.805  1.00  0.00     0.009 A 
ATOM     74  C   UNL     1      -6.738  -8.245   8.298  1.00  0.00     0.009 A 
ATOM     75  C   UNL     1      -8.492  -9.427  10.075  1.00  0.00     0.001 A 
ATOM     76  C   UNL     1      -6.282  -8.663   9.549  1.00  0.00     0.001 A 
ATOM     77  C   UNL     1      -7.169  -9.223  10.452  1.00  0.00     0.000 A 
ENDBRANCH  58  72
BRANCH  59  78
ATOM     78  C   UNL     1      -7.177  -0.183  10.186  1.00  0.00    -0.014 A 
ATOM     79  C   UNL     1      -7.706   0.169  11.439  1.00  0.00     0.009 A 
ATOM     80  C   UNL     1      -5.801   0.022   9.979  1.00  0.00     0.009 A 
ATOM     81  C   UNL     1      -6.882   0.680  12.454  1.00  0.00     0.001 A 
ATOM     82  C   UNL     1      -4.978   0.528  10.992  1.00  0.00     0.001 A 
ATOM     83  C   UNL     1      -5.517   0.846  12.234  1.00  0.00     0.000 A 
ENDBRANCH  59  78
BRANCH  71  84
ATOM     84  C   UNL     1     -12.181  -2.996   7.681  1.00  0.00    -0.014 A 
ATOM     85  C   UNL     1     -11.823  -1.862   6.930  1.00  0.00     0.009 A 
ATOM     86  C   UNL     1     -13.544  -3.288   7.837  1.00  0.00     0.009 A 
ATOM     87  C   UNL     1     -12.807  -1.034   6.375  1.00  0.00     0.001 A 
ATOM     88  C   UNL     1     -14.524  -2.475   7.266  1.00  0.00     0.001 A 
ATOM     89  C   UNL     1     -14.156  -1.345   6.540  1.00  0.00     0.000 A 
ENDBRANCH  71  84
ENDBRANCH  45  46
ENDBRANCH  38  40
ENDBRANCH  37  38
ENDBRANCH  36  37
ENDBRANCH  35  36
ENDBRANCH  34  35
ENDBRANCH   1  34
TORSDOF 20
