REMARK SMILES CCn1cc(C[N@@H+]2CCC[C@H]2C(=O)OCCOCCOC(=O)c2ccc(-c3c4nc(c(-c5ccccc5)c5ccc([nH]5)c(-c5ccccc5)c5nc(c(-c6ccccc6)c6ccc3[nH]6)C=C5)C=C4)cc2)c(C)n1
REMARK SMILES IDX 16 1 15 2 14 3 12 4 13 5 11 6 7 7 8 8 9 10 10 11 6 12 5 13
REMARK SMILES IDX 3 14 4 15 73 16 71 17 72 18 2 19 1 20 17 21 18 22 19 23
REMARK SMILES IDX 20 24 21 25 22 26 23 27 24 28 70 29 25 30 69 31 26 32 27 33
REMARK SMILES IDX 28 34 63 35 29 36 68 37 62 38 64 39 30 40 67 41 61 42 60 43
REMARK SMILES IDX 31 45 53 46 38 47 52 48 39 49 42 50 51 51 65 52 40 53 41 54
REMARK SMILES IDX 50 56 66 57 43 58 32 59 33 60 37 61 34 62 36 63 35 64 54 65
REMARK SMILES IDX 55 66 59 67 56 68 58 69 57 70 44 71 45 72 49 73 46 74 48 75
REMARK SMILES IDX 47 76
REMARK H PARENT 7 9 64 44 42 55
REMARK Flexibility Score: inf
ROOT
ATOM      1  C   UNL     1      -3.446   2.620   8.779  1.00  0.00     0.202 C 
ENDROOT
BRANCH   1   2
ATOM      2  C   UNL     1      -3.286   3.070   7.324  1.00  0.00     0.261 C 
BRANCH   2   3
ATOM      3  O   UNL     1      -2.631   2.049   6.547  1.00  0.00    -0.459 OA
BRANCH   3   4
ATOM      4  C   UNL     1      -1.393   2.346   6.060  1.00  0.00     0.365 C 
ATOM      5  O   UNL     1      -0.894   3.466   6.081  1.00  0.00    -0.245 OA
BRANCH   4   6
ATOM      6  C   UNL     1      -0.689   1.101   5.477  1.00  0.00     0.295 C 
ATOM      7  N   UNL     1       0.690   1.009   6.022  1.00  0.00    -0.319 N 
ATOM      8  C   UNL     1       0.793  -0.175   6.861  1.00  0.00     0.263 C 
ATOM      9  H   UNL     1       0.844   1.832   6.605  1.00  0.00     0.349 HD
ATOM     10  C   UNL     1      -0.250  -1.140   6.346  1.00  0.00     0.068 C 
ATOM     11  C   UNL     1      -1.346  -0.252   5.786  1.00  0.00     0.083 C 
BRANCH   7  12
ATOM     12  C   UNL     1       1.770   1.166   5.043  1.00  0.00     0.303 C 
BRANCH  12  13
ATOM     13  C   UNL     1       1.709   0.176   3.925  1.00  0.00     0.047 A 
ATOM     14  N   UNL     1       1.210  -0.795   2.015  1.00  0.00    -0.272 N 
ATOM     15  C   UNL     1       1.081   0.366   2.710  1.00  0.00     0.118 A 
ATOM     16  N   UNL     1       1.925  -1.725   2.664  1.00  0.00    -0.178 NA
ATOM     17  C   UNL     1       2.263  -1.136   3.820  1.00  0.00     0.068 A 
ATOM     18  C   UNL     1       3.083  -1.896   4.799  1.00  0.00     0.069 C 
BRANCH  14  19
ATOM     19  C   UNL     1       0.610  -1.102   0.732  1.00  0.00     0.141 C 
ATOM     20  C   UNL     1       1.030  -0.131  -0.357  1.00  0.00     0.029 C 
ENDBRANCH  14  19
ENDBRANCH  12  13
ENDBRANCH   7  12
ENDBRANCH   4   6
ENDBRANCH   3   4
ENDBRANCH   2   3
ENDBRANCH   1   2
BRANCH   1  21
ATOM     21  O   UNL     1      -2.266   2.643   9.584  1.00  0.00    -0.374 OA
BRANCH  21  22
ATOM     22  C   UNL     1      -1.271   1.652   9.353  1.00  0.00     0.202 C 
BRANCH  22  23
ATOM     23  C   UNL     1      -1.527   0.280   9.961  1.00  0.00     0.261 C 
BRANCH  23  24
ATOM     24  O   UNL     1      -2.608  -0.380   9.314  1.00  0.00    -0.460 OA
BRANCH  24  25
ATOM     25  C   UNL     1      -3.770  -0.353  10.005  1.00  0.00     0.338 C 
ATOM     26  O   UNL     1      -4.039   0.326  10.977  1.00  0.00    -0.246 OA
BRANCH  25  27
ATOM     27  C   UNL     1      -4.636  -1.419   9.488  1.00  0.00     0.060 A 
ATOM     28  C   UNL     1      -5.810  -1.657  10.206  1.00  0.00     0.016 A 
ATOM     29  C   UNL     1      -4.162  -2.317   8.519  1.00  0.00     0.016 A 
ATOM     30  C   UNL     1      -6.385  -2.902  10.116  1.00  0.00     0.010 A 
ATOM     31  C   UNL     1      -4.731  -3.565   8.439  1.00  0.00     0.010 A 
ATOM     32  C   UNL     1      -5.777  -3.866   9.305  1.00  0.00    -0.014 A 
BRANCH  32  33
ATOM     33  C   UNL     1      -6.339  -5.197   9.312  1.00  0.00     0.031 A 
ATOM     34  C   UNL     1      -7.621  -5.267   8.588  1.00  0.00     0.074 A 
ATOM     35  C   UNL     1      -5.707  -6.250   9.859  1.00  0.00     0.049 A 
ATOM     36  N   UNL     1      -8.799  -5.406   9.095  1.00  0.00    -0.248 NA
ATOM     37  C   UNL     1      -7.609  -4.943   7.152  1.00  0.00     0.031 C 
ATOM     38  C   UNL     1      -4.327  -6.323  10.350  1.00  0.00     0.029 A 
ATOM     39  N   UNL     1      -6.150  -7.527   9.994  1.00  0.00    -0.354 N 
ATOM     40  C   UNL     1      -9.665  -5.401   8.010  1.00  0.00     0.074 A 
ATOM     41  C   UNL     1      -8.913  -4.903   6.887  1.00  0.00     0.031 C 
ATOM     42  C   UNL     1      -3.981  -7.622  10.508  1.00  0.00     0.029 A 
ATOM     43  C   UNL     1      -5.151  -8.451  10.267  1.00  0.00     0.049 A 
ATOM     44  H   UNL     1      -7.098  -7.776   9.906  1.00  0.00     0.167 HD
ATOM     45  C   UNL     1     -10.829  -6.102   8.046  1.00  0.00     0.031 A 
ATOM     46  C   UNL     1      -5.276  -9.800  10.235  1.00  0.00     0.031 A 
ATOM     47  C   UNL     1     -11.193  -6.455   9.394  1.00  0.00     0.049 A 
ATOM     48  C   UNL     1      -6.719 -10.118  10.317  1.00  0.00     0.074 A 
ATOM     49  C   UNL     1     -11.531  -5.761  10.536  1.00  0.00     0.029 A 
ATOM     50  N   UNL     1     -10.845  -7.723   9.794  1.00  0.00    -0.354 N 
ATOM     51  N   UNL     1      -7.437  -9.912  11.383  1.00  0.00    -0.248 NA
ATOM     52  C   UNL     1      -7.471 -10.268   9.081  1.00  0.00     0.031 C 
ATOM     53  C   UNL     1     -10.991  -6.524  11.613  1.00  0.00     0.029 A 
ATOM     54  C   UNL     1     -10.398  -7.675  11.087  1.00  0.00     0.049 A 
ATOM     55  H   UNL     1     -10.907  -8.534   9.241  1.00  0.00     0.167 HD
ATOM     56  C   UNL     1      -8.658  -9.462  10.903  1.00  0.00     0.074 A 
ATOM     57  C   UNL     1      -8.667  -9.833   9.491  1.00  0.00     0.031 C 
ATOM     58  C   UNL     1      -9.408  -8.582  11.630  1.00  0.00     0.031 A 
BRANCH  45  59
ATOM     59  C   UNL     1     -11.335  -6.882   6.855  1.00  0.00    -0.014 A 
ATOM     60  C   UNL     1     -12.541  -7.591   6.984  1.00  0.00     0.009 A 
ATOM     61  C   UNL     1     -10.540  -7.190   5.733  1.00  0.00     0.009 A 
ATOM     62  C   UNL     1     -12.888  -8.605   6.083  1.00  0.00     0.001 A 
ATOM     63  C   UNL     1     -10.902  -8.171   4.809  1.00  0.00     0.001 A 
ATOM     64  C   UNL     1     -12.064  -8.900   5.001  1.00  0.00     0.000 A 
ENDBRANCH  45  59
BRANCH  46  65
ATOM     65  C   UNL     1      -4.272 -10.818   9.862  1.00  0.00    -0.014 A 
ATOM     66  C   UNL     1      -4.423 -12.159  10.249  1.00  0.00     0.009 A 
ATOM     67  C   UNL     1      -3.305 -10.521   8.885  1.00  0.00     0.009 A 
ATOM     68  C   UNL     1      -3.654 -13.169   9.653  1.00  0.00     0.001 A 
ATOM     69  C   UNL     1      -2.540 -11.529   8.290  1.00  0.00     0.001 A 
ATOM     70  C   UNL     1      -2.724 -12.856   8.665  1.00  0.00     0.000 A 
ENDBRANCH  46  65
BRANCH  58  71
ATOM     71  C   UNL     1      -9.023  -8.372  13.075  1.00  0.00    -0.014 A 
ATOM     72  C   UNL     1      -7.789  -7.829  13.478  1.00  0.00     0.009 A 
ATOM     73  C   UNL     1      -9.993  -8.619  14.056  1.00  0.00     0.009 A 
ATOM     74  C   UNL     1      -7.528  -7.572  14.828  1.00  0.00     0.001 A 
ATOM     75  C   UNL     1      -9.741  -8.341  15.401  1.00  0.00     0.001 A 
ATOM     76  C   UNL     1      -8.507  -7.824  15.788  1.00  0.00     0.000 A 
ENDBRANCH  58  71
ENDBRANCH  32  33
ENDBRANCH  25  27
ENDBRANCH  24  25
ENDBRANCH  23  24
ENDBRANCH  22  23
ENDBRANCH  21  22
ENDBRANCH   1  21
TORSDOF 17
