REMARK SMILES Cc1nc2scc(C)n2c1CNc1ccc(C(=O)OCCOCCOC(=O)c2ccc(-c3c4nc(c(-c5ccccc5)c5ccc([nH]5)c(-c5ccccc5)c5nc(c(-c6ccccc6)c6ccc3[nH]6)C=C5)C=C4)cc2)cc1
REMARK SMILES IDX 21 1 20 2 19 3 17 4 18 5 16 6 13 7 14 8 77 9 15 10 76 11
REMARK SMILES IDX 12 12 11 14 10 15 1 16 2 17 3 18 4 19 9 20 5 21 7 22 6 23
REMARK SMILES IDX 8 24 22 25 23 26 24 27 25 28 26 29 27 30 28 31 29 32 75 33
REMARK SMILES IDX 30 34 74 35 31 36 32 37 33 38 68 39 34 40 73 41 67 42 69 43
REMARK SMILES IDX 35 44 72 45 66 46 65 47 36 49 58 50 43 51 57 52 44 53 47 54
REMARK SMILES IDX 56 55 70 56 45 57 46 58 55 60 71 61 48 62 37 63 38 64 42 65
REMARK SMILES IDX 39 66 41 67 40 68 59 69 60 70 64 71 61 72 63 73 62 74 49 75
REMARK SMILES IDX 50 76 54 77 51 78 53 79 52 80
REMARK H PARENT 12 13 69 48 47 59
REMARK Flexibility Score: inf
ROOT
ATOM      1  C   UNL     1      -7.651   2.364   8.947  1.00  0.00     0.202 C 
ENDROOT
BRANCH   1   2
ATOM      2  C   UNL     1      -7.698   2.741   7.465  1.00  0.00     0.261 C 
BRANCH   2   3
ATOM      3  O   UNL     1      -6.671   2.095   6.697  1.00  0.00    -0.460 OA
BRANCH   3   4
ATOM      4  C   UNL     1      -5.702   2.933   6.258  1.00  0.00     0.338 C 
ATOM      5  O   UNL     1      -5.656   4.144   6.396  1.00  0.00    -0.246 OA
BRANCH   4   6
ATOM      6  C   UNL     1      -4.565   2.170   5.710  1.00  0.00     0.060 A 
ATOM      7  C   UNL     1      -2.334   1.117   4.393  1.00  0.00     0.034 A 
ATOM      8  C   UNL     1      -2.168   2.050   5.420  1.00  0.00     0.026 A 
ATOM      9  C   UNL     1      -3.621   0.614   4.142  1.00  0.00     0.026 A 
ATOM     10  C   UNL     1      -3.279   2.597   6.056  1.00  0.00     0.018 A 
ATOM     11  C   UNL     1      -4.740   1.127   4.804  1.00  0.00     0.018 A 
BRANCH   7  12
ATOM     12  N   UNL     1      -1.271   0.878   3.533  1.00  0.00    -0.379 N 
ATOM     13  H   UNL     1      -0.382   0.651   3.890  1.00  0.00     0.160 HD
BRANCH  12  14
ATOM     14  C   UNL     1      -1.489   0.970   2.098  1.00  0.00     0.169 C 
BRANCH  14  15
ATOM     15  C   UNL     1      -0.473   1.778   1.376  1.00  0.00     0.066 A 
ATOM     16  C   UNL     1       0.908  -0.013   0.086  1.00  0.00     0.069 C 
ATOM     17  C   UNL     1       0.543   1.359   0.514  1.00  0.00     0.062 A 
ATOM     18  N   UNL     1       1.239   2.427  -0.009  1.00  0.00    -0.224 NA
ATOM     19  C   UNL     1       0.653   3.459   0.523  1.00  0.00     0.194 A 
ATOM     20  N   UNL     1      -0.389   3.158   1.361  1.00  0.00    -0.290 N 
ATOM     21  S   UNL     1       0.897   5.167   0.360  1.00  0.00    -0.105 S 
ATOM     22  C   UNL     1      -1.023   4.279   1.896  1.00  0.00     0.032 A 
ATOM     23  C   UNL     1      -0.455   5.421   1.454  1.00  0.00     0.090 A 
ATOM     24  C   UNL     1      -2.187   4.268   2.817  1.00  0.00     0.066 C 
ENDBRANCH  14  15
ENDBRANCH  12  14
ENDBRANCH   7  12
ENDBRANCH   4   6
ENDBRANCH   3   4
ENDBRANCH   2   3
ENDBRANCH   1   2
BRANCH   1  25
ATOM     25  O   UNL     1      -6.499   2.720   9.711  1.00  0.00    -0.374 OA
BRANCH  25  26
ATOM     26  C   UNL     1      -5.240   2.117   9.439  1.00  0.00     0.202 C 
BRANCH  26  27
ATOM     27  C   UNL     1      -5.044   0.646   9.772  1.00  0.00     0.261 C 
BRANCH  27  28
ATOM     28  O   UNL     1      -5.986  -0.185   9.116  1.00  0.00    -0.460 OA
BRANCH  28  29
ATOM     29  C   UNL     1      -7.002  -0.584   9.916  1.00  0.00     0.338 C 
ATOM     30  O   UNL     1      -7.323  -0.119  10.993  1.00  0.00    -0.246 OA
BRANCH  29  31
ATOM     31  C   UNL     1      -7.567  -1.817   9.361  1.00  0.00     0.060 A 
ATOM     32  C   UNL     1      -8.531  -2.443  10.151  1.00  0.00     0.016 A 
ATOM     33  C   UNL     1      -6.887  -2.484   8.331  1.00  0.00     0.016 A 
ATOM     34  C   UNL     1      -8.611  -3.812  10.093  1.00  0.00     0.010 A 
ATOM     35  C   UNL     1      -6.955  -3.852   8.288  1.00  0.00     0.010 A 
ATOM     36  C   UNL     1      -7.739  -4.496   9.239  1.00  0.00    -0.014 A 
BRANCH  36  37
ATOM     37  C   UNL     1      -7.751  -5.936   9.288  1.00  0.00     0.031 A 
ATOM     38  C   UNL     1      -8.955  -6.492   8.645  1.00  0.00     0.074 A 
ATOM     39  C   UNL     1      -6.740  -6.665   9.791  1.00  0.00     0.049 A 
ATOM     40  N   UNL     1      -9.973  -7.026   9.228  1.00  0.00    -0.248 NA
ATOM     41  C   UNL     1      -9.141  -6.225   7.209  1.00  0.00     0.031 C 
ATOM     42  C   UNL     1      -5.399  -6.232  10.188  1.00  0.00     0.029 A 
ATOM     43  N   UNL     1      -6.686  -8.009   9.953  1.00  0.00    -0.354 N 
ATOM     44  C   UNL     1     -10.845  -7.356   8.202  1.00  0.00     0.074 A 
ATOM     45  C   UNL     1     -10.392  -6.647   7.033  1.00  0.00     0.031 C 
ATOM     46  C   UNL     1      -4.600  -7.321  10.301  1.00  0.00     0.029 A 
ATOM     47  C   UNL     1      -5.407  -8.518  10.120  1.00  0.00     0.049 A 
ATOM     48  H   UNL     1      -7.489  -8.579   9.953  1.00  0.00     0.167 HD
ATOM     49  C   UNL     1     -11.676  -8.426   8.311  1.00  0.00     0.031 A 
ATOM     50  C   UNL     1      -5.056  -9.827  10.027  1.00  0.00     0.031 A 
ATOM     51  C   UNL     1     -11.836  -8.841   9.682  1.00  0.00     0.049 A 
ATOM     52  C   UNL     1      -6.296 -10.631  10.180  1.00  0.00     0.074 A 
ATOM     53  C   UNL     1     -12.282  -8.218  10.833  1.00  0.00     0.029 A 
ATOM     54  N   UNL     1     -11.107  -9.930  10.101  1.00  0.00    -0.354 N 
ATOM     55  N   UNL     1      -6.964 -10.707  11.295  1.00  0.00    -0.248 NA
ATOM     56  C   UNL     1      -7.051 -10.951   8.977  1.00  0.00     0.031 C 
ATOM     57  C   UNL     1     -11.405  -8.673  11.861  1.00  0.00     0.029 A 
ATOM     58  C   UNL     1     -10.528  -9.604  11.302  1.00  0.00     0.049 A 
ATOM     59  H   UNL     1     -11.018 -10.787   9.626  1.00  0.00     0.167 HD
ATOM     60  C   UNL     1      -8.297 -10.640  10.913  1.00  0.00     0.074 A 
ATOM     61  C   UNL     1      -8.292 -10.880   9.470  1.00  0.00     0.031 C 
ATOM     62  C   UNL     1      -9.243 -10.104  11.741  1.00  0.00     0.031 A 
BRANCH  49  63
ATOM     63  C   UNL     1     -11.949  -9.340   7.145  1.00  0.00    -0.014 A 
ATOM     64  C   UNL     1     -12.856 -10.396   7.314  1.00  0.00     0.009 A 
ATOM     65  C   UNL     1     -11.149  -9.371   5.983  1.00  0.00     0.009 A 
ATOM     66  C   UNL     1     -12.911 -11.455   6.400  1.00  0.00     0.001 A 
ATOM     67  C   UNL     1     -11.232 -10.401   5.047  1.00  0.00     0.001 A 
ATOM     68  C   UNL     1     -12.097 -11.459   5.271  1.00  0.00     0.000 A 
ENDBRANCH  49  63
BRANCH  50  69
ATOM     69  C   UNL     1      -3.811 -10.412   9.479  1.00  0.00    -0.014 A 
ATOM     70  C   UNL     1      -3.506 -11.769   9.682  1.00  0.00     0.009 A 
ATOM     71  C   UNL     1      -3.062  -9.714   8.513  1.00  0.00     0.009 A 
ATOM     72  C   UNL     1      -2.521 -12.411   8.917  1.00  0.00     0.001 A 
ATOM     73  C   UNL     1      -2.077 -10.354   7.752  1.00  0.00     0.001 A 
ATOM     74  C   UNL     1      -1.818 -11.707   7.943  1.00  0.00     0.000 A 
ENDBRANCH  50  69
BRANCH  62  75
ATOM     75  C   UNL     1      -8.842  -9.783  13.162  1.00  0.00    -0.014 A 
ATOM     76  C   UNL     1      -7.822  -8.871  13.493  1.00  0.00     0.009 A 
ATOM     77  C   UNL     1      -9.623 -10.307  14.202  1.00  0.00     0.009 A 
ATOM     78  C   UNL     1      -7.575  -8.522  14.826  1.00  0.00     0.001 A 
ATOM     79  C   UNL     1      -9.391  -9.943  15.530  1.00  0.00     0.001 A 
ATOM     80  C   UNL     1      -8.364  -9.056  15.844  1.00  0.00     0.000 A 
ENDBRANCH  62  75
ENDBRANCH  36  37
ENDBRANCH  29  31
ENDBRANCH  28  29
ENDBRANCH  27  28
ENDBRANCH  26  27
ENDBRANCH  25  26
ENDBRANCH   1  25
TORSDOF 17
