REMARK SMILES O=C(OCCOCCOC(=O)c1cc(Br)ccc1N1CC2(CCCCC2)C1)c1ccc(-c2c3nc(c(-c4ccccc4)c4ccc([nH]4)c(-c4ccccc4)c4nc(c(-c5ccccc5)c5ccc2[nH]5)C=C4)C=C3)cc1
REMARK SMILES IDX 5 1 4 2 3 3 2 4 1 5 28 6 29 7 75 8 30 9 74 10 31 11 32 12
REMARK SMILES IDX 33 13 68 14 34 15 73 16 67 17 69 18 35 19 72 20 66 21 65 22
REMARK SMILES IDX 36 24 58 25 43 26 57 27 44 28 47 29 56 30 70 31 45 32 46 33
REMARK SMILES IDX 55 35 71 36 48 37 37 38 38 39 42 40 39 41 41 42 40 43 59 44
REMARK SMILES IDX 60 45 64 46 61 47 63 48 62 49 49 50 50 51 54 52 51 53 53 54
REMARK SMILES IDX 52 55 6 56 7 57 8 58 9 59 10 60 11 61 12 62 13 63 18 64
REMARK SMILES IDX 14 65 17 66 15 67 16 68 19 69 20 70 27 71 21 72 22 73 26 74
REMARK SMILES IDX 23 75 25 76 24 77
REMARK H PARENT 69 23 47 34
REMARK Flexibility Score: inf
ROOT
ATOM      1  C   UNL     1       2.849   1.480  -0.721  1.00  0.00     0.202 C 
ENDROOT
BRANCH   1   2
ATOM      2  C   UNL     1       2.907   0.071  -1.315  1.00  0.00     0.261 C 
BRANCH   2   3
ATOM      3  O   UNL     1       1.648  -0.588  -1.042  1.00  0.00    -0.460 OA
BRANCH   3   4
ATOM      4  C   UNL     1       1.345  -1.406  -0.007  1.00  0.00     0.338 C 
ATOM      5  O   UNL     1       0.171  -1.662   0.249  1.00  0.00    -0.246 OA
BRANCH   4   6
ATOM      6  C   UNL     1       2.395  -2.141   0.742  1.00  0.00     0.060 A 
ATOM      7  C   UNL     1       3.480  -1.519   1.345  1.00  0.00     0.016 A 
ATOM      8  C   UNL     1       2.209  -3.514   0.962  1.00  0.00     0.016 A 
ATOM      9  C   UNL     1       4.403  -2.246   2.079  1.00  0.00     0.010 A 
ATOM     10  C   UNL     1       3.107  -4.240   1.759  1.00  0.00     0.010 A 
ATOM     11  C   UNL     1       4.224  -3.607   2.318  1.00  0.00    -0.014 A 
BRANCH  11  12
ATOM     12  C   UNL     1       5.250  -4.311   3.126  1.00  0.00     0.031 A 
ATOM     13  C   UNL     1       6.071  -5.399   2.501  1.00  0.00     0.074 A 
ATOM     14  C   UNL     1       5.539  -3.870   4.369  1.00  0.00     0.049 A 
ATOM     15  N   UNL     1       6.968  -6.175   3.054  1.00  0.00    -0.248 NA
ATOM     16  C   UNL     1       5.859  -5.652   1.067  1.00  0.00     0.031 C 
ATOM     17  C   UNL     1       4.878  -2.748   5.045  1.00  0.00     0.029 A 
ATOM     18  N   UNL     1       6.503  -4.265   5.262  1.00  0.00    -0.354 N 
ATOM     19  C   UNL     1       7.385  -7.041   2.052  1.00  0.00     0.074 A 
ATOM     20  C   UNL     1       6.651  -6.693   0.855  1.00  0.00     0.031 C 
ATOM     21  C   UNL     1       5.514  -2.488   6.196  1.00  0.00     0.029 A 
ATOM     22  C   UNL     1       6.547  -3.494   6.401  1.00  0.00     0.049 A 
ATOM     23  H   UNL     1       7.105  -5.027   5.103  1.00  0.00     0.167 HD
ATOM     24  C   UNL     1       8.289  -8.044   2.132  1.00  0.00     0.031 A 
ATOM     25  C   UNL     1       7.308  -3.610   7.505  1.00  0.00     0.031 A 
ATOM     26  C   UNL     1       9.023  -8.365   3.326  1.00  0.00     0.049 A 
ATOM     27  C   UNL     1       8.265  -4.766   7.586  1.00  0.00     0.074 A 
ATOM     28  C   UNL     1       9.898  -9.412   3.554  1.00  0.00     0.029 A 
ATOM     29  N   UNL     1       8.981  -7.616   4.494  1.00  0.00    -0.354 N 
ATOM     30  N   UNL     1       8.556  -5.661   6.673  1.00  0.00    -0.248 NA
ATOM     31  C   UNL     1       8.972  -4.947   8.860  1.00  0.00     0.031 C 
ATOM     32  C   UNL     1      10.360  -9.315   4.871  1.00  0.00     0.029 A 
ATOM     33  C   UNL     1       9.813  -8.178   5.446  1.00  0.00     0.049 A 
ATOM     34  H   UNL     1       8.439  -6.805   4.626  1.00  0.00     0.167 HD
ATOM     35  C   UNL     1       9.471  -6.519   7.265  1.00  0.00     0.074 A 
ATOM     36  C   UNL     1       9.724  -6.006   8.597  1.00  0.00     0.031 C 
ATOM     37  C   UNL     1      10.036  -7.646   6.765  1.00  0.00     0.031 A 
BRANCH  24  38
ATOM     38  C   UNL     1       8.467  -8.903   0.913  1.00  0.00    -0.014 A 
ATOM     39  C   UNL     1       9.151  -8.440  -0.222  1.00  0.00     0.009 A 
ATOM     40  C   UNL     1       7.926 -10.198   0.898  1.00  0.00     0.009 A 
ATOM     41  C   UNL     1       9.256  -9.245  -1.359  1.00  0.00     0.001 A 
ATOM     42  C   UNL     1       8.056 -11.010  -0.230  1.00  0.00     0.001 A 
ATOM     43  C   UNL     1       8.711 -10.529  -1.361  1.00  0.00     0.000 A 
ENDBRANCH  24  38
BRANCH  25  44
ATOM     44  C   UNL     1       7.131  -2.677   8.653  1.00  0.00    -0.014 A 
ATOM     45  C   UNL     1       8.177  -1.843   9.079  1.00  0.00     0.009 A 
ATOM     46  C   UNL     1       5.914  -2.639   9.355  1.00  0.00     0.009 A 
ATOM     47  C   UNL     1       8.015  -1.015  10.195  1.00  0.00     0.001 A 
ATOM     48  C   UNL     1       5.742  -1.782  10.444  1.00  0.00     0.001 A 
ATOM     49  C   UNL     1       6.797  -0.980  10.871  1.00  0.00     0.000 A 
ENDBRANCH  25  44
BRANCH  37  50
ATOM     50  C   UNL     1      10.987  -8.376   7.668  1.00  0.00    -0.014 A 
ATOM     51  C   UNL     1      10.519  -9.106   8.771  1.00  0.00     0.009 A 
ATOM     52  C   UNL     1      12.363  -8.341   7.402  1.00  0.00     0.009 A 
ATOM     53  C   UNL     1      11.419  -9.757   9.616  1.00  0.00     0.001 A 
ATOM     54  C   UNL     1      13.258  -9.017   8.232  1.00  0.00     0.001 A 
ATOM     55  C   UNL     1      12.786  -9.714   9.343  1.00  0.00     0.000 A 
ENDBRANCH  37  50
ENDBRANCH  11  12
ENDBRANCH   4   6
ENDBRANCH   3   4
ENDBRANCH   2   3
ENDBRANCH   1   2
BRANCH   1  56
ATOM     56  O   UNL     1       2.920   1.371   0.695  1.00  0.00    -0.374 OA
BRANCH  56  57
ATOM     57  C   UNL     1       2.059   2.211   1.453  1.00  0.00     0.202 C 
BRANCH  57  58
ATOM     58  C   UNL     1       2.889   3.215   2.247  1.00  0.00     0.261 C 
BRANCH  58  59
ATOM     59  O   UNL     1       3.625   4.027   1.319  1.00  0.00    -0.460 OA
BRANCH  59  60
ATOM     60  C   UNL     1       4.914   3.662   1.066  1.00  0.00     0.340 C 
ATOM     61  O   UNL     1       5.567   2.860   1.712  1.00  0.00    -0.246 OA
BRANCH  60  62
ATOM     62  C   UNL     1       5.326   4.343  -0.200  1.00  0.00     0.084 A 
ATOM     63  C   UNL     1       4.709   5.575  -0.506  1.00  0.00     0.033 A 
ATOM     64  C   UNL     1       6.273   3.787  -1.092  1.00  0.00     0.051 A 
ATOM     65  C   UNL     1       4.976   6.217  -1.708  1.00  0.00     0.018 A 
ATOM     66  C   UNL     1       6.523   4.468  -2.297  1.00  0.00     0.028 A 
ATOM     67  Br  UNL     1       4.105   7.844  -2.111  1.00  0.00    -0.051 Br
ATOM     68  C   UNL     1       5.869   5.661  -2.613  1.00  0.00     0.018 A 
BRANCH  64  69
ATOM     69  N   UNL     1       6.978   2.603  -0.820  1.00  0.00    -0.370 N 
ATOM     70  C   UNL     1       6.537   1.250  -0.987  1.00  0.00     0.125 C 
ATOM     71  C   UNL     1       8.350   2.263  -1.074  1.00  0.00     0.125 C 
ATOM     72  C   UNL     1       7.988   0.819  -0.640  1.00  0.00     0.005 C 
ATOM     73  C   UNL     1       8.585  -0.314  -1.479  1.00  0.00     0.011 C 
ATOM     74  C   UNL     1       8.241   0.569   0.857  1.00  0.00     0.011 C 
ATOM     75  C   UNL     1       7.978  -1.657  -1.061  1.00  0.00     0.001 C 
ATOM     76  C   UNL     1       7.595  -0.749   1.264  1.00  0.00     0.001 C 
ATOM     77  C   UNL     1       8.128  -1.915   0.439  1.00  0.00     0.000 C 
ENDBRANCH  64  69
ENDBRANCH  60  62
ENDBRANCH  59  60
ENDBRANCH  58  59
ENDBRANCH  57  58
ENDBRANCH  56  57
ENDBRANCH   1  56
TORSDOF 15
