REMARK SMILES CC[C@H](C)N(CC)c1cc(C)c(N)c(C(=O)OCCOCCOC(=O)c2ccc(-c3c4nc(c(-c5ccccc5)c5ccc([nH]5)c(-c5ccccc5)c5nc(c(-c6ccccc6)c6ccc3[nH]6)C=C5)C=C4)cc2)c1
REMARK SMILES IDX 19 1 18 2 17 3 15 4 16 5 14 6 8 7 9 8 74 9 10 10 11 11 12 12
REMARK SMILES IDX 5 13 3 14 4 15 2 16 1 17 6 18 7 19 13 20 20 23 21 24 22 25
REMARK SMILES IDX 23 26 24 27 25 28 26 29 27 30 73 31 28 32 72 33 29 34 30 35
REMARK SMILES IDX 31 36 66 37 32 38 71 39 65 40 67 41 33 42 70 43 64 44 63 45
REMARK SMILES IDX 34 47 56 48 41 49 55 50 42 51 45 52 54 53 68 54 43 55 44 56
REMARK SMILES IDX 53 58 69 59 46 60 35 61 36 62 40 63 37 64 39 65 38 66 57 67
REMARK SMILES IDX 58 68 62 69 59 70 61 71 60 72 47 73 48 74 52 75 49 76 51 77
REMARK SMILES IDX 50 78
REMARK H PARENT 13 21 13 22 67 46 45 57
REMARK Flexibility Score: inf
ROOT
ATOM      1  C   UNL     1      -4.113  -0.281   8.958  1.00  0.00     0.202 C 
ENDROOT
BRANCH   1   2
ATOM      2  C   UNL     1      -3.474  -1.657   8.752  1.00  0.00     0.261 C 
BRANCH   2   3
ATOM      3  O   UNL     1      -2.796  -1.725   7.487  1.00  0.00    -0.460 OA
BRANCH   3   4
ATOM      4  C   UNL     1      -3.418  -2.486   6.551  1.00  0.00     0.340 C 
ATOM      5  O   UNL     1      -4.376  -3.219   6.747  1.00  0.00    -0.246 OA
BRANCH   4   6
ATOM      6  C   UNL     1      -2.868  -2.216   5.194  1.00  0.00     0.085 A 
ATOM      7  C   UNL     1      -0.950  -1.643   3.763  1.00  0.00     0.038 A 
ATOM      8  C   UNL     1      -1.821  -1.795   2.679  1.00  0.00     0.031 A 
ATOM      9  C   UNL     1      -1.506  -1.893   5.026  1.00  0.00     0.043 A 
ATOM     10  C   UNL     1      -3.195  -2.087   2.815  1.00  0.00    -0.025 A 
ATOM     11  C   UNL     1      -4.045  -2.149   1.575  1.00  0.00     0.047 C 
ATOM     12  C   UNL     1      -3.738  -2.291   4.089  1.00  0.00     0.049 A 
BRANCH   7  13
ATOM     13  N   UNL     1       0.377  -1.263   3.606  1.00  0.00    -0.369 N 
BRANCH  13  14
ATOM     14  C   UNL     1       0.887  -0.298   2.593  1.00  0.00     0.078 C 
ATOM     15  C   UNL     1       0.870  -0.826   1.158  1.00  0.00     0.031 C 
BRANCH  14  16
ATOM     16  C   UNL     1       0.353   1.140   2.744  1.00  0.00     0.021 C 
ATOM     17  C   UNL     1      -1.136   1.375   2.546  1.00  0.00     0.006 C 
ENDBRANCH  14  16
ENDBRANCH  13  14
BRANCH  13  18
ATOM     18  C   UNL     1       1.406  -1.951   4.410  1.00  0.00     0.113 C 
ATOM     19  C   UNL     1       1.769  -1.181   5.673  1.00  0.00     0.027 C 
ENDBRANCH  13  18
ENDBRANCH   7  13
BRANCH  12  20
ATOM     20  N   UNL     1      -5.123  -2.377   4.256  1.00  0.00    -0.398 N 
ATOM     21  H   UNL     1      -5.712  -2.429   3.469  1.00  0.00     0.156 HD
ATOM     22  H   UNL     1      -5.510  -2.385   5.161  1.00  0.00     0.156 HD
ENDBRANCH  12  20
ENDBRANCH   4   6
ENDBRANCH   3   4
ENDBRANCH   2   3
ENDBRANCH   1   2
BRANCH   1  23
ATOM     23  O   UNL     1      -5.122   0.079   8.016  1.00  0.00    -0.374 OA
BRANCH  23  24
ATOM     24  C   UNL     1      -4.670   0.663   6.790  1.00  0.00     0.202 C 
BRANCH  24  25
ATOM     25  C   UNL     1      -4.362   2.164   6.853  1.00  0.00     0.261 C 
BRANCH  25  26
ATOM     26  O   UNL     1      -3.184   2.427   7.640  1.00  0.00    -0.460 OA
BRANCH  26  27
ATOM     27  C   UNL     1      -3.413   3.014   8.836  1.00  0.00     0.338 C 
ATOM     28  O   UNL     1      -4.477   3.441   9.264  1.00  0.00    -0.246 OA
BRANCH  27  29
ATOM     29  C   UNL     1      -2.205   2.923   9.680  1.00  0.00     0.060 A 
ATOM     30  C   UNL     1      -2.368   2.455  10.990  1.00  0.00     0.016 A 
ATOM     31  C   UNL     1      -0.951   3.339   9.227  1.00  0.00     0.016 A 
ATOM     32  C   UNL     1      -1.290   2.456  11.872  1.00  0.00     0.010 A 
ATOM     33  C   UNL     1       0.130   3.346  10.117  1.00  0.00     0.010 A 
ATOM     34  C   UNL     1      -0.045   2.941  11.453  1.00  0.00    -0.014 A 
BRANCH  34  35
ATOM     35  C   UNL     1       1.025   3.165  12.454  1.00  0.00     0.031 A 
ATOM     36  C   UNL     1       1.239   4.552  12.995  1.00  0.00     0.074 A 
ATOM     37  C   UNL     1       1.774   2.143  12.905  1.00  0.00     0.049 A 
ATOM     38  N   UNL     1       2.116   4.976  13.869  1.00  0.00    -0.248 NA
ATOM     39  C   UNL     1       0.344   5.603  12.482  1.00  0.00     0.031 C 
ATOM     40  C   UNL     1       1.640   0.748  12.491  1.00  0.00     0.029 A 
ATOM     41  N   UNL     1       2.802   2.130  13.814  1.00  0.00    -0.354 N 
ATOM     42  C   UNL     1       1.886   6.339  14.004  1.00  0.00     0.074 A 
ATOM     43  C   UNL     1       0.806   6.678  13.103  1.00  0.00     0.031 C 
ATOM     44  C   UNL     1       2.558   0.012  13.142  1.00  0.00     0.029 A 
ATOM     45  C   UNL     1       3.359   0.888  13.995  1.00  0.00     0.049 A 
ATOM     46  H   UNL     1       3.111   2.934  14.291  1.00  0.00     0.167 HD
ATOM     47  C   UNL     1       2.512   7.229  14.809  1.00  0.00     0.031 A 
ATOM     48  C   UNL     1       4.407   0.506  14.749  1.00  0.00     0.031 A 
ATOM     49  C   UNL     1       3.592   6.898  15.699  1.00  0.00     0.049 A 
ATOM     50  C   UNL     1       5.129   1.526  15.587  1.00  0.00     0.074 A 
ATOM     51  C   UNL     1       4.277   7.728  16.570  1.00  0.00     0.029 A 
ATOM     52  N   UNL     1       4.149   5.636  15.827  1.00  0.00    -0.354 N 
ATOM     53  N   UNL     1       4.882   2.806  15.727  1.00  0.00    -0.248 NA
ATOM     54  C   UNL     1       6.271   1.044  16.378  1.00  0.00     0.031 C 
ATOM     55  C   UNL     1       5.285   6.979  17.185  1.00  0.00     0.029 A 
ATOM     56  C   UNL     1       5.189   5.670  16.741  1.00  0.00     0.049 A 
ATOM     57  H   UNL     1       3.850   4.834  15.340  1.00  0.00     0.167 HD
ATOM     58  C   UNL     1       5.818   3.275  16.642  1.00  0.00     0.074 A 
ATOM     59  C   UNL     1       6.628   2.141  17.032  1.00  0.00     0.031 C 
ATOM     60  C   UNL     1       5.988   4.533  17.117  1.00  0.00     0.031 A 
BRANCH  47  61
ATOM     61  C   UNL     1       2.063   8.662  14.736  1.00  0.00    -0.014 A 
ATOM     62  C   UNL     1       0.831   9.069  15.271  1.00  0.00     0.009 A 
ATOM     63  C   UNL     1       2.901   9.623  14.150  1.00  0.00     0.009 A 
ATOM     64  C   UNL     1       0.434  10.406  15.192  1.00  0.00     0.001 A 
ATOM     65  C   UNL     1       2.514  10.963  14.096  1.00  0.00     0.001 A 
ATOM     66  C   UNL     1       1.277  11.352  14.609  1.00  0.00     0.000 A 
ENDBRANCH  47  61
BRANCH  48  67
ATOM     67  C   UNL     1       4.852  -0.912  14.737  1.00  0.00    -0.014 A 
ATOM     68  C   UNL     1       4.672  -1.731  15.862  1.00  0.00     0.009 A 
ATOM     69  C   UNL     1       5.476  -1.448  13.600  1.00  0.00     0.009 A 
ATOM     70  C   UNL     1       5.129  -3.051  15.856  1.00  0.00     0.001 A 
ATOM     71  C   UNL     1       5.907  -2.776  13.587  1.00  0.00     0.001 A 
ATOM     72  C   UNL     1       5.742  -3.573  14.718  1.00  0.00     0.000 A 
ENDBRANCH  48  67
BRANCH  60  73
ATOM     73  C   UNL     1       7.070   4.743  18.140  1.00  0.00    -0.014 A 
ATOM     74  C   UNL     1       8.427   4.721  17.783  1.00  0.00     0.009 A 
ATOM     75  C   UNL     1       6.722   5.009  19.474  1.00  0.00     0.009 A 
ATOM     76  C   UNL     1       9.414   4.928  18.749  1.00  0.00     0.001 A 
ATOM     77  C   UNL     1       7.710   5.244  20.431  1.00  0.00     0.001 A 
ATOM     78  C   UNL     1       9.055   5.194  20.070  1.00  0.00     0.000 A 
ENDBRANCH  60  73
ENDBRANCH  34  35
ENDBRANCH  27  29
ENDBRANCH  26  27
ENDBRANCH  25  26
ENDBRANCH  24  25
ENDBRANCH  23  24
ENDBRANCH   1  23
TORSDOF 19
