REMARK SMILES COc1cccc(Cn2c(=O)c(=O)n(CC(=O)OCCOCCOC(=O)c3ccc(-c4c5nc(c(-c6ccccc6)c6ccc([nH]6)c(-c6ccccc6)c6nc(c(-c7ccccc7)c7ccc4[nH]7)C=C6)C=C5)cc3)c3ccccc32)c1
REMARK SMILES IDX 20 1 19 2 18 3 16 4 17 5 15 6 14 7 9 8 10 9 80 10 11 11
REMARK SMILES IDX 12 12 75 13 79 14 13 15 76 16 78 17 77 18 8 19 7 20 3 21
REMARK SMILES IDX 4 22 81 23 5 24 6 25 2 26 1 27 21 28 22 29 23 30 24 31 25 32
REMARK SMILES IDX 26 33 27 34 28 35 74 36 29 37 73 38 30 39 31 40 32 41 67 42
REMARK SMILES IDX 33 43 72 44 66 45 68 46 34 47 71 48 65 49 64 50 35 52 57 53
REMARK SMILES IDX 42 54 56 55 43 56 46 57 55 58 69 59 44 60 45 61 54 63 70 64
REMARK SMILES IDX 47 65 36 66 37 67 41 68 38 69 40 70 39 71 58 72 59 73 63 74
REMARK SMILES IDX 60 75 62 76 61 77 48 78 49 79 53 80 50 81 52 82 51 83
REMARK H PARENT 68 51 46 62
REMARK Flexibility Score: inf
ROOT
ATOM      1  C   UNL     1       0.356  -8.042   4.706  1.00  0.00     0.202 C 
ENDROOT
BRANCH   1   2
ATOM      2  C   UNL     1       0.470  -6.510   4.661  1.00  0.00     0.261 C 
BRANCH   2   3
ATOM      3  O   UNL     1       1.576  -6.186   3.812  1.00  0.00    -0.462 OA
BRANCH   3   4
ATOM      4  C   UNL     1       2.592  -5.420   4.271  1.00  0.00     0.326 C 
ATOM      5  O   UNL     1       2.519  -4.646   5.215  1.00  0.00    -0.250 OA
BRANCH   4   6
ATOM      6  C   UNL     1       3.865  -5.646   3.428  1.00  0.00     0.248 C 
BRANCH   6   7
ATOM      7  N   UNL     1       3.807  -6.832   2.533  1.00  0.00    -0.291 N 
ATOM      8  N   UNL     1       4.155  -5.981  -0.126  1.00  0.00    -0.298 N 
ATOM      9  C   UNL     1       2.973  -5.764   0.614  1.00  0.00     0.317 A 
ATOM     10  C   UNL     1       5.136  -6.871   0.466  1.00  0.00     0.068 A 
ATOM     11  O   UNL     1       2.186  -4.862   0.666  1.00  0.00    -0.263 OA
ATOM     12  C   UNL     1       2.766  -6.863   1.616  1.00  0.00     0.317 A 
ATOM     13  C   UNL     1       5.017  -7.177   1.861  1.00  0.00     0.069 A 
ATOM     14  C   UNL     1       6.185  -7.450  -0.244  1.00  0.00     0.028 A 
ATOM     15  O   UNL     1       1.956  -7.748   1.419  1.00  0.00    -0.263 OA
ATOM     16  C   UNL     1       5.944  -7.974   2.525  1.00  0.00     0.028 A 
ATOM     17  C   UNL     1       7.063  -8.328   0.410  1.00  0.00     0.002 A 
ATOM     18  C   UNL     1       6.958  -8.572   1.785  1.00  0.00     0.002 A 
BRANCH   8  19
ATOM     19  C   UNL     1       4.448  -5.219  -1.354  1.00  0.00     0.162 C 
BRANCH  19  20
ATOM     20  C   UNL     1       3.284  -4.353  -1.807  1.00  0.00    -0.024 A 
ATOM     21  C   UNL     1       1.835  -2.537  -1.131  1.00  0.00     0.119 A 
ATOM     22  C   UNL     1       0.748  -3.168  -1.737  1.00  0.00     0.046 A 
ATOM     23  C   UNL     1       3.115  -3.085  -1.217  1.00  0.00     0.052 A 
ATOM     24  C   UNL     1       0.941  -4.355  -2.447  1.00  0.00     0.004 A 
ATOM     25  C   UNL     1       2.204  -4.953  -2.479  1.00  0.00     0.006 A 
BRANCH  21  26
ATOM     26  O   UNL     1       1.607  -1.600  -0.155  1.00  0.00    -0.497 OA
ATOM     27  C   UNL     1       1.496  -0.289  -0.681  1.00  0.00     0.278 C 
ENDBRANCH  21  26
ENDBRANCH  19  20
ENDBRANCH   8  19
ENDBRANCH   6   7
ENDBRANCH   4   6
ENDBRANCH   3   4
ENDBRANCH   2   3
ENDBRANCH   1   2
BRANCH   1  28
ATOM     28  O   UNL     1       1.316  -8.697   5.548  1.00  0.00    -0.374 OA
BRANCH  28  29
ATOM     29  C   UNL     1       2.632  -8.852   5.019  1.00  0.00     0.202 C 
BRANCH  29  30
ATOM     30  C   UNL     1       2.889 -10.083   4.142  1.00  0.00     0.261 C 
BRANCH  30  31
ATOM     31  O   UNL     1       2.022 -10.150   3.005  1.00  0.00    -0.460 OA
BRANCH  31  32
ATOM     32  C   UNL     1       0.991 -11.012   3.135  1.00  0.00     0.338 C 
ATOM     33  O   UNL     1       0.792 -11.797   4.048  1.00  0.00    -0.246 OA
BRANCH  32  34
ATOM     34  C   UNL     1       0.010 -10.799   2.057  1.00  0.00     0.060 A 
ATOM     35  C   UNL     1      -1.321 -10.601   2.443  1.00  0.00     0.016 A 
ATOM     36  C   UNL     1       0.356 -10.891   0.707  1.00  0.00     0.016 A 
ATOM     37  C   UNL     1      -2.322 -10.552   1.480  1.00  0.00     0.010 A 
ATOM     38  C   UNL     1      -0.653 -10.850  -0.261  1.00  0.00     0.010 A 
ATOM     39  C   UNL     1      -1.999 -10.722   0.127  1.00  0.00    -0.014 A 
BRANCH  39  40
ATOM     40  C   UNL     1      -3.094 -10.911  -0.851  1.00  0.00     0.031 A 
ATOM     41  C   UNL     1      -3.474 -12.308  -1.254  1.00  0.00     0.074 A 
ATOM     42  C   UNL     1      -3.777  -9.853  -1.321  1.00  0.00     0.049 A 
ATOM     43  N   UNL     1      -4.425 -12.710  -2.059  1.00  0.00    -0.248 NA
ATOM     44  C   UNL     1      -2.678 -13.401  -0.671  1.00  0.00     0.031 C 
ATOM     45  C   UNL     1      -3.518  -8.457  -0.970  1.00  0.00     0.029 A 
ATOM     46  N   UNL     1      -4.834  -9.793  -2.193  1.00  0.00    -0.354 N 
ATOM     47  C   UNL     1      -4.338 -14.097  -2.081  1.00  0.00     0.074 A 
ATOM     48  C   UNL     1      -3.225 -14.467  -1.235  1.00  0.00     0.031 C 
ATOM     49  C   UNL     1      -4.397  -7.676  -1.619  1.00  0.00     0.029 A 
ATOM     50  C   UNL     1      -5.260  -8.513  -2.449  1.00  0.00     0.049 A 
ATOM     51  H   UNL     1      -5.248 -10.590  -2.595  1.00  0.00     0.167 HD
ATOM     52  C   UNL     1      -5.122 -14.982  -2.741  1.00  0.00     0.031 A 
ATOM     53  C   UNL     1      -6.230  -8.070  -3.271  1.00  0.00     0.031 A 
ATOM     54  C   UNL     1      -6.217 -14.605  -3.594  1.00  0.00     0.049 A 
ATOM     55  C   UNL     1      -7.049  -9.071  -4.041  1.00  0.00     0.074 A 
ATOM     56  C   UNL     1      -7.082 -15.422  -4.301  1.00  0.00     0.029 A 
ATOM     57  N   UNL     1      -6.593 -13.297  -3.858  1.00  0.00    -0.354 N 
ATOM     58  N   UNL     1      -6.978 -10.381  -4.030  1.00  0.00    -0.248 NA
ATOM     59  C   UNL     1      -8.089  -8.533  -4.929  1.00  0.00     0.031 C 
ATOM     60  C   UNL     1      -7.947 -14.605  -5.036  1.00  0.00     0.029 A 
ATOM     61  C   UNL     1      -7.660 -13.281  -4.740  1.00  0.00     0.049 A 
ATOM     62  H   UNL     1      -6.165 -12.497  -3.474  1.00  0.00     0.167 HD
ATOM     63  C   UNL     1      -7.977 -10.823  -4.887  1.00  0.00     0.074 A 
ATOM     64  C   UNL     1      -8.650  -9.643  -5.389  1.00  0.00     0.031 C 
ATOM     65  C   UNL     1      -8.309 -12.093  -5.229  1.00  0.00     0.031 A 
BRANCH  52  66
ATOM     66  C   UNL     1      -4.794 -16.442  -2.593  1.00  0.00    -0.014 A 
ATOM     67  C   UNL     1      -5.037 -17.128  -1.393  1.00  0.00     0.009 A 
ATOM     68  C   UNL     1      -4.256 -17.148  -3.680  1.00  0.00     0.009 A 
ATOM     69  C   UNL     1      -4.716 -18.482  -1.274  1.00  0.00     0.001 A 
ATOM     70  C   UNL     1      -3.961 -18.508  -3.568  1.00  0.00     0.001 A 
ATOM     71  C   UNL     1      -4.183 -19.172  -2.362  1.00  0.00     0.000 A 
ENDBRANCH  52  66
BRANCH  53  72
ATOM     72  C   UNL     1      -6.470  -6.610  -3.417  1.00  0.00    -0.014 A 
ATOM     73  C   UNL     1      -7.638  -6.018  -2.916  1.00  0.00     0.009 A 
ATOM     74  C   UNL     1      -5.522  -5.799  -4.063  1.00  0.00     0.009 A 
ATOM     75  C   UNL     1      -7.862  -4.648  -3.075  1.00  0.00     0.001 A 
ATOM     76  C   UNL     1      -5.735  -4.425  -4.196  1.00  0.00     0.001 A 
ATOM     77  C   UNL     1      -6.908  -3.852  -3.709  1.00  0.00     0.000 A 
ENDBRANCH  53  72
BRANCH  65  78
ATOM     78  C   UNL     1      -9.468 -12.269  -6.169  1.00  0.00    -0.014 A 
ATOM     79  C   UNL     1      -9.351 -11.964  -7.533  1.00  0.00     0.009 A 
ATOM     80  C   UNL     1     -10.677 -12.796  -5.688  1.00  0.00     0.009 A 
ATOM     81  C   UNL     1     -10.435 -12.154  -8.393  1.00  0.00     0.001 A 
ATOM     82  C   UNL     1     -11.749 -13.011  -6.555  1.00  0.00     0.001 A 
ATOM     83  C   UNL     1     -11.630 -12.682  -7.904  1.00  0.00     0.000 A 
ENDBRANCH  65  78
ENDBRANCH  39  40
ENDBRANCH  32  34
ENDBRANCH  31  32
ENDBRANCH  30  31
ENDBRANCH  29  30
ENDBRANCH  28  29
ENDBRANCH   1  28
TORSDOF 18
