REMARK SMILES Cc1cc(=O)c(Oc2ccc(C(=O)OCCOCCOC(=O)c3ccc(-c4c5nc(c(-c6ccccc6)c6ccc([nH]6)c(-c6ccccc6)c6nc(c(-c7ccccc7)c7ccc4[nH]7)C=C6)C=C5)cc3)cc2)c(-c2ccc(S(C)(=O)=O)cc2)o1
REMARK SMILES IDX 16 1 15 2 14 3 12 4 13 5 11 6 8 7 9 8 72 9 10 10 71 11 7 12
REMARK SMILES IDX 6 13 1 14 2 15 3 16 84 17 4 18 73 19 5 20 74 21 75 22 83 23
REMARK SMILES IDX 76 24 82 25 77 26 78 27 79 28 80 29 81 30 17 31 18 32 19 33
REMARK SMILES IDX 20 34 21 35 22 36 23 37 24 38 70 39 25 40 69 41 26 42 27 43
REMARK SMILES IDX 28 44 63 45 29 46 68 47 62 48 64 49 30 50 67 51 61 52 60 53
REMARK SMILES IDX 31 55 53 56 38 57 52 58 39 59 42 60 51 61 65 62 40 63 41 64
REMARK SMILES IDX 50 66 66 67 43 68 32 69 33 70 37 71 34 72 36 73 35 74 54 75
REMARK SMILES IDX 55 76 59 77 56 78 58 79 57 80 44 81 45 82 49 83 46 84 48 85
REMARK SMILES IDX 47 86
REMARK H PARENT 64 54 42 65
REMARK Flexibility Score: inf
ROOT
ATOM      1  C   UNL     1      -7.802  -6.864   4.602  1.00  0.00     0.202 C 
ENDROOT
BRANCH   1   2
ATOM      2  C   UNL     1      -7.507  -7.994   3.606  1.00  0.00     0.261 C 
BRANCH   2   3
ATOM      3  O   UNL     1      -6.178  -7.883   3.068  1.00  0.00    -0.460 OA
BRANCH   3   4
ATOM      4  C   UNL     1      -6.109  -7.491   1.768  1.00  0.00     0.338 C 
ATOM      5  O   UNL     1      -7.032  -7.460   0.972  1.00  0.00    -0.246 OA
BRANCH   4   6
ATOM      6  C   UNL     1      -4.746  -6.979   1.448  1.00  0.00     0.060 A 
ATOM      7  C   UNL     1      -2.275  -5.805   0.827  1.00  0.00     0.127 A 
ATOM      8  C   UNL     1      -3.342  -5.676  -0.056  1.00  0.00     0.048 A 
ATOM      9  C   UNL     1      -2.417  -6.585   1.979  1.00  0.00     0.048 A 
ATOM     10  C   UNL     1      -4.582  -6.235   0.269  1.00  0.00     0.019 A 
ATOM     11  C   UNL     1      -3.647  -7.171   2.294  1.00  0.00     0.019 A 
BRANCH   7  12
ATOM     12  O   UNL     1      -1.017  -5.358   0.545  1.00  0.00    -0.449 OA
BRANCH  12  13
ATOM     13  C   UNL     1      -0.661  -4.042   0.303  1.00  0.00     0.217 A 
ATOM     14  C   UNL     1       1.018  -0.085  -0.166  1.00  0.00     0.088 C 
ATOM     15  C   UNL     1       0.556  -1.504  -0.083  1.00  0.00     0.105 A 
ATOM     16  C   UNL     1       1.364  -2.559  -0.200  1.00  0.00     0.098 A 
ATOM     17  O   UNL     1      -0.793  -1.633   0.139  1.00  0.00    -0.457 OA
ATOM     18  C   UNL     1       0.790  -3.907  -0.063  1.00  0.00     0.228 A 
ATOM     19  C   UNL     1      -1.358  -2.881   0.379  1.00  0.00     0.180 A 
ATOM     20  O   UNL     1       1.518  -4.883  -0.227  1.00  0.00    -0.285 OA
BRANCH  19  21
ATOM     21  C   UNL     1      -2.772  -2.680   0.723  1.00  0.00     0.021 A 
ATOM     22  C   UNL     1      -3.658  -2.202  -0.261  1.00  0.00     0.013 A 
ATOM     23  C   UNL     1      -3.215  -2.797   2.040  1.00  0.00     0.013 A 
ATOM     24  C   UNL     1      -4.991  -1.918   0.045  1.00  0.00     0.021 A 
ATOM     25  C   UNL     1      -4.532  -2.458   2.350  1.00  0.00     0.021 A 
ATOM     26  C   UNL     1      -5.426  -2.057   1.356  1.00  0.00     0.067 A 
BRANCH  26  27
ATOM     27  S   UNL     1      -7.149  -1.848   1.752  1.00  0.00     0.175 S 
ATOM     28  C   UNL     1      -7.236  -0.286   2.576  1.00  0.00     0.163 C 
ATOM     29  O   UNL     1      -7.878  -1.744   0.503  1.00  0.00    -0.224 OA
ATOM     30  O   UNL     1      -7.478  -2.873   2.717  1.00  0.00    -0.224 OA
ENDBRANCH  26  27
ENDBRANCH  19  21
ENDBRANCH  12  13
ENDBRANCH   7  12
ENDBRANCH   4   6
ENDBRANCH   3   4
ENDBRANCH   2   3
ENDBRANCH   1   2
BRANCH   1  31
ATOM     31  O   UNL     1      -7.478  -5.560   4.133  1.00  0.00    -0.374 OA
BRANCH  31  32
ATOM     32  C   UNL     1      -6.093  -5.223   4.205  1.00  0.00     0.202 C 
BRANCH  32  33
ATOM     33  C   UNL     1      -5.840  -4.016   5.105  1.00  0.00     0.261 C 
BRANCH  33  34
ATOM     34  O   UNL     1      -5.857  -4.422   6.459  1.00  0.00    -0.460 OA
BRANCH  34  35
ATOM     35  C   UNL     1      -7.043  -4.367   7.102  1.00  0.00     0.338 C 
ATOM     36  O   UNL     1      -8.035  -3.738   6.834  1.00  0.00    -0.246 OA
BRANCH  35  37
ATOM     37  C   UNL     1      -6.918  -5.454   8.087  1.00  0.00     0.060 A 
ATOM     38  C   UNL     1      -5.648  -5.772   8.590  1.00  0.00     0.016 A 
ATOM     39  C   UNL     1      -8.031  -6.256   8.347  1.00  0.00     0.016 A 
ATOM     40  C   UNL     1      -5.475  -6.938   9.298  1.00  0.00     0.010 A 
ATOM     41  C   UNL     1      -7.870  -7.391   9.132  1.00  0.00     0.010 A 
ATOM     42  C   UNL     1      -6.594  -7.722   9.610  1.00  0.00    -0.014 A 
BRANCH  42  43
ATOM     43  C   UNL     1      -6.406  -8.779  10.609  1.00  0.00     0.031 A 
ATOM     44  C   UNL     1      -6.415 -10.216  10.225  1.00  0.00     0.074 A 
ATOM     45  C   UNL     1      -6.144  -8.360  11.860  1.00  0.00     0.049 A 
ATOM     46  N   UNL     1      -6.162 -11.252  10.976  1.00  0.00    -0.248 NA
ATOM     47  C   UNL     1      -6.748 -10.543   8.829  1.00  0.00     0.031 C 
ATOM     48  C   UNL     1      -6.115  -6.951  12.279  1.00  0.00     0.029 A 
ATOM     49  N   UNL     1      -5.810  -9.049  12.989  1.00  0.00    -0.354 N 
ATOM     50  C   UNL     1      -6.300 -12.356  10.150  1.00  0.00     0.074 A 
ATOM     51  C   UNL     1      -6.695 -11.870   8.846  1.00  0.00     0.031 C 
ATOM     52  C   UNL     1      -5.721  -6.881  13.555  1.00  0.00     0.029 A 
ATOM     53  C   UNL     1      -5.545  -8.234  14.062  1.00  0.00     0.049 A 
ATOM     54  H   UNL     1      -5.765 -10.031  13.031  1.00  0.00     0.167 HD
ATOM     55  C   UNL     1      -6.096 -13.653  10.472  1.00  0.00     0.031 A 
ATOM     56  C   UNL     1      -5.207  -8.547  15.323  1.00  0.00     0.031 A 
ATOM     57  C   UNL     1      -5.719 -14.089  11.793  1.00  0.00     0.049 A 
ATOM     58  C   UNL     1      -5.027  -9.997  15.650  1.00  0.00     0.074 A 
ATOM     59  C   UNL     1      -5.493 -15.378  12.238  1.00  0.00     0.029 A 
ATOM     60  N   UNL     1      -5.512 -13.246  12.878  1.00  0.00    -0.354 N 
ATOM     61  N   UNL     1      -5.134 -11.036  14.855  1.00  0.00    -0.248 NA
ATOM     62  C   UNL     1      -4.668 -10.324  17.033  1.00  0.00     0.031 C 
ATOM     63  C   UNL     1      -5.218 -15.321  13.605  1.00  0.00     0.029 A 
ATOM     64  C   UNL     1      -5.188 -13.991  13.999  1.00  0.00     0.049 A 
ATOM     65  H   UNL     1      -5.586 -12.265  12.853  1.00  0.00     0.167 HD
ATOM     66  C   UNL     1      -4.856 -12.144  15.639  1.00  0.00     0.074 A 
ATOM     67  C   UNL     1      -4.528 -11.641  16.960  1.00  0.00     0.031 C 
ATOM     68  C   UNL     1      -4.886 -13.457  15.305  1.00  0.00     0.031 A 
BRANCH  55  69
ATOM     69  C   UNL     1      -6.273 -14.693   9.402  1.00  0.00    -0.014 A 
ATOM     70  C   UNL     1      -7.308 -15.637   9.507  1.00  0.00     0.009 A 
ATOM     71  C   UNL     1      -5.349 -14.815   8.353  1.00  0.00     0.009 A 
ATOM     72  C   UNL     1      -7.393 -16.700   8.606  1.00  0.00     0.001 A 
ATOM     73  C   UNL     1      -5.454 -15.863   7.436  1.00  0.00     0.001 A 
ATOM     74  C   UNL     1      -6.466 -16.812   7.572  1.00  0.00     0.000 A 
ENDBRANCH  55  69
BRANCH  56  75
ATOM     75  C   UNL     1      -5.031  -7.461  16.323  1.00  0.00    -0.014 A 
ATOM     76  C   UNL     1      -6.115  -6.633  16.666  1.00  0.00     0.009 A 
ATOM     77  C   UNL     1      -3.775  -7.189  16.881  1.00  0.00     0.009 A 
ATOM     78  C   UNL     1      -5.940  -5.541  17.517  1.00  0.00     0.001 A 
ATOM     79  C   UNL     1      -3.611  -6.120  17.766  1.00  0.00     0.001 A 
ATOM     80  C   UNL     1      -4.689  -5.290  18.073  1.00  0.00     0.000 A 
ENDBRANCH  56  75
BRANCH  68  81
ATOM     81  C   UNL     1      -4.570 -14.443  16.395  1.00  0.00    -0.014 A 
ATOM     82  C   UNL     1      -3.419 -15.241  16.306  1.00  0.00     0.009 A 
ATOM     83  C   UNL     1      -5.452 -14.635  17.470  1.00  0.00     0.009 A 
ATOM     84  C   UNL     1      -3.164 -16.221  17.265  1.00  0.00     0.001 A 
ATOM     85  C   UNL     1      -5.172 -15.587  18.450  1.00  0.00     0.001 A 
ATOM     86  C   UNL     1      -4.035 -16.387  18.341  1.00  0.00     0.000 A 
ENDBRANCH  68  81
ENDBRANCH  42  43
ENDBRANCH  35  37
ENDBRANCH  34  35
ENDBRANCH  33  34
ENDBRANCH  32  33
ENDBRANCH  31  32
ENDBRANCH   1  31
TORSDOF 18
