REMARK SMILES Cc1cc([C@@H](C)NC(=O)N[C@H]2C=C[C@@H](C(=O)OCCOCCOC(=O)c3ccc(-c4c5nc(c(-c6ccccc6)c6ccc([nH]6)c(-c6ccccc6)c6nc(c(-c7ccccc7)c7ccc4[nH]7)C=C6)C=C5)cc3)C2)c(C)s1
REMARK SMILES IDX 19 1 18 2 17 3 15 4 16 5 14 6 11 7 12 8 74 9 13 10 10 11
REMARK SMILES IDX 7 12 8 13 9 15 5 17 6 18 4 19 1 20 2 21 3 22 77 23 75 24
REMARK SMILES IDX 76 25 20 26 21 27 22 28 23 29 24 30 25 31 26 32 27 33 73 34
REMARK SMILES IDX 28 35 72 36 29 37 30 38 31 39 66 40 32 41 71 42 65 43 67 44
REMARK SMILES IDX 33 45 70 46 64 47 63 48 34 50 56 51 41 52 55 53 42 54 45 55
REMARK SMILES IDX 54 56 68 57 43 58 44 59 53 61 69 62 46 63 35 64 36 65 40 66
REMARK SMILES IDX 37 67 39 68 38 69 57 70 58 71 62 72 59 73 61 74 60 75 47 76
REMARK SMILES IDX 48 77 52 78 49 79 51 80 50 81
REMARK H PARENT 7 14 10 16 67 49 45 60
REMARK Flexibility Score: inf
ROOT
ATOM      1  C   UNL     1      -4.579  -2.328   3.276  1.00  0.00     0.202 C 
ENDROOT
BRANCH   1   2
ATOM      2  C   UNL     1      -4.702  -3.830   2.996  1.00  0.00     0.261 C 
BRANCH   2   3
ATOM      3  O   UNL     1      -3.485  -4.336   2.416  1.00  0.00    -0.463 OA
BRANCH   3   4
ATOM      4  C   UNL     1      -3.603  -4.943   1.207  1.00  0.00     0.312 C 
ATOM      5  O   UNL     1      -4.666  -5.259   0.684  1.00  0.00    -0.252 OA
BRANCH   4   6
ATOM      6  C   UNL     1      -2.261  -5.199   0.531  1.00  0.00     0.124 C 
ATOM      7  C   UNL     1       0.160  -5.139   0.633  1.00  0.00     0.107 C 
ATOM      8  C   UNL     1      -0.361  -6.523   0.883  1.00  0.00    -0.006 C 
ATOM      9  C   UNL     1      -1.086  -4.301   0.927  1.00  0.00     0.048 C 
ATOM     10  C   UNL     1      -1.700  -6.560   0.815  1.00  0.00    -0.014 C 
BRANCH   7  11
ATOM     11  N   UNL     1       1.253  -4.835   1.514  1.00  0.00    -0.332 N 
ATOM     12  N   UNL     1       2.011  -2.693   0.840  1.00  0.00    -0.332 N 
ATOM     13  C   UNL     1       2.009  -3.742   1.669  1.00  0.00     0.315 C 
ATOM     14  H   UNL     1       2.398  -1.890   1.258  1.00  0.00     0.165 HD
ATOM     15  O   UNL     1       2.736  -3.683   2.663  1.00  0.00    -0.249 OA
ATOM     16  H   UNL     1       1.492  -5.573   2.121  1.00  0.00     0.165 HD
BRANCH  12  17
ATOM     17  C   UNL     1       1.582  -2.448  -0.529  1.00  0.00     0.112 C 
ATOM     18  C   UNL     1       2.720  -2.663  -1.522  1.00  0.00     0.036 C 
BRANCH  17  19
ATOM     19  C   UNL     1       0.969  -1.061  -0.620  1.00  0.00    -0.012 A 
ATOM     20  C   UNL     1      -2.160   1.015  -1.270  1.00  0.00     0.056 C 
ATOM     21  C   UNL     1      -0.805   0.452  -1.006  1.00  0.00     0.002 A 
ATOM     22  C   UNL     1      -0.387  -0.859  -1.079  1.00  0.00     0.021 A 
ATOM     23  S   UNL     1       0.456   1.473  -0.497  1.00  0.00    -0.146 S 
ATOM     24  C   UNL     1       1.555   0.165  -0.318  1.00  0.00     0.007 A 
ATOM     25  C   UNL     1       2.942   0.504   0.126  1.00  0.00     0.057 C 
ENDBRANCH  17  19
ENDBRANCH  12  17
ENDBRANCH   7  11
ENDBRANCH   4   6
ENDBRANCH   3   4
ENDBRANCH   2   3
ENDBRANCH   1   2
BRANCH   1  26
ATOM     26  O   UNL     1      -4.498  -1.488   2.122  1.00  0.00    -0.374 OA
BRANCH  26  27
ATOM     27  C   UNL     1      -3.239  -1.438   1.455  1.00  0.00     0.202 C 
BRANCH  27  28
ATOM     28  C   UNL     1      -2.184  -0.506   2.053  1.00  0.00     0.261 C 
BRANCH  28  29
ATOM     29  O   UNL     1      -1.823  -0.874   3.383  1.00  0.00    -0.460 OA
BRANCH  29  30
ATOM     30  C   UNL     1      -2.286  -0.040   4.335  1.00  0.00     0.338 C 
ATOM     31  O   UNL     1      -2.929   0.990   4.191  1.00  0.00    -0.246 OA
BRANCH  30  32
ATOM     32  C   UNL     1      -2.045  -0.661   5.640  1.00  0.00     0.060 A 
ATOM     33  C   UNL     1      -3.132  -0.751   6.514  1.00  0.00     0.016 A 
ATOM     34  C   UNL     1      -0.777  -1.124   6.004  1.00  0.00     0.016 A 
ATOM     35  C   UNL     1      -2.940  -1.255   7.791  1.00  0.00     0.010 A 
ATOM     36  C   UNL     1      -0.586  -1.631   7.287  1.00  0.00     0.010 A 
ATOM     37  C   UNL     1      -1.659  -1.657   8.193  1.00  0.00    -0.014 A 
BRANCH  37  38
ATOM     38  C   UNL     1      -1.427  -1.964   9.617  1.00  0.00     0.031 A 
ATOM     39  C   UNL     1      -0.821  -0.905  10.492  1.00  0.00     0.074 A 
ATOM     40  C   UNL     1      -1.813  -3.148  10.119  1.00  0.00     0.049 A 
ATOM     41  N   UNL     1      -0.582  -0.931  11.776  1.00  0.00    -0.248 NA
ATOM     42  C   UNL     1      -0.434   0.354   9.831  1.00  0.00     0.031 C 
ATOM     43  C   UNL     1      -2.438  -4.226   9.353  1.00  0.00     0.029 A 
ATOM     44  N   UNL     1      -1.746  -3.633  11.397  1.00  0.00    -0.354 N 
ATOM     45  C   UNL     1      -0.017   0.301  12.076  1.00  0.00     0.074 A 
ATOM     46  C   UNL     1       0.087   1.038  10.837  1.00  0.00     0.031 C 
ATOM     47  C   UNL     1      -2.708  -5.248  10.183  1.00  0.00     0.029 A 
ATOM     48  C   UNL     1      -2.250  -4.903  11.526  1.00  0.00     0.049 A 
ATOM     49  H   UNL     1      -1.373  -3.121  12.150  1.00  0.00     0.167 HD
ATOM     50  C   UNL     1       0.372   0.777  13.282  1.00  0.00     0.031 A 
ATOM     51  C   UNL     1      -2.323  -5.695  12.611  1.00  0.00     0.031 A 
ATOM     52  C   UNL     1       0.281   0.024  14.503  1.00  0.00     0.049 A 
ATOM     53  C   UNL     1      -1.829  -5.164  13.928  1.00  0.00     0.074 A 
ATOM     54  C   UNL     1       0.636   0.407  15.784  1.00  0.00     0.029 A 
ATOM     55  N   UNL     1      -0.196  -1.276  14.589  1.00  0.00    -0.354 N 
ATOM     56  N   UNL     1      -1.328  -3.984  14.209  1.00  0.00    -0.248 NA
ATOM     57  C   UNL     1      -1.925  -6.069  15.081  1.00  0.00     0.031 C 
ATOM     58  C   UNL     1       0.425  -0.683  16.636  1.00  0.00     0.029 A 
ATOM     59  C   UNL     1      -0.121  -1.721  15.897  1.00  0.00     0.049 A 
ATOM     60  H   UNL     1      -0.537  -1.804  13.831  1.00  0.00     0.167 HD
ATOM     61  C   UNL     1      -1.073  -3.995  15.573  1.00  0.00     0.074 A 
ATOM     62  C   UNL     1      -1.494  -5.292  16.064  1.00  0.00     0.031 C 
ATOM     63  C   UNL     1      -0.541  -3.021  16.354  1.00  0.00     0.031 A 
BRANCH  50  64
ATOM     64  C   UNL     1       0.963   2.159  13.322  1.00  0.00    -0.014 A 
ATOM     65  C   UNL     1       0.173   3.299  13.106  1.00  0.00     0.009 A 
ATOM     66  C   UNL     1       2.330   2.324  13.593  1.00  0.00     0.009 A 
ATOM     67  C   UNL     1       0.747   4.573  13.126  1.00  0.00     0.001 A 
ATOM     68  C   UNL     1       2.896   3.599  13.641  1.00  0.00     0.001 A 
ATOM     69  C   UNL     1       2.106   4.722  13.399  1.00  0.00     0.000 A 
ENDBRANCH  50  64
BRANCH  51  70
ATOM     70  C   UNL     1      -2.882  -7.066  12.494  1.00  0.00    -0.014 A 
ATOM     71  C   UNL     1      -4.110  -7.395  13.088  1.00  0.00     0.009 A 
ATOM     72  C   UNL     1      -2.186  -8.058  11.784  1.00  0.00     0.009 A 
ATOM     73  C   UNL     1      -4.616  -8.694  12.994  1.00  0.00     0.001 A 
ATOM     74  C   UNL     1      -2.709  -9.347  11.666  1.00  0.00     0.001 A 
ATOM     75  C   UNL     1      -3.918  -9.667  12.280  1.00  0.00     0.000 A 
ENDBRANCH  51  70
BRANCH  63  76
ATOM     76  C   UNL     1      -0.419  -3.318  17.822  1.00  0.00    -0.014 A 
ATOM     77  C   UNL     1       0.532  -4.230  18.306  1.00  0.00     0.009 A 
ATOM     78  C   UNL     1      -1.249  -2.649  18.734  1.00  0.00     0.009 A 
ATOM     79  C   UNL     1       0.619  -4.497  19.673  1.00  0.00     0.001 A 
ATOM     80  C   UNL     1      -1.138  -2.894  20.103  1.00  0.00     0.001 A 
ATOM     81  C   UNL     1      -0.212  -3.825  20.570  1.00  0.00     0.000 A 
ENDBRANCH  63  76
ENDBRANCH  37  38
ENDBRANCH  30  32
ENDBRANCH  29  30
ENDBRANCH  28  29
ENDBRANCH  27  28
ENDBRANCH  26  27
ENDBRANCH   1  26
TORSDOF 17
