REMARK SMILES C[C@@H](Cc1cnn(-c2ccccc2)n1)C(=O)OCCOCCOC(=O)c1ccc(-c2c3nc(c(-c4ccccc4)c4ccc([nH]4)c(-c4ccccc4)c4nc(c(-c5ccccc5)c5ccc2[nH]5)C=C4)C=C3)cc1
REMARK SMILES IDX 19 1 18 2 17 3 15 4 16 5 2 6 1 7 3 8 4 9 5 10 14 11 6 12
REMARK SMILES IDX 7 13 8 14 9 15 13 16 10 17 12 18 11 19 20 20 21 21 22 22
REMARK SMILES IDX 23 23 24 24 25 25 26 26 27 27 73 28 28 29 72 30 29 31 30 32
REMARK SMILES IDX 31 33 66 34 32 35 71 36 65 37 67 38 33 39 70 40 64 41 63 42
REMARK SMILES IDX 34 44 56 45 41 46 55 47 42 48 45 49 54 50 68 51 43 52 44 53
REMARK SMILES IDX 53 55 69 56 46 57 35 58 36 59 40 60 37 61 39 62 38 63 57 64
REMARK SMILES IDX 58 65 62 66 59 67 61 68 60 69 47 70 48 71 52 72 49 73 51 74
REMARK SMILES IDX 50 75
REMARK H PARENT 67 43 45 54
REMARK Flexibility Score: inf
ROOT
ATOM      1  C   UNL     1      -4.035   0.679  -0.775  1.00  0.00     0.202 C 
ENDROOT
BRANCH   1   2
ATOM      2  C   UNL     1      -3.218  -0.091  -1.805  1.00  0.00     0.261 C 
BRANCH   2   3
ATOM      3  O   UNL     1      -1.844  -0.218  -1.411  1.00  0.00    -0.463 OA
BRANCH   3   4
ATOM      4  C   UNL     1      -0.937   0.253  -2.304  1.00  0.00     0.309 C 
ATOM      5  O   UNL     1      -1.213   0.814  -3.360  1.00  0.00    -0.252 OA
BRANCH   4   6
ATOM      6  C   UNL     1       0.501   0.015  -1.890  1.00  0.00     0.102 C 
ATOM      7  C   UNL     1       0.748  -0.128  -0.387  1.00  0.00     0.020 C 
BRANCH   6   8
ATOM      8  C   UNL     1       1.065  -1.131  -2.742  1.00  0.00     0.075 C 
BRANCH   8   9
ATOM      9  C   UNL     1       0.667  -2.497  -2.299  1.00  0.00     0.084 A 
ATOM     10  C   UNL     1       1.476  -3.627  -2.117  1.00  0.00     0.161 A 
ATOM     11  N   UNL     1      -0.593  -2.807  -1.973  1.00  0.00    -0.153 NA
ATOM     12  N   UNL     1       0.785  -4.591  -1.508  1.00  0.00    -0.157 NA
ATOM     13  N   UNL     1      -0.457  -4.042  -1.420  1.00  0.00    -0.151 N 
BRANCH  13  14
ATOM     14  C   UNL     1      -1.518  -4.673  -0.726  1.00  0.00     0.086 A 
ATOM     15  C   UNL     1      -1.238  -5.690   0.198  1.00  0.00     0.030 A 
ATOM     16  C   UNL     1      -2.842  -4.272  -0.949  1.00  0.00     0.030 A 
ATOM     17  C   UNL     1      -2.282  -6.296   0.898  1.00  0.00     0.002 A 
ATOM     18  C   UNL     1      -3.883  -4.911  -0.272  1.00  0.00     0.002 A 
ATOM     19  C   UNL     1      -3.602  -5.916   0.654  1.00  0.00     0.000 A 
ENDBRANCH  13  14
ENDBRANCH   8   9
ENDBRANCH   6   8
ENDBRANCH   4   6
ENDBRANCH   3   4
ENDBRANCH   2   3
ENDBRANCH   1   2
BRANCH   1  20
ATOM     20  O   UNL     1      -3.683   2.042  -0.540  1.00  0.00    -0.374 OA
BRANCH  20  21
ATOM     21  C   UNL     1      -2.404   2.353   0.002  1.00  0.00     0.202 C 
BRANCH  21  22
ATOM     22  C   UNL     1      -2.155   2.000   1.461  1.00  0.00     0.261 C 
BRANCH  22  23
ATOM     23  O   UNL     1      -2.236   0.603   1.705  1.00  0.00    -0.460 OA
BRANCH  23  24
ATOM     24  C   UNL     1      -3.390   0.222   2.303  1.00  0.00     0.338 C 
ATOM     25  O   UNL     1      -4.427   0.856   2.375  1.00  0.00    -0.246 OA
BRANCH  24  26
ATOM     26  C   UNL     1      -3.139  -0.995   3.081  1.00  0.00     0.060 A 
ATOM     27  C   UNL     1      -4.165  -1.348   3.958  1.00  0.00     0.016 A 
ATOM     28  C   UNL     1      -1.820  -1.437   3.252  1.00  0.00     0.016 A 
ATOM     29  C   UNL     1      -3.813  -1.892   5.167  1.00  0.00     0.010 A 
ATOM     30  C   UNL     1      -1.467  -1.957   4.471  1.00  0.00     0.010 A 
ATOM     31  C   UNL     1      -2.455  -2.087   5.443  1.00  0.00    -0.014 A 
BRANCH  31  32
ATOM     32  C   UNL     1      -2.114  -2.626   6.738  1.00  0.00     0.031 A 
ATOM     33  C   UNL     1      -2.442  -4.062   6.800  1.00  0.00     0.074 A 
ATOM     34  C   UNL     1      -1.507  -1.918   7.707  1.00  0.00     0.049 A 
ATOM     35  N   UNL     1      -3.453  -4.601   7.393  1.00  0.00    -0.248 NA
ATOM     36  C   UNL     1      -1.721  -4.965   5.884  1.00  0.00     0.031 C 
ATOM     37  C   UNL     1      -0.926  -0.577   7.621  1.00  0.00     0.029 A 
ATOM     38  N   UNL     1      -1.181  -2.310   8.968  1.00  0.00    -0.354 N 
ATOM     39  C   UNL     1      -3.333  -5.958   7.132  1.00  0.00     0.074 A 
ATOM     40  C   UNL     1      -2.450  -6.074   6.001  1.00  0.00     0.031 C 
ATOM     41  C   UNL     1      -0.110  -0.380   8.684  1.00  0.00     0.029 A 
ATOM     42  C   UNL     1      -0.209  -1.526   9.575  1.00  0.00     0.049 A 
ATOM     43  H   UNL     1      -1.599  -3.083   9.412  1.00  0.00     0.167 HD
ATOM     44  C   UNL     1      -3.616  -6.862   8.109  1.00  0.00     0.031 A 
ATOM     45  C   UNL     1       0.511  -1.850  10.681  1.00  0.00     0.031 A 
ATOM     46  C   UNL     1      -4.439  -6.274   9.143  1.00  0.00     0.049 A 
ATOM     47  C   UNL     1      -0.205  -2.946  11.376  1.00  0.00     0.074 A 
ATOM     48  C   UNL     1      -5.658  -5.624   9.182  1.00  0.00     0.029 A 
ATOM     49  N   UNL     1      -3.808  -5.963  10.323  1.00  0.00    -0.354 N 
ATOM     50  N   UNL     1      -1.341  -2.784  11.989  1.00  0.00    -0.248 NA
ATOM     51  C   UNL     1       0.112  -4.316  11.002  1.00  0.00     0.031 C 
ATOM     52  C   UNL     1      -5.515  -4.617  10.183  1.00  0.00     0.029 A 
ATOM     53  C   UNL     1      -4.248  -4.743  10.753  1.00  0.00     0.049 A 
ATOM     54  H   UNL     1      -3.146  -6.527  10.784  1.00  0.00     0.167 HD
ATOM     55  C   UNL     1      -2.079  -3.911  11.654  1.00  0.00     0.074 A 
ATOM     56  C   UNL     1      -1.097  -4.868  11.144  1.00  0.00     0.031 C 
ATOM     57  C   UNL     1      -3.440  -3.842  11.542  1.00  0.00     0.031 A 
BRANCH  44  58
ATOM     58  C   UNL     1      -2.688  -8.028   8.400  1.00  0.00    -0.014 A 
ATOM     59  C   UNL     1      -2.996  -8.852   9.495  1.00  0.00     0.009 A 
ATOM     60  C   UNL     1      -1.384  -8.147   7.875  1.00  0.00     0.009 A 
ATOM     61  C   UNL     1      -2.015  -9.637  10.111  1.00  0.00     0.001 A 
ATOM     62  C   UNL     1      -0.415  -8.963   8.459  1.00  0.00     0.001 A 
ATOM     63  C   UNL     1      -0.721  -9.679   9.603  1.00  0.00     0.000 A 
ENDBRANCH  44  58
BRANCH  45  64
ATOM     64  C   UNL     1       1.910  -1.504  11.025  1.00  0.00    -0.014 A 
ATOM     65  C   UNL     1       2.409  -1.742  12.318  1.00  0.00     0.009 A 
ATOM     66  C   UNL     1       2.842  -1.207  10.014  1.00  0.00     0.009 A 
ATOM     67  C   UNL     1       3.787  -1.728  12.576  1.00  0.00     0.001 A 
ATOM     68  C   UNL     1       4.217  -1.186  10.273  1.00  0.00     0.001 A 
ATOM     69  C   UNL     1       4.691  -1.464  11.550  1.00  0.00     0.000 A 
ENDBRANCH  45  64
BRANCH  57  70
ATOM     70  C   UNL     1      -4.130  -2.620  12.094  1.00  0.00    -0.014 A 
ATOM     71  C   UNL     1      -3.878  -1.311  11.646  1.00  0.00     0.009 A 
ATOM     72  C   UNL     1      -5.157  -2.819  13.027  1.00  0.00     0.009 A 
ATOM     73  C   UNL     1      -4.609  -0.231  12.153  1.00  0.00     0.001 A 
ATOM     74  C   UNL     1      -5.902  -1.744  13.515  1.00  0.00     0.001 A 
ATOM     75  C   UNL     1      -5.622  -0.450  13.085  1.00  0.00     0.000 A 
ENDBRANCH  57  70
ENDBRANCH  31  32
ENDBRANCH  24  26
ENDBRANCH  23  24
ENDBRANCH  22  23
ENDBRANCH  21  22
ENDBRANCH  20  21
ENDBRANCH   1  20
TORSDOF 17
