REMARK SMILES O=C(OCCOCCOC(=O)[C@H]1CC=CC[C@@H]1C(=O)NC1CCCCC1)c1ccc(-c2c3nc(c(-c4ccccc4)c4ccc([nH]4)c(-c4ccccc4)c4nc(c(-c5ccccc5)c5ccc2[nH]5)C=C4)C=C3)cc1
REMARK SMILES IDX 6 1 5 2 4 3 3 4 2 5 1 6 27 7 28 8 74 9 29 10 73 11 30 12
REMARK SMILES IDX 31 13 32 14 67 15 33 16 72 17 66 18 68 19 34 20 71 21 65 22
REMARK SMILES IDX 64 23 35 25 57 26 42 27 56 28 43 29 46 30 55 31 69 32 44 33
REMARK SMILES IDX 45 34 54 36 70 37 47 38 36 39 37 40 41 41 38 42 40 43 39 44
REMARK SMILES IDX 58 45 59 46 63 47 60 48 62 49 61 50 48 51 49 52 53 53 50 54
REMARK SMILES IDX 52 55 51 56 7 57 8 58 9 59 10 60 11 61 12 62 13 63 17 64
REMARK SMILES IDX 14 65 16 66 15 67 18 68 19 69 20 70 21 72 22 73 26 74 23 75
REMARK SMILES IDX 25 76 24 77
REMARK H PARENT 68 24 46 35 20 71
REMARK Flexibility Score: inf
ROOT
ATOM      1  O   UNL     1       3.713   1.268  -0.126  1.00  0.00    -0.374 OA
ENDROOT
BRANCH   1   2
ATOM      2  C   UNL     1       4.152   0.173  -0.929  1.00  0.00     0.202 C 
BRANCH   2   3
ATOM      3  C   UNL     1       4.019  -1.218  -0.310  1.00  0.00     0.261 C 
BRANCH   3   4
ATOM      4  O   UNL     1       2.648  -1.471   0.029  1.00  0.00    -0.460 OA
BRANCH   4   5
ATOM      5  C   UNL     1       2.025  -1.082   1.166  1.00  0.00     0.338 C 
ATOM      6  O   UNL     1       0.800  -1.132   1.235  1.00  0.00    -0.246 OA
BRANCH   5   7
ATOM      7  C   UNL     1       2.787  -0.671   2.377  1.00  0.00     0.060 A 
ATOM      8  C   UNL     1       3.977   0.052   2.345  1.00  0.00     0.016 A 
ATOM      9  C   UNL     1       2.243  -0.988   3.628  1.00  0.00     0.016 A 
ATOM     10  C   UNL     1       4.637   0.435   3.476  1.00  0.00     0.010 A 
ATOM     11  C   UNL     1       2.896  -0.594   4.798  1.00  0.00     0.010 A 
ATOM     12  C   UNL     1       4.094   0.121   4.705  1.00  0.00    -0.014 A 
BRANCH  12  13
ATOM     13  C   UNL     1       4.964   0.440   5.830  1.00  0.00     0.031 A 
ATOM     14  C   UNL     1       5.790  -0.670   6.382  1.00  0.00     0.074 A 
ATOM     15  C   UNL     1       5.196   1.735   6.104  1.00  0.00     0.049 A 
ATOM     16  N   UNL     1       6.614  -0.656   7.387  1.00  0.00    -0.248 NA
ATOM     17  C   UNL     1       5.693  -1.972   5.691  1.00  0.00     0.031 C 
ATOM     18  C   UNL     1       4.597   2.874   5.389  1.00  0.00     0.029 A 
ATOM     19  N   UNL     1       6.045   2.315   6.997  1.00  0.00    -0.354 N 
ATOM     20  C   UNL     1       7.082  -1.957   7.494  1.00  0.00     0.074 A 
ATOM     21  C   UNL     1       6.480  -2.732   6.435  1.00  0.00     0.031 C 
ATOM     22  C   UNL     1       5.121   4.013   5.864  1.00  0.00     0.029 A 
ATOM     23  C   UNL     1       6.000   3.687   6.976  1.00  0.00     0.049 A 
ATOM     24  H   UNL     1       6.632   1.802   7.597  1.00  0.00     0.167 HD
ATOM     25  C   UNL     1       7.917  -2.446   8.434  1.00  0.00     0.031 A 
ATOM     26  C   UNL     1       6.565   4.563   7.821  1.00  0.00     0.031 A 
ATOM     27  C   UNL     1       8.471  -1.615   9.465  1.00  0.00     0.049 A 
ATOM     28  C   UNL     1       7.373   3.981   8.946  1.00  0.00     0.074 A 
ATOM     29  C   UNL     1       9.237  -1.970  10.555  1.00  0.00     0.029 A 
ATOM     30  N   UNL     1       8.306  -0.233   9.514  1.00  0.00    -0.354 N 
ATOM     31  N   UNL     1       7.700   2.726   9.159  1.00  0.00    -0.248 NA
ATOM     32  C   UNL     1       7.864   4.918   9.958  1.00  0.00     0.031 C 
ATOM     33  C   UNL     1       9.489  -0.808  11.293  1.00  0.00     0.029 A 
ATOM     34  C   UNL     1       8.939   0.280  10.627  1.00  0.00     0.049 A 
ATOM     35  H   UNL     1       7.809   0.299   8.851  1.00  0.00     0.167 HD
ATOM     36  C   UNL     1       8.447   2.720  10.325  1.00  0.00     0.074 A 
ATOM     37  C   UNL     1       8.543   4.105  10.755  1.00  0.00     0.031 C 
ATOM     38  C   UNL     1       8.998   1.675  10.992  1.00  0.00     0.031 A 
BRANCH  25  39
ATOM     39  C   UNL     1       8.131  -3.930   8.443  1.00  0.00    -0.014 A 
ATOM     40  C   UNL     1       8.886  -4.584   7.457  1.00  0.00     0.009 A 
ATOM     41  C   UNL     1       7.488  -4.701   9.425  1.00  0.00     0.009 A 
ATOM     42  C   UNL     1       8.960  -5.980   7.433  1.00  0.00     0.001 A 
ATOM     43  C   UNL     1       7.585  -6.093   9.415  1.00  0.00     0.001 A 
ATOM     44  C   UNL     1       8.311  -6.732   8.412  1.00  0.00     0.000 A 
ENDBRANCH  25  39
BRANCH  26  45
ATOM     45  C   UNL     1       6.285   6.019   7.706  1.00  0.00    -0.014 A 
ATOM     46  C   UNL     1       7.312   6.941   7.462  1.00  0.00     0.009 A 
ATOM     47  C   UNL     1       4.971   6.501   7.852  1.00  0.00     0.009 A 
ATOM     48  C   UNL     1       7.034   8.310   7.392  1.00  0.00     0.001 A 
ATOM     49  C   UNL     1       4.690   7.864   7.747  1.00  0.00     0.001 A 
ATOM     50  C   UNL     1       5.724   8.770   7.529  1.00  0.00     0.000 A 
ENDBRANCH  26  45
BRANCH  38  51
ATOM     51  C   UNL     1       9.786   2.016  12.219  1.00  0.00    -0.014 A 
ATOM     52  C   UNL     1       9.151   2.414  13.404  1.00  0.00     0.009 A 
ATOM     53  C   UNL     1      11.182   1.885  12.192  1.00  0.00     0.009 A 
ATOM     54  C   UNL     1       9.909   2.707  14.536  1.00  0.00     0.001 A 
ATOM     55  C   UNL     1      11.933   2.145  13.335  1.00  0.00     0.001 A 
ATOM     56  C   UNL     1      11.297   2.565  14.502  1.00  0.00     0.000 A 
ENDBRANCH  38  51
ENDBRANCH  12  13
ENDBRANCH   5   7
ENDBRANCH   4   5
ENDBRANCH   3   4
ENDBRANCH   2   3
ENDBRANCH   1   2
BRANCH   1  57
ATOM     57  C   UNL     1       2.395   1.753  -0.374  1.00  0.00     0.202 C 
BRANCH  57  58
ATOM     58  C   UNL     1       2.461   3.044  -1.181  1.00  0.00     0.261 C 
BRANCH  58  59
ATOM     59  O   UNL     1       2.929   2.731  -2.501  1.00  0.00    -0.463 OA
BRANCH  59  60
ATOM     60  C   UNL     1       4.277   2.638  -2.648  1.00  0.00     0.310 C 
ATOM     61  O   UNL     1       5.100   2.990  -1.821  1.00  0.00    -0.252 OA
BRANCH  60  62
ATOM     62  C   UNL     1       4.669   2.040  -3.989  1.00  0.00     0.115 C 
ATOM     63  C   UNL     1       4.583   0.524  -4.167  1.00  0.00     0.043 C 
ATOM     64  C   UNL     1       3.966   2.795  -5.109  1.00  0.00     0.096 C 
ATOM     65  C   UNL     1       3.186   0.040  -4.358  1.00  0.00    -0.030 C 
ATOM     66  C   UNL     1       2.519   2.251  -5.337  1.00  0.00     0.041 C 
ATOM     67  C   UNL     1       2.246   0.839  -4.875  1.00  0.00    -0.030 C 
BRANCH  64  68
ATOM     68  C   UNL     1       4.822   2.814  -6.369  1.00  0.00     0.224 C 
ATOM     69  O   UNL     1       4.386   2.381  -7.440  1.00  0.00    -0.275 OA
ATOM     70  N   UNL     1       6.067   3.371  -6.415  1.00  0.00    -0.353 N 
ATOM     71  H   UNL     1       6.316   3.601  -7.340  1.00  0.00     0.163 HD
BRANCH  70  72
ATOM     72  C   UNL     1       7.151   3.729  -5.469  1.00  0.00     0.082 C 
ATOM     73  C   UNL     1       6.764   4.583  -4.246  1.00  0.00     0.025 C 
ATOM     74  C   UNL     1       8.040   2.498  -5.204  1.00  0.00     0.025 C 
ATOM     75  C   UNL     1       7.716   4.519  -3.042  1.00  0.00     0.002 C 
ATOM     76  C   UNL     1       9.088   2.740  -4.129  1.00  0.00     0.002 C 
ATOM     77  C   UNL     1       8.417   3.181  -2.841  1.00  0.00     0.000 C 
ENDBRANCH  70  72
ENDBRANCH  64  68
ENDBRANCH  60  62
ENDBRANCH  59  60
ENDBRANCH  58  59
ENDBRANCH  57  58
ENDBRANCH   1  57
TORSDOF 16
