REMARK SMILES C[C@@H](NC(=O)C(C)(C)C)C(=O)N[C@H](C)C(=O)OCCOCCOC(=O)c1ccc(-c2c3nc(c(-c4ccccc4)c4ccc([nH]4)c(-c4ccccc4)c4nc(c(-c5ccccc5)c5ccc2[nH]5)C=C4)C=C3)cc1
REMARK SMILES IDX 19 1 18 2 17 3 15 4 16 5 13 6 14 7 12 8 10 9 11 10 2 12 1 13
REMARK SMILES IDX 3 14 4 15 5 17 6 18 7 19 8 20 9 21 20 22 21 23 22 24 23 25
REMARK SMILES IDX 24 26 25 27 26 28 27 29 73 30 28 31 72 32 29 33 30 34 31 35
REMARK SMILES IDX 66 36 32 37 71 38 65 39 67 40 33 41 70 42 64 43 63 44 34 46
REMARK SMILES IDX 56 47 41 48 55 49 42 50 45 51 54 52 68 53 43 54 44 55 53 57
REMARK SMILES IDX 69 58 46 59 35 60 36 61 40 62 37 63 39 64 38 65 57 66 58 67
REMARK SMILES IDX 62 68 59 69 61 70 60 71 47 72 48 73 52 74 49 75 51 76 50 77
REMARK H PARENT 12 11 3 16 67 45 45 56
REMARK Flexibility Score: inf
ROOT
ATOM      1  C   UNL     1      -1.721   3.660  -5.512  1.00  0.00     0.202 C 
ENDROOT
BRANCH   1   2
ATOM      2  C   UNL     1      -1.152   2.265  -5.258  1.00  0.00     0.261 C 
BRANCH   2   3
ATOM      3  O   UNL     1      -1.596   1.792  -3.966  1.00  0.00    -0.462 OA
BRANCH   3   4
ATOM      4  C   UNL     1      -0.702   1.052  -3.251  1.00  0.00     0.328 C 
ATOM      5  O   UNL     1       0.420   0.753  -3.638  1.00  0.00    -0.250 OA
BRANCH   4   6
ATOM      6  C   UNL     1      -1.291   0.591  -1.904  1.00  0.00     0.189 C 
ATOM      7  C   UNL     1      -2.068   1.668  -1.159  1.00  0.00     0.043 C 
BRANCH   6   8
ATOM      8  N   UNL     1      -1.918  -0.724  -1.733  1.00  0.00    -0.341 N 
ATOM      9  C   UNL     1      -2.848  -1.427  -2.428  1.00  0.00     0.242 C 
ATOM     10  O   UNL     1      -3.540  -2.221  -1.782  1.00  0.00    -0.273 OA
ATOM     11  H   UNL     1      -1.593  -1.203  -0.937  1.00  0.00     0.164 HD
BRANCH   9  12
ATOM     12  C   UNL     1      -3.106  -1.241  -3.925  1.00  0.00     0.168 C 
ATOM     13  C   UNL     1      -4.090  -0.081  -4.116  1.00  0.00     0.041 C 
BRANCH  12  14
ATOM     14  N   UNL     1      -1.915  -1.073  -4.757  1.00  0.00    -0.344 N 
ATOM     15  C   UNL     1      -0.873  -1.879  -5.093  1.00  0.00     0.226 C 
ATOM     16  H   UNL     1      -1.855  -0.179  -5.164  1.00  0.00     0.164 HD
ATOM     17  O   UNL     1      -0.304  -1.543  -6.141  1.00  0.00    -0.275 OA
BRANCH  15  18
ATOM     18  C   UNL     1      -0.362  -3.081  -4.261  1.00  0.00     0.041 C 
ATOM     19  C   UNL     1       0.171  -2.648  -2.885  1.00  0.00     0.021 C 
ATOM     20  C   UNL     1      -1.411  -4.190  -4.112  1.00  0.00     0.021 C 
ATOM     21  C   UNL     1       0.852  -3.691  -5.008  1.00  0.00     0.021 C 
ENDBRANCH  15  18
ENDBRANCH  12  14
ENDBRANCH   9  12
ENDBRANCH   6   8
ENDBRANCH   4   6
ENDBRANCH   3   4
ENDBRANCH   2   3
ENDBRANCH   1   2
BRANCH   1  22
ATOM     22  O   UNL     1      -1.002   4.732  -4.900  1.00  0.00    -0.374 OA
BRANCH  22  23
ATOM     23  C   UNL     1      -0.815   4.679  -3.491  1.00  0.00     0.202 C 
BRANCH  23  24
ATOM     24  C   UNL     1      -1.995   5.158  -2.637  1.00  0.00     0.261 C 
BRANCH  24  25
ATOM     25  O   UNL     1      -3.228   4.456  -2.884  1.00  0.00    -0.460 OA
BRANCH  25  26
ATOM     26  C   UNL     1      -4.117   5.162  -3.626  1.00  0.00     0.338 C 
ATOM     27  O   UNL     1      -3.954   6.269  -4.114  1.00  0.00    -0.246 OA
BRANCH  26  28
ATOM     28  C   UNL     1      -5.356   4.400  -3.867  1.00  0.00     0.060 A 
ATOM     29  C   UNL     1      -5.802   4.299  -5.190  1.00  0.00     0.016 A 
ATOM     30  C   UNL     1      -6.171   3.982  -2.811  1.00  0.00     0.016 A 
ATOM     31  C   UNL     1      -7.096   3.855  -5.459  1.00  0.00     0.010 A 
ATOM     32  C   UNL     1      -7.471   3.537  -3.084  1.00  0.00     0.010 A 
ATOM     33  C   UNL     1      -7.957   3.523  -4.405  1.00  0.00    -0.014 A 
BRANCH  33  34
ATOM     34  C   UNL     1      -9.404   3.328  -4.681  1.00  0.00     0.031 A 
ATOM     35  C   UNL     1     -10.365   4.460  -4.422  1.00  0.00     0.074 A 
ATOM     36  C   UNL     1      -9.859   2.178  -5.209  1.00  0.00     0.049 A 
ATOM     37  N   UNL     1     -11.661   4.509  -4.613  1.00  0.00    -0.248 NA
ATOM     38  C   UNL     1      -9.789   5.701  -3.882  1.00  0.00     0.031 C 
ATOM     39  C   UNL     1      -9.034   1.024  -5.562  1.00  0.00     0.029 A 
ATOM     40  N   UNL     1     -11.134   1.800  -5.549  1.00  0.00    -0.354 N 
ATOM     41  C   UNL     1     -12.054   5.780  -4.208  1.00  0.00     0.074 A 
ATOM     42  C   UNL     1     -10.867   6.459  -3.736  1.00  0.00     0.031 C 
ATOM     43  C   UNL     1      -9.825   0.067  -6.078  1.00  0.00     0.029 A 
ATOM     44  C   UNL     1     -11.212   0.529  -6.061  1.00  0.00     0.049 A 
ATOM     45  H   UNL     1     -11.918   2.385  -5.436  1.00  0.00     0.167 HD
ATOM     46  C   UNL     1     -13.290   6.337  -4.232  1.00  0.00     0.031 A 
ATOM     47  C   UNL     1     -12.281  -0.187  -6.460  1.00  0.00     0.031 A 
ATOM     48  C   UNL     1     -14.477   5.668  -4.693  1.00  0.00     0.049 A 
ATOM     49  C   UNL     1     -13.656   0.421  -6.388  1.00  0.00     0.074 A 
ATOM     50  C   UNL     1     -15.768   6.163  -4.779  1.00  0.00     0.029 A 
ATOM     51  N   UNL     1     -14.522   4.356  -5.135  1.00  0.00    -0.354 N 
ATOM     52  N   UNL     1     -14.009   1.631  -6.030  1.00  0.00    -0.248 NA
ATOM     53  C   UNL     1     -14.780  -0.443  -6.780  1.00  0.00     0.031 C 
ATOM     54  C   UNL     1     -16.604   5.131  -5.219  1.00  0.00     0.029 A 
ATOM     55  C   UNL     1     -15.824   4.012  -5.461  1.00  0.00     0.049 A 
ATOM     56  H   UNL     1     -13.745   3.757  -5.207  1.00  0.00     0.167 HD
ATOM     57  C   UNL     1     -15.389   1.685  -6.183  1.00  0.00     0.074 A 
ATOM     58  C   UNL     1     -15.808   0.388  -6.674  1.00  0.00     0.031 C 
ATOM     59  C   UNL     1     -16.233   2.719  -5.944  1.00  0.00     0.031 A 
BRANCH  46  60
ATOM     60  C   UNL     1     -13.423   7.738  -3.704  1.00  0.00    -0.014 A 
ATOM     61  C   UNL     1     -12.927   8.841  -4.418  1.00  0.00     0.009 A 
ATOM     62  C   UNL     1     -14.079   7.959  -2.482  1.00  0.00     0.009 A 
ATOM     63  C   UNL     1     -13.052  10.132  -3.900  1.00  0.00     0.001 A 
ATOM     64  C   UNL     1     -14.226   9.253  -1.980  1.00  0.00     0.001 A 
ATOM     65  C   UNL     1     -13.703  10.337  -2.683  1.00  0.00     0.000 A 
ENDBRANCH  46  60
BRANCH  47  66
ATOM     66  C   UNL     1     -12.100  -1.573  -6.962  1.00  0.00    -0.014 A 
ATOM     67  C   UNL     1     -12.298  -1.871  -8.318  1.00  0.00     0.009 A 
ATOM     68  C   UNL     1     -11.747  -2.609  -6.082  1.00  0.00     0.009 A 
ATOM     69  C   UNL     1     -12.165  -3.183  -8.780  1.00  0.00     0.001 A 
ATOM     70  C   UNL     1     -11.589  -3.914  -6.552  1.00  0.00     0.001 A 
ATOM     71  C   UNL     1     -11.806  -4.201  -7.898  1.00  0.00     0.000 A 
ENDBRANCH  47  66
BRANCH  59  72
ATOM     72  C   UNL     1     -17.690   2.504  -6.243  1.00  0.00    -0.014 A 
ATOM     73  C   UNL     1     -18.493   1.698  -5.421  1.00  0.00     0.009 A 
ATOM     74  C   UNL     1     -18.277   3.149  -7.343  1.00  0.00     0.009 A 
ATOM     75  C   UNL     1     -19.847   1.518  -5.714  1.00  0.00     0.001 A 
ATOM     76  C   UNL     1     -19.636   2.989  -7.618  1.00  0.00     0.001 A 
ATOM     77  C   UNL     1     -20.418   2.166  -6.809  1.00  0.00     0.000 A 
ENDBRANCH  59  72
ENDBRANCH  33  34
ENDBRANCH  26  28
ENDBRANCH  25  26
ENDBRANCH  24  25
ENDBRANCH  23  24
ENDBRANCH  22  23
ENDBRANCH   1  22
TORSDOF 18
