REMARK SMILES O=C(OCCOCCOC(=O)c1ccc(-c2c3nc(c(-c4ccccc4)c4ccc([nH]4)c(-c4ccccc4)c4nc(c(-c5ccccc5)c5ccc2[nH]5)C=C4)C=C3)cc1)C1=Cc2cc(S(F)(F)(F)(F)F)ccc2O[C@H]1C(F)(F)F
REMARK SMILES IDX 7 1 6 2 5 3 4 4 3 5 2 6 1 7 60 8 61 9 75 10 62 11 74 12
REMARK SMILES IDX 63 13 73 14 64 15 72 16 71 17 76 18 77 19 78 20 79 21 65 22
REMARK SMILES IDX 66 23 67 24 68 25 69 26 70 27 8 28 9 29 10 30 11 31 12 32
REMARK SMILES IDX 13 33 59 34 14 35 58 36 15 37 16 38 17 39 52 40 18 41 57 42
REMARK SMILES IDX 51 43 53 44 19 45 56 46 50 47 49 48 20 50 42 51 27 52 41 53
REMARK SMILES IDX 28 54 31 55 40 56 54 57 29 58 30 59 39 61 55 62 32 63 21 64
REMARK SMILES IDX 22 65 26 66 23 67 25 68 24 69 43 70 44 71 48 72 45 73 47 74
REMARK SMILES IDX 46 75 33 76 34 77 38 78 35 79 37 80 36 81
REMARK H PARENT 53 49 31 60
REMARK Flexibility Score: inf
ROOT
ATOM      1  C   UNL     1       3.044  -1.321   0.810  1.00  0.00     0.202 C 
ENDROOT
BRANCH   1   2
ATOM      2  O   UNL     1       4.464  -1.321   0.810  1.00  0.00    -0.374 OA
BRANCH   2   3
ATOM      3  C   UNL     1       4.938  -0.079   1.312  1.00  0.00     0.202 C 
BRANCH   3   4
ATOM      4  C   UNL     1       4.431   1.050   0.430  1.00  0.00     0.261 C 
BRANCH   4   5
ATOM      5  O   UNL     1       3.011   1.050   0.430  1.00  0.00    -0.460 OA
BRANCH   5   6
ATOM      6  C   UNL     1       2.301  -0.090  -0.031  1.00  0.00     0.338 C 
ATOM      7  O   UNL     1       1.030  -0.090  -0.031  1.00  0.00    -0.246 OA
BRANCH   6   8
ATOM      8  C   UNL     1       3.061  -1.311  -0.524  1.00  0.00     0.087 C 
ATOM      9  C   UNL     1       4.421  -1.311  -0.524  1.00  0.00     0.027 C 
ATOM     10  C   UNL     1       2.301  -2.531  -1.018  1.00  0.00     0.316 C 
ATOM     11  C   UNL     1       5.181  -0.090  -0.031  1.00  0.00     0.019 A 
ATOM     12  O   UNL     1       3.524   0.062   1.665  1.00  0.00    -0.475 OA
ATOM     13  C   UNL     1       6.299   0.387  -0.696  1.00  0.00     0.036 A 
ATOM     14  C   UNL     1       4.760   0.470   1.097  1.00  0.00     0.128 A 
ATOM     15  C   UNL     1       7.081   1.285   0.068  1.00  0.00     0.107 A 
ATOM     16  C   UNL     1       5.508   1.440   1.718  1.00  0.00     0.048 A 
ATOM     17  C   UNL     1       6.656   1.916   1.148  1.00  0.00     0.028 A 
BRANCH  10  18
ATOM     18  C   UNL     1       0.806  -2.273  -0.914  1.00  0.00     0.430 C 
ATOM     19  F   UNL     1       0.472  -2.005   0.345  1.00  0.00    -0.167 F 
ATOM     20  F   UNL     1       0.462  -1.252  -1.692  1.00  0.00    -0.167 F 
ATOM     21  F   UNL     1       0.172  -3.371  -1.316  1.00  0.00    -0.167 F 
ENDBRANCH  10  18
BRANCH  15  22
ATOM     22  S   UNL     1       8.781   1.591  -0.472  1.00  0.00     0.310 S 
ATOM     23  F   UNL     1       9.320   1.624   1.020  1.00  0.00    -0.094 F 
ATOM     24  F   UNL     1       8.513   3.138  -0.336  1.00  0.00    -0.094 F 
ATOM     25  F   UNL     1      10.240   1.857  -0.940  1.00  0.00    -0.094 F 
ATOM     26  F   UNL     1       9.074   0.039  -0.466  1.00  0.00    -0.094 F 
ATOM     27  F   UNL     1       7.339   1.306   0.111  1.00  0.00    -0.094 F 
ENDBRANCH  15  22
ENDBRANCH   6   8
ENDBRANCH   5   6
ENDBRANCH   4   5
ENDBRANCH   3   4
ENDBRANCH   2   3
ENDBRANCH   1   2
BRANCH   1  28
ATOM     28  C   UNL     1       2.538  -1.121   2.229  1.00  0.00     0.261 C 
BRANCH  28  29
ATOM     29  O   UNL     1       3.011   0.120   2.731  1.00  0.00    -0.460 OA
BRANCH  29  30
ATOM     30  C   UNL     1       4.407   0.360   2.828  1.00  0.00     0.338 C 
ATOM     31  O   UNL     1       5.233  -0.535   2.466  1.00  0.00    -0.246 OA
BRANCH  30  32
ATOM     32  C   UNL     1       4.914   1.689   3.365  1.00  0.00     0.060 A 
ATOM     33  C   UNL     1       6.005   2.328   2.800  1.00  0.00     0.016 A 
ATOM     34  C   UNL     1       4.328   2.164   4.458  1.00  0.00     0.016 A 
ATOM     35  C   UNL     1       6.590   3.310   3.633  1.00  0.00     0.010 A 
ATOM     36  C   UNL     1       4.882   3.215   5.148  1.00  0.00     0.010 A 
ATOM     37  C   UNL     1       5.995   3.856   4.678  1.00  0.00    -0.014 A 
BRANCH  37  38
ATOM     38  C   UNL     1       6.519   5.128   5.325  1.00  0.00     0.031 A 
ATOM     39  C   UNL     1       6.875   4.986   6.667  1.00  0.00     0.074 A 
ATOM     40  C   UNL     1       6.728   6.280   4.587  1.00  0.00     0.049 A 
ATOM     41  N   UNL     1       7.486   5.880   7.446  1.00  0.00    -0.248 NA
ATOM     42  C   UNL     1       6.623   3.775   7.462  1.00  0.00     0.031 C 
ATOM     43  C   UNL     1       6.380   6.429   3.230  1.00  0.00     0.029 A 
ATOM     44  N   UNL     1       7.292   7.464   5.009  1.00  0.00    -0.354 N 
ATOM     45  C   UNL     1       7.676   5.374   8.666  1.00  0.00     0.074 A 
ATOM     46  C   UNL     1       7.118   4.015   8.696  1.00  0.00     0.031 C 
ATOM     47  C   UNL     1       6.718   7.687   2.843  1.00  0.00     0.029 A 
ATOM     48  C   UNL     1       7.284   8.346   3.951  1.00  0.00     0.049 A 
ATOM     49  H   UNL     1       7.641   7.648   5.911  1.00  0.00     0.167 HD
ATOM     50  C   UNL     1       8.294   5.992   9.755  1.00  0.00     0.031 A 
ATOM     51  C   UNL     1       7.739   9.655   3.934  1.00  0.00     0.031 A 
ATOM     52  C   UNL     1       8.788   7.286   9.725  1.00  0.00     0.049 A 
ATOM     53  C   UNL     1       8.305  10.293   5.040  1.00  0.00     0.074 A 
ATOM     54  C   UNL     1       9.421   7.921  10.810  1.00  0.00     0.029 A 
ATOM     55  N   UNL     1       8.758   8.177   8.674  1.00  0.00    -0.354 N 
ATOM     56  N   UNL     1       8.530   9.774   6.248  1.00  0.00    -0.248 NA
ATOM     57  C   UNL     1       8.760  11.690   5.043  1.00  0.00     0.031 C 
ATOM     58  C   UNL     1       9.759   9.180  10.423  1.00  0.00     0.029 A 
ATOM     59  C   UNL     1       9.343   9.352   9.089  1.00  0.00     0.049 A 
ATOM     60  H   UNL     1       8.383   8.002   7.780  1.00  0.00     0.167 HD
ATOM     61  C   UNL     1       9.104  10.683   7.039  1.00  0.00     0.074 A 
ATOM     62  C   UNL     1       9.254  11.931   6.277  1.00  0.00     0.031 C 
ATOM     63  C   UNL     1       9.513  10.521   8.364  1.00  0.00     0.031 A 
BRANCH  50  64
ATOM     64  C   UNL     1       8.434   5.200  11.045  1.00  0.00    -0.014 A 
ATOM     65  C   UNL     1       9.070   3.970  11.065  1.00  0.00     0.009 A 
ATOM     66  C   UNL     1       7.852   5.694  12.132  1.00  0.00     0.009 A 
ATOM     67  C   UNL     1       8.788   3.198  12.217  1.00  0.00     0.001 A 
ATOM     68  C   UNL     1       7.731   4.930  13.268  1.00  0.00     0.001 A 
ATOM     69  C   UNL     1       8.285   3.682  13.338  1.00  0.00     0.000 A 
ENDBRANCH  50  64
BRANCH  51  70
ATOM     70  C   UNL     1       7.614  10.440   2.639  1.00  0.00    -0.014 A 
ATOM     71  C   UNL     1       8.793  10.858   2.043  1.00  0.00     0.009 A 
ATOM     72  C   UNL     1       6.437  10.664   2.067  1.00  0.00     0.009 A 
ATOM     73  C   UNL     1       8.604  11.767   0.975  1.00  0.00     0.001 A 
ATOM     74  C   UNL     1       6.342  11.451   0.945  1.00  0.00     0.001 A 
ATOM     75  C   UNL     1       7.462  11.947   0.337  1.00  0.00     0.000 A 
ENDBRANCH  51  70
BRANCH  63  76
ATOM     76  C   UNL     1      10.184  11.698   9.053  1.00  0.00    -0.014 A 
ATOM     77  C   UNL     1       9.592  12.948   9.120  1.00  0.00     0.009 A 
ATOM     78  C   UNL     1      11.421  11.497   9.492  1.00  0.00     0.009 A 
ATOM     79  C   UNL     1      10.497  13.997   9.407  1.00  0.00     0.001 A 
ATOM     80  C   UNL     1      12.204  12.556   9.885  1.00  0.00     0.001 A 
ATOM     81  C   UNL     1      11.702  13.827   9.920  1.00  0.00     0.000 A 
ENDBRANCH  63  76
ENDBRANCH  37  38
ENDBRANCH  30  32
ENDBRANCH  29  30
ENDBRANCH  28  29
ENDBRANCH   1  28
TORSDOF 16
