REMARK SMILES N#Cc1ccccc1S(=O)(=O)N1CCC(C(=O)OCCOCCOC(=O)c2ccc(-c3c4nc(c(-c5ccccc5)c5ccc([nH]5)c(-c5ccccc5)c5nc(c(-c6ccccc6)c6ccc3[nH]6)C=C5)C=C4)cc2)CC1
REMARK SMILES IDX 20 1 19 2 18 3 16 4 17 5 15 6 12 7 13 8 76 9 14 10 75 11
REMARK SMILES IDX 9 12 10 13 11 14 8 15 3 16 4 17 5 18 7 19 6 20 2 21 1 22
REMARK SMILES IDX 21 23 22 24 23 25 24 26 25 27 26 28 27 29 28 30 74 31 29 32
REMARK SMILES IDX 73 33 30 34 31 35 32 36 67 37 33 38 72 39 66 40 68 41 34 42
REMARK SMILES IDX 71 43 65 44 64 45 35 47 57 48 42 49 56 50 43 51 46 52 55 53
REMARK SMILES IDX 69 54 44 55 45 56 54 58 70 59 47 60 36 61 37 62 41 63 38 64
REMARK SMILES IDX 40 65 39 66 58 67 59 68 63 69 60 70 62 71 61 72 48 73 49 74
REMARK SMILES IDX 53 75 50 76 52 77 51 78
REMARK H PARENT 68 46 46 57
REMARK Flexibility Score: inf
ROOT
ATOM      1  C   UNL     1      -9.123  -0.693   0.002  1.00  0.00     0.202 C 
ENDROOT
BRANCH   1   2
ATOM      2  C   UNL     1      -8.374  -1.286  -1.193  1.00  0.00     0.261 C 
BRANCH   2   3
ATOM      3  O   UNL     1      -7.013  -1.596  -0.877  1.00  0.00    -0.463 OA
BRANCH   3   4
ATOM      4  C   UNL     1      -6.102  -0.753  -1.425  1.00  0.00     0.309 C 
ATOM      5  O   UNL     1      -6.358   0.146  -2.218  1.00  0.00    -0.252 OA
BRANCH   4   6
ATOM      6  C   UNL     1      -4.694  -1.036  -0.966  1.00  0.00     0.102 C 
ATOM      7  N   UNL     1      -2.160  -2.235  -0.391  1.00  0.00    -0.198 NA
ATOM      8  C   UNL     1      -3.084  -2.032   0.743  1.00  0.00     0.103 C 
ATOM      9  C   UNL     1      -2.492  -1.823  -1.765  1.00  0.00     0.103 C 
ATOM     10  C   UNL     1      -4.534  -1.759   0.366  1.00  0.00     0.032 C 
ATOM     11  C   UNL     1      -3.980  -1.829  -2.040  1.00  0.00     0.032 C 
BRANCH   7  12
ATOM     12  S   UNL     1      -0.537  -2.510  -0.023  1.00  0.00     0.244 S 
ATOM     13  O   UNL     1       0.012  -3.247  -1.144  1.00  0.00    -0.207 OA
ATOM     14  O   UNL     1      -0.464  -3.040   1.322  1.00  0.00    -0.207 OA
BRANCH  12  15
ATOM     15  C   UNL     1       0.379  -0.978   0.017  1.00  0.00     0.100 A 
ATOM     16  C   UNL     1      -0.124   0.323   0.084  1.00  0.00     0.072 A 
ATOM     17  C   UNL     1       0.777   1.409   0.053  1.00  0.00     0.021 A 
ATOM     18  C   UNL     1       2.154   1.211   0.002  1.00  0.00     0.001 A 
ATOM     19  C   UNL     1       1.778  -1.164  -0.028  1.00  0.00     0.023 A 
ATOM     20  C   UNL     1       2.656  -0.081  -0.024  1.00  0.00     0.001 A 
BRANCH  16  21
ATOM     21  C   UNL     1      -1.486   0.705   0.246  1.00  0.00     0.101 C 
ATOM     22  N   UNL     1      -2.554   1.133   0.411  1.00  0.00    -0.192 NA
ENDBRANCH  16  21
ENDBRANCH  12  15
ENDBRANCH   7  12
ENDBRANCH   4   6
ENDBRANCH   3   4
ENDBRANCH   2   3
ENDBRANCH   1   2
BRANCH   1  23
ATOM     23  O   UNL     1      -8.622   0.492   0.610  1.00  0.00    -0.374 OA
BRANCH  23  24
ATOM     24  C   UNL     1      -7.437   0.415   1.399  1.00  0.00     0.202 C 
BRANCH  24  25
ATOM     25  C   UNL     1      -7.461  -0.393   2.707  1.00  0.00     0.261 C 
BRANCH  25  26
ATOM     26  O   UNL     1      -7.726  -1.796   2.518  1.00  0.00    -0.460 OA
BRANCH  26  27
ATOM     27  C   UNL     1      -8.934  -2.204   2.984  1.00  0.00     0.338 C 
ATOM     28  O   UNL     1      -9.770  -1.530   3.562  1.00  0.00    -0.246 OA
BRANCH  27  29
ATOM     29  C   UNL     1      -9.230  -3.570   2.516  1.00  0.00     0.060 A 
ATOM     30  C   UNL     1     -10.358  -3.748   1.703  1.00  0.00     0.016 A 
ATOM     31  C   UNL     1      -8.495  -4.667   2.963  1.00  0.00     0.016 A 
ATOM     32  C   UNL     1     -10.784  -5.030   1.369  1.00  0.00     0.010 A 
ATOM     33  C   UNL     1      -8.930  -5.955   2.634  1.00  0.00     0.010 A 
ATOM     34  C   UNL     1     -10.097  -6.143   1.869  1.00  0.00    -0.014 A 
BRANCH  34  35
ATOM     35  C   UNL     1     -10.683  -7.495   1.702  1.00  0.00     0.031 A 
ATOM     36  C   UNL     1     -11.348  -8.159   2.877  1.00  0.00     0.074 A 
ATOM     37  C   UNL     1     -10.656  -8.110   0.507  1.00  0.00     0.049 A 
ATOM     38  N   UNL     1     -11.888  -9.349   2.961  1.00  0.00    -0.248 NA
ATOM     39  C   UNL     1     -11.409  -7.381   4.125  1.00  0.00     0.031 C 
ATOM     40  C   UNL     1     -10.092  -7.548  -0.720  1.00  0.00     0.029 A 
ATOM     41  N   UNL     1     -11.115  -9.347   0.132  1.00  0.00    -0.354 N 
ATOM     42  C   UNL     1     -12.337  -9.468   4.271  1.00  0.00     0.074 A 
ATOM     43  C   UNL     1     -11.978  -8.244   4.954  1.00  0.00     0.031 C 
ATOM     44  C   UNL     1     -10.237  -8.441  -1.713  1.00  0.00     0.029 A 
ATOM     45  C   UNL     1     -10.859  -9.651  -1.182  1.00  0.00     0.049 A 
ATOM     46  H   UNL     1     -11.583  -9.958   0.746  1.00  0.00     0.167 HD
ATOM     47  C   UNL     1     -12.993 -10.502   4.851  1.00  0.00     0.031 A 
ATOM     48  C   UNL     1     -11.077 -10.788  -1.871  1.00  0.00     0.031 A 
ATOM     49  C   UNL     1     -13.335 -11.724   4.172  1.00  0.00     0.049 A 
ATOM     50  C   UNL     1     -11.723 -11.958  -1.178  1.00  0.00     0.074 A 
ATOM     51  C   UNL     1     -14.015 -12.824   4.667  1.00  0.00     0.029 A 
ATOM     52  N   UNL     1     -13.014 -12.013   2.854  1.00  0.00    -0.354 N 
ATOM     53  N   UNL     1     -12.167 -12.050   0.053  1.00  0.00    -0.248 NA
ATOM     54  C   UNL     1     -11.905 -13.179  -1.974  1.00  0.00     0.031 C 
ATOM     55  C   UNL     1     -14.036 -13.808   3.674  1.00  0.00     0.029 A 
ATOM     56  C   UNL     1     -13.447 -13.290   2.532  1.00  0.00     0.049 A 
ATOM     57  H   UNL     1     -12.548 -11.403   2.239  1.00  0.00     0.167 HD
ATOM     58  C   UNL     1     -12.710 -13.325   0.167  1.00  0.00     0.074 A 
ATOM     59  C   UNL     1     -12.557 -13.960  -1.125  1.00  0.00     0.031 C 
ATOM     60  C   UNL     1     -13.286 -13.914   1.244  1.00  0.00     0.031 A 
BRANCH  47  61
ATOM     61  C   UNL     1     -13.343 -10.374   6.310  1.00  0.00    -0.014 A 
ATOM     62  C   UNL     1     -14.308  -9.458   6.759  1.00  0.00     0.009 A 
ATOM     63  C   UNL     1     -12.722 -11.214   7.247  1.00  0.00     0.009 A 
ATOM     64  C   UNL     1     -14.613  -9.360   8.119  1.00  0.00     0.001 A 
ATOM     65  C   UNL     1     -13.054 -11.140   8.601  1.00  0.00     0.001 A 
ATOM     66  C   UNL     1     -13.991 -10.205   9.037  1.00  0.00     0.000 A 
ENDBRANCH  47  61
BRANCH  48  67
ATOM     67  C   UNL     1     -10.655 -10.889  -3.294  1.00  0.00    -0.014 A 
ATOM     68  C   UNL     1     -11.605 -11.025  -4.318  1.00  0.00     0.009 A 
ATOM     69  C   UNL     1      -9.292 -10.875  -3.634  1.00  0.00     0.009 A 
ATOM     70  C   UNL     1     -11.199 -11.176  -5.646  1.00  0.00     0.001 A 
ATOM     71  C   UNL     1      -8.890 -10.988  -4.966  1.00  0.00     0.001 A 
ATOM     72  C   UNL     1      -9.843 -11.151  -5.970  1.00  0.00     0.000 A 
ENDBRANCH  48  67
BRANCH  60  73
ATOM     73  C   UNL     1     -13.836 -15.304   1.060  1.00  0.00    -0.014 A 
ATOM     74  C   UNL     1     -12.995 -16.410   0.862  1.00  0.00     0.009 A 
ATOM     75  C   UNL     1     -15.223 -15.513   1.127  1.00  0.00     0.009 A 
ATOM     76  C   UNL     1     -13.534 -17.688   0.692  1.00  0.00     0.001 A 
ATOM     77  C   UNL     1     -15.757 -16.796   0.996  1.00  0.00     0.001 A 
ATOM     78  C   UNL     1     -14.913 -17.880   0.766  1.00  0.00     0.000 A 
ENDBRANCH  60  73
ENDBRANCH  34  35
ENDBRANCH  27  29
ENDBRANCH  26  27
ENDBRANCH  25  26
ENDBRANCH  24  25
ENDBRANCH  23  24
ENDBRANCH   1  23
TORSDOF 17
