REMARK SMILES O=C(OCCOCCOC(=O)[C@H]1CSC2(CCCCC2)[NH2+]1)c1ccc(-c2c3nc(c(-c4ccccc4)c4ccc([nH]4)c(-c4ccccc4)c4nc(c(-c5ccccc5)c5ccc2[nH]5)C=C4)C=C3)cc1
REMARK SMILES IDX 5 1 4 2 3 3 2 4 1 5 22 6 23 7 69 8 24 9 68 10 25 11 26 12
REMARK SMILES IDX 27 13 62 14 28 15 67 16 61 17 63 18 29 19 66 20 60 21 59 22
REMARK SMILES IDX 30 24 52 25 37 26 51 27 38 28 41 29 50 30 64 31 39 32 40 33
REMARK SMILES IDX 49 35 65 36 42 37 31 38 32 39 36 40 33 41 35 42 34 43 53 44
REMARK SMILES IDX 54 45 58 46 55 47 57 48 56 49 43 50 44 51 48 52 45 53 47 54
REMARK SMILES IDX 46 55 6 56 7 57 8 58 9 59 10 60 11 61 12 62 13 63 21 64
REMARK SMILES IDX 14 65 15 66 16 69 20 70 17 71 19 72 18 73
REMARK H PARENT 63 23 41 34 21 67 21 68
REMARK Flexibility Score: inf
ROOT
ATOM      1  C   UNL     1       3.857  -0.425   3.600  1.00  0.00     0.202 C 
ENDROOT
BRANCH   1   2
ATOM      2  C   UNL     1       2.991   0.605   4.326  1.00  0.00     0.261 C 
BRANCH   2   3
ATOM      3  O   UNL     1       3.120   1.895   3.716  1.00  0.00    -0.460 OA
BRANCH   3   4
ATOM      4  C   UNL     1       4.054   2.836   3.987  1.00  0.00     0.338 C 
ATOM      5  O   UNL     1       4.145   3.803   3.231  1.00  0.00    -0.246 OA
BRANCH   4   6
ATOM      6  C   UNL     1       4.960   2.803   5.179  1.00  0.00     0.060 A 
ATOM      7  C   UNL     1       5.462   1.654   5.795  1.00  0.00     0.016 A 
ATOM      8  C   UNL     1       5.412   4.049   5.647  1.00  0.00     0.016 A 
ATOM      9  C   UNL     1       6.369   1.722   6.839  1.00  0.00     0.010 A 
ATOM     10  C   UNL     1       6.337   4.131   6.690  1.00  0.00     0.010 A 
ATOM     11  C   UNL     1       6.811   2.959   7.287  1.00  0.00    -0.014 A 
BRANCH  11  12
ATOM     12  C   UNL     1       7.676   2.978   8.471  1.00  0.00     0.031 A 
ATOM     13  C   UNL     1       7.051   3.300   9.788  1.00  0.00     0.074 A 
ATOM     14  C   UNL     1       8.954   2.578   8.361  1.00  0.00     0.049 A 
ATOM     15  N   UNL     1       7.607   3.410  10.961  1.00  0.00    -0.248 NA
ATOM     16  C   UNL     1       5.592   3.513   9.782  1.00  0.00     0.031 C 
ATOM     17  C   UNL     1       9.589   2.112   7.125  1.00  0.00     0.029 A 
ATOM     18  N   UNL     1       9.937   2.472   9.305  1.00  0.00    -0.354 N 
ATOM     19  C   UNL     1       6.574   3.739  11.828  1.00  0.00     0.074 A 
ATOM     20  C   UNL     1       5.360   3.814  11.049  1.00  0.00     0.031 C 
ATOM     21  C   UNL     1      10.858   1.763   7.392  1.00  0.00     0.029 A 
ATOM     22  C   UNL     1      11.138   2.046   8.794  1.00  0.00     0.049 A 
ATOM     23  H   UNL     1       9.797   2.680  10.257  1.00  0.00     0.167 HD
ATOM     24  C   UNL     1       6.650   3.974  13.157  1.00  0.00     0.031 A 
ATOM     25  C   UNL     1      12.336   1.946   9.396  1.00  0.00     0.031 A 
ATOM     26  C   UNL     1       7.885   3.914  13.889  1.00  0.00     0.049 A 
ATOM     27  C   UNL     1      12.417   2.319  10.851  1.00  0.00     0.074 A 
ATOM     28  C   UNL     1       8.117   4.185  15.222  1.00  0.00     0.029 A 
ATOM     29  N   UNL     1       9.106   3.557  13.327  1.00  0.00    -0.354 N 
ATOM     30  N   UNL     1      11.452   2.689  11.662  1.00  0.00    -0.248 NA
ATOM     31  C   UNL     1      13.745   2.272  11.473  1.00  0.00     0.031 C 
ATOM     32  C   UNL     1       9.491   4.053  15.453  1.00  0.00     0.029 A 
ATOM     33  C   UNL     1      10.103   3.630  14.280  1.00  0.00     0.049 A 
ATOM     34  H   UNL     1       9.240   3.292  12.389  1.00  0.00     0.167 HD
ATOM     35  C   UNL     1      12.051   2.905  12.894  1.00  0.00     0.074 A 
ATOM     36  C   UNL     1      13.460   2.601  12.726  1.00  0.00     0.031 C 
ATOM     37  C   UNL     1      11.495   3.319  14.060  1.00  0.00     0.031 A 
BRANCH  24  38
ATOM     38  C   UNL     1       5.387   4.416  13.839  1.00  0.00    -0.014 A 
ATOM     39  C   UNL     1       4.299   3.547  14.027  1.00  0.00     0.009 A 
ATOM     40  C   UNL     1       5.261   5.754  14.243  1.00  0.00     0.009 A 
ATOM     41  C   UNL     1       3.096   4.024  14.555  1.00  0.00     0.001 A 
ATOM     42  C   UNL     1       4.069   6.220  14.800  1.00  0.00     0.001 A 
ATOM     43  C   UNL     1       2.982   5.359  14.940  1.00  0.00     0.000 A 
ENDBRANCH  24  38
BRANCH  25  44
ATOM     44  C   UNL     1      13.540   1.555   8.614  1.00  0.00    -0.014 A 
ATOM     45  C   UNL     1      14.226   0.361   8.878  1.00  0.00     0.009 A 
ATOM     46  C   UNL     1      14.010   2.386   7.582  1.00  0.00     0.009 A 
ATOM     47  C   UNL     1      15.365   0.020   8.142  1.00  0.00     0.001 A 
ATOM     48  C   UNL     1      15.128   2.028   6.827  1.00  0.00     0.001 A 
ATOM     49  C   UNL     1      15.812   0.849   7.114  1.00  0.00     0.000 A 
ENDBRANCH  25  44
BRANCH  37  50
ATOM     50  C   UNL     1      12.413   3.432  15.242  1.00  0.00    -0.014 A 
ATOM     51  C   UNL     1      13.352   4.469  15.341  1.00  0.00     0.009 A 
ATOM     52  C   UNL     1      12.288   2.517  16.299  1.00  0.00     0.009 A 
ATOM     53  C   UNL     1      14.170   4.570  16.466  1.00  0.00     0.001 A 
ATOM     54  C   UNL     1      13.083   2.640  17.437  1.00  0.00     0.001 A 
ATOM     55  C   UNL     1      14.029   3.661  17.515  1.00  0.00     0.000 A 
ENDBRANCH  37  50
ENDBRANCH  11  12
ENDBRANCH   4   6
ENDBRANCH   3   4
ENDBRANCH   2   3
ENDBRANCH   1   2
BRANCH   1  56
ATOM     56  O   UNL     1       5.223  -0.038   3.481  1.00  0.00    -0.374 OA
BRANCH  56  57
ATOM     57  C   UNL     1       5.601   0.585   2.253  1.00  0.00     0.202 C 
BRANCH  57  58
ATOM     58  C   UNL     1       6.618  -0.292   1.526  1.00  0.00     0.261 C 
BRANCH  58  59
ATOM     59  O   UNL     1       6.043  -1.582   1.253  1.00  0.00    -0.459 OA
BRANCH  59  60
ATOM     60  C   UNL     1       6.179  -2.500   2.258  1.00  0.00     0.365 C 
ATOM     61  O   UNL     1       6.831  -2.330   3.282  1.00  0.00    -0.245 OA
BRANCH  60  62
ATOM     62  C   UNL     1       5.356  -3.753   1.931  1.00  0.00     0.304 C 
ATOM     63  C   UNL     1       6.260  -4.969   1.901  1.00  0.00     0.153 C 
ATOM     64  N   UNL     1       4.239  -3.973   2.890  1.00  0.00    -0.320 N 
ATOM     65  S   UNL     1       6.331  -5.479   3.626  1.00  0.00    -0.089 SA
ATOM     66  C   UNL     1       4.633  -4.896   3.971  1.00  0.00     0.143 C 
ATOM     67  H   UNL     1       3.444  -4.369   2.388  1.00  0.00     0.348 HD
ATOM     68  H   UNL     1       3.992  -3.075   3.307  1.00  0.00     0.348 HD
ATOM     69  C   UNL     1       4.500  -4.223   5.354  1.00  0.00     0.081 C 
ATOM     70  C   UNL     1       3.675  -6.104   3.914  1.00  0.00     0.081 C 
ATOM     71  C   UNL     1       4.706  -5.187   6.527  1.00  0.00     0.007 C 
ATOM     72  C   UNL     1       3.919  -7.105   5.046  1.00  0.00     0.007 C 
ATOM     73  C   UNL     1       3.839  -6.440   6.417  1.00  0.00     0.001 C 
ENDBRANCH  60  62
ENDBRANCH  59  60
ENDBRANCH  58  59
ENDBRANCH  57  58
ENDBRANCH  56  57
ENDBRANCH   1  56
TORSDOF 14
