REMARK SMILES C[C@H](Cc1ccco1)[NH2+]Cc1cc(C(=O)OCCOCCOC(=O)c2ccc(-c3c4nc(c(-c5ccccc5)c5ccc([nH]5)c(-c5ccccc5)c5nc(c(-c6ccccc6)c6ccc3[nH]6)C=C5)C=C4)cc2)cs1
REMARK SMILES IDX 17 1 16 2 14 3 15 4 13 5 11 6 12 7 74 8 73 9 10 10 9 11 2 14
REMARK SMILES IDX 1 15 3 16 4 17 5 18 8 19 6 20 7 21 18 22 19 23 20 24 21 25
REMARK SMILES IDX 22 26 23 27 24 28 25 29 26 30 72 31 27 32 71 33 28 34 29 35
REMARK SMILES IDX 30 36 65 37 31 38 70 39 64 40 66 41 32 42 69 43 63 44 62 45
REMARK SMILES IDX 33 47 55 48 40 49 54 50 41 51 44 52 53 53 67 54 42 55 43 56
REMARK SMILES IDX 52 58 68 59 45 60 34 61 35 62 39 63 36 64 38 65 37 66 56 67
REMARK SMILES IDX 57 68 61 69 58 70 60 71 59 72 46 73 47 74 51 75 48 76 50 77
REMARK SMILES IDX 49 78
REMARK H PARENT 9 12 9 13 66 46 44 57
REMARK Flexibility Score: inf
ROOT
ATOM      1  C   UNL     1      -0.134   5.631  -7.566  1.00  0.00     0.261 C 
ENDROOT
BRANCH   1   2
ATOM      2  O   UNL     1      -0.612   4.895  -6.428  1.00  0.00    -0.460 OA
BRANCH   2   3
ATOM      3  C   UNL     1      -1.101   3.650  -6.698  1.00  0.00     0.339 C 
ATOM      4  O   UNL     1      -1.276   3.197  -7.823  1.00  0.00    -0.246 OA
BRANCH   3   5
ATOM      5  C   UNL     1      -1.338   2.865  -5.487  1.00  0.00     0.071 A 
ATOM      6  C   UNL     1      -1.490   2.279  -3.209  1.00  0.00     0.060 A 
ATOM      7  C   UNL     1      -1.266   3.299  -4.118  1.00  0.00     0.037 A 
ATOM      8  S   UNL     1      -1.884   0.815  -4.015  1.00  0.00    -0.142 S 
ATOM      9  C   UNL     1      -1.643   1.518  -5.548  1.00  0.00     0.081 A 
BRANCH   6  10
ATOM     10  C   UNL     1      -1.437   2.341  -1.702  1.00  0.00     0.308 C 
BRANCH  10  11
ATOM     11  N   UNL     1      -0.741   1.207  -1.091  1.00  0.00    -0.339 N 
ATOM     12  H   UNL     1      -1.121   1.082  -0.153  1.00  0.00     0.346 HD
ATOM     13  H   UNL     1      -0.899   0.425  -1.726  1.00  0.00     0.346 HD
BRANCH  11  14
ATOM     14  C   UNL     1       0.729   1.310  -0.967  1.00  0.00     0.187 C 
ATOM     15  C   UNL     1       1.443   1.636  -2.286  1.00  0.00     0.075 C 
BRANCH  14  16
ATOM     16  C   UNL     1       1.227  -0.005  -0.296  1.00  0.00     0.140 C 
BRANCH  16  17
ATOM     17  C   UNL     1       2.611  -0.407  -0.662  1.00  0.00     0.109 A 
ATOM     18  C   UNL     1       3.107  -1.266  -1.622  1.00  0.00     0.046 A 
ATOM     19  O   UNL     1       3.634   0.181   0.017  1.00  0.00    -0.469 OA
ATOM     20  C   UNL     1       4.516  -1.179  -1.542  1.00  0.00     0.042 A 
ATOM     21  C   UNL     1       4.786  -0.295  -0.523  1.00  0.00     0.195 A 
ENDBRANCH  16  17
ENDBRANCH  14  16
ENDBRANCH  11  14
ENDBRANCH  10  11
ENDBRANCH   6  10
ENDBRANCH   3   5
ENDBRANCH   2   3
ENDBRANCH   1   2
BRANCH   1  22
ATOM     22  C   UNL     1       1.395   5.686  -7.569  1.00  0.00     0.202 C 
BRANCH  22  23
ATOM     23  O   UNL     1       2.028   4.422  -7.764  1.00  0.00    -0.374 OA
BRANCH  23  24
ATOM     24  C   UNL     1       2.304   3.666  -6.581  1.00  0.00     0.202 C 
BRANCH  24  25
ATOM     25  C   UNL     1       3.610   4.046  -5.874  1.00  0.00     0.261 C 
BRANCH  25  26
ATOM     26  O   UNL     1       3.483   5.320  -5.212  1.00  0.00    -0.460 OA
BRANCH  26  27
ATOM     27  C   UNL     1       4.179   6.334  -5.779  1.00  0.00     0.338 C 
ATOM     28  O   UNL     1       4.969   6.263  -6.705  1.00  0.00    -0.246 OA
BRANCH  27  29
ATOM     29  C   UNL     1       3.717   7.625  -5.227  1.00  0.00     0.060 A 
ATOM     30  C   UNL     1       3.469   8.660  -6.137  1.00  0.00     0.016 A 
ATOM     31  C   UNL     1       3.579   7.842  -3.854  1.00  0.00     0.016 A 
ATOM     32  C   UNL     1       3.136   9.932  -5.675  1.00  0.00     0.010 A 
ATOM     33  C   UNL     1       3.249   9.121  -3.391  1.00  0.00     0.010 A 
ATOM     34  C   UNL     1       3.063  10.180  -4.298  1.00  0.00    -0.014 A 
BRANCH  34  35
ATOM     35  C   UNL     1       2.945  11.576  -3.814  1.00  0.00     0.031 A 
ATOM     36  C   UNL     1       4.185  12.300  -3.366  1.00  0.00     0.074 A 
ATOM     37  C   UNL     1       1.758  12.207  -3.806  1.00  0.00     0.049 A 
ATOM     38  N   UNL     1       4.314  13.520  -2.910  1.00  0.00    -0.248 NA
ATOM     39  C   UNL     1       5.449  11.549  -3.444  1.00  0.00     0.031 C 
ATOM     40  C   UNL     1       0.489  11.633  -4.251  1.00  0.00     0.029 A 
ATOM     41  N   UNL     1       1.431  13.479  -3.407  1.00  0.00    -0.354 N 
ATOM     42  C   UNL     1       5.668  13.681  -2.643  1.00  0.00     0.074 A 
ATOM     43  C   UNL     1       6.315  12.426  -2.959  1.00  0.00     0.031 C 
ATOM     44  C   UNL     1      -0.481  12.551  -4.098  1.00  0.00     0.029 A 
ATOM     45  C   UNL     1       0.093  13.764  -3.519  1.00  0.00     0.049 A 
ATOM     46  H   UNL     1       2.094  14.126  -3.071  1.00  0.00     0.167 HD
ATOM     47  C   UNL     1       6.318  14.776  -2.182  1.00  0.00     0.031 A 
ATOM     48  C   UNL     1      -0.592  14.873  -3.181  1.00  0.00     0.031 A 
ATOM     49  C   UNL     1       5.679  16.022  -1.856  1.00  0.00     0.049 A 
ATOM     50  C   UNL     1       0.142  16.053  -2.604  1.00  0.00     0.074 A 
ATOM     51  C   UNL     1       6.257  17.193  -1.397  1.00  0.00     0.029 A 
ATOM     52  N   UNL     1       4.316  16.256  -1.947  1.00  0.00    -0.354 N 
ATOM     53  N   UNL     1       1.426  16.201  -2.384  1.00  0.00    -0.248 NA
ATOM     54  C   UNL     1      -0.670  17.223  -2.237  1.00  0.00     0.031 C 
ATOM     55  C   UNL     1       5.236  18.121  -1.163  1.00  0.00     0.029 A 
ATOM     56  C   UNL     1       4.030  17.544  -1.528  1.00  0.00     0.049 A 
ATOM     57  H   UNL     1       3.651  15.603  -2.263  1.00  0.00     0.167 HD
ATOM     58  C   UNL     1       1.579  17.488  -1.881  1.00  0.00     0.074 A 
ATOM     59  C   UNL     1       0.259  18.082  -1.839  1.00  0.00     0.031 C 
ATOM     60  C   UNL     1       2.712  18.122  -1.493  1.00  0.00     0.031 A 
BRANCH  47  61
ATOM     61  C   UNL     1       7.801  14.660  -1.975  1.00  0.00    -0.014 A 
ATOM     62  C   UNL     1       8.687  14.616  -3.063  1.00  0.00     0.009 A 
ATOM     63  C   UNL     1       8.321  14.622  -0.672  1.00  0.00     0.009 A 
ATOM     64  C   UNL     1      10.063  14.504  -2.849  1.00  0.00     0.001 A 
ATOM     65  C   UNL     1       9.698  14.536  -0.461  1.00  0.00     0.001 A 
ATOM     66  C   UNL     1      10.567  14.469  -1.549  1.00  0.00     0.000 A 
ENDBRANCH  47  61
BRANCH  48  67
ATOM     67  C   UNL     1      -2.066  14.921  -3.367  1.00  0.00    -0.014 A 
ATOM     68  C   UNL     1      -2.637  15.740  -4.353  1.00  0.00     0.009 A 
ATOM     69  C   UNL     1      -2.910  14.162  -2.542  1.00  0.00     0.009 A 
ATOM     70  C   UNL     1      -4.025  15.813  -4.493  1.00  0.00     0.001 A 
ATOM     71  C   UNL     1      -4.296  14.217  -2.702  1.00  0.00     0.001 A 
ATOM     72  C   UNL     1      -4.852  15.050  -3.671  1.00  0.00     0.000 A 
ENDBRANCH  48  67
BRANCH  60  73
ATOM     73  C   UNL     1       2.582  19.544  -1.024  1.00  0.00    -0.014 A 
ATOM     74  C   UNL     1       2.027  19.852   0.227  1.00  0.00     0.009 A 
ATOM     75  C   UNL     1       3.064  20.587  -1.831  1.00  0.00     0.009 A 
ATOM     76  C   UNL     1       1.931  21.180   0.647  1.00  0.00     0.001 A 
ATOM     77  C   UNL     1       2.990  21.911  -1.397  1.00  0.00     0.001 A 
ATOM     78  C   UNL     1       2.416  22.207  -0.162  1.00  0.00     0.000 A 
ENDBRANCH  60  73
ENDBRANCH  34  35
ENDBRANCH  27  29
ENDBRANCH  26  27
ENDBRANCH  25  26
ENDBRANCH  24  25
ENDBRANCH  23  24
ENDBRANCH  22  23
ENDBRANCH   1  22
TORSDOF 19
