REMARK SMILES Cc1cccc(-n2c(C)cc(/C=N\c3ccc(O)c(C(=O)OCCOCCOC(=O)c4ccc(-c5c6nc(c(-c7ccccc7)c7ccc([nH]7)c(-c7ccccc7)c7nc(c(-c8ccccc8)c8ccc5[nH]8)C=C7)C=C6)cc4)c3)c2C)c1
REMARK SMILES IDX 24 1 23 2 22 3 20 4 21 5 19 6 14 7 15 8 79 9 16 10 17 11
REMARK SMILES IDX 13 12 12 13 11 14 7 15 8 16 80 17 9 18 10 19 81 20 6 21 1 22
REMARK SMILES IDX 2 23 3 24 82 25 4 26 5 27 18 28 25 30 26 31 27 32 28 33
REMARK SMILES IDX 29 34 30 35 31 36 32 37 78 38 33 39 77 40 34 41 35 42 36 43
REMARK SMILES IDX 71 44 37 45 76 46 70 47 72 48 38 49 75 50 69 51 68 52 39 54
REMARK SMILES IDX 61 55 46 56 60 57 47 58 50 59 59 60 73 61 48 62 49 63 58 65
REMARK SMILES IDX 74 66 51 67 40 68 41 69 45 70 42 71 44 72 43 73 62 74 63 75
REMARK SMILES IDX 67 76 64 77 66 78 65 79 52 80 53 81 57 82 54 83 56 84 55 85
REMARK H PARENT 18 29 72 53 50 64
REMARK Flexibility Score: inf
ROOT
ATOM      1  C   UNL     1      -5.467   0.231   7.009  1.00  0.00     0.202 C 
ENDROOT
BRANCH   1   2
ATOM      2  C   UNL     1      -5.543  -0.733   5.883  1.00  0.00     0.261 C 
BRANCH   2   3
ATOM      3  O   UNL     1      -4.758  -0.313   4.769  1.00  0.00    -0.460 OA
BRANCH   3   4
ATOM      4  C   UNL     1      -5.333   0.716   4.109  1.00  0.00     0.342 C 
ATOM      5  O   UNL     1      -6.423   0.693   3.546  1.00  0.00    -0.246 OA
BRANCH   4   6
ATOM      6  C   UNL     1      -4.413   1.856   4.185  1.00  0.00     0.103 A 
ATOM      7  C   UNL     1      -3.891   4.006   3.276  1.00  0.00     0.064 A 
ATOM      8  C   UNL     1      -2.655   3.987   3.928  1.00  0.00     0.032 A 
ATOM      9  C   UNL     1      -4.823   3.008   3.522  1.00  0.00     0.048 A 
ATOM     10  C   UNL     1      -2.277   2.882   4.687  1.00  0.00     0.049 A 
ATOM     11  C   UNL     1      -3.123   1.786   4.748  1.00  0.00     0.130 A 
BRANCH   7  12
ATOM     12  N   UNL     1      -4.223   4.985   2.356  1.00  0.00    -0.256 NA
ATOM     13  C   UNL     1      -3.842   4.946   1.112  1.00  0.00     0.121 C 
BRANCH  13  14
ATOM     14  C   UNL     1      -2.987   4.036   0.336  1.00  0.00     0.014 A 
ATOM     15  N   UNL     1      -1.699   2.396  -0.574  1.00  0.00    -0.318 N 
ATOM     16  C   UNL     1      -1.519   3.522  -1.348  1.00  0.00     0.021 A 
ATOM     17  C   UNL     1      -2.653   2.679   0.408  1.00  0.00     0.029 A 
ATOM     18  C   UNL     1      -0.661   3.563  -2.560  1.00  0.00     0.065 C 
ATOM     19  C   UNL     1      -2.311   4.519  -0.826  1.00  0.00     0.033 A 
ATOM     20  C   UNL     1      -3.066   1.617   1.355  1.00  0.00     0.065 C 
BRANCH  15  21
ATOM     21  C   UNL     1      -0.952   1.186  -0.666  1.00  0.00     0.046 A 
ATOM     22  C   UNL     1       2.614   0.035  -0.009  1.00  0.00     0.044 C 
ATOM     23  C   UNL     1       1.140   0.027  -0.285  1.00  0.00    -0.049 A 
ATOM     24  C   UNL     1       0.459  -1.197  -0.368  1.00  0.00     0.003 A 
ATOM     25  C   UNL     1       0.427   1.224  -0.437  1.00  0.00     0.030 A 
ATOM     26  C   UNL     1      -0.908  -1.231  -0.641  1.00  0.00     0.002 A 
ATOM     27  C   UNL     1      -1.611  -0.040  -0.814  1.00  0.00     0.026 A 
ENDBRANCH  15  21
ENDBRANCH  13  14
ENDBRANCH   7  12
BRANCH  11  28
ATOM     28  O   UNL     1      -2.561   0.651   5.273  1.00  0.00    -0.507 OA
ATOM     29  H   UNL     1      -1.696   0.680   5.632  1.00  0.00     0.293 HD
ENDBRANCH  11  28
ENDBRANCH   4   6
ENDBRANCH   3   4
ENDBRANCH   2   3
ENDBRANCH   1   2
BRANCH   1  30
ATOM     30  O   UNL     1      -6.501   1.167   6.744  1.00  0.00    -0.374 OA
BRANCH  30  31
ATOM     31  C   UNL     1      -6.683   2.134   7.758  1.00  0.00     0.202 C 
BRANCH  31  32
ATOM     32  C   UNL     1      -6.862   1.512   9.154  1.00  0.00     0.261 C 
BRANCH  32  33
ATOM     33  O   UNL     1      -8.000   0.617   9.135  1.00  0.00    -0.460 OA
BRANCH  33  34
ATOM     34  C   UNL     1      -7.754  -0.720   9.266  1.00  0.00     0.338 C 
ATOM     35  O   UNL     1      -6.957  -1.222  10.042  1.00  0.00    -0.246 OA
BRANCH  34  36
ATOM     36  C   UNL     1      -8.334  -1.450   8.092  1.00  0.00     0.060 A 
ATOM     37  C   UNL     1      -7.918  -2.767   7.804  1.00  0.00     0.016 A 
ATOM     38  C   UNL     1      -8.965  -0.699   7.106  1.00  0.00     0.016 A 
ATOM     39  C   UNL     1      -7.966  -3.257   6.486  1.00  0.00     0.010 A 
ATOM     40  C   UNL     1      -8.912  -1.145   5.802  1.00  0.00     0.010 A 
ATOM     41  C   UNL     1      -8.379  -2.404   5.465  1.00  0.00    -0.014 A 
BRANCH  41  42
ATOM     42  C   UNL     1      -8.189  -2.619   4.021  1.00  0.00     0.031 A 
ATOM     43  C   UNL     1      -9.397  -2.637   3.178  1.00  0.00     0.074 A 
ATOM     44  C   UNL     1      -6.969  -2.575   3.420  1.00  0.00     0.049 A 
ATOM     45  N   UNL     1      -9.444  -3.211   2.029  1.00  0.00    -0.248 NA
ATOM     46  C   UNL     1     -10.684  -2.062   3.568  1.00  0.00     0.031 C 
ATOM     47  C   UNL     1      -6.614  -2.337   2.019  1.00  0.00     0.029 A 
ATOM     48  N   UNL     1      -5.713  -2.719   4.002  1.00  0.00    -0.354 N 
ATOM     49  C   UNL     1     -10.573  -2.748   1.400  1.00  0.00     0.074 A 
ATOM     50  C   UNL     1     -11.389  -2.191   2.444  1.00  0.00     0.031 C 
ATOM     51  C   UNL     1      -5.319  -2.657   1.812  1.00  0.00     0.029 A 
ATOM     52  C   UNL     1      -4.787  -3.172   3.062  1.00  0.00     0.049 A 
ATOM     53  H   UNL     1      -5.506  -2.528   4.945  1.00  0.00     0.167 HD
ATOM     54  C   UNL     1     -10.593  -2.716   0.040  1.00  0.00     0.031 A 
ATOM     55  C   UNL     1      -4.061  -4.290   3.316  1.00  0.00     0.031 A 
ATOM     56  C   UNL     1      -9.315  -3.204  -0.510  1.00  0.00     0.049 A 
ATOM     57  C   UNL     1      -4.589  -5.316   2.359  1.00  0.00     0.074 A 
ATOM     58  C   UNL     1      -8.248  -2.567  -1.124  1.00  0.00     0.029 A 
ATOM     59  N   UNL     1      -8.840  -4.460  -0.125  1.00  0.00    -0.354 N 
ATOM     60  N   UNL     1      -5.789  -5.226   1.843  1.00  0.00    -0.248 NA
ATOM     61  C   UNL     1      -3.785  -6.364   1.744  1.00  0.00     0.031 C 
ATOM     62  C   UNL     1      -7.119  -3.441  -1.061  1.00  0.00     0.029 A 
ATOM     63  C   UNL     1      -7.497  -4.612  -0.418  1.00  0.00     0.049 A 
ATOM     64  H   UNL     1      -9.394  -5.152   0.303  1.00  0.00     0.167 HD
ATOM     65  C   UNL     1      -5.845  -5.997   0.727  1.00  0.00     0.074 A 
ATOM     66  C   UNL     1      -4.605  -6.760   0.751  1.00  0.00     0.031 C 
ATOM     67  C   UNL     1      -6.835  -5.899  -0.205  1.00  0.00     0.031 A 
BRANCH  54  68
ATOM     68  C   UNL     1     -11.649  -1.997  -0.772  1.00  0.00    -0.014 A 
ATOM     69  C   UNL     1     -11.416  -1.729  -2.132  1.00  0.00     0.009 A 
ATOM     70  C   UNL     1     -12.892  -1.555  -0.277  1.00  0.00     0.009 A 
ATOM     71  C   UNL     1     -12.341  -1.034  -2.927  1.00  0.00     0.001 A 
ATOM     72  C   UNL     1     -13.811  -0.836  -1.054  1.00  0.00     0.001 A 
ATOM     73  C   UNL     1     -13.535  -0.577  -2.385  1.00  0.00     0.000 A 
ENDBRANCH  54  68
BRANCH  55  74
ATOM     74  C   UNL     1      -3.667  -4.372   4.764  1.00  0.00    -0.014 A 
ATOM     75  C   UNL     1      -2.658  -3.467   5.190  1.00  0.00     0.009 A 
ATOM     76  C   UNL     1      -4.536  -4.872   5.747  1.00  0.00     0.009 A 
ATOM     77  C   UNL     1      -2.615  -2.974   6.505  1.00  0.00     0.001 A 
ATOM     78  C   UNL     1      -4.487  -4.377   7.066  1.00  0.00     0.001 A 
ATOM     79  C   UNL     1      -3.554  -3.405   7.436  1.00  0.00     0.000 A 
ENDBRANCH  55  74
BRANCH  67  80
ATOM     80  C   UNL     1      -7.263  -7.065  -1.047  1.00  0.00    -0.014 A 
ATOM     81  C   UNL     1      -6.854  -8.381  -0.802  1.00  0.00     0.009 A 
ATOM     82  C   UNL     1      -8.286  -6.878  -2.001  1.00  0.00     0.009 A 
ATOM     83  C   UNL     1      -7.403  -9.451  -1.508  1.00  0.00     0.001 A 
ATOM     84  C   UNL     1      -8.889  -7.950  -2.652  1.00  0.00     0.001 A 
ATOM     85  C   UNL     1      -8.433  -9.237  -2.417  1.00  0.00     0.000 A 
ENDBRANCH  67  80
ENDBRANCH  41  42
ENDBRANCH  34  36
ENDBRANCH  33  34
ENDBRANCH  32  33
ENDBRANCH  31  32
ENDBRANCH  30  31
ENDBRANCH   1  30
TORSDOF 18
