REMARK SMILES O=C(OCCOCCOC(=O)c1nccnc1C(=O)Nc1ccc2c(c1)OCO2)c1ccc(-c2c3nc(c(-c4ccccc4)c4ccc([nH]4)c(-c4ccccc4)c4nc(c(-c5ccccc5)c5ccc2[nH]5)C=C4)C=C3)cc1
REMARK SMILES IDX 6 1 5 2 4 3 3 4 2 5 1 6 30 7 31 8 77 9 32 10 76 11 33 12
REMARK SMILES IDX 34 13 35 14 70 15 36 16 75 17 69 18 71 19 37 20 74 21 68 22
REMARK SMILES IDX 67 23 38 25 60 26 45 27 59 28 46 29 49 30 58 31 72 32 47 33
REMARK SMILES IDX 48 34 57 36 73 37 50 38 39 39 40 40 44 41 41 42 43 43 42 44
REMARK SMILES IDX 61 45 62 46 66 47 63 48 65 49 64 50 51 51 52 52 56 53 53 54
REMARK SMILES IDX 55 55 54 56 7 57 8 58 9 59 10 60 11 61 12 62 13 63 17 64
REMARK SMILES IDX 14 65 16 66 15 67 18 68 19 69 20 70 21 72 22 73 26 74 23 75
REMARK SMILES IDX 25 76 24 77 27 78 29 79 28 80
REMARK H PARENT 71 24 49 35 20 71
REMARK Flexibility Score: inf
ROOT
ATOM      1  O   UNL     1       3.349  -0.149   1.280  1.00  0.00    -0.374 OA
ENDROOT
BRANCH   1   2
ATOM      2  C   UNL     1       4.069   0.985   0.809  1.00  0.00     0.202 C 
BRANCH   2   3
ATOM      3  C   UNL     1       3.417   1.888  -0.246  1.00  0.00     0.261 C 
BRANCH   3   4
ATOM      4  O   UNL     1       2.068   1.554  -0.615  1.00  0.00    -0.460 OA
BRANCH   4   5
ATOM      5  C   UNL     1       1.648   0.614  -1.487  1.00  0.00     0.338 C 
ATOM      6  O   UNL     1       0.452   0.475  -1.725  1.00  0.00    -0.246 OA
BRANCH   5   7
ATOM      7  C   UNL     1       2.609  -0.240  -2.208  1.00  0.00     0.060 A 
ATOM      8  C   UNL     1       3.499  -1.095  -1.558  1.00  0.00     0.016 A 
ATOM      9  C   UNL     1       2.472  -0.329  -3.593  1.00  0.00     0.016 A 
ATOM     10  C   UNL     1       4.341  -1.934  -2.269  1.00  0.00     0.010 A 
ATOM     11  C   UNL     1       3.234  -1.253  -4.305  1.00  0.00     0.010 A 
ATOM     12  C   UNL     1       4.184  -2.050  -3.646  1.00  0.00    -0.014 A 
BRANCH  12  13
ATOM     13  C   UNL     1       5.001  -3.016  -4.405  1.00  0.00     0.031 A 
ATOM     14  C   UNL     1       5.902  -2.498  -5.480  1.00  0.00     0.074 A 
ATOM     15  C   UNL     1       4.900  -4.335  -4.150  1.00  0.00     0.049 A 
ATOM     16  N   UNL     1       6.494  -3.149  -6.442  1.00  0.00    -0.248 NA
ATOM     17  C   UNL     1       6.147  -1.045  -5.488  1.00  0.00     0.031 C 
ATOM     18  C   UNL     1       4.101  -4.938  -3.078  1.00  0.00     0.029 A 
ATOM     19  N   UNL     1       5.464  -5.412  -4.784  1.00  0.00    -0.354 N 
ATOM     20  C   UNL     1       7.117  -2.179  -7.215  1.00  0.00     0.074 A 
ATOM     21  C   UNL     1       6.849  -0.898  -6.602  1.00  0.00     0.031 C 
ATOM     22  C   UNL     1       4.238  -6.271  -3.122  1.00  0.00     0.029 A 
ATOM     23  C   UNL     1       5.050  -6.621  -4.277  1.00  0.00     0.049 A 
ATOM     24  H   UNL     1       6.103  -5.327  -5.528  1.00  0.00     0.167 HD
ATOM     25  C   UNL     1       7.825  -2.357  -8.352  1.00  0.00     0.031 A 
ATOM     26  C   UNL     1       5.246  -7.871  -4.737  1.00  0.00     0.031 A 
ATOM     27  C   UNL     1       8.095  -3.649  -8.919  1.00  0.00     0.049 A 
ATOM     28  C   UNL     1       6.005  -8.035  -6.023  1.00  0.00     0.074 A 
ATOM     29  C   UNL     1       8.814  -3.959 -10.057  1.00  0.00     0.029 A 
ATOM     30  N   UNL     1       7.652  -4.848  -8.378  1.00  0.00    -0.354 N 
ATOM     31  N   UNL     1       6.570  -7.114  -6.768  1.00  0.00    -0.248 NA
ATOM     32  C   UNL     1       6.124  -9.399  -6.551  1.00  0.00     0.031 C 
ATOM     33  C   UNL     1       8.764  -5.346 -10.232  1.00  0.00     0.029 A 
ATOM     34  C   UNL     1       8.056  -5.901  -9.177  1.00  0.00     0.049 A 
ATOM     35  H   UNL     1       7.129  -4.935  -7.549  1.00  0.00     0.167 HD
ATOM     36  C   UNL     1       7.111  -7.786  -7.853  1.00  0.00     0.074 A 
ATOM     37  C   UNL     1       6.835  -9.195  -7.651  1.00  0.00     0.031 C 
ATOM     38  C   UNL     1       7.761  -7.288  -8.932  1.00  0.00     0.031 A 
BRANCH  25  39
ATOM     39  C   UNL     1       8.284  -1.129  -9.082  1.00  0.00    -0.014 A 
ATOM     40  C   UNL     1       9.334  -0.331  -8.605  1.00  0.00     0.009 A 
ATOM     41  C   UNL     1       7.652  -0.774 -10.284  1.00  0.00     0.009 A 
ATOM     42  C   UNL     1       9.723   0.814  -9.305  1.00  0.00     0.001 A 
ATOM     43  C   UNL     1       8.058   0.356 -10.994  1.00  0.00     0.001 A 
ATOM     44  C   UNL     1       9.088   1.154 -10.500  1.00  0.00     0.000 A 
ENDBRANCH  25  39
BRANCH  26  45
ATOM     45  C   UNL     1       4.638  -9.039  -4.042  1.00  0.00    -0.014 A 
ATOM     46  C   UNL     1       5.443 -10.018  -3.442  1.00  0.00     0.009 A 
ATOM     47  C   UNL     1       3.242  -9.191  -3.988  1.00  0.00     0.009 A 
ATOM     48  C   UNL     1       4.865 -11.133  -2.826  1.00  0.00     0.001 A 
ATOM     49  C   UNL     1       2.666 -10.286  -3.341  1.00  0.00     0.001 A 
ATOM     50  C   UNL     1       3.478 -11.263  -2.772  1.00  0.00     0.000 A 
ENDBRANCH  26  45
BRANCH  38  51
ATOM     51  C   UNL     1       8.224  -8.278  -9.957  1.00  0.00    -0.014 A 
ATOM     52  C   UNL     1       7.317  -8.865 -10.851  1.00  0.00     0.009 A 
ATOM     53  C   UNL     1       9.591  -8.577 -10.066  1.00  0.00     0.009 A 
ATOM     54  C   UNL     1       7.770  -9.752 -11.827  1.00  0.00     0.001 A 
ATOM     55  C   UNL     1      10.043  -9.443 -11.060  1.00  0.00     0.001 A 
ATOM     56  C   UNL     1       9.132 -10.034 -11.935  1.00  0.00     0.000 A 
ENDBRANCH  38  51
ENDBRANCH  12  13
ENDBRANCH   5   7
ENDBRANCH   4   5
ENDBRANCH   3   4
ENDBRANCH   2   3
ENDBRANCH   1   2
BRANCH   1  57
ATOM     57  C   UNL     1       1.985   0.047   1.660  1.00  0.00     0.202 C 
BRANCH  57  58
ATOM     58  C   UNL     1       1.792  -0.560   3.026  1.00  0.00     0.261 C 
BRANCH  58  59
ATOM     59  O   UNL     1       2.762   0.114   3.835  1.00  0.00    -0.458 OA
BRANCH  59  60
ATOM     60  C   UNL     1       3.345  -0.665   4.751  1.00  0.00     0.359 C 
ATOM     61  O   UNL     1       2.908  -1.719   5.204  1.00  0.00    -0.244 OA
BRANCH  60  62
ATOM     62  C   UNL     1       4.524   0.034   5.260  1.00  0.00     0.179 A 
ATOM     63  N   UNL     1       4.242   0.650   6.458  1.00  0.00    -0.245 NA
ATOM     64  C   UNL     1       5.758   0.146   4.627  1.00  0.00     0.161 A 
ATOM     65  C   UNL     1       5.206   1.425   6.982  1.00  0.00     0.132 A 
ATOM     66  N   UNL     1       6.737   0.908   5.230  1.00  0.00    -0.247 NA
ATOM     67  C   UNL     1       6.435   1.551   6.378  1.00  0.00     0.132 A 
BRANCH  64  68
ATOM     68  C   UNL     1       6.181  -0.179   3.229  1.00  0.00     0.276 C 
ATOM     69  O   UNL     1       6.703   0.761   2.600  1.00  0.00    -0.267 OA
ATOM     70  N   UNL     1       6.187  -1.354   2.519  1.00  0.00    -0.320 N 
ATOM     71  H   UNL     1       6.760  -1.268   1.724  1.00  0.00     0.170 HD
BRANCH  70  72
ATOM     72  C   UNL     1       5.631  -2.632   2.578  1.00  0.00     0.045 A 
ATOM     73  C   UNL     1       4.915  -3.138   3.655  1.00  0.00     0.030 A 
ATOM     74  C   UNL     1       5.734  -3.404   1.404  1.00  0.00     0.076 A 
ATOM     75  C   UNL     1       4.119  -4.284   3.515  1.00  0.00     0.053 A 
ATOM     76  C   UNL     1       4.997  -4.566   1.310  1.00  0.00     0.167 A 
ATOM     77  C   UNL     1       4.173  -4.972   2.326  1.00  0.00     0.165 A 
ATOM     78  O   UNL     1       4.955  -5.405   0.241  1.00  0.00    -0.454 OA
ATOM     79  O   UNL     1       3.478  -6.097   2.015  1.00  0.00    -0.454 OA
ATOM     80  C   UNL     1       4.048  -6.417   0.730  1.00  0.00     0.468 C 
ENDBRANCH  70  72
ENDBRANCH  64  68
ENDBRANCH  60  62
ENDBRANCH  59  60
ENDBRANCH  58  59
ENDBRANCH  57  58
ENDBRANCH   1  57
TORSDOF 16
