REMARK SMILES CC(C)CCc1cc2c(cc1Cl)C=C(C(=O)OCCOCCOC(=O)c1ccc(-c3c4nc(c(-c5ccccc5)c5ccc([nH]5)c(-c5ccccc5)c5nc(c(-c6ccccc6)c6ccc3[nH]6)C=C5)C=C4)cc1)[C@@H](C(F)(F)F)O2
REMARK SMILES IDX 19 1 18 2 17 3 15 4 16 5 14 6 6 7 7 8 11 9 8 10 10 11 12 12
REMARK SMILES IDX 9 13 79 14 13 15 74 16 5 17 4 18 2 19 1 20 3 21 75 22 76 23
REMARK SMILES IDX 77 24 78 25 20 26 21 27 22 28 23 29 24 30 25 31 26 32 27 33
REMARK SMILES IDX 73 34 28 35 72 36 29 37 30 38 31 39 66 40 32 41 71 42 65 43
REMARK SMILES IDX 67 44 33 45 70 46 64 47 63 48 34 50 56 51 41 52 55 53 42 54
REMARK SMILES IDX 45 55 54 56 68 57 43 58 44 59 53 61 69 62 46 63 35 64 36 65
REMARK SMILES IDX 40 66 37 67 39 68 38 69 57 70 58 71 62 72 59 73 61 74 60 75
REMARK SMILES IDX 47 76 48 77 52 78 49 79 51 80 50 81
REMARK H PARENT 67 49 45 60
REMARK Flexibility Score: inf
ROOT
ATOM      1  C   UNL     1       0.680   3.833  11.161  1.00  0.00     0.202 C 
ENDROOT
BRANCH   1   2
ATOM      2  C   UNL     1       1.615   4.286  10.035  1.00  0.00     0.261 C 
BRANCH   2   3
ATOM      3  O   UNL     1       1.019   4.125   8.740  1.00  0.00    -0.460 OA
BRANCH   3   4
ATOM      4  C   UNL     1       1.577   3.144   7.990  1.00  0.00     0.338 C 
ATOM      5  O   UNL     1       2.572   2.493   8.259  1.00  0.00    -0.246 OA
BRANCH   4   6
ATOM      6  C   UNL     1       0.722   2.866   6.822  1.00  0.00     0.087 C 
ATOM      7  C   UNL     1      -1.259   0.672   2.773  1.00  0.00    -0.026 A 
ATOM      8  C   UNL     1      -1.277   1.982   3.294  1.00  0.00     0.052 A 
ATOM      9  C   UNL     1      -0.768  -0.357   3.593  1.00  0.00     0.045 A 
ATOM     10  C   UNL     1      -0.706   2.274   4.533  1.00  0.00     0.128 A 
ATOM     11  C   UNL     1      -0.215  -0.067   4.844  1.00  0.00     0.032 A 
ATOM     12  Cl  UNL     1      -0.785  -2.018   3.116  1.00  0.00    -0.084 Cl
ATOM     13  C   UNL     1      -0.144   1.253   5.293  1.00  0.00     0.019 A 
ATOM     14  O   UNL     1      -0.727   3.583   4.919  1.00  0.00    -0.475 OA
ATOM     15  C   UNL     1       0.574   1.573   6.511  1.00  0.00     0.027 C 
ATOM     16  C   UNL     1       0.099   3.994   6.046  1.00  0.00     0.316 C 
BRANCH   7  17
ATOM     17  C   UNL     1      -1.739   0.435   1.357  1.00  0.00     0.037 C 
BRANCH  17  18
ATOM     18  C   UNL     1      -1.100   1.360   0.302  1.00  0.00     0.008 C 
BRANCH  18  19
ATOM     19  C   UNL     1       0.443   1.350   0.252  1.00  0.00    -0.017 C 
ATOM     20  C   UNL     1       1.007  -0.013  -0.148  1.00  0.00     0.007 C 
ATOM     21  C   UNL     1       0.936   2.421  -0.725  1.00  0.00     0.007 C 
ENDBRANCH  18  19
ENDBRANCH  17  18
ENDBRANCH   7  17
BRANCH  16  22
ATOM     22  C   UNL     1       1.140   5.008   5.546  1.00  0.00     0.430 C 
ATOM     23  F   UNL     1       0.562   5.976   4.795  1.00  0.00    -0.167 F 
ATOM     24  F   UNL     1       1.760   5.637   6.573  1.00  0.00    -0.167 F 
ATOM     25  F   UNL     1       2.097   4.424   4.791  1.00  0.00    -0.167 F 
ENDBRANCH  16  22
ENDBRANCH   4   6
ENDBRANCH   3   4
ENDBRANCH   2   3
ENDBRANCH   1   2
BRANCH   1  26
ATOM     26  O   UNL     1       0.166   2.506  11.109  1.00  0.00    -0.374 OA
BRANCH  26  27
ATOM     27  C   UNL     1      -0.866   2.207  10.171  1.00  0.00     0.202 C 
BRANCH  27  28
ATOM     28  C   UNL     1      -2.265   2.792  10.407  1.00  0.00     0.261 C 
BRANCH  28  29
ATOM     29  O   UNL     1      -2.293   4.227  10.344  1.00  0.00    -0.460 OA
BRANCH  29  30
ATOM     30  C   UNL     1      -2.509   4.846  11.532  1.00  0.00     0.338 C 
ATOM     31  O   UNL     1      -2.704   4.322  12.618  1.00  0.00    -0.246 OA
BRANCH  30  32
ATOM     32  C   UNL     1      -2.272   6.292  11.374  1.00  0.00     0.060 A 
ATOM     33  C   UNL     1      -2.998   7.045  10.452  1.00  0.00     0.016 A 
ATOM     34  C   UNL     1      -1.324   6.902  12.207  1.00  0.00     0.016 A 
ATOM     35  C   UNL     1      -2.785   8.424  10.381  1.00  0.00     0.010 A 
ATOM     36  C   UNL     1      -1.113   8.278  12.133  1.00  0.00     0.010 A 
ATOM     37  C   UNL     1      -1.854   9.052  11.230  1.00  0.00    -0.014 A 
BRANCH  37  38
ATOM     38  C   UNL     1      -1.751  10.532  11.261  1.00  0.00     0.031 A 
ATOM     39  C   UNL     1      -0.571  11.248  10.679  1.00  0.00     0.074 A 
ATOM     40  C   UNL     1      -2.744  11.230  11.845  1.00  0.00     0.049 A 
ATOM     41  N   UNL     1      -0.373  12.537  10.563  1.00  0.00    -0.248 NA
ATOM     42  C   UNL     1       0.531  10.421  10.166  1.00  0.00     0.031 C 
ATOM     43  C   UNL     1      -3.926  10.638  12.472  1.00  0.00     0.029 A 
ATOM     44  N   UNL     1      -2.926  12.582  11.996  1.00  0.00    -0.354 N 
ATOM     45  C   UNL     1       0.863  12.678   9.948  1.00  0.00     0.074 A 
ATOM     46  C   UNL     1       1.394  11.344   9.761  1.00  0.00     0.031 C 
ATOM     47  C   UNL     1      -4.730  11.620  12.903  1.00  0.00     0.029 A 
ATOM     48  C   UNL     1      -4.105  12.910  12.622  1.00  0.00     0.049 A 
ATOM     49  H   UNL     1      -2.275  13.252  11.687  1.00  0.00     0.167 HD
ATOM     50  C   UNL     1       1.484  13.817   9.559  1.00  0.00     0.031 A 
ATOM     51  C   UNL     1      -4.632  14.111  12.931  1.00  0.00     0.031 A 
ATOM     52  C   UNL     1       0.956  15.142   9.772  1.00  0.00     0.049 A 
ATOM     53  C   UNL     1      -3.899  15.360  12.530  1.00  0.00     0.074 A 
ATOM     54  C   UNL     1       1.500  16.352   9.377  1.00  0.00     0.029 A 
ATOM     55  N   UNL     1      -0.221  15.434  10.444  1.00  0.00    -0.354 N 
ATOM     56  N   UNL     1      -2.770  15.477  11.873  1.00  0.00    -0.248 NA
ATOM     57  C   UNL     1      -4.518  16.643  12.894  1.00  0.00     0.031 C 
ATOM     58  C   UNL     1       0.699  17.377   9.881  1.00  0.00     0.029 A 
ATOM     59  C   UNL     1      -0.399  16.807  10.506  1.00  0.00     0.049 A 
ATOM     60  H   UNL     1      -0.839  14.766  10.820  1.00  0.00     0.167 HD
ATOM     61  C   UNL     1      -2.558  16.841  11.720  1.00  0.00     0.074 A 
ATOM     62  C   UNL     1      -3.684  17.512  12.336  1.00  0.00     0.031 C 
ATOM     63  C   UNL     1      -1.521  17.475  11.119  1.00  0.00     0.031 A 
BRANCH  50  64
ATOM     64  C   UNL     1       2.808  13.703   8.851  1.00  0.00    -0.014 A 
ATOM     65  C   UNL     1       3.967  14.237   9.438  1.00  0.00     0.009 A 
ATOM     66  C   UNL     1       2.887  13.188   7.547  1.00  0.00     0.009 A 
ATOM     67  C   UNL     1       5.169  14.280   8.729  1.00  0.00     0.001 A 
ATOM     68  C   UNL     1       4.099  13.202   6.852  1.00  0.00     0.001 A 
ATOM     69  C   UNL     1       5.234  13.760   7.437  1.00  0.00     0.000 A 
ENDBRANCH  50  64
BRANCH  51  70
ATOM     70  C   UNL     1      -5.951  14.170  13.618  1.00  0.00    -0.014 A 
ATOM     71  C   UNL     1      -6.098  13.683  14.928  1.00  0.00     0.009 A 
ATOM     72  C   UNL     1      -7.085  14.652  12.947  1.00  0.00     0.009 A 
ATOM     73  C   UNL     1      -7.354  13.648  15.537  1.00  0.00     0.001 A 
ATOM     74  C   UNL     1      -8.334  14.650  13.573  1.00  0.00     0.001 A 
ATOM     75  C   UNL     1      -8.469  14.136  14.861  1.00  0.00     0.000 A 
ENDBRANCH  51  70
BRANCH  63  76
ATOM     76  C   UNL     1      -1.539  18.981  11.067  1.00  0.00    -0.014 A 
ATOM     77  C   UNL     1      -1.620  19.632   9.824  1.00  0.00     0.009 A 
ATOM     78  C   UNL     1      -1.358  19.755  12.224  1.00  0.00     0.009 A 
ATOM     79  C   UNL     1      -1.493  21.020   9.737  1.00  0.00     0.001 A 
ATOM     80  C   UNL     1      -1.269  21.146  12.137  1.00  0.00     0.001 A 
ATOM     81  C   UNL     1      -1.322  21.776  10.894  1.00  0.00     0.000 A 
ENDBRANCH  63  76
ENDBRANCH  37  38
ENDBRANCH  30  32
ENDBRANCH  29  30
ENDBRANCH  28  29
ENDBRANCH  27  28
ENDBRANCH  26  27
ENDBRANCH   1  26
TORSDOF 18
