REMARK SMILES CCn1cc(S(=O)(=O)N2CCC(CCc3ccc(C(=O)OCCOCCOC(=O)c4ccc(-c5c6nc(c(-c7ccccc7)c7ccc([nH]7)c(-c7ccccc7)c7nc(c(-c8ccccc8)c8ccc5[nH]8)C=C7)C=C6)cc4)cc3)CC2)cn1
REMARK SMILES IDX 22 1 21 2 19 3 20 4 18 5 15 6 16 7 79 8 17 9 78 10 14 11
REMARK SMILES IDX 13 12 12 13 9 14 10 15 81 16 11 17 80 18 6 19 7 20 8 21 5 22
REMARK SMILES IDX 3 23 4 24 83 25 82 26 2 27 1 28 23 29 24 30 25 31 26 32
REMARK SMILES IDX 27 33 28 34 29 35 30 36 31 37 77 38 32 39 76 40 33 41 34 42
REMARK SMILES IDX 35 43 70 44 36 45 75 46 69 47 71 48 37 49 74 50 68 51 67 52
REMARK SMILES IDX 38 54 60 55 45 56 59 57 46 58 49 59 58 60 72 61 47 62 48 63
REMARK SMILES IDX 57 65 73 66 50 67 39 68 40 69 44 70 41 71 43 72 42 73 61 74
REMARK SMILES IDX 62 75 66 76 63 77 65 78 64 79 51 80 52 81 56 82 53 83 55 84
REMARK SMILES IDX 54 85
REMARK H PARENT 71 53 49 64
REMARK Flexibility Score: inf
ROOT
ATOM      1  C   UNL     1       3.593   4.715  -1.994  1.00  0.00     0.261 C 
ENDROOT
BRANCH   1   2
ATOM      2  O   UNL     1       3.720   3.990  -0.761  1.00  0.00    -0.460 OA
BRANCH   2   3
ATOM      3  C   UNL     1       4.822   4.314  -0.038  1.00  0.00     0.338 C 
ATOM      4  O   UNL     1       5.693   5.112  -0.341  1.00  0.00    -0.246 OA
BRANCH   3   5
ATOM      5  C   UNL     1       4.758   3.676   1.290  1.00  0.00     0.060 A 
ATOM      6  C   UNL     1       4.905   2.461   3.826  1.00  0.00    -0.048 A 
ATOM      7  C   UNL     1       5.210   3.821   3.666  1.00  0.00     0.004 A 
ATOM      8  C   UNL     1       4.503   1.739   2.689  1.00  0.00     0.004 A 
ATOM      9  C   UNL     1       5.154   4.420   2.406  1.00  0.00     0.016 A 
ATOM     10  C   UNL     1       4.390   2.343   1.435  1.00  0.00     0.016 A 
BRANCH   6  11
ATOM     11  C   UNL     1       5.180   1.800   5.164  1.00  0.00     0.036 C 
BRANCH  11  12
ATOM     12  C   UNL     1       4.043   1.024   5.856  1.00  0.00     0.008 C 
BRANCH  12  13
ATOM     13  C   UNL     1       3.516  -0.210   5.111  1.00  0.00    -0.008 C 
ATOM     14  N   UNL     1       2.859  -2.956   4.454  1.00  0.00    -0.198 NA
ATOM     15  C   UNL     1       4.065  -2.323   3.872  1.00  0.00     0.103 C 
ATOM     16  C   UNL     1       1.823  -2.044   5.007  1.00  0.00     0.103 C 
ATOM     17  C   UNL     1       4.615  -1.222   4.766  1.00  0.00     0.020 C 
ATOM     18  C   UNL     1       2.434  -0.959   5.894  1.00  0.00     0.020 C 
BRANCH  14  19
ATOM     19  S   UNL     1       2.243  -4.271   3.543  1.00  0.00     0.246 S 
ATOM     20  O   UNL     1       1.117  -4.830   4.243  1.00  0.00    -0.207 OA
ATOM     21  O   UNL     1       3.361  -5.084   3.099  1.00  0.00    -0.207 OA
BRANCH  19  22
ATOM     22  C   UNL     1       1.561  -3.701   2.073  1.00  0.00     0.120 A 
ATOM     23  N   UNL     1       0.815  -2.514   0.391  1.00  0.00    -0.272 N 
ATOM     24  C   UNL     1       1.491  -2.419   1.574  1.00  0.00     0.130 A 
ATOM     25  N   UNL     1       0.459  -3.780   0.089  1.00  0.00    -0.180 NA
ATOM     26  C   UNL     1       0.925  -4.502   1.116  1.00  0.00     0.156 A 
BRANCH  23  27
ATOM     27  C   UNL     1       0.422  -1.445  -0.511  1.00  0.00     0.141 C 
ATOM     28  C   UNL     1       0.866  -0.046  -0.104  1.00  0.00     0.029 C 
ENDBRANCH  23  27
ENDBRANCH  19  22
ENDBRANCH  14  19
ENDBRANCH  12  13
ENDBRANCH  11  12
ENDBRANCH   6  11
ENDBRANCH   3   5
ENDBRANCH   2   3
ENDBRANCH   1   2
BRANCH   1  29
ATOM     29  C   UNL     1       2.538   5.822  -1.932  1.00  0.00     0.202 C 
BRANCH  29  30
ATOM     30  O   UNL     1       2.724   6.889  -1.004  1.00  0.00    -0.374 OA
BRANCH  30  31
ATOM     31  C   UNL     1       2.567   6.656   0.390  1.00  0.00     0.202 C 
BRANCH  31  32
ATOM     32  C   UNL     1       1.168   6.404   0.926  1.00  0.00     0.261 C 
BRANCH  32  33
ATOM     33  O   UNL     1       0.565   5.273   0.321  1.00  0.00    -0.460 OA
BRANCH  33  34
ATOM     34  C   UNL     1      -0.362   5.582  -0.613  1.00  0.00     0.338 C 
ATOM     35  O   UNL     1      -0.509   6.641  -1.196  1.00  0.00    -0.246 OA
BRANCH  34  36
ATOM     36  C   UNL     1      -1.317   4.475  -0.681  1.00  0.00     0.060 A 
ATOM     37  C   UNL     1      -2.397   4.637  -1.551  1.00  0.00     0.016 A 
ATOM     38  C   UNL     1      -1.314   3.520   0.347  1.00  0.00     0.016 A 
ATOM     39  C   UNL     1      -3.579   4.008  -1.235  1.00  0.00     0.010 A 
ATOM     40  C   UNL     1      -2.498   2.925   0.680  1.00  0.00     0.010 A 
ATOM     41  C   UNL     1      -3.631   3.250  -0.062  1.00  0.00    -0.014 A 
BRANCH  41  42
ATOM     42  C   UNL     1      -4.888   2.661   0.331  1.00  0.00     0.031 A 
ATOM     43  C   UNL     1      -5.169   1.449  -0.461  1.00  0.00     0.074 A 
ATOM     44  C   UNL     1      -5.585   3.107   1.393  1.00  0.00     0.049 A 
ATOM     45  N   UNL     1      -5.998   1.333  -1.443  1.00  0.00    -0.248 NA
ATOM     46  C   UNL     1      -4.233   0.315  -0.324  1.00  0.00     0.031 C 
ATOM     47  C   UNL     1      -5.177   4.123   2.371  1.00  0.00     0.029 A 
ATOM     48  N   UNL     1      -6.764   2.658   1.896  1.00  0.00    -0.354 N 
ATOM     49  C   UNL     1      -5.867   0.013  -1.855  1.00  0.00     0.074 A 
ATOM     50  C   UNL     1      -4.596  -0.439  -1.361  1.00  0.00     0.031 C 
ATOM     51  C   UNL     1      -5.973   4.036   3.463  1.00  0.00     0.029 A 
ATOM     52  C   UNL     1      -7.018   3.060   3.203  1.00  0.00     0.049 A 
ATOM     53  H   UNL     1      -7.386   2.096   1.380  1.00  0.00     0.167 HD
ATOM     54  C   UNL     1      -6.975  -0.717  -2.161  1.00  0.00     0.031 A 
ATOM     55  C   UNL     1      -7.986   2.573   4.019  1.00  0.00     0.031 A 
ATOM     56  C   UNL     1      -8.115   0.144  -2.365  1.00  0.00     0.049 A 
ATOM     57  C   UNL     1      -8.985   1.898   3.163  1.00  0.00     0.074 A 
ATOM     58  C   UNL     1      -8.491   1.103  -3.279  1.00  0.00     0.029 A 
ATOM     59  N   UNL     1      -8.874   0.335  -1.237  1.00  0.00    -0.354 N 
ATOM     60  N   UNL     1      -9.750   2.537   2.325  1.00  0.00    -0.248 NA
ATOM     61  C   UNL     1      -8.865   0.466   2.926  1.00  0.00     0.031 C 
ATOM     62  C   UNL     1      -9.310   2.024  -2.559  1.00  0.00     0.029 A 
ATOM     63  C   UNL     1      -9.461   1.569  -1.248  1.00  0.00     0.049 A 
ATOM     64  H   UNL     1      -8.980  -0.327  -0.516  1.00  0.00     0.167 HD
ATOM     65  C   UNL     1      -9.828   1.703   1.222  1.00  0.00     0.074 A 
ATOM     66  C   UNL     1      -9.421   0.390   1.713  1.00  0.00     0.031 C 
ATOM     67  C   UNL     1      -9.907   2.228  -0.036  1.00  0.00     0.031 A 
BRANCH  54  68
ATOM     68  C   UNL     1      -7.161  -2.150  -1.688  1.00  0.00    -0.014 A 
ATOM     69  C   UNL     1      -8.371  -2.793  -1.996  1.00  0.00     0.009 A 
ATOM     70  C   UNL     1      -6.354  -2.775  -0.715  1.00  0.00     0.009 A 
ATOM     71  C   UNL     1      -8.781  -3.945  -1.312  1.00  0.00     0.001 A 
ATOM     72  C   UNL     1      -6.742  -3.943  -0.054  1.00  0.00     0.001 A 
ATOM     73  C   UNL     1      -7.971  -4.513  -0.334  1.00  0.00     0.000 A 
ENDBRANCH  54  68
BRANCH  55  74
ATOM     74  C   UNL     1      -7.987   2.417   5.490  1.00  0.00    -0.014 A 
ATOM     75  C   UNL     1      -9.188   2.260   6.202  1.00  0.00     0.009 A 
ATOM     76  C   UNL     1      -6.786   2.136   6.165  1.00  0.00     0.009 A 
ATOM     77  C   UNL     1      -9.186   1.804   7.529  1.00  0.00     0.001 A 
ATOM     78  C   UNL     1      -6.784   1.679   7.488  1.00  0.00     0.001 A 
ATOM     79  C   UNL     1      -7.986   1.500   8.166  1.00  0.00     0.000 A 
ENDBRANCH  55  74
BRANCH  67  80
ATOM     80  C   UNL     1     -10.323   3.671  -0.156  1.00  0.00    -0.014 A 
ATOM     81  C   UNL     1      -9.561   4.749   0.326  1.00  0.00     0.009 A 
ATOM     82  C   UNL     1     -11.494   3.949  -0.875  1.00  0.00     0.009 A 
ATOM     83  C   UNL     1      -9.980   6.067   0.114  1.00  0.00     0.001 A 
ATOM     84  C   UNL     1     -11.899   5.263  -1.106  1.00  0.00     0.001 A 
ATOM     85  C   UNL     1     -11.146   6.322  -0.606  1.00  0.00     0.000 A 
ENDBRANCH  67  80
ENDBRANCH  41  42
ENDBRANCH  34  36
ENDBRANCH  33  34
ENDBRANCH  32  33
ENDBRANCH  31  32
ENDBRANCH  30  31
ENDBRANCH  29  30
ENDBRANCH   1  29
TORSDOF 20
