REMARK SMILES CC[NH2+][C@@]1(C(=O)OCCOCCOC(=O)c2ccc(-c3c4nc(c(-c5ccccc5)c5ccc([nH]5)c(-c5ccccc5)c5nc(c(-c6ccccc6)c6ccc3[nH]6)C=C5)C=C4)cc2)CC[C@@H](OCCOC)C1
REMARK SMILES IDX 9 1 8 2 7 3 5 4 6 5 4 6 64 7 72 8 65 9 66 10 3 11 2 14 1 15
REMARK SMILES IDX 67 16 68 17 69 18 70 19 71 20 10 21 11 22 12 23 13 24 14 25
REMARK SMILES IDX 15 26 16 27 17 28 63 29 18 30 62 31 19 32 20 33 21 34 56 35
REMARK SMILES IDX 22 36 61 37 55 38 57 39 23 40 60 41 54 42 53 43 24 45 46 46
REMARK SMILES IDX 31 47 45 48 32 49 35 50 44 51 58 52 33 53 34 54 43 56 59 57
REMARK SMILES IDX 36 58 25 59 26 60 30 61 27 62 29 63 28 64 47 65 48 66 52 67
REMARK SMILES IDX 49 68 51 69 50 70 37 71 38 72 42 73 39 74 41 75 40 76
REMARK H PARENT 3 12 3 13 57 44 35 55
REMARK Flexibility Score: inf
ROOT
ATOM      1  C   UNL     1       4.161   0.703   6.012  1.00  0.00     0.202 C 
ENDROOT
BRANCH   1   2
ATOM      2  C   UNL     1       3.265   1.911   5.733  1.00  0.00     0.261 C 
BRANCH   2   3
ATOM      3  O   UNL     1       2.061   1.530   5.044  1.00  0.00    -0.459 OA
BRANCH   3   4
ATOM      4  C   UNL     1       1.978   1.928   3.746  1.00  0.00     0.368 C 
ATOM      5  O   UNL     1       2.812   2.635   3.185  1.00  0.00    -0.245 OA
BRANCH   4   6
ATOM      6  C   UNL     1       0.721   1.361   3.005  1.00  0.00     0.196 C 
ATOM      7  C   UNL     1      -0.387   2.415   3.108  1.00  0.00     0.084 C 
ATOM      8  C   UNL     1       0.066   0.138   3.678  1.00  0.00     0.113 C 
ATOM      9  C   UNL     1      -0.990   2.204   4.496  1.00  0.00     0.039 C 
ATOM     10  C   UNL     1      -0.815   0.708   4.799  1.00  0.00     0.125 C 
BRANCH   6  11
ATOM     11  N   UNL     1       1.106   1.228   1.577  1.00  0.00    -0.332 N 
ATOM     12  H   UNL     1       0.645   1.983   1.070  1.00  0.00     0.347 HD
ATOM     13  H   UNL     1       2.126   1.253   1.590  1.00  0.00     0.347 HD
BRANCH  11  14
ATOM     14  C   UNL     1       0.789  -0.008   0.888  1.00  0.00     0.257 C 
ATOM     15  C   UNL     1       1.355   0.040  -0.525  1.00  0.00     0.071 C 
ENDBRANCH  11  14
ENDBRANCH   6  11
BRANCH  10  16
ATOM     16  O   UNL     1      -2.009  -0.059   4.969  1.00  0.00    -0.376 OA
BRANCH  16  17
ATOM     17  C   UNL     1      -3.042   0.151   4.010  1.00  0.00     0.189 C 
BRANCH  17  18
ATOM     18  C   UNL     1      -4.300   0.796   4.616  1.00  0.00     0.188 C 
BRANCH  18  19
ATOM     19  O   UNL     1      -4.064   1.790   5.615  1.00  0.00    -0.382 OA
ATOM     20  C   UNL     1      -3.685   1.242   6.875  1.00  0.00     0.195 C 
ENDBRANCH  18  19
ENDBRANCH  17  18
ENDBRANCH  16  17
ENDBRANCH  10  16
ENDBRANCH   4   6
ENDBRANCH   3   4
ENDBRANCH   2   3
ENDBRANCH   1   2
BRANCH   1  21
ATOM     21  O   UNL     1       4.710   0.040   4.874  1.00  0.00    -0.374 OA
BRANCH  21  22
ATOM     22  C   UNL     1       3.857  -0.848   4.152  1.00  0.00     0.202 C 
BRANCH  22  23
ATOM     23  C   UNL     1       3.608  -2.225   4.778  1.00  0.00     0.261 C 
BRANCH  23  24
ATOM     24  O   UNL     1       2.928  -2.141   6.044  1.00  0.00    -0.460 OA
BRANCH  24  25
ATOM     25  C   UNL     1       3.681  -2.514   7.107  1.00  0.00     0.338 C 
ATOM     26  O   UNL     1       4.809  -2.977   7.088  1.00  0.00    -0.246 OA
BRANCH  25  27
ATOM     27  C   UNL     1       3.020  -2.139   8.372  1.00  0.00     0.060 A 
ATOM     28  C   UNL     1       3.768  -1.383   9.282  1.00  0.00     0.016 A 
ATOM     29  C   UNL     1       1.752  -2.614   8.716  1.00  0.00     0.016 A 
ATOM     30  C   UNL     1       3.282  -1.156  10.567  1.00  0.00     0.010 A 
ATOM     31  C   UNL     1       1.268  -2.391  10.011  1.00  0.00     0.010 A 
ATOM     32  C   UNL     1       2.051  -1.701  10.955  1.00  0.00    -0.014 A 
BRANCH  32  33
ATOM     33  C   UNL     1       1.675  -1.683  12.389  1.00  0.00     0.031 A 
ATOM     34  C   UNL     1       1.937  -2.904  13.230  1.00  0.00     0.074 A 
ATOM     35  C   UNL     1       1.163  -0.576  12.955  1.00  0.00     0.049 A 
ATOM     36  N   UNL     1       1.706  -3.099  14.504  1.00  0.00    -0.248 NA
ATOM     37  C   UNL     1       2.543  -4.057  12.544  1.00  0.00     0.031 C 
ATOM     38  C   UNL     1       0.907   0.687  12.265  1.00  0.00     0.029 A 
ATOM     39  N   UNL     1       0.770  -0.341  14.249  1.00  0.00    -0.354 N 
ATOM     40  C   UNL     1       2.134  -4.394  14.770  1.00  0.00     0.074 A 
ATOM     41  C   UNL     1       2.612  -4.948  13.522  1.00  0.00     0.031 C 
ATOM     42  C   UNL     1       0.396   1.567  13.144  1.00  0.00     0.029 A 
ATOM     43  C   UNL     1       0.265   0.920  14.448  1.00  0.00     0.049 A 
ATOM     44  H   UNL     1       0.843  -1.012  14.965  1.00  0.00     0.167 HD
ATOM     45  C   UNL     1       2.135  -5.062  15.948  1.00  0.00     0.031 A 
ATOM     46  C   UNL     1      -0.258   1.484  15.554  1.00  0.00     0.031 A 
ATOM     47  C   UNL     1       1.652  -4.521  17.190  1.00  0.00     0.049 A 
ATOM     48  C   UNL     1      -0.315   0.695  16.834  1.00  0.00     0.074 A 
ATOM     49  C   UNL     1       1.627  -5.117  18.439  1.00  0.00     0.029 A 
ATOM     50  N   UNL     1       1.104  -3.257  17.338  1.00  0.00    -0.354 N 
ATOM     51  N   UNL     1       0.114  -0.520  17.077  1.00  0.00    -0.248 NA
ATOM     52  C   UNL     1      -0.924   1.361  17.996  1.00  0.00     0.031 C 
ATOM     53  C   UNL     1       1.015  -4.232  19.333  1.00  0.00     0.029 A 
ATOM     54  C   UNL     1       0.709  -3.066  18.651  1.00  0.00     0.049 A 
ATOM     55  H   UNL     1       1.008  -2.594  16.617  1.00  0.00     0.167 HD
ATOM     56  C   UNL     1      -0.150  -0.754  18.421  1.00  0.00     0.074 A 
ATOM     57  C   UNL     1      -0.764   0.449  18.945  1.00  0.00     0.031 C 
ATOM     58  C   UNL     1       0.097  -1.865  19.157  1.00  0.00     0.031 A 
BRANCH  45  59
ATOM     59  C   UNL     1       2.648  -6.474  15.940  1.00  0.00    -0.014 A 
ATOM     60  C   UNL     1       4.019  -6.751  15.820  1.00  0.00     0.009 A 
ATOM     61  C   UNL     1       1.748  -7.541  16.087  1.00  0.00     0.009 A 
ATOM     62  C   UNL     1       4.474  -8.071  15.818  1.00  0.00     0.001 A 
ATOM     63  C   UNL     1       2.208  -8.858  16.108  1.00  0.00     0.001 A 
ATOM     64  C   UNL     1       3.570  -9.123  15.966  1.00  0.00     0.000 A 
ENDBRANCH  45  59
BRANCH  46  65
ATOM     65  C   UNL     1      -0.792   2.869  15.498  1.00  0.00    -0.014 A 
ATOM     66  C   UNL     1      -0.132   3.921  16.150  1.00  0.00     0.009 A 
ATOM     67  C   UNL     1      -1.981   3.140  14.803  1.00  0.00     0.009 A 
ATOM     68  C   UNL     1      -0.663   5.212  16.124  1.00  0.00     0.001 A 
ATOM     69  C   UNL     1      -2.496   4.437  14.757  1.00  0.00     0.001 A 
ATOM     70  C   UNL     1      -1.841   5.470  15.424  1.00  0.00     0.000 A 
ENDBRANCH  46  65
BRANCH  58  71
ATOM     71  C   UNL     1      -0.270  -1.823  20.613  1.00  0.00    -0.014 A 
ATOM     72  C   UNL     1      -1.608  -1.892  21.029  1.00  0.00     0.009 A 
ATOM     73  C   UNL     1       0.743  -1.756  21.583  1.00  0.00     0.009 A 
ATOM     74  C   UNL     1      -1.926  -1.864  22.389  1.00  0.00     0.001 A 
ATOM     75  C   UNL     1       0.423  -1.754  22.942  1.00  0.00     0.001 A 
ATOM     76  C   UNL     1      -0.911  -1.799  23.343  1.00  0.00     0.000 A 
ENDBRANCH  58  71
ENDBRANCH  32  33
ENDBRANCH  25  27
ENDBRANCH  24  25
ENDBRANCH  23  24
ENDBRANCH  22  23
ENDBRANCH  21  22
ENDBRANCH   1  21
TORSDOF 20
