REMARK SMILES CC1(C)[C@@H](C(=O)OCCOCCOC(=O)c2ccc(-c3c4nc(c(-c5ccccc5)c5ccc([nH]5)c(-c5ccccc5)c5nc(c(-c6ccccc6)c6ccc3[nH]6)C=C5)C=C4)cc2)[C@@H]1C(=O)N1CC[NH+](CCO)CC1
REMARK SMILES IDX 9 1 8 2 7 3 5 4 6 5 4 6 1 7 2 8 3 9 64 10 65 11 66 12 67 13
REMARK SMILES IDX 68 14 75 15 69 16 74 17 70 18 71 20 72 21 73 22 10 24 11 25
REMARK SMILES IDX 12 26 13 27 14 28 15 29 16 30 17 31 63 32 18 33 62 34 19 35
REMARK SMILES IDX 20 36 21 37 56 38 22 39 61 40 55 41 57 42 23 43 60 44 54 45
REMARK SMILES IDX 53 46 24 48 46 49 31 50 45 51 32 52 35 53 44 54 58 55 33 56
REMARK SMILES IDX 34 57 43 59 59 60 36 61 25 62 26 63 30 64 27 65 29 66 28 67
REMARK SMILES IDX 47 68 48 69 52 70 49 71 51 72 50 73 37 74 38 75 42 76 39 77
REMARK SMILES IDX 41 78 40 79
REMARK H PARENT 70 19 73 23 57 47 35 58
REMARK Flexibility Score: inf
ROOT
ATOM      1  C   UNL     1      -2.913  -2.954  -3.391  1.00  0.00     0.202 C 
ENDROOT
BRANCH   1   2
ATOM      2  C   UNL     1      -2.378  -3.318  -2.001  1.00  0.00     0.261 C 
BRANCH   2   3
ATOM      3  O   UNL     1      -2.183  -2.177  -1.154  1.00  0.00    -0.463 OA
BRANCH   3   4
ATOM      4  C   UNL     1      -0.887  -1.786  -1.061  1.00  0.00     0.310 C 
ATOM      5  O   UNL     1       0.072  -2.354  -1.580  1.00  0.00    -0.252 OA
BRANCH   4   6
ATOM      6  C   UNL     1      -0.741  -0.475  -0.393  1.00  0.00     0.118 C 
ATOM      7  C   UNL     1       1.554  -1.253   0.625  1.00  0.00     0.013 C 
ATOM      8  C   UNL     1       0.535  -0.170   0.373  1.00  0.00    -0.009 C 
ATOM      9  C   UNL     1       1.162   1.168   0.051  1.00  0.00     0.013 C 
ATOM     10  C   UNL     1      -0.818  -0.283   1.101  1.00  0.00     0.100 C 
BRANCH  10  11
ATOM     11  C   UNL     1      -1.310   0.965   1.746  1.00  0.00     0.227 C 
ATOM     12  O   UNL     1      -0.731   1.381   2.742  1.00  0.00    -0.275 OA
ATOM     13  N   UNL     1      -2.279   1.679   1.064  1.00  0.00    -0.331 N 
ATOM     14  C   UNL     1      -2.223   3.129   1.161  1.00  0.00     0.181 C 
ATOM     15  C   UNL     1      -3.606   1.125   0.825  1.00  0.00     0.181 C 
ATOM     16  C   UNL     1      -2.912   3.798  -0.039  1.00  0.00     0.284 C 
ATOM     17  C   UNL     1      -4.377   1.860  -0.293  1.00  0.00     0.284 C 
ATOM     18  N   UNL     1      -4.272   3.328  -0.338  1.00  0.00    -0.330 N 
ATOM     19  H   UNL     1      -4.441   3.570  -1.315  1.00  0.00     0.348 HD
BRANCH  18  20
ATOM     20  C   UNL     1      -5.353   4.074   0.316  1.00  0.00     0.290 C 
BRANCH  20  21
ATOM     21  C   UNL     1      -5.422   4.123   1.850  1.00  0.00     0.217 C 
BRANCH  21  22
ATOM     22  O   UNL     1      -4.404   4.941   2.415  1.00  0.00    -0.391 OA
ATOM     23  H   UNL     1      -3.534   4.579   2.186  1.00  0.00     0.210 HD
ENDBRANCH  21  22
ENDBRANCH  20  21
ENDBRANCH  18  20
ENDBRANCH  10  11
ENDBRANCH   4   6
ENDBRANCH   3   4
ENDBRANCH   2   3
ENDBRANCH   1   2
BRANCH   1  24
ATOM     24  O   UNL     1      -2.181  -2.018  -4.175  1.00  0.00    -0.374 OA
BRANCH  24  25
ATOM     25  C   UNL     1      -2.264  -0.634  -3.841  1.00  0.00     0.202 C 
BRANCH  25  26
ATOM     26  C   UNL     1      -3.595   0.089  -4.075  1.00  0.00     0.261 C 
BRANCH  26  27
ATOM     27  O   UNL     1      -4.648  -0.417  -3.232  1.00  0.00    -0.460 OA
BRANCH  27  28
ATOM     28  C   UNL     1      -5.678  -0.982  -3.907  1.00  0.00     0.338 C 
ATOM     29  O   UNL     1      -5.840  -1.027  -5.115  1.00  0.00    -0.246 OA
BRANCH  28  30
ATOM     30  C   UNL     1      -6.536  -1.740  -2.980  1.00  0.00     0.060 A 
ATOM     31  C   UNL     1      -6.687  -3.111  -3.223  1.00  0.00     0.016 A 
ATOM     32  C   UNL     1      -7.270  -1.107  -1.977  1.00  0.00     0.016 A 
ATOM     33  C   UNL     1      -7.623  -3.846  -2.503  1.00  0.00     0.010 A 
ATOM     34  C   UNL     1      -8.218  -1.847  -1.259  1.00  0.00     0.010 A 
ATOM     35  C   UNL     1      -8.429  -3.207  -1.553  1.00  0.00    -0.014 A 
BRANCH  35  36
ATOM     36  C   UNL     1      -9.603  -3.933  -1.010  1.00  0.00     0.031 A 
ATOM     37  C   UNL     1     -10.963  -3.662  -1.596  1.00  0.00     0.074 A 
ATOM     38  C   UNL     1      -9.453  -4.873  -0.060  1.00  0.00     0.049 A 
ATOM     39  N   UNL     1     -12.117  -4.203  -1.299  1.00  0.00    -0.248 NA
ATOM     40  C   UNL     1     -11.030  -2.648  -2.661  1.00  0.00     0.031 C 
ATOM     41  C   UNL     1      -8.184  -5.265   0.550  1.00  0.00     0.029 A 
ATOM     42  N   UNL     1     -10.384  -5.676   0.548  1.00  0.00    -0.354 N 
ATOM     43  C   UNL     1     -13.045  -3.593  -2.134  1.00  0.00     0.074 A 
ATOM     44  C   UNL     1     -12.328  -2.617  -2.924  1.00  0.00     0.031 C 
ATOM     45  C   UNL     1      -8.416  -6.239   1.446  1.00  0.00     0.029 A 
ATOM     46  C   UNL     1      -9.850  -6.517   1.493  1.00  0.00     0.049 A 
ATOM     47  H   UNL     1     -11.344  -5.651   0.329  1.00  0.00     0.167 HD
ATOM     48  C   UNL     1     -14.374  -3.829  -2.241  1.00  0.00     0.031 A 
ATOM     49  C   UNL     1     -10.453  -7.402   2.310  1.00  0.00     0.031 A 
ATOM     50  C   UNL     1     -15.092  -4.794  -1.452  1.00  0.00     0.049 A 
ATOM     51  C   UNL     1     -11.944  -7.590   2.226  1.00  0.00     0.074 A 
ATOM     52  C   UNL     1     -16.437  -5.116  -1.497  1.00  0.00     0.029 A 
ATOM     53  N   UNL     1     -14.523  -5.587  -0.467  1.00  0.00    -0.354 N 
ATOM     54  N   UNL     1     -12.806  -7.025   1.414  1.00  0.00    -0.248 NA
ATOM     55  C   UNL     1     -12.543  -8.548   3.166  1.00  0.00     0.031 C 
ATOM     56  C   UNL     1     -16.694  -6.062  -0.499  1.00  0.00     0.029 A 
ATOM     57  C   UNL     1     -15.496  -6.375   0.123  1.00  0.00     0.049 A 
ATOM     58  H   UNL     1     -13.569  -5.589  -0.225  1.00  0.00     0.167 HD
ATOM     59  C   UNL     1     -14.041  -7.580   1.727  1.00  0.00     0.074 A 
ATOM     60  C   UNL     1     -13.814  -8.537   2.790  1.00  0.00     0.031 C 
ATOM     61  C   UNL     1     -15.256  -7.321   1.183  1.00  0.00     0.031 A 
BRANCH  48  62
ATOM     62  C   UNL     1     -15.146  -3.000  -3.230  1.00  0.00    -0.014 A 
ATOM     63  C   UNL     1     -15.000  -3.185  -4.614  1.00  0.00     0.009 A 
ATOM     64  C   UNL     1     -16.057  -2.037  -2.767  1.00  0.00     0.009 A 
ATOM     65  C   UNL     1     -15.724  -2.399  -5.513  1.00  0.00     0.001 A 
ATOM     66  C   UNL     1     -16.801  -1.273  -3.668  1.00  0.00     0.001 A 
ATOM     67  C   UNL     1     -16.627  -1.448  -5.039  1.00  0.00     0.000 A 
ENDBRANCH  48  62
BRANCH  49  68
ATOM     68  C   UNL     1      -9.650  -8.171   3.297  1.00  0.00    -0.014 A 
ATOM     69  C   UNL     1      -9.482  -9.557   3.163  1.00  0.00     0.009 A 
ATOM     70  C   UNL     1      -9.068  -7.520   4.397  1.00  0.00     0.009 A 
ATOM     71  C   UNL     1      -8.770 -10.279   4.125  1.00  0.00     0.001 A 
ATOM     72  C   UNL     1      -8.332  -8.240   5.340  1.00  0.00     0.001 A 
ATOM     73  C   UNL     1      -8.192  -9.620   5.209  1.00  0.00     0.000 A 
ENDBRANCH  49  68
BRANCH  61  74
ATOM     74  C   UNL     1     -16.427  -8.107   1.705  1.00  0.00    -0.014 A 
ATOM     75  C   UNL     1     -16.950  -7.877   2.987  1.00  0.00     0.009 A 
ATOM     76  C   UNL     1     -17.037  -9.070   0.885  1.00  0.00     0.009 A 
ATOM     77  C   UNL     1     -18.036  -8.623   3.450  1.00  0.00     0.001 A 
ATOM     78  C   UNL     1     -18.142  -9.792   1.339  1.00  0.00     0.001 A 
ATOM     79  C   UNL     1     -18.633  -9.575   2.625  1.00  0.00     0.000 A 
ENDBRANCH  61  74
ENDBRANCH  35  36
ENDBRANCH  28  30
ENDBRANCH  27  28
ENDBRANCH  26  27
ENDBRANCH  25  26
ENDBRANCH  24  25
ENDBRANCH   1  24
TORSDOF 18
