REMARK SMILES CSCC[C@H](NC(=O)N[C@@H]1CCCCC1(C)C)C(=O)OCCOCCOC(=O)c1ccc(-c2c3nc(c(-c4ccccc4)c4ccc([nH]4)c(-c4ccccc4)c4nc(c(-c5ccccc5)c5ccc2[nH]5)C=C4)C=C3)cc1
REMARK SMILES IDX 22 1 21 2 20 3 18 4 19 5 5 6 4 7 3 8 2 9 1 10 6 11 7 12 8 14
REMARK SMILES IDX 9 15 10 17 11 18 15 19 12 20 14 21 16 22 17 23 13 24 23 25
REMARK SMILES IDX 24 26 25 27 26 28 27 29 28 30 29 31 30 32 76 33 31 34 75 35
REMARK SMILES IDX 32 36 33 37 34 38 69 39 35 40 74 41 68 42 70 43 36 44 73 45
REMARK SMILES IDX 67 46 66 47 37 49 59 50 44 51 58 52 45 53 48 54 57 55 71 56
REMARK SMILES IDX 46 57 47 58 56 60 72 61 49 62 38 63 39 64 43 65 40 66 42 67
REMARK SMILES IDX 41 68 60 69 61 70 65 71 62 72 64 73 63 74 50 75 51 76 55 77
REMARK SMILES IDX 52 78 54 79 53 80
REMARK H PARENT 6 13 9 16 70 48 48 59
REMARK Flexibility Score: inf
ROOT
ATOM      1  C   UNL     1      -1.334  -1.724   5.944  1.00  0.00     0.202 C 
ENDROOT
BRANCH   1   2
ATOM      2  C   UNL     1      -0.323  -2.488   5.054  1.00  0.00     0.261 C 
BRANCH   2   3
ATOM      3  O   UNL     1       0.450  -1.605   4.194  1.00  0.00    -0.462 OA
BRANCH   3   4
ATOM      4  C   UNL     1       0.092  -1.405   2.910  1.00  0.00     0.328 C 
ATOM      5  O   UNL     1      -0.674  -2.166   2.321  1.00  0.00    -0.250 OA
BRANCH   4   6
ATOM      6  C   UNL     1       0.834  -0.209   2.145  1.00  0.00     0.194 C 
BRANCH   6   7
ATOM      7  C   UNL     1       1.962  -0.955   1.377  1.00  0.00     0.048 C 
BRANCH   7   8
ATOM      8  C   UNL     1       2.621  -0.446   0.100  1.00  0.00     0.072 C 
BRANCH   8   9
ATOM      9  S   UNL     1       2.052   1.103  -0.639  1.00  0.00    -0.165 SA
ATOM     10  C   UNL     1       0.417   0.597  -1.224  1.00  0.00     0.085 C 
ENDBRANCH   8   9
ENDBRANCH   7   8
ENDBRANCH   6   7
BRANCH   6  11
ATOM     11  N   UNL     1       0.911   1.374   2.433  1.00  0.00    -0.325 N 
ATOM     12  C   UNL     1       1.285   2.537   3.005  1.00  0.00     0.315 C 
ATOM     13  H   UNL     1       0.279   1.706   1.755  1.00  0.00     0.166 HD
ATOM     14  O   UNL     1       0.774   3.529   2.452  1.00  0.00    -0.249 OA
ATOM     15  N   UNL     1       2.093   2.862   4.044  1.00  0.00    -0.335 N 
ATOM     16  H   UNL     1       2.285   3.828   4.035  1.00  0.00     0.165 HD
BRANCH  15  17
ATOM     17  C   UNL     1       2.793   2.201   5.215  1.00  0.00     0.089 C 
ATOM     18  C   UNL     1       4.190   2.680   5.593  1.00  0.00     0.025 C 
ATOM     19  C   UNL     1       2.751   0.723   4.948  1.00  0.00    -0.015 C 
ATOM     20  C   UNL     1       5.226   2.479   4.514  1.00  0.00     0.002 C 
ATOM     21  C   UNL     1       3.611   0.644   3.613  1.00  0.00     0.008 C 
ATOM     22  C   UNL     1       3.401  -0.373   5.806  1.00  0.00     0.013 C 
ATOM     23  C   UNL     1       1.222   0.543   5.253  1.00  0.00     0.013 C 
ATOM     24  C   UNL     1       5.068   1.165   3.757  1.00  0.00     0.001 C 
ENDBRANCH  15  17
ENDBRANCH   6  11
ENDBRANCH   4   6
ENDBRANCH   3   4
ENDBRANCH   2   3
ENDBRANCH   1   2
BRANCH   1  25
ATOM     25  O   UNL     1      -2.643  -1.581   5.386  1.00  0.00    -0.374 OA
BRANCH  25  26
ATOM     26  C   UNL     1      -2.767  -0.632   4.333  1.00  0.00     0.202 C 
BRANCH  26  27
ATOM     27  C   UNL     1      -3.187   0.780   4.743  1.00  0.00     0.261 C 
BRANCH  27  28
ATOM     28  O   UNL     1      -2.299   1.371   5.705  1.00  0.00    -0.460 OA
BRANCH  28  29
ATOM     29  C   UNL     1      -2.797   1.366   6.965  1.00  0.00     0.338 C 
ATOM     30  O   UNL     1      -3.859   0.899   7.333  1.00  0.00    -0.246 OA
BRANCH  29  31
ATOM     31  C   UNL     1      -1.862   1.978   7.927  1.00  0.00     0.060 A 
ATOM     32  C   UNL     1      -1.639   1.272   9.111  1.00  0.00     0.016 A 
ATOM     33  C   UNL     1      -1.404   3.291   7.787  1.00  0.00     0.016 A 
ATOM     34  C   UNL     1      -1.050   1.909  10.199  1.00  0.00     0.010 A 
ATOM     35  C   UNL     1      -0.797   3.927   8.881  1.00  0.00     0.010 A 
ATOM     36  C   UNL     1      -0.677   3.259  10.113  1.00  0.00    -0.014 A 
BRANCH  36  37
ATOM     37  C   UNL     1      -0.324   3.973  11.370  1.00  0.00     0.031 A 
ATOM     38  C   UNL     1      -1.333   4.889  12.018  1.00  0.00     0.074 A 
ATOM     39  C   UNL     1       0.838   3.719  11.998  1.00  0.00     0.049 A 
ATOM     40  N   UNL     1      -1.275   5.498  13.177  1.00  0.00    -0.248 NA
ATOM     41  C   UNL     1      -2.571   5.148  11.267  1.00  0.00     0.031 C 
ATOM     42  C   UNL     1       1.888   2.828  11.505  1.00  0.00     0.029 A 
ATOM     43  N   UNL     1       1.317   4.169  13.204  1.00  0.00    -0.354 N 
ATOM     44  C   UNL     1      -2.465   6.209  13.293  1.00  0.00     0.074 A 
ATOM     45  C   UNL     1      -3.206   5.990  12.070  1.00  0.00     0.031 C 
ATOM     46  C   UNL     1       2.878   2.778  12.412  1.00  0.00     0.029 A 
ATOM     47  C   UNL     1       2.544   3.650  13.536  1.00  0.00     0.049 A 
ATOM     48  H   UNL     1       0.827   4.804  13.775  1.00  0.00     0.167 HD
ATOM     49  C   UNL     1      -2.912   6.965  14.326  1.00  0.00     0.031 A 
ATOM     50  C   UNL     1       3.312   3.849  14.624  1.00  0.00     0.031 A 
ATOM     51  C   UNL     1      -2.182   7.195  15.545  1.00  0.00     0.049 A 
ATOM     52  C   UNL     1       2.818   4.739  15.733  1.00  0.00     0.074 A 
ATOM     53  C   UNL     1      -2.564   7.932  16.654  1.00  0.00     0.029 A 
ATOM     54  N   UNL     1      -0.916   6.699  15.814  1.00  0.00    -0.354 N 
ATOM     55  N   UNL     1       1.675   5.371  15.843  1.00  0.00    -0.248 NA
ATOM     56  C   UNL     1       3.721   4.926  16.879  1.00  0.00     0.031 C 
ATOM     57  C   UNL     1      -1.507   7.928  17.570  1.00  0.00     0.029 A 
ATOM     58  C   UNL     1      -0.492   7.136  17.058  1.00  0.00     0.049 A 
ATOM     59  H   UNL     1      -0.396   6.121  15.210  1.00  0.00     0.167 HD
ATOM     60  C   UNL     1       1.710   6.007  17.078  1.00  0.00     0.074 A 
ATOM     61  C   UNL     1       2.978   5.666  17.690  1.00  0.00     0.031 C 
ATOM     62  C   UNL     1       0.775   6.801  17.656  1.00  0.00     0.031 A 
BRANCH  49  63
ATOM     63  C   UNL     1      -4.254   7.627  14.169  1.00  0.00    -0.014 A 
ATOM     64  C   UNL     1      -5.445   6.882  14.197  1.00  0.00     0.009 A 
ATOM     65  C   UNL     1      -4.330   9.021  14.028  1.00  0.00     0.009 A 
ATOM     66  C   UNL     1      -6.680   7.518  14.051  1.00  0.00     0.001 A 
ATOM     67  C   UNL     1      -5.568   9.657  13.911  1.00  0.00     0.001 A 
ATOM     68  C   UNL     1      -6.741   8.904  13.913  1.00  0.00     0.000 A 
ENDBRANCH  49  63
BRANCH  50  69
ATOM     69  C   UNL     1       4.643   3.193  14.724  1.00  0.00    -0.014 A 
ATOM     70  C   UNL     1       4.879   2.183  15.668  1.00  0.00     0.009 A 
ATOM     71  C   UNL     1       5.694   3.599  13.887  1.00  0.00     0.009 A 
ATOM     72  C   UNL     1       6.148   1.613  15.791  1.00  0.00     0.001 A 
ATOM     73  C   UNL     1       6.953   3.006  13.992  1.00  0.00     0.001 A 
ATOM     74  C   UNL     1       7.182   2.021  14.950  1.00  0.00     0.000 A 
ENDBRANCH  50  69
BRANCH  62  75
ATOM     75  C   UNL     1       1.076   7.329  19.032  1.00  0.00    -0.014 A 
ATOM     76  C   UNL     1       2.064   8.303  19.244  1.00  0.00     0.009 A 
ATOM     77  C   UNL     1       0.346   6.854  20.134  1.00  0.00     0.009 A 
ATOM     78  C   UNL     1       2.348   8.756  20.535  1.00  0.00     0.001 A 
ATOM     79  C   UNL     1       0.609   7.332  21.419  1.00  0.00     0.001 A 
ATOM     80  C   UNL     1       1.618   8.273  21.620  1.00  0.00     0.000 A 
ENDBRANCH  62  75
ENDBRANCH  36  37
ENDBRANCH  29  31
ENDBRANCH  28  29
ENDBRANCH  27  28
ENDBRANCH  26  27
ENDBRANCH  25  26
ENDBRANCH   1  25
TORSDOF 19
