REMARK SMILES O=C(OCCOCCOC(=O)c1ccc(-c2c3nc(c(-c4ccccc4)c4ccc([nH]4)c(-c4ccccc4)c4nc(c(-c5ccccc5)c5ccc2[nH]5)C=C4)C=C3)cc1)C1=Cc2cc(Cl)cc(-c3ccc(O)cc3)c2O[C@@H]1C(F)(F)F
REMARK SMILES IDX 6 1 5 2 4 3 3 4 2 5 1 6 60 7 61 8 77 9 62 10 76 11 63 12
REMARK SMILES IDX 75 13 64 14 67 15 65 16 66 17 78 18 79 19 80 20 81 21 68 22
REMARK SMILES IDX 69 23 74 24 70 25 73 26 71 27 72 28 7 30 8 31 9 32 10 33
REMARK SMILES IDX 11 34 12 35 13 36 59 37 14 38 58 39 15 40 16 41 17 42 52 43
REMARK SMILES IDX 18 44 57 45 51 46 53 47 19 48 56 49 50 50 49 51 20 53 42 54
REMARK SMILES IDX 27 55 41 56 28 57 31 58 40 59 54 60 29 61 30 62 39 64 55 65
REMARK SMILES IDX 32 66 21 67 22 68 26 69 23 70 25 71 24 72 43 73 44 74 48 75
REMARK SMILES IDX 45 76 47 77 46 78 33 79 34 80 38 81 35 82 37 83 36 84
REMARK H PARENT 72 29 53 52 31 63
REMARK Flexibility Score: inf
ROOT
ATOM      1  O   UNL     1       3.898  -1.196  -2.222  1.00  0.00    -0.374 OA
ENDROOT
BRANCH   1   2
ATOM      2  C   UNL     1       4.349  -0.011  -1.152  1.00  0.00     0.202 C 
BRANCH   2   3
ATOM      3  C   UNL     1       3.537   0.402   0.825  1.00  0.00     0.261 C 
BRANCH   3   4
ATOM      4  O   UNL     1       2.563   1.585   1.175  1.00  0.00    -0.460 OA
BRANCH   4   5
ATOM      5  C   UNL     1       2.667   2.631   0.346  1.00  0.00     0.338 C 
ATOM      6  O   UNL     1       2.022   3.644   0.269  1.00  0.00    -0.246 OA
BRANCH   5   7
ATOM      7  C   UNL     1       3.537   1.958  -0.581  1.00  0.00     0.087 C 
ATOM      8  C   UNL     1       4.918   1.938  -0.098  1.00  0.00     0.027 C 
ATOM      9  C   UNL     1       2.435   0.393  -0.857  1.00  0.00     0.316 C 
ATOM     10  C   UNL     1       5.732   0.455   0.522  1.00  0.00     0.019 A 
ATOM     11  O   UNL     1       3.295  -1.221  -0.167  1.00  0.00    -0.475 OA
ATOM     12  C   UNL     1       6.940   0.670   1.131  1.00  0.00     0.032 A 
ATOM     13  C   UNL     1       4.972  -1.122   0.579  1.00  0.00     0.135 A 
ATOM     14  C   UNL     1       7.451  -0.424   1.822  1.00  0.00     0.042 A 
ATOM     15  C   UNL     1       5.639  -2.201   1.242  1.00  0.00     0.026 A 
ATOM     16  Cl  UNL     1       8.964  -0.203   2.640  1.00  0.00    -0.084 Cl
ATOM     17  C   UNL     1       6.829  -1.729   1.903  1.00  0.00     0.033 A 
BRANCH   9  18
ATOM     18  C   UNL     1       1.929   0.866  -2.325  1.00  0.00     0.430 C 
ATOM     19  F   UNL     1       0.896   0.158  -2.826  1.00  0.00    -0.167 F 
ATOM     20  F   UNL     1       1.440   2.138  -2.220  1.00  0.00    -0.167 F 
ATOM     21  F   UNL     1       2.894   0.957  -3.269  1.00  0.00    -0.167 F 
ENDBRANCH   9  18
BRANCH  15  22
ATOM     22  C   UNL     1       5.313  -3.780   1.382  1.00  0.00    -0.014 A 
ATOM     23  C   UNL     1       3.828  -3.833   2.423  1.00  0.00     0.012 A 
ATOM     24  C   UNL     1       5.755  -5.494   0.380  1.00  0.00     0.012 A 
ATOM     25  C   UNL     1       2.858  -5.305   2.467  1.00  0.00     0.047 A 
ATOM     26  C   UNL     1       4.653  -6.910   0.513  1.00  0.00     0.047 A 
ATOM     27  C   UNL     1       3.265  -6.757   1.547  1.00  0.00     0.115 A 
BRANCH  27  28
ATOM     28  O   UNL     1       2.470  -7.856   1.728  1.00  0.00    -0.508 OA
ATOM     29  H   UNL     1       1.715  -7.803   2.280  1.00  0.00     0.293 HD
ENDBRANCH  27  28
ENDBRANCH  15  22
ENDBRANCH   5   7
ENDBRANCH   4   5
ENDBRANCH   3   4
ENDBRANCH   2   3
ENDBRANCH   1   2
BRANCH   1  30
ATOM     30  C   UNL     1       2.590  -1.695  -2.628  1.00  0.00     0.202 C 
BRANCH  30  31
ATOM     31  C   UNL     1       2.450  -3.191  -2.934  1.00  0.00     0.261 C 
BRANCH  31  32
ATOM     32  O   UNL     1       3.093  -3.919  -1.923  1.00  0.00    -0.460 OA
BRANCH  32  33
ATOM     33  C   UNL     1       4.424  -3.812  -2.063  1.00  0.00     0.338 C 
ATOM     34  O   UNL     1       5.090  -3.568  -3.051  1.00  0.00    -0.246 OA
BRANCH  33  35
ATOM     35  C   UNL     1       4.950  -3.979  -0.740  1.00  0.00     0.060 A 
ATOM     36  C   UNL     1       6.695  -3.729  -0.501  1.00  0.00     0.016 A 
ATOM     37  C   UNL     1       4.006  -4.857   0.538  1.00  0.00     0.016 A 
ATOM     38  C   UNL     1       7.571  -4.361   0.914  1.00  0.00     0.010 A 
ATOM     39  C   UNL     1       5.062  -5.537   2.122  1.00  0.00     0.010 A 
ATOM     40  C   UNL     1       6.818  -5.271   2.203  1.00  0.00    -0.014 A 
BRANCH  40  41
ATOM     41  C   UNL     1       7.532  -6.121   3.199  1.00  0.00     0.031 A 
ATOM     42  C   UNL     1       7.839  -7.588   2.939  1.00  0.00     0.074 A 
ATOM     43  C   UNL     1       7.598  -5.672   4.462  1.00  0.00     0.049 A 
ATOM     44  N   UNL     1       8.316  -8.508   3.750  1.00  0.00    -0.248 NA
ATOM     45  C   UNL     1       7.501  -8.118   1.613  1.00  0.00     0.031 C 
ATOM     46  C   UNL     1       7.127  -4.366   4.911  1.00  0.00     0.029 A 
ATOM     47  N   UNL     1       8.034  -6.287   5.606  1.00  0.00    -0.354 N 
ATOM     48  C   UNL     1       8.316  -9.704   3.029  1.00  0.00     0.074 A 
ATOM     49  C   UNL     1       7.690  -9.421   1.761  1.00  0.00     0.031 C 
ATOM     50  C   UNL     1       7.300  -4.271   6.238  1.00  0.00     0.029 A 
ATOM     51  C   UNL     1       7.896  -5.509   6.727  1.00  0.00     0.049 A 
ATOM     52  H   UNL     1       8.410  -7.197   5.622  1.00  0.00     0.167 HD
ATOM     53  C   UNL     1       8.840 -10.914   3.358  1.00  0.00     0.031 A 
ATOM     54  C   UNL     1       8.234  -5.758   8.004  1.00  0.00     0.031 A 
ATOM     55  C   UNL     1       9.464 -11.189   4.626  1.00  0.00     0.049 A 
ATOM     56  C   UNL     1       8.918  -7.053   8.339  1.00  0.00     0.074 A 
ATOM     57  C   UNL     1      10.163 -12.314   5.032  1.00  0.00     0.029 A 
ATOM     58  N   UNL     1       9.452 -10.318   5.702  1.00  0.00    -0.354 N 
ATOM     59  N   UNL     1       9.126  -8.103   7.580  1.00  0.00    -0.248 NA
ATOM     60  C   UNL     1       9.468  -7.170   9.695  1.00  0.00     0.031 C 
ATOM     61  C   UNL     1      10.531 -12.140   6.371  1.00  0.00     0.029 A 
ATOM     62  C   UNL     1      10.118 -10.881   6.776  1.00  0.00     0.049 A 
ATOM     63  H   UNL     1       9.030  -9.428   5.703  1.00  0.00     0.167 HD
ATOM     64  C   UNL     1       9.866  -8.987   8.354  1.00  0.00     0.074 A 
ATOM     65  C   UNL     1      10.094  -8.335   9.627  1.00  0.00     0.031 C 
ATOM     66  C   UNL     1      10.321 -10.227   8.043  1.00  0.00     0.031 A 
BRANCH  53  67
ATOM     67  C   UNL     1       8.841 -12.008   2.309  1.00  0.00    -0.014 A 
ATOM     68  C   UNL     1       9.559 -11.849   1.109  1.00  0.00     0.009 A 
ATOM     69  C   UNL     1       8.206 -13.240   2.542  1.00  0.00     0.009 A 
ATOM     70  C   UNL     1       9.603 -12.868   0.154  1.00  0.00     0.001 A 
ATOM     71  C   UNL     1       8.282 -14.274   1.600  1.00  0.00     0.001 A 
ATOM     72  C   UNL     1       8.971 -14.083   0.403  1.00  0.00     0.000 A 
ENDBRANCH  53  67
BRANCH  54  73
ATOM     73  C   UNL     1       8.050  -4.698   9.028  1.00  0.00    -0.014 A 
ATOM     74  C   UNL     1       9.164  -4.000   9.520  1.00  0.00     0.009 A 
ATOM     75  C   UNL     1       6.773  -4.359   9.500  1.00  0.00     0.009 A 
ATOM     76  C   UNL     1       9.011  -3.019  10.499  1.00  0.00     0.001 A 
ATOM     77  C   UNL     1       6.620  -3.350  10.454  1.00  0.00     0.001 A 
ATOM     78  C   UNL     1       7.739  -2.692  10.963  1.00  0.00     0.000 A 
ENDBRANCH  54  73
BRANCH  66  79
ATOM     79  C   UNL     1      11.133 -10.938   9.091  1.00  0.00    -0.014 A 
ATOM     80  C   UNL     1      10.560 -11.359  10.302  1.00  0.00     0.009 A 
ATOM     81  C   UNL     1      12.496 -11.183   8.864  1.00  0.00     0.009 A 
ATOM     82  C   UNL     1      11.350 -11.951  11.288  1.00  0.00     0.001 A 
ATOM     83  C   UNL     1      13.275 -11.814   9.835  1.00  0.00     0.001 A 
ATOM     84  C   UNL     1      12.705 -12.180  11.053  1.00  0.00     0.000 A 
ENDBRANCH  66  79
ENDBRANCH  40  41
ENDBRANCH  33  35
ENDBRANCH  32  33
ENDBRANCH  31  32
ENDBRANCH  30  31
ENDBRANCH   1  30
TORSDOF 17
