REMARK SMILES O=C(OCCOCCOC(=O)[C@H]1CCCN(C(=O)C2CC[NH+](Cc3ccco3)CC2)C1)c1ccc(-c2c3nc(c(-c4ccccc4)c4ccc([nH]4)c(-c4ccccc4)c4nc(c(-c5ccccc5)c5ccc2[nH]5)C=C4)C=C3)cc1
REMARK SMILES IDX 7 1 6 2 5 3 4 4 3 5 2 6 1 7 32 8 33 9 79 10 34 11 78 12
REMARK SMILES IDX 35 13 36 14 37 15 72 16 38 17 77 18 71 19 73 20 39 21 76 22
REMARK SMILES IDX 70 23 69 24 40 26 62 27 47 28 61 29 48 30 51 31 60 32 74 33
REMARK SMILES IDX 49 34 50 35 59 37 75 38 52 39 41 40 42 41 46 42 43 43 45 44
REMARK SMILES IDX 44 45 63 46 64 47 68 48 65 49 67 50 66 51 53 52 54 53 58 54
REMARK SMILES IDX 55 55 57 56 56 57 8 58 9 59 10 60 11 61 12 62 13 63 31 64
REMARK SMILES IDX 14 65 16 66 15 67 17 68 18 69 19 70 20 71 30 72 21 73 29 74
REMARK SMILES IDX 22 75 23 77 24 78 25 79 28 80 26 81 27 82
REMARK H PARENT 73 25 51 36 22 76
REMARK Flexibility Score: inf
ROOT
ATOM      1  C   UNL     1       3.025  -2.625  -5.763  1.00  0.00     0.202 C 
ENDROOT
BRANCH   1   2
ATOM      2  O   UNL     1       2.712  -1.266  -5.427  1.00  0.00    -0.374 OA
BRANCH   2   3
ATOM      3  C   UNL     1       2.011  -0.932  -4.217  1.00  0.00     0.202 C 
BRANCH   3   4
ATOM      4  C   UNL     1       0.754  -1.700  -3.774  1.00  0.00     0.261 C 
BRANCH   4   5
ATOM      5  O   UNL     1       0.754  -3.085  -4.151  1.00  0.00    -0.460 OA
BRANCH   5   6
ATOM      6  C   UNL     1      -0.006  -3.631  -5.137  1.00  0.00     0.338 C 
ATOM      7  O   UNL     1      -0.150  -4.848  -5.197  1.00  0.00    -0.246 OA
BRANCH   6   8
ATOM      8  C   UNL     1      -0.630  -2.777  -6.188  1.00  0.00     0.060 A 
ATOM      9  C   UNL     1      -0.104  -1.546  -6.565  1.00  0.00     0.016 A 
ATOM     10  C   UNL     1      -1.752  -3.244  -6.877  1.00  0.00     0.016 A 
ATOM     11  C   UNL     1      -0.727  -0.712  -7.453  1.00  0.00     0.010 A 
ATOM     12  C   UNL     1      -2.355  -2.445  -7.857  1.00  0.00     0.010 A 
ATOM     13  C   UNL     1      -1.857  -1.159  -8.110  1.00  0.00    -0.014 A 
BRANCH  13  14
ATOM     14  C   UNL     1      -2.549  -0.144  -8.910  1.00  0.00     0.031 A 
ATOM     15  C   UNL     1      -3.787   0.461  -8.331  1.00  0.00     0.074 A 
ATOM     16  C   UNL     1      -1.922   0.381  -9.979  1.00  0.00     0.049 A 
ATOM     17  N   UNL     1      -4.558   1.389  -8.822  1.00  0.00    -0.248 NA
ATOM     18  C   UNL     1      -4.202  -0.030  -7.003  1.00  0.00     0.031 C 
ATOM     19  C   UNL     1      -0.596  -0.023 -10.468  1.00  0.00     0.029 A 
ATOM     20  N   UNL     1      -2.275   1.414 -10.799  1.00  0.00    -0.354 N 
ATOM     21  C   UNL     1      -5.577   1.550  -7.894  1.00  0.00     0.074 A 
ATOM     22  C   UNL     1      -5.325   0.639  -6.804  1.00  0.00     0.031 C 
ATOM     23  C   UNL     1      -0.233   0.788 -11.474  1.00  0.00     0.029 A 
ATOM     24  C   UNL     1      -1.333   1.697 -11.758  1.00  0.00     0.049 A 
ATOM     25  H   UNL     1      -3.122   1.907 -10.711  1.00  0.00     0.167 HD
ATOM     26  C   UNL     1      -6.642   2.378  -7.971  1.00  0.00     0.031 A 
ATOM     27  C   UNL     1      -1.388   2.574 -12.774  1.00  0.00     0.031 A 
ATOM     28  C   UNL     1      -6.852   3.267  -9.079  1.00  0.00     0.049 A 
ATOM     29  C   UNL     1      -2.641   3.392 -12.905  1.00  0.00     0.074 A 
ATOM     30  C   UNL     1      -7.925   4.095  -9.338  1.00  0.00     0.029 A 
ATOM     31  N   UNL     1      -5.943   3.440 -10.117  1.00  0.00    -0.354 N 
ATOM     32  N   UNL     1      -3.672   3.458 -12.093  1.00  0.00    -0.248 NA
ATOM     33  C   UNL     1      -2.751   4.241 -14.095  1.00  0.00     0.031 C 
ATOM     34  C   UNL     1      -7.690   4.727 -10.564  1.00  0.00     0.029 A 
ATOM     35  C   UNL     1      -6.440   4.347 -11.032  1.00  0.00     0.049 A 
ATOM     36  H   UNL     1      -5.074   2.983 -10.189  1.00  0.00     0.167 HD
ATOM     37  C   UNL     1      -4.543   4.375 -12.659  1.00  0.00     0.074 A 
ATOM     38  C   UNL     1      -3.907   4.851 -13.874  1.00  0.00     0.031 C 
ATOM     39  C   UNL     1      -5.759   4.791 -12.223  1.00  0.00     0.031 A 
BRANCH  26  40
ATOM     40  C   UNL     1      -7.684   2.241  -6.899  1.00  0.00    -0.014 A 
ATOM     41  C   UNL     1      -7.460   2.662  -5.578  1.00  0.00     0.009 A 
ATOM     42  C   UNL     1      -8.896   1.605  -7.210  1.00  0.00     0.009 A 
ATOM     43  C   UNL     1      -8.409   2.405  -4.585  1.00  0.00     0.001 A 
ATOM     44  C   UNL     1      -9.854   1.376  -6.222  1.00  0.00     0.001 A 
ATOM     45  C   UNL     1      -9.604   1.763  -4.908  1.00  0.00     0.000 A 
ENDBRANCH  26  40
BRANCH  27  46
ATOM     46  C   UNL     1      -0.283   2.663 -13.766  1.00  0.00    -0.014 A 
ATOM     47  C   UNL     1       0.454   3.845 -13.928  1.00  0.00     0.009 A 
ATOM     48  C   UNL     1       0.031   1.560 -14.580  1.00  0.00     0.009 A 
ATOM     49  C   UNL     1       1.457   3.929 -14.900  1.00  0.00     0.001 A 
ATOM     50  C   UNL     1       1.055   1.635 -15.526  1.00  0.00     0.001 A 
ATOM     51  C   UNL     1       1.759   2.824 -15.694  1.00  0.00     0.000 A 
ENDBRANCH  27  46
BRANCH  39  52
ATOM     52  C   UNL     1      -6.435   5.851 -13.040  1.00  0.00    -0.014 A 
ATOM     53  C   UNL     1      -6.988   5.567 -14.297  1.00  0.00     0.009 A 
ATOM     54  C   UNL     1      -6.549   7.148 -12.515  1.00  0.00     0.009 A 
ATOM     55  C   UNL     1      -7.610   6.576 -15.032  1.00  0.00     0.001 A 
ATOM     56  C   UNL     1      -7.202   8.144 -13.236  1.00  0.00     0.001 A 
ATOM     57  C   UNL     1      -7.721   7.861 -14.498  1.00  0.00     0.000 A 
ENDBRANCH  39  52
ENDBRANCH  13  14
ENDBRANCH   6   8
ENDBRANCH   5   6
ENDBRANCH   4   5
ENDBRANCH   3   4
ENDBRANCH   2   3
ENDBRANCH   1   2
BRANCH   1  58
ATOM     58  C   UNL     1       4.242  -2.673  -6.705  1.00  0.00     0.261 C 
BRANCH  58  59
ATOM     59  O   UNL     1       5.420  -2.197  -6.043  1.00  0.00    -0.463 OA
BRANCH  59  60
ATOM     60  C   UNL     1       5.424  -0.849  -5.854  1.00  0.00     0.310 C 
ATOM     61  O   UNL     1       5.392  -0.035  -6.769  1.00  0.00    -0.252 OA
BRANCH  60  62
ATOM     62  C   UNL     1       5.445  -0.491  -4.379  1.00  0.00     0.119 C 
ATOM     63  C   UNL     1       5.164  -1.736  -3.500  1.00  0.00     0.019 C 
ATOM     64  C   UNL     1       6.758   0.249  -4.037  1.00  0.00     0.134 C 
ATOM     65  C   UNL     1       5.434  -1.445  -2.060  1.00  0.00     0.022 C 
ATOM     66  N   UNL     1       7.128   0.143  -2.615  1.00  0.00    -0.342 N 
ATOM     67  C   UNL     1       6.901  -1.152  -2.069  1.00  0.00     0.119 C 
BRANCH  66  68
ATOM     68  C   UNL     1       7.681   1.182  -1.895  1.00  0.00     0.226 C 
ATOM     69  O   UNL     1       7.797   2.297  -2.415  1.00  0.00    -0.275 OA
BRANCH  68  70
ATOM     70  C   UNL     1       8.223   0.977  -0.442  1.00  0.00     0.090 C 
ATOM     71  C   UNL     1       9.563   0.248  -0.352  1.00  0.00     0.075 C 
ATOM     72  C   UNL     1       7.271   0.529   0.675  1.00  0.00     0.075 C 
ATOM     73  C   UNL     1       9.469  -1.266  -0.172  1.00  0.00     0.263 C 
ATOM     74  C   UNL     1       7.309  -0.956   1.108  1.00  0.00     0.263 C 
ATOM     75  N   UNL     1       8.521  -1.734   0.835  1.00  0.00    -0.329 N 
ATOM     76  H   UNL     1       9.060  -1.508   1.671  1.00  0.00     0.348 HD
BRANCH  75  77
ATOM     77  C   UNL     1       8.299  -3.205   0.831  1.00  0.00     0.338 C 
BRANCH  77  78
ATOM     78  C   UNL     1       7.795  -3.848  -0.440  1.00  0.00     0.157 A 
ATOM     79  C   UNL     1       8.387  -4.188  -1.646  1.00  0.00     0.052 A 
ATOM     80  O   UNL     1       6.492  -4.274  -0.452  1.00  0.00    -0.463 OA
ATOM     81  C   UNL     1       7.388  -4.801  -2.445  1.00  0.00     0.042 A 
ATOM     82  C   UNL     1       6.261  -4.854  -1.662  1.00  0.00     0.195 A 
ENDBRANCH  77  78
ENDBRANCH  75  77
ENDBRANCH  68  70
ENDBRANCH  66  68
ENDBRANCH  60  62
ENDBRANCH  59  60
ENDBRANCH  58  59
ENDBRANCH   1  58
TORSDOF 18
