REMARK SMILES C#CC[N@@H+](CC(=O)NC(=O)NC)CC(=O)OCCOCCOC(=O)c1ccc(-c2c3nc(c(-c4ccccc4)c4ccc([nH]4)c(-c4ccccc4)c4nc(c(-c5ccccc5)c5ccc2[nH]5)C=C4)C=C3)cc1
REMARK SMILES IDX 18 1 17 2 16 3 14 4 15 5 13 6 4 7 3 9 2 10 1 11 5 12 6 13
REMARK SMILES IDX 7 14 8 15 9 16 10 18 11 19 12 20 19 22 20 23 21 24 22 25
REMARK SMILES IDX 23 26 24 27 25 28 26 29 72 30 27 31 71 32 28 33 29 34 30 35
REMARK SMILES IDX 65 36 31 37 70 38 64 39 66 40 32 41 69 42 63 43 62 44 33 46
REMARK SMILES IDX 55 47 40 48 54 49 41 50 44 51 53 52 67 53 42 54 43 55 52 57
REMARK SMILES IDX 68 58 45 59 34 60 35 61 39 62 36 63 38 64 37 65 56 66 57 67
REMARK SMILES IDX 61 68 58 69 60 70 59 71 46 72 47 73 51 74 48 75 50 76 49 77
REMARK H PARENT 4 8 8 17 11 21 66 45 44 56
REMARK Flexibility Score: inf
ROOT
ATOM      1  C   UNL     1      -3.633  -2.232  -3.996  1.00  0.00     0.202 C 
ENDROOT
BRANCH   1   2
ATOM      2  C   UNL     1      -3.529  -3.401  -3.016  1.00  0.00     0.261 C 
BRANCH   2   3
ATOM      3  O   UNL     1      -3.197  -2.923  -1.699  1.00  0.00    -0.459 OA
BRANCH   3   4
ATOM      4  C   UNL     1      -1.952  -3.206  -1.244  1.00  0.00     0.361 C 
ATOM      5  O   UNL     1      -1.133  -3.898  -1.839  1.00  0.00    -0.245 OA
BRANCH   4   6
ATOM      6  C   UNL     1      -1.688  -2.640   0.143  1.00  0.00     0.387 C 
BRANCH   6   7
ATOM      7  N   UNL     1      -2.346  -1.371   0.498  1.00  0.00    -0.308 N 
ATOM      8  H   UNL     1      -1.768  -1.243   1.330  1.00  0.00     0.349 HD
BRANCH   7   9
ATOM      9  C   UNL     1      -1.841  -0.086   0.049  1.00  0.00     0.354 C 
BRANCH   9  10
ATOM     10  C   UNL     1      -0.321  -0.086   0.049  1.00  0.00    -0.047 C 
ATOM     11  C   UNL     1       0.983  -0.086   0.049  1.00  0.00     0.010 C 
ENDBRANCH   9  10
ENDBRANCH   7   9
BRANCH   7  12
ATOM     12  C   UNL     1      -3.709  -1.451   1.002  1.00  0.00     0.365 C 
BRANCH  12  13
ATOM     13  C   UNL     1      -4.764  -0.845   0.096  1.00  0.00     0.283 C 
ATOM     14  O   UNL     1      -5.528  -1.569  -0.556  1.00  0.00    -0.268 OA
ATOM     15  N   UNL     1      -4.921   0.519  -0.073  1.00  0.00    -0.273 N 
ATOM     16  C   UNL     1      -4.366   1.726   0.251  1.00  0.00     0.321 C 
ATOM     17  H   UNL     1      -5.719   0.679  -0.626  1.00  0.00     0.175 HD
ATOM     18  O   UNL     1      -4.251   2.587  -0.623  1.00  0.00    -0.248 OA
ATOM     19  N   UNL     1      -3.930   2.021   1.484  1.00  0.00    -0.341 N 
ATOM     20  C   UNL     1      -4.093   1.348   2.743  1.00  0.00     0.144 C 
ATOM     21  H   UNL     1      -3.401   2.849   1.536  1.00  0.00     0.165 HD
ENDBRANCH  12  13
ENDBRANCH   7  12
ENDBRANCH   6   7
ENDBRANCH   4   6
ENDBRANCH   3   4
ENDBRANCH   2   3
ENDBRANCH   1   2
BRANCH   1  22
ATOM     22  O   UNL     1      -2.385  -1.666  -4.400  1.00  0.00    -0.374 OA
BRANCH  22  23
ATOM     23  C   UNL     1      -1.831  -0.692  -3.517  1.00  0.00     0.202 C 
BRANCH  23  24
ATOM     24  C   UNL     1      -2.395   0.727  -3.680  1.00  0.00     0.261 C 
BRANCH  24  25
ATOM     25  O   UNL     1      -3.781   0.794  -3.286  1.00  0.00    -0.460 OA
BRANCH  25  26
ATOM     26  C   UNL     1      -4.654   1.027  -4.300  1.00  0.00     0.338 C 
ATOM     27  O   UNL     1      -4.393   1.282  -5.459  1.00  0.00    -0.246 OA
BRANCH  26  28
ATOM     28  C   UNL     1      -6.028   0.729  -3.845  1.00  0.00     0.060 A 
ATOM     29  C   UNL     1      -6.749  -0.236  -4.553  1.00  0.00     0.016 A 
ATOM     30  C   UNL     1      -6.624   1.409  -2.784  1.00  0.00     0.016 A 
ATOM     31  C   UNL     1      -8.083  -0.488  -4.229  1.00  0.00     0.010 A 
ATOM     32  C   UNL     1      -7.934   1.092  -2.404  1.00  0.00     0.010 A 
ATOM     33  C   UNL     1      -8.701   0.195  -3.170  1.00  0.00    -0.014 A 
BRANCH  33  34
ATOM     34  C   UNL     1     -10.183   0.121  -3.013  1.00  0.00     0.031 A 
ATOM     35  C   UNL     1     -11.012   1.353  -3.299  1.00  0.00     0.074 A 
ATOM     36  C   UNL     1     -10.806  -1.033  -2.705  1.00  0.00     0.049 A 
ATOM     37  N   UNL     1     -12.315   1.501  -3.286  1.00  0.00    -0.248 NA
ATOM     38  C   UNL     1     -10.280   2.585  -3.635  1.00  0.00     0.031 C 
ATOM     39  C   UNL     1     -10.147  -2.307  -2.419  1.00  0.00     0.029 A 
ATOM     40  N   UNL     1     -12.148  -1.322  -2.600  1.00  0.00    -0.354 N 
ATOM     41  C   UNL     1     -12.547   2.836  -3.598  1.00  0.00     0.074 A 
ATOM     42  C   UNL     1     -11.257   3.471  -3.732  1.00  0.00     0.031 C 
ATOM     43  C   UNL     1     -11.085  -3.246  -2.203  1.00  0.00     0.029 A 
ATOM     44  C   UNL     1     -12.410  -2.636  -2.297  1.00  0.00     0.049 A 
ATOM     45  H   UNL     1     -12.854  -0.648  -2.730  1.00  0.00     0.167 HD
ATOM     46  C   UNL     1     -13.722   3.480  -3.790  1.00  0.00     0.031 A 
ATOM     47  C   UNL     1     -13.582  -3.278  -2.112  1.00  0.00     0.031 A 
ATOM     48  C   UNL     1     -15.015   2.864  -3.675  1.00  0.00     0.049 A 
ATOM     49  C   UNL     1     -14.879  -2.526  -2.268  1.00  0.00     0.074 A 
ATOM     50  C   UNL     1     -16.260   3.432  -3.881  1.00  0.00     0.029 A 
ATOM     51  N   UNL     1     -15.230   1.542  -3.321  1.00  0.00    -0.354 N 
ATOM     52  N   UNL     1     -15.077  -1.275  -2.609  1.00  0.00    -0.248 NA
ATOM     53  C   UNL     1     -16.117  -3.282  -2.024  1.00  0.00     0.031 C 
ATOM     54  C   UNL     1     -17.231   2.472  -3.586  1.00  0.00     0.029 A 
ATOM     55  C   UNL     1     -16.589   1.286  -3.269  1.00  0.00     0.049 A 
ATOM     56  H   UNL     1     -14.522   0.884  -3.134  1.00  0.00     0.167 HD
ATOM     57  C   UNL     1     -16.457  -1.106  -2.650  1.00  0.00     0.074 A 
ATOM     58  C   UNL     1     -17.047  -2.384  -2.318  1.00  0.00     0.031 C 
ATOM     59  C   UNL     1     -17.170   0.011  -2.939  1.00  0.00     0.031 A 
BRANCH  46  60
ATOM     60  C   UNL     1     -13.659   4.945  -4.129  1.00  0.00    -0.014 A 
ATOM     61  C   UNL     1     -13.169   5.390  -5.368  1.00  0.00     0.009 A 
ATOM     62  C   UNL     1     -14.123   5.893  -3.203  1.00  0.00     0.009 A 
ATOM     63  C   UNL     1     -13.107   6.755  -5.655  1.00  0.00     0.001 A 
ATOM     64  C   UNL     1     -14.092   7.255  -3.507  1.00  0.00     0.001 A 
ATOM     65  C   UNL     1     -13.575   7.685  -4.728  1.00  0.00     0.000 A 
ENDBRANCH  46  60
BRANCH  47  66
ATOM     66  C   UNL     1     -13.595  -4.721  -1.744  1.00  0.00    -0.014 A 
ATOM     67  C   UNL     1     -14.103  -5.688  -2.627  1.00  0.00     0.009 A 
ATOM     68  C   UNL     1     -13.133  -5.135  -0.484  1.00  0.00     0.009 A 
ATOM     69  C   UNL     1     -14.175  -7.030  -2.244  1.00  0.00     0.001 A 
ATOM     70  C   UNL     1     -13.175  -6.482  -0.117  1.00  0.00     0.001 A 
ATOM     71  C   UNL     1     -13.707  -7.426  -0.993  1.00  0.00     0.000 A 
ENDBRANCH  47  66
BRANCH  59  72
ATOM     72  C   UNL     1     -18.671  -0.102  -2.951  1.00  0.00    -0.014 A 
ATOM     73  C   UNL     1     -19.404  -0.275  -1.767  1.00  0.00     0.009 A 
ATOM     74  C   UNL     1     -19.365   0.018  -4.166  1.00  0.00     0.009 A 
ATOM     75  C   UNL     1     -20.798  -0.361  -1.805  1.00  0.00     0.001 A 
ATOM     76  C   UNL     1     -20.759  -0.035  -4.197  1.00  0.00     0.001 A 
ATOM     77  C   UNL     1     -21.474  -0.235  -3.018  1.00  0.00     0.000 A 
ENDBRANCH  59  72
ENDBRANCH  33  34
ENDBRANCH  26  28
ENDBRANCH  25  26
ENDBRANCH  24  25
ENDBRANCH  23  24
ENDBRANCH  22  23
ENDBRANCH   1  22
TORSDOF 19
