REMARK SMILES O=C(OCCOCCOC(=O)c1ccccc1C(=O)Nc1ccc(N2C(=O)[C@H]3[C@@H]4CC[C@@H](C4)[C@@H]3C2=O)cc1)c1ccc(-c2c3nc(c(-c4ccccc4)c4ccc([nH]4)c(-c4ccccc4)c4nc(c(-c5ccccc5)c5ccc2[nH]5)C=C4)C=C3)cc1
REMARK SMILES IDX 7 1 6 2 5 3 4 4 3 5 2 6 1 7 39 8 40 9 86 10 41 11 85 12
REMARK SMILES IDX 42 13 43 14 44 15 79 16 45 17 84 18 78 19 80 20 46 21 83 22
REMARK SMILES IDX 77 23 76 24 47 26 69 27 54 28 68 29 55 30 58 31 67 32 81 33
REMARK SMILES IDX 56 34 57 35 66 37 82 38 59 39 48 40 49 41 53 42 50 43 52 44
REMARK SMILES IDX 51 45 70 46 71 47 75 48 72 49 74 50 73 51 60 52 61 53 65 54
REMARK SMILES IDX 62 55 64 56 63 57 8 58 9 59 10 60 11 61 12 62 13 63 17 64
REMARK SMILES IDX 14 65 16 66 15 67 18 68 19 69 20 70 21 72 22 73 38 74 23 75
REMARK SMILES IDX 37 76 24 77 25 78 26 79 35 80 27 81 28 82 34 83 36 84 29 85
REMARK SMILES IDX 32 86 30 87 33 88 31 89
REMARK H PARENT 80 25 58 36 20 71
REMARK Flexibility Score: inf
ROOT
ATOM      1  C   UNL     1       1.102   1.538  -0.333  1.00  0.00     0.202 C 
ENDROOT
BRANCH   1   2
ATOM      2  O   UNL     1       2.225   0.676  -0.195  1.00  0.00    -0.374 OA
BRANCH   2   3
ATOM      3  C   UNL     1       2.972   0.430  -1.388  1.00  0.00     0.202 C 
BRANCH   3   4
ATOM      4  C   UNL     1       3.119  -1.074  -1.615  1.00  0.00     0.261 C 
BRANCH   4   5
ATOM      5  O   UNL     1       1.851  -1.737  -1.452  1.00  0.00    -0.460 OA
BRANCH   5   6
ATOM      6  C   UNL     1       1.285  -2.057  -0.257  1.00  0.00     0.338 C 
ATOM      7  O   UNL     1       0.068  -2.214  -0.180  1.00  0.00    -0.246 OA
BRANCH   6   8
ATOM      8  C   UNL     1       2.113  -2.447   0.923  1.00  0.00     0.060 A 
ATOM      9  C   UNL     1       3.135  -1.677   1.464  1.00  0.00     0.016 A 
ATOM     10  C   UNL     1       1.767  -3.633   1.592  1.00  0.00     0.016 A 
ATOM     11  C   UNL     1       3.873  -2.140   2.554  1.00  0.00     0.010 A 
ATOM     12  C   UNL     1       2.499  -4.086   2.705  1.00  0.00     0.010 A 
ATOM     13  C   UNL     1       3.620  -3.380   3.151  1.00  0.00    -0.014 A 
BRANCH  13  14
ATOM     14  C   UNL     1       4.642  -3.956   4.084  1.00  0.00     0.031 A 
ATOM     15  C   UNL     1       5.391  -5.213   3.684  1.00  0.00     0.074 A 
ATOM     16  C   UNL     1       5.086  -3.261   5.156  1.00  0.00     0.049 A 
ATOM     17  N   UNL     1       6.396  -5.806   4.286  1.00  0.00    -0.248 NA
ATOM     18  C   UNL     1       5.007  -5.850   2.413  1.00  0.00     0.031 C 
ATOM     19  C   UNL     1       4.557  -1.974   5.612  1.00  0.00     0.029 A 
ATOM     20  N   UNL     1       6.127  -3.512   6.022  1.00  0.00    -0.354 N 
ATOM     21  C   UNL     1       6.792  -6.837   3.441  1.00  0.00     0.074 A 
ATOM     22  C   UNL     1       5.874  -6.847   2.326  1.00  0.00     0.031 C 
ATOM     23  C   UNL     1       5.313  -1.521   6.626  1.00  0.00     0.029 A 
ATOM     24  C   UNL     1       6.323  -2.522   6.958  1.00  0.00     0.049 A 
ATOM     25  H   UNL     1       6.681  -4.325   5.976  1.00  0.00     0.167 HD
ATOM     26  C   UNL     1       7.857  -7.668   3.535  1.00  0.00     0.031 A 
ATOM     27  C   UNL     1       7.184  -2.437   7.994  1.00  0.00     0.031 A 
ATOM     28  C   UNL     1       8.780  -7.706   4.632  1.00  0.00     0.049 A 
ATOM     29  C   UNL     1       8.155  -3.560   8.245  1.00  0.00     0.074 A 
ATOM     30  C   UNL     1       9.821  -8.593   4.850  1.00  0.00     0.029 A 
ATOM     31  N   UNL     1       8.775  -6.823   5.695  1.00  0.00    -0.354 N 
ATOM     32  N   UNL     1       8.453  -4.582   7.481  1.00  0.00    -0.248 NA
ATOM     33  C   UNL     1       8.890  -3.530   9.520  1.00  0.00     0.031 C 
ATOM     34  C   UNL     1      10.414  -8.277   6.078  1.00  0.00     0.029 A 
ATOM     35  C   UNL     1       9.769  -7.167   6.596  1.00  0.00     0.049 A 
ATOM     36  H   UNL     1       8.157  -6.064   5.797  1.00  0.00     0.167 HD
ATOM     37  C   UNL     1       9.408  -5.311   8.181  1.00  0.00     0.074 A 
ATOM     38  C   UNL     1       9.666  -4.599   9.413  1.00  0.00     0.031 C 
ATOM     39  C   UNL     1      10.009  -6.475   7.833  1.00  0.00     0.031 A 
BRANCH  26  40
ATOM     40  C   UNL     1       8.080  -8.617   2.396  1.00  0.00    -0.014 A 
ATOM     41  C   UNL     1       8.721  -8.184   1.225  1.00  0.00     0.009 A 
ATOM     42  C   UNL     1       7.676  -9.955   2.502  1.00  0.00     0.009 A 
ATOM     43  C   UNL     1       8.937  -9.071   0.170  1.00  0.00     0.001 A 
ATOM     44  C   UNL     1       7.906 -10.844   1.450  1.00  0.00     0.001 A 
ATOM     45  C   UNL     1       8.532 -10.400   0.284  1.00  0.00     0.000 A 
ENDBRANCH  26  40
BRANCH  27  46
ATOM     46  C   UNL     1       7.097  -1.305   8.963  1.00  0.00    -0.014 A 
ATOM     47  C   UNL     1       8.182  -0.442   9.182  1.00  0.00     0.009 A 
ATOM     48  C   UNL     1       5.938  -1.138   9.740  1.00  0.00     0.009 A 
ATOM     49  C   UNL     1       8.115   0.541  10.176  1.00  0.00     0.001 A 
ATOM     50  C   UNL     1       5.859  -0.132  10.704  1.00  0.00     0.001 A 
ATOM     51  C   UNL     1       6.954   0.698  10.931  1.00  0.00     0.000 A 
ENDBRANCH  27  46
BRANCH  39  52
ATOM     52  C   UNL     1      10.993  -7.062   8.805  1.00  0.00    -0.014 A 
ATOM     53  C   UNL     1      10.556  -7.649  10.002  1.00  0.00     0.009 A 
ATOM     54  C   UNL     1      12.366  -7.056   8.512  1.00  0.00     0.009 A 
ATOM     55  C   UNL     1      11.476  -8.192  10.902  1.00  0.00     0.001 A 
ATOM     56  C   UNL     1      13.281  -7.625   9.400  1.00  0.00     0.001 A 
ATOM     57  C   UNL     1      12.836  -8.183  10.598  1.00  0.00     0.000 A 
ENDBRANCH  39  52
ENDBRANCH  13  14
ENDBRANCH   6   8
ENDBRANCH   5   6
ENDBRANCH   4   5
ENDBRANCH   3   4
ENDBRANCH   2   3
ENDBRANCH   1   2
BRANCH   1  58
ATOM     58  C   UNL     1       1.365   2.934   0.237  1.00  0.00     0.261 C 
BRANCH  58  59
ATOM     59  O   UNL     1       2.252   3.742  -0.559  1.00  0.00    -0.460 OA
BRANCH  59  60
ATOM     60  C   UNL     1       3.561   3.497  -0.355  1.00  0.00     0.339 C 
ATOM     61  O   UNL     1       4.060   2.552   0.234  1.00  0.00    -0.246 OA
BRANCH  60  62
ATOM     62  C   UNL     1       4.380   4.543  -0.947  1.00  0.00     0.072 A 
ATOM     63  C   UNL     1       4.916   4.308  -2.220  1.00  0.00     0.016 A 
ATOM     64  C   UNL     1       4.660   5.725  -0.252  1.00  0.00     0.054 A 
ATOM     65  C   UNL     1       5.673   5.299  -2.841  1.00  0.00     0.001 A 
ATOM     66  C   UNL     1       5.372   6.736  -0.910  1.00  0.00     0.015 A 
ATOM     67  C   UNL     1       5.878   6.521  -2.198  1.00  0.00     0.001 A 
BRANCH  64  68
ATOM     68  C   UNL     1       4.149   6.007   1.111  1.00  0.00     0.256 C 
ATOM     69  O   UNL     1       3.480   7.029   1.264  1.00  0.00    -0.269 OA
ATOM     70  N   UNL     1       4.319   5.140   2.173  1.00  0.00    -0.322 N 
ATOM     71  H   UNL     1       3.754   5.340   2.954  1.00  0.00     0.170 HD
BRANCH  70  72
ATOM     72  C   UNL     1       5.159   4.021   2.337  1.00  0.00     0.041 A 
ATOM     73  C   UNL     1       4.673   2.963   3.120  1.00  0.00     0.028 A 
ATOM     74  C   UNL     1       6.382   3.873   1.679  1.00  0.00     0.028 A 
ATOM     75  C   UNL     1       5.308   1.713   3.089  1.00  0.00     0.029 A 
ATOM     76  C   UNL     1       7.040   2.634   1.681  1.00  0.00     0.029 A 
ATOM     77  C   UNL     1       6.474   1.538   2.337  1.00  0.00     0.052 A 
BRANCH  77  78
ATOM     78  N   UNL     1       6.981   0.249   2.106  1.00  0.00    -0.250 N 
ATOM     79  C   UNL     1       8.094  -0.308   2.757  1.00  0.00     0.237 C 
ATOM     80  C   UNL     1       6.567  -0.555   1.034  1.00  0.00     0.237 C 
ATOM     81  O   UNL     1       8.682   0.068   3.753  1.00  0.00    -0.274 OA
ATOM     82  C   UNL     1       8.525  -1.404   1.807  1.00  0.00     0.095 C 
ATOM     83  C   UNL     1       7.136  -1.879   1.411  1.00  0.00     0.095 C 
ATOM     84  O   UNL     1       5.915  -0.308   0.039  1.00  0.00    -0.274 OA
ATOM     85  C   UNL     1       9.281  -2.733   1.883  1.00  0.00     0.002 C 
ATOM     86  C   UNL     1       7.391  -3.200   0.725  1.00  0.00     0.002 C 
ATOM     87  C   UNL     1       9.789  -2.984   0.437  1.00  0.00     0.005 C 
ATOM     88  C   UNL     1       8.194  -3.825   1.892  1.00  0.00     0.009 C 
ATOM     89  C   UNL     1       8.470  -3.128  -0.368  1.00  0.00     0.005 C 
ENDBRANCH  77  78
ENDBRANCH  70  72
ENDBRANCH  64  68
ENDBRANCH  60  62
ENDBRANCH  59  60
ENDBRANCH  58  59
ENDBRANCH   1  58
TORSDOF 17
