REMARK SMILES COc1ccc([C@@H]([NH3+])[C@](C)(C(N)=O)C(=O)OCCOCCOC(=O)c2ccc(-c3c4nc(c(-c5ccccc5)c5ccc([nH]5)c(-c5ccccc5)c5nc(c(-c6ccccc6)c6ccc3[nH]6)C=C5)C=C4)cc2)cc1OC
REMARK SMILES IDX 18 1 17 2 16 3 14 4 15 5 9 6 10 7 7 8 6 9 3 10 4 11 74 12
REMARK SMILES IDX 5 13 73 14 2 15 1 16 75 17 76 18 8 19 11 23 12 24 13 25
REMARK SMILES IDX 19 28 20 29 21 30 22 31 23 32 24 33 25 34 26 35 72 36 27 37
REMARK SMILES IDX 71 38 28 39 29 40 30 41 65 42 31 43 70 44 64 45 66 46 32 47
REMARK SMILES IDX 69 48 63 49 62 50 33 52 55 53 40 54 54 55 41 56 44 57 53 58
REMARK SMILES IDX 67 59 42 60 43 61 52 63 68 64 45 65 34 66 35 67 39 68 36 69
REMARK SMILES IDX 38 70 37 71 56 72 57 73 61 74 58 75 60 76 59 77 46 78 47 79
REMARK SMILES IDX 51 80 48 81 50 82 49 83
REMARK H PARENT 8 20 8 21 8 22 12 26 12 27 66 51 44 62
REMARK Flexibility Score: inf
ROOT
ATOM      1  C   UNL     1      -2.981   1.091   7.366  1.00  0.00     0.202 C 
ENDROOT
BRANCH   1   2
ATOM      2  C   UNL     1      -2.424   0.007   6.434  1.00  0.00     0.261 C 
BRANCH   2   3
ATOM      3  O   UNL     1      -1.127  -0.454   6.866  1.00  0.00    -0.462 OA
BRANCH   3   4
ATOM      4  C   UNL     1      -0.060   0.059   6.187  1.00  0.00     0.328 C 
ATOM      5  O   UNL     1      -0.187   0.765   5.193  1.00  0.00    -0.251 OA
BRANCH   4   6
ATOM      6  C   UNL     1       1.293  -0.313   6.803  1.00  0.00     0.198 C 
ATOM      7  C   UNL     1       2.236   0.889   6.539  1.00  0.00     0.041 C 
BRANCH   6   8
ATOM      8  C   UNL     1       1.762  -1.647   6.128  1.00  0.00     0.239 C 
BRANCH   8   9
ATOM      9  C   UNL     1       1.903  -1.542   4.608  1.00  0.00     0.015 A 
ATOM     10  C   UNL     1       2.062  -1.196   1.814  1.00  0.00     0.160 A 
ATOM     11  C   UNL     1       3.094  -0.743   2.641  1.00  0.00     0.051 A 
ATOM     12  C   UNL     1       0.971  -1.881   2.363  1.00  0.00     0.161 A 
ATOM     13  C   UNL     1       3.017  -0.921   4.022  1.00  0.00     0.014 A 
ATOM     14  C   UNL     1       0.902  -2.038   3.758  1.00  0.00     0.060 A 
BRANCH  10  15
ATOM     15  O   UNL     1       2.199  -1.008   0.464  1.00  0.00    -0.493 OA
ATOM     16  C   UNL     1       1.972   0.357   0.109  1.00  0.00     0.278 C 
ENDBRANCH  10  15
BRANCH  12  17
ATOM     17  O   UNL     1      -0.097  -2.444   1.716  1.00  0.00    -0.493 OA
ATOM     18  C   UNL     1      -0.202  -2.275   0.311  1.00  0.00     0.278 C 
ENDBRANCH  12  17
ENDBRANCH   8   9
BRANCH   8  19
ATOM     19  N   UNL     1       3.022  -2.198   6.660  1.00  0.00    -0.350 N 
ATOM     20  H   UNL     1       3.791  -1.569   6.432  1.00  0.00     0.345 HD
ATOM     21  H   UNL     1       3.196  -3.113   6.243  1.00  0.00     0.345 HD
ATOM     22  H   UNL     1       2.950  -2.294   7.673  1.00  0.00     0.345 HD
ENDBRANCH   8  19
ENDBRANCH   6   8
BRANCH   6  23
ATOM     23  C   UNL     1       1.318  -0.487   8.336  1.00  0.00     0.241 C 
ATOM     24  N   UNL     1       0.218  -0.898   9.014  1.00  0.00    -0.368 N 
ATOM     25  O   UNL     1       2.343  -0.336   9.006  1.00  0.00    -0.274 OA
ATOM     26  H   UNL     1      -0.631  -1.038   8.536  1.00  0.00     0.159 HD
ATOM     27  H   UNL     1       0.269  -1.058   9.984  1.00  0.00     0.159 HD
ENDBRANCH   6  23
ENDBRANCH   4   6
ENDBRANCH   3   4
ENDBRANCH   2   3
ENDBRANCH   1   2
BRANCH   1  28
ATOM     28  O   UNL     1      -2.328   2.358   7.340  1.00  0.00    -0.374 OA
BRANCH  28  29
ATOM     29  C   UNL     1      -1.115   2.506   8.077  1.00  0.00     0.202 C 
BRANCH  29  30
ATOM     30  C   UNL     1      -1.246   2.701   9.590  1.00  0.00     0.261 C 
BRANCH  30  31
ATOM     31  O   UNL     1      -1.798   1.534  10.225  1.00  0.00    -0.460 OA
BRANCH  31  32
ATOM     32  C   UNL     1      -3.047   1.704  10.711  1.00  0.00     0.338 C 
ATOM     33  O   UNL     1      -3.693   2.743  10.751  1.00  0.00    -0.246 OA
BRANCH  32  34
ATOM     34  C   UNL     1      -3.647   0.401  11.049  1.00  0.00     0.060 A 
ATOM     35  C   UNL     1      -4.944   0.161  10.578  1.00  0.00     0.016 A 
ATOM     36  C   UNL     1      -3.009  -0.523  11.881  1.00  0.00     0.016 A 
ATOM     37  C   UNL     1      -5.647  -0.955  11.015  1.00  0.00     0.010 A 
ATOM     38  C   UNL     1      -3.719  -1.646  12.321  1.00  0.00     0.010 A 
ATOM     39  C   UNL     1      -5.061  -1.831  11.938  1.00  0.00    -0.014 A 
BRANCH  39  40
ATOM     40  C   UNL     1      -5.937  -2.784  12.661  1.00  0.00     0.031 A 
ATOM     41  C   UNL     1      -6.431  -2.407  14.034  1.00  0.00     0.074 A 
ATOM     42  C   UNL     1      -6.363  -3.919  12.081  1.00  0.00     0.049 A 
ATOM     43  N   UNL     1      -7.247  -3.051  14.829  1.00  0.00    -0.248 NA
ATOM     44  C   UNL     1      -5.941  -1.131  14.582  1.00  0.00     0.031 C 
ATOM     45  C   UNL     1      -6.003  -4.372  10.739  1.00  0.00     0.029 A 
ATOM     46  N   UNL     1      -7.208  -4.892  12.552  1.00  0.00    -0.354 N 
ATOM     47  C   UNL     1      -7.364  -2.263  15.967  1.00  0.00     0.074 A 
ATOM     48  C   UNL     1      -6.508  -1.112  15.778  1.00  0.00     0.031 C 
ATOM     49  C   UNL     1      -6.629  -5.537  10.492  1.00  0.00     0.029 A 
ATOM     50  C   UNL     1      -7.413  -5.919  11.665  1.00  0.00     0.049 A 
ATOM     51  H   UNL     1      -7.628  -4.856  13.442  1.00  0.00     0.167 HD
ATOM     52  C   UNL     1      -8.123  -2.467  17.069  1.00  0.00     0.031 A 
ATOM     53  C   UNL     1      -8.146  -7.042  11.789  1.00  0.00     0.031 A 
ATOM     54  C   UNL     1      -8.972  -3.610  17.267  1.00  0.00     0.049 A 
ATOM     55  C   UNL     1      -8.931  -7.280  13.051  1.00  0.00     0.074 A 
ATOM     56  C   UNL     1      -9.784  -3.905  18.348  1.00  0.00     0.029 A 
ATOM     57  N   UNL     1      -9.115  -4.648  16.362  1.00  0.00    -0.354 N 
ATOM     58  N   UNL     1      -9.048  -6.516  14.110  1.00  0.00    -0.248 NA
ATOM     59  C   UNL     1      -9.701  -8.530  13.124  1.00  0.00     0.031 C 
ATOM     60  C   UNL     1     -10.382  -5.148  18.117  1.00  0.00     0.029 A 
ATOM     61  C   UNL     1      -9.988  -5.597  16.867  1.00  0.00     0.049 A 
ATOM     62  H   UNL     1      -8.664  -4.704  15.488  1.00  0.00     0.167 HD
ATOM     63  C   UNL     1      -9.929  -7.176  14.959  1.00  0.00     0.074 A 
ATOM     64  C   UNL     1     -10.324  -8.396  14.287  1.00  0.00     0.031 C 
ATOM     65  C   UNL     1     -10.376  -6.803  16.183  1.00  0.00     0.031 A 
BRANCH  52  66
ATOM     66  C   UNL     1      -8.041  -1.438  18.162  1.00  0.00    -0.014 A 
ATOM     67  C   UNL     1      -8.613  -0.165  18.012  1.00  0.00     0.009 A 
ATOM     68  C   UNL     1      -7.396  -1.756  19.367  1.00  0.00     0.009 A 
ATOM     69  C   UNL     1      -8.510   0.781  19.034  1.00  0.00     0.001 A 
ATOM     70  C   UNL     1      -7.319  -0.818  20.398  1.00  0.00     0.001 A 
ATOM     71  C   UNL     1      -7.868   0.452  20.227  1.00  0.00     0.000 A 
ENDBRANCH  52  66
BRANCH  53  72
ATOM     72  C   UNL     1      -8.171  -8.039  10.687  1.00  0.00    -0.014 A 
ATOM     73  C   UNL     1      -9.333  -8.243   9.928  1.00  0.00     0.009 A 
ATOM     74  C   UNL     1      -7.033  -8.813  10.408  1.00  0.00     0.009 A 
ATOM     75  C   UNL     1      -9.364  -9.220   8.931  1.00  0.00     0.001 A 
ATOM     76  C   UNL     1      -7.058  -9.769   9.391  1.00  0.00     0.001 A 
ATOM     77  C   UNL     1      -8.226  -9.979   8.660  1.00  0.00     0.000 A 
ENDBRANCH  53  72
BRANCH  65  78
ATOM     78  C   UNL     1     -11.381  -7.697  16.854  1.00  0.00    -0.014 A 
ATOM     79  C   UNL     1     -11.014  -8.941  17.388  1.00  0.00     0.009 A 
ATOM     80  C   UNL     1     -12.710  -7.263  16.988  1.00  0.00     0.009 A 
ATOM     81  C   UNL     1     -11.969  -9.750  18.010  1.00  0.00     0.001 A 
ATOM     82  C   UNL     1     -13.654  -8.061  17.635  1.00  0.00     0.001 A 
ATOM     83  C   UNL     1     -13.285  -9.308  18.137  1.00  0.00     0.000 A 
ENDBRANCH  65  78
ENDBRANCH  39  40
ENDBRANCH  32  34
ENDBRANCH  31  32
ENDBRANCH  30  31
ENDBRANCH  29  30
ENDBRANCH  28  29
ENDBRANCH   1  28
TORSDOF 20
