REMARK SMILES C[NH2+][C@@H](C)c1ccc(SCc2ccc(C(=O)OCCOCCOC(=O)c3ccc(-c4c5nc(c(-c6ccccc6)c6ccc([nH]6)c(-c6ccccc6)c6nc(c(-c7ccccc7)c7ccc4[nH]7)C=C6)C=C5)cc3)cc2)cc1
REMARK SMILES IDX 18 1 17 2 15 3 16 4 14 5 11 6 12 7 75 8 13 9 74 10 10 11
REMARK SMILES IDX 9 12 8 13 5 14 6 15 77 16 7 17 76 18 3 19 4 20 2 21 1 22
REMARK SMILES IDX 19 25 20 26 21 27 22 28 23 29 24 30 25 31 26 32 27 33 73 34
REMARK SMILES IDX 28 35 72 36 29 37 30 38 31 39 66 40 32 41 71 42 65 43 67 44
REMARK SMILES IDX 33 45 70 46 64 47 63 48 34 50 56 51 41 52 55 53 42 54 45 55
REMARK SMILES IDX 54 56 68 57 43 58 44 59 53 61 69 62 46 63 35 64 36 65 40 66
REMARK SMILES IDX 37 67 39 68 38 69 57 70 58 71 62 72 59 73 61 74 60 75 47 76
REMARK SMILES IDX 48 77 52 78 49 79 51 80 50 81
REMARK H PARENT 2 23 2 24 67 49 45 60
REMARK Flexibility Score: inf
ROOT
ATOM      1  C   UNL     1      -6.515  -8.018  -0.663  1.00  0.00     0.261 C 
ENDROOT
BRANCH   1   2
ATOM      2  O   UNL     1      -5.644  -7.987   0.480  1.00  0.00    -0.460 OA
BRANCH   2   3
ATOM      3  C   UNL     1      -4.920  -6.851   0.598  1.00  0.00     0.338 C 
ATOM      4  O   UNL     1      -4.800  -5.960  -0.231  1.00  0.00    -0.246 OA
BRANCH   3   5
ATOM      5  C   UNL     1      -4.404  -6.722   1.972  1.00  0.00     0.060 A 
ATOM      6  C   UNL     1      -3.188  -6.207   4.444  1.00  0.00    -0.038 A 
ATOM      7  C   UNL     1      -4.034  -5.257   3.858  1.00  0.00     0.005 A 
ATOM      8  C   UNL     1      -3.098  -7.481   3.845  1.00  0.00     0.005 A 
ATOM      9  C   UNL     1      -4.597  -5.493   2.608  1.00  0.00     0.016 A 
ATOM     10  C   UNL     1      -3.712  -7.746   2.616  1.00  0.00     0.016 A 
BRANCH   6  11
ATOM     11  C   UNL     1      -2.301  -5.917   5.640  1.00  0.00     0.110 C 
BRANCH  11  12
ATOM     12  S   UNL     1      -2.071  -4.186   6.181  1.00  0.00    -0.121 SA
BRANCH  12  13
ATOM     13  C   UNL     1      -1.617  -3.276   4.704  1.00  0.00     0.008 A 
ATOM     14  C   UNL     1      -1.129  -1.677   2.407  1.00  0.00     0.009 A 
ATOM     15  C   UNL     1      -1.589  -1.101   3.599  1.00  0.00     0.011 A 
ATOM     16  C   UNL     1      -0.887  -3.059   2.394  1.00  0.00     0.011 A 
ATOM     17  C   UNL     1      -1.835  -1.892   4.727  1.00  0.00     0.015 A 
ATOM     18  C   UNL     1      -1.109  -3.844   3.534  1.00  0.00     0.015 A 
BRANCH  14  19
ATOM     19  C   UNL     1      -0.849  -0.798   1.194  1.00  0.00     0.210 C 
ATOM     20  C   UNL     1      -1.565  -1.319  -0.061  1.00  0.00     0.081 C 
BRANCH  19  21
ATOM     21  N   UNL     1       0.606  -0.673   1.031  1.00  0.00    -0.343 N 
ATOM     22  C   UNL     1       1.009   0.244  -0.019  1.00  0.00     0.331 C 
ATOM     23  H   UNL     1       0.999  -0.344   1.913  1.00  0.00     0.346 HD
ATOM     24  H   UNL     1       0.952  -1.595   0.765  1.00  0.00     0.346 HD
ENDBRANCH  19  21
ENDBRANCH  14  19
ENDBRANCH  12  13
ENDBRANCH  11  12
ENDBRANCH   6  11
ENDBRANCH   3   5
ENDBRANCH   2   3
ENDBRANCH   1   2
BRANCH   1  25
ATOM     25  C   UNL     1      -7.985  -7.997  -0.235  1.00  0.00     0.202 C 
BRANCH  25  26
ATOM     26  O   UNL     1      -8.425  -6.826   0.454  1.00  0.00    -0.374 OA
BRANCH  26  27
ATOM     27  C   UNL     1      -8.134  -6.745   1.851  1.00  0.00     0.202 C 
BRANCH  27  28
ATOM     28  C   UNL     1      -9.051  -7.545   2.784  1.00  0.00     0.261 C 
BRANCH  28  29
ATOM     29  O   UNL     1      -8.867  -8.963   2.622  1.00  0.00    -0.460 OA
BRANCH  29  30
ATOM     30  C   UNL     1      -9.910  -9.613   2.057  1.00  0.00     0.338 C 
ATOM     31  O   UNL     1     -11.005  -9.152   1.768  1.00  0.00    -0.246 OA
BRANCH  30  32
ATOM     32  C   UNL     1      -9.493 -10.966   1.648  1.00  0.00     0.060 A 
ATOM     33  C   UNL     1      -9.742 -11.345   0.322  1.00  0.00     0.016 A 
ATOM     34  C   UNL     1      -8.929 -11.870   2.551  1.00  0.00     0.016 A 
ATOM     35  C   UNL     1      -9.474 -12.646  -0.094  1.00  0.00     0.010 A 
ATOM     36  C   UNL     1      -8.670 -13.180   2.134  1.00  0.00     0.010 A 
ATOM     37  C   UNL     1      -8.974 -13.582   0.820  1.00  0.00    -0.014 A 
BRANCH  37  38
ATOM     38  C   UNL     1      -8.906 -15.012   0.439  1.00  0.00     0.031 A 
ATOM     39  C   UNL     1     -10.011 -15.936   0.872  1.00  0.00     0.074 A 
ATOM     40  C   UNL     1      -7.890 -15.479  -0.307  1.00  0.00     0.049 A 
ATOM     41  N   UNL     1     -10.143 -17.222   0.669  1.00  0.00    -0.248 NA
ATOM     42  C   UNL     1     -11.113 -15.328   1.635  1.00  0.00     0.031 C 
ATOM     43  C   UNL     1      -6.784 -14.677  -0.828  1.00  0.00     0.029 A 
ATOM     44  N   UNL     1      -7.627 -16.749  -0.754  1.00  0.00    -0.354 N 
ATOM     45  C   UNL     1     -11.337 -17.579   1.284  1.00  0.00     0.074 A 
ATOM     46  C   UNL     1     -11.877 -16.381   1.889  1.00  0.00     0.031 C 
ATOM     47  C   UNL     1      -5.955 -15.478  -1.520  1.00  0.00     0.029 A 
ATOM     48  C   UNL     1      -6.456 -16.850  -1.464  1.00  0.00     0.049 A 
ATOM     49  H   UNL     1      -8.221 -17.515  -0.582  1.00  0.00     0.167 HD
ATOM     50  C   UNL     1     -11.933 -18.793   1.335  1.00  0.00     0.031 A 
ATOM     51  C   UNL     1      -5.848 -17.930  -1.990  1.00  0.00     0.031 A 
ATOM     52  C   UNL     1     -11.392 -19.988   0.747  1.00  0.00     0.049 A 
ATOM     53  C   UNL     1      -6.491 -19.283  -1.850  1.00  0.00     0.074 A 
ATOM     54  C   UNL     1     -11.930 -21.263   0.733  1.00  0.00     0.029 A 
ATOM     55  N   UNL     1     -10.182 -20.056   0.074  1.00  0.00    -0.354 N 
ATOM     56  N   UNL     1      -7.632 -19.603  -1.288  1.00  0.00    -0.248 NA
ATOM     57  C   UNL     1      -5.763 -20.424  -2.423  1.00  0.00     0.031 C 
ATOM     58  C   UNL     1     -11.019 -22.114   0.098  1.00  0.00     0.029 A 
ATOM     59  C   UNL     1      -9.942 -21.358  -0.333  1.00  0.00     0.049 A 
ATOM     60  H   UNL     1      -9.582 -19.293  -0.090  1.00  0.00     0.167 HD
ATOM     61  C   UNL     1      -7.770 -20.975  -1.463  1.00  0.00     0.074 A 
ATOM     62  C   UNL     1      -6.604 -21.424  -2.195  1.00  0.00     0.031 C 
ATOM     63  C   UNL     1      -8.774 -21.789  -1.057  1.00  0.00     0.031 A 
BRANCH  50  64
ATOM     64  C   UNL     1     -13.229 -18.893   2.090  1.00  0.00    -0.014 A 
ATOM     65  C   UNL     1     -14.416 -18.348   1.576  1.00  0.00     0.009 A 
ATOM     66  C   UNL     1     -13.267 -19.567   3.320  1.00  0.00     0.009 A 
ATOM     67  C   UNL     1     -15.609 -18.449   2.296  1.00  0.00     0.001 A 
ATOM     68  C   UNL     1     -14.465 -19.689   4.025  1.00  0.00     0.001 A 
ATOM     69  C   UNL     1     -15.633 -19.122   3.517  1.00  0.00     0.000 A 
ENDBRANCH  50  64
BRANCH  51  70
ATOM     70  C   UNL     1      -4.543 -17.784  -2.684  1.00  0.00    -0.014 A 
ATOM     71  C   UNL     1      -4.446 -17.957  -4.073  1.00  0.00     0.009 A 
ATOM     72  C   UNL     1      -3.381 -17.486  -1.954  1.00  0.00     0.009 A 
ATOM     73  C   UNL     1      -3.208 -17.859  -4.713  1.00  0.00     0.001 A 
ATOM     74  C   UNL     1      -2.150 -17.361  -2.600  1.00  0.00     0.001 A 
ATOM     75  C   UNL     1      -2.062 -17.557  -3.977  1.00  0.00     0.000 A 
ENDBRANCH  51  70
BRANCH  63  76
ATOM     76  C   UNL     1      -8.673 -23.244  -1.423  1.00  0.00    -0.014 A 
ATOM     77  C   UNL     1      -7.761 -24.095  -0.781  1.00  0.00     0.009 A 
ATOM     78  C   UNL     1      -9.533 -23.776  -2.397  1.00  0.00     0.009 A 
ATOM     79  C   UNL     1      -7.692 -25.446  -1.130  1.00  0.00     0.001 A 
ATOM     80  C   UNL     1      -9.480 -25.132  -2.724  1.00  0.00     0.001 A 
ATOM     81  C   UNL     1      -8.553 -25.963  -2.097  1.00  0.00     0.000 A 
ENDBRANCH  63  76
ENDBRANCH  37  38
ENDBRANCH  30  32
ENDBRANCH  29  30
ENDBRANCH  28  29
ENDBRANCH  27  28
ENDBRANCH  26  27
ENDBRANCH  25  26
ENDBRANCH   1  25
TORSDOF 19
