REMARK SMILES CC(C)[C@H](NC(=O)[C@H](C)NC(=O)C[NH3+])C(=O)OCCOCCOC(=O)c1ccc(-c2c3nc(c(-c4ccccc4)c4ccc([nH]4)c(-c4ccccc4)c4nc(c(-c5ccccc5)c5ccc2[nH]5)C=C4)C=C3)cc1
REMARK SMILES IDX 18 1 17 2 15 3 16 4 4 5 2 6 1 7 3 8 5 9 6 10 7 12 8 13 9 14
REMARK SMILES IDX 10 15 11 16 12 18 13 19 14 20 19 24 20 25 21 26 22 27 23 28
REMARK SMILES IDX 24 29 25 30 26 31 27 32 73 33 28 34 72 35 29 36 30 37 31 38
REMARK SMILES IDX 66 39 32 40 71 41 65 42 67 43 33 44 70 45 64 46 63 47 34 49
REMARK SMILES IDX 56 50 41 51 55 52 42 53 45 54 54 55 68 56 43 57 44 58 53 60
REMARK SMILES IDX 69 61 46 62 35 63 36 64 40 65 37 66 39 67 38 68 57 69 58 70
REMARK SMILES IDX 62 71 59 72 61 73 60 74 47 75 48 76 52 77 49 78 51 79 50 80
REMARK H PARENT 5 11 10 17 14 21 14 22 14 23 67 48 45 59
REMARK Flexibility Score: inf
ROOT
ATOM      1  C   UNL     1       1.524  -2.586   7.011  1.00  0.00     0.261 C 
ENDROOT
BRANCH   1   2
ATOM      2  O   UNL     1       0.625  -2.061   6.021  1.00  0.00    -0.462 OA
BRANCH   2   3
ATOM      3  C   UNL     1      -0.493  -2.812   5.820  1.00  0.00     0.328 C 
ATOM      4  O   UNL     1      -0.690  -3.900   6.351  1.00  0.00    -0.250 OA
BRANCH   3   5
ATOM      5  C   UNL     1      -1.522  -2.138   4.885  1.00  0.00     0.194 C 
BRANCH   5   6
ATOM      6  C   UNL     1      -1.959  -3.012   3.688  1.00  0.00     0.017 C 
ATOM      7  C   UNL     1      -2.248  -4.475   4.040  1.00  0.00     0.010 C 
ATOM      8  C   UNL     1      -3.182  -2.422   2.978  1.00  0.00     0.010 C 
ENDBRANCH   5   6
BRANCH   5   9
ATOM      9  N   UNL     1      -1.277  -0.717   4.542  1.00  0.00    -0.341 N 
ATOM     10  C   UNL     1      -0.427  -0.010   3.754  1.00  0.00     0.243 C 
ATOM     11  H   UNL     1      -1.903  -0.122   5.016  1.00  0.00     0.164 HD
ATOM     12  O   UNL     1      -0.614   1.214   3.758  1.00  0.00    -0.273 OA
BRANCH  10  13
ATOM     13  C   UNL     1       0.754  -0.632   2.975  1.00  0.00     0.168 C 
ATOM     14  C   UNL     1       1.566   0.475   2.290  1.00  0.00     0.041 C 
BRANCH  13  15
ATOM     15  N   UNL     1       0.328  -1.558   1.931  1.00  0.00    -0.340 N 
ATOM     16  C   UNL     1       0.852  -2.786   1.637  1.00  0.00     0.275 C 
ATOM     17  H   UNL     1      -0.426  -1.263   1.371  1.00  0.00     0.164 HD
ATOM     18  O   UNL     1       0.528  -3.341   0.586  1.00  0.00    -0.268 OA
BRANCH  16  19
ATOM     19  C   UNL     1       1.767  -3.473   2.653  1.00  0.00     0.360 C 
BRANCH  19  20
ATOM     20  N   UNL     1       3.130  -2.940   2.569  1.00  0.00    -0.350 N 
ATOM     21  H   UNL     1       3.504  -3.110   1.636  1.00  0.00     0.344 HD
ATOM     22  H   UNL     1       3.719  -3.403   3.261  1.00  0.00     0.344 HD
ATOM     23  H   UNL     1       3.115  -1.937   2.753  1.00  0.00     0.344 HD
ENDBRANCH  19  20
ENDBRANCH  16  19
ENDBRANCH  13  15
ENDBRANCH  10  13
ENDBRANCH   5   9
ENDBRANCH   3   5
ENDBRANCH   2   3
ENDBRANCH   1   2
BRANCH   1  24
ATOM     24  C   UNL     1       1.511  -1.770   8.306  1.00  0.00     0.202 C 
BRANCH  24  25
ATOM     25  O   UNL     1       0.249  -1.571   8.936  1.00  0.00    -0.374 OA
BRANCH  25  26
ATOM     26  C   UNL     1      -0.631  -0.591   8.384  1.00  0.00     0.202 C 
BRANCH  26  27
ATOM     27  C   UNL     1      -0.248   0.884   8.555  1.00  0.00     0.261 C 
BRANCH  27  28
ATOM     28  O   UNL     1       0.939   1.228   7.820  1.00  0.00    -0.460 OA
BRANCH  28  29
ATOM     29  C   UNL     1       1.993   1.588   8.586  1.00  0.00     0.338 C 
ATOM     30  O   UNL     1       2.016   1.709   9.806  1.00  0.00    -0.246 OA
BRANCH  29  31
ATOM     31  C   UNL     1       3.222   1.641   7.778  1.00  0.00     0.060 A 
ATOM     32  C   UNL     1       4.324   0.904   8.235  1.00  0.00     0.016 A 
ATOM     33  C   UNL     1       3.333   2.468   6.659  1.00  0.00     0.016 A 
ATOM     34  C   UNL     1       5.561   1.045   7.615  1.00  0.00     0.010 A 
ATOM     35  C   UNL     1       4.581   2.616   6.043  1.00  0.00     0.010 A 
ATOM     36  C   UNL     1       5.707   1.941   6.548  1.00  0.00    -0.014 A 
BRANCH  36  37
ATOM     37  C   UNL     1       7.071   2.289   6.085  1.00  0.00     0.031 A 
ATOM     38  C   UNL     1       7.718   3.543   6.607  1.00  0.00     0.074 A 
ATOM     39  C   UNL     1       7.747   1.473   5.258  1.00  0.00     0.049 A 
ATOM     40  N   UNL     1       8.906   4.030   6.353  1.00  0.00    -0.248 NA
ATOM     41  C   UNL     1       6.922   4.354   7.543  1.00  0.00     0.031 C 
ATOM     42  C   UNL     1       7.248   0.207   4.723  1.00  0.00     0.029 A 
ATOM     43  N   UNL     1       9.007   1.592   4.729  1.00  0.00    -0.354 N 
ATOM     44  C   UNL     1       8.997   5.204   7.091  1.00  0.00     0.074 A 
ATOM     45  C   UNL     1       7.736   5.371   7.780  1.00  0.00     0.031 C 
ATOM     46  C   UNL     1       8.195  -0.335   3.937  1.00  0.00     0.029 A 
ATOM     47  C   UNL     1       9.350   0.559   3.893  1.00  0.00     0.049 A 
ATOM     48  H   UNL     1       9.608   2.345   4.930  1.00  0.00     0.167 HD
ATOM     49  C   UNL     1      10.038   6.064   7.191  1.00  0.00     0.031 A 
ATOM     50  C   UNL     1      10.465   0.366   3.163  1.00  0.00     0.031 A 
ATOM     51  C   UNL     1      11.287   5.908   6.496  1.00  0.00     0.049 A 
ATOM     52  C   UNL     1      11.579   1.376   3.231  1.00  0.00     0.074 A 
ATOM     53  C   UNL     1      12.407   6.720   6.542  1.00  0.00     0.029 A 
ATOM     54  N   UNL     1      11.577   4.874   5.621  1.00  0.00    -0.354 N 
ATOM     55  N   UNL     1      11.662   2.468   3.953  1.00  0.00    -0.248 NA
ATOM     56  C   UNL     1      12.756   1.120   2.389  1.00  0.00     0.031 C 
ATOM     57  C   UNL     1      13.356   6.204   5.652  1.00  0.00     0.029 A 
ATOM     58  C   UNL     1      12.848   5.040   5.098  1.00  0.00     0.049 A 
ATOM     59  H   UNL     1      10.969   4.130   5.403  1.00  0.00     0.167 HD
ATOM     60  C   UNL     1      12.908   3.014   3.672  1.00  0.00     0.074 A 
ATOM     61  C   UNL     1      13.552   2.126   2.726  1.00  0.00     0.031 C 
ATOM     62  C   UNL     1      13.472   4.149   4.155  1.00  0.00     0.031 A 
BRANCH  49  63
ATOM     63  C   UNL     1       9.851   7.275   8.062  1.00  0.00    -0.014 A 
ATOM     64  C   UNL     1       9.823   7.171   9.461  1.00  0.00     0.009 A 
ATOM     65  C   UNL     1       9.730   8.543   7.472  1.00  0.00     0.009 A 
ATOM     66  C   UNL     1       9.645   8.310  10.251  1.00  0.00     0.001 A 
ATOM     67  C   UNL     1       9.578   9.682   8.264  1.00  0.00     0.001 A 
ATOM     68  C   UNL     1       9.527   9.564   9.652  1.00  0.00     0.000 A 
ENDBRANCH  49  63
BRANCH  50  69
ATOM     69  C   UNL     1      10.580  -0.827   2.284  1.00  0.00    -0.014 A 
ATOM     70  C   UNL     1      11.484  -1.857   2.586  1.00  0.00     0.009 A 
ATOM     71  C   UNL     1       9.794  -0.931   1.125  1.00  0.00     0.009 A 
ATOM     72  C   UNL     1      11.615  -2.955   1.732  1.00  0.00     0.001 A 
ATOM     73  C   UNL     1       9.908  -2.043   0.288  1.00  0.00     0.001 A 
ATOM     74  C   UNL     1      10.824  -3.049   0.588  1.00  0.00     0.000 A 
ENDBRANCH  50  69
BRANCH  62  75
ATOM     75  C   UNL     1      14.865   4.475   3.696  1.00  0.00    -0.014 A 
ATOM     76  C   UNL     1      15.115   4.933   2.393  1.00  0.00     0.009 A 
ATOM     77  C   UNL     1      15.937   4.359   4.595  1.00  0.00     0.009 A 
ATOM     78  C   UNL     1      16.418   5.235   1.990  1.00  0.00     0.001 A 
ATOM     79  C   UNL     1      17.234   4.689   4.197  1.00  0.00     0.001 A 
ATOM     80  C   UNL     1      17.474   5.117   2.893  1.00  0.00     0.000 A 
ENDBRANCH  62  75
ENDBRANCH  36  37
ENDBRANCH  29  31
ENDBRANCH  28  29
ENDBRANCH  27  28
ENDBRANCH  26  27
ENDBRANCH  25  26
ENDBRANCH  24  25
ENDBRANCH   1  24
TORSDOF 20
