REMARK SMILES N#CC1=C(N)N2C(=O)[C@@H](CC(=O)OCCOCCOC(=O)c3ccc(-c4c5nc(c(-c6ccccc6)c6ccc([nH]6)c(-c6ccccc6)c6nc(c(-c7ccccc7)c7ccc4[nH]7)C=C6)C=C5)cc3)SC2=C(C#N)[C@H]1c1ccc(Cl)cc1
REMARK SMILES IDX 16 1 15 2 14 3 13 4 11 5 12 6 10 7 9 8 3 9 4 10 75 11 6 12
REMARK SMILES IDX 72 13 7 14 71 15 8 16 70 17 2 18 1 19 5 20 76 23 77 24 82 25
REMARK SMILES IDX 78 26 81 27 79 28 80 29 73 30 74 31 17 32 18 33 19 34 20 35
REMARK SMILES IDX 21 36 22 37 23 38 69 39 24 40 68 41 25 42 26 43 27 44 62 45
REMARK SMILES IDX 28 46 67 47 61 48 63 49 29 50 66 51 60 52 59 53 30 55 52 56
REMARK SMILES IDX 37 57 51 58 38 59 41 60 50 61 64 62 39 63 40 64 49 66 65 67
REMARK SMILES IDX 42 68 31 69 32 70 36 71 33 72 35 73 34 74 53 75 54 76 58 77
REMARK SMILES IDX 55 78 57 79 56 80 43 81 44 82 48 83 45 84 47 85 46 86
REMARK H PARENT 5 21 5 22 63 54 41 65
REMARK Flexibility Score: inf
ROOT
ATOM      1  O   UNL     1       6.261  -3.454  -4.187  1.00  0.00    -0.374 OA
ENDROOT
BRANCH   1   2
ATOM      2  C   UNL     1       6.714  -4.670  -3.600  1.00  0.00     0.202 C 
BRANCH   2   3
ATOM      3  C   UNL     1       8.019  -4.612  -2.789  1.00  0.00     0.261 C 
BRANCH   3   4
ATOM      4  O   UNL     1       8.014  -3.662  -1.690  1.00  0.00    -0.463 OA
BRANCH   4   5
ATOM      5  C   UNL     1       8.959  -2.697  -1.771  1.00  0.00     0.307 C 
ATOM      6  O   UNL     1       9.782  -2.619  -2.681  1.00  0.00    -0.252 OA
BRANCH   5   7
ATOM      7  C   UNL     1       8.851  -1.559  -0.781  1.00  0.00     0.147 C 
BRANCH   7   8
ATOM      8  C   UNL     1       8.248  -1.653   0.618  1.00  0.00     0.154 C 
ATOM      9  C   UNL     1       3.852   0.064   0.031  1.00  0.00     0.083 C 
ATOM     10  C   UNL     1       4.535  -0.996   0.540  1.00  0.00     0.126 C 
ATOM     11  C   UNL     1       4.551   1.375  -0.317  1.00  0.00     0.107 C 
ATOM     12  N   UNL     1       5.934  -0.945   0.599  1.00  0.00    -0.258 N 
ATOM     13  C   UNL     1       5.924   1.439   0.340  1.00  0.00     0.073 C 
ATOM     14  C   UNL     1       6.783  -2.057   0.764  1.00  0.00     0.247 C 
ATOM     15  C   UNL     1       6.542   0.291   0.665  1.00  0.00     0.099 C 
ATOM     16  O   UNL     1       6.433  -3.209   1.004  1.00  0.00    -0.273 OA
ATOM     17  S   UNL     1       8.182   0.120   1.219  1.00  0.00    -0.093 SA
BRANCH   9  18
ATOM     18  C   UNL     1       2.332   0.064   0.031  1.00  0.00     0.100 C 
ATOM     19  N   UNL     1       1.071   0.064   0.031  1.00  0.00    -0.193 NA
ENDBRANCH   9  18
BRANCH  10  20
ATOM     20  N   UNL     1       3.897  -2.129   0.966  1.00  0.00    -0.384 N 
ATOM     21  H   UNL     1       2.914  -2.183   0.932  1.00  0.00     0.158 HD
ATOM     22  H   UNL     1       4.420  -2.890   1.306  1.00  0.00     0.158 HD
ENDBRANCH  10  20
BRANCH  11  23
ATOM     23  C   UNL     1       4.596   1.626  -1.837  1.00  0.00    -0.034 A 
ATOM     24  C   UNL     1       5.798   1.679  -2.572  1.00  0.00     0.006 A 
ATOM     25  C   UNL     1       3.396   1.845  -2.542  1.00  0.00     0.006 A 
ATOM     26  C   UNL     1       5.800   1.948  -3.945  1.00  0.00     0.021 A 
ATOM     27  C   UNL     1       3.397   2.084  -3.920  1.00  0.00     0.021 A 
ATOM     28  C   UNL     1       4.599   2.141  -4.615  1.00  0.00     0.041 A 
ATOM     29  Cl  UNL     1       4.602   2.461  -6.304  1.00  0.00    -0.084 Cl
ENDBRANCH  11  23
BRANCH  13  30
ATOM     30  C   UNL     1       6.533   2.713   0.521  1.00  0.00     0.098 C 
ATOM     31  N   UNL     1       7.011   3.765   0.649  1.00  0.00    -0.193 NA
ENDBRANCH  13  30
ENDBRANCH   7   8
ENDBRANCH   5   7
ENDBRANCH   4   5
ENDBRANCH   3   4
ENDBRANCH   2   3
ENDBRANCH   1   2
BRANCH   1  32
ATOM     32  C   UNL     1       5.861  -2.420  -3.297  1.00  0.00     0.202 C 
BRANCH  32  33
ATOM     33  C   UNL     1       4.769  -2.775  -2.287  1.00  0.00     0.261 C 
BRANCH  33  34
ATOM     34  O   UNL     1       5.156  -3.841  -1.398  1.00  0.00    -0.460 OA
BRANCH  34  35
ATOM     35  C   UNL     1       4.169  -4.708  -1.062  1.00  0.00     0.338 C 
ATOM     36  O   UNL     1       2.979  -4.581  -1.298  1.00  0.00    -0.246 OA
BRANCH  35  37
ATOM     37  C   UNL     1       4.720  -5.959  -0.494  1.00  0.00     0.060 A 
ATOM     38  C   UNL     1       4.852  -7.062  -1.345  1.00  0.00     0.016 A 
ATOM     39  C   UNL     1       4.917  -6.116   0.880  1.00  0.00     0.016 A 
ATOM     40  C   UNL     1       5.143  -8.325  -0.822  1.00  0.00     0.010 A 
ATOM     41  C   UNL     1       5.216  -7.386   1.403  1.00  0.00     0.010 A 
ATOM     42  C   UNL     1       5.293  -8.509   0.560  1.00  0.00    -0.014 A 
BRANCH  42  43
ATOM     43  C   UNL     1       5.423  -9.890   1.106  1.00  0.00     0.031 A 
ATOM     44  C   UNL     1       4.260 -10.532   1.823  1.00  0.00     0.074 A 
ATOM     45  C   UNL     1       6.548 -10.604   0.908  1.00  0.00     0.049 A 
ATOM     46  N   UNL     1       4.166 -11.731   2.344  1.00  0.00    -0.248 NA
ATOM     47  C   UNL     1       3.042  -9.720   1.968  1.00  0.00     0.031 C 
ATOM     48  C   UNL     1       7.733 -10.129   0.195  1.00  0.00     0.029 A 
ATOM     49  N   UNL     1       6.874 -11.886   1.282  1.00  0.00    -0.354 N 
ATOM     50  C   UNL     1       2.885 -11.816   2.880  1.00  0.00     0.074 A 
ATOM     51  C   UNL     1       2.252 -10.534   2.654  1.00  0.00     0.031 C 
ATOM     52  C   UNL     1       8.652 -11.110   0.173  1.00  0.00     0.029 A 
ATOM     53  C   UNL     1       8.142 -12.264   0.909  1.00  0.00     0.049 A 
ATOM     54  H   UNL     1       6.257 -12.478   1.771  1.00  0.00     0.167 HD
ATOM     55  C   UNL     1       2.285 -12.864   3.496  1.00  0.00     0.031 A 
ATOM     56  C   UNL     1       8.826 -13.401   1.149  1.00  0.00     0.031 A 
ATOM     57  C   UNL     1       2.914 -14.138   3.737  1.00  0.00     0.049 A 
ATOM     58  C   UNL     1       8.168 -14.515   1.921  1.00  0.00     0.074 A 
ATOM     59  C   UNL     1       2.376 -15.262   4.342  1.00  0.00     0.029 A 
ATOM     60  N   UNL     1       4.219 -14.456   3.396  1.00  0.00    -0.354 N 
ATOM     61  N   UNL     1       6.947 -14.589   2.392  1.00  0.00    -0.248 NA
ATOM     62  C   UNL     1       8.984 -15.711   2.184  1.00  0.00     0.031 C 
ATOM     63  C   UNL     1       3.378 -16.232   4.436  1.00  0.00     0.029 A 
ATOM     64  C   UNL     1       4.514 -15.745   3.812  1.00  0.00     0.049 A 
ATOM     65  H   UNL     1       4.843 -13.855   2.929  1.00  0.00     0.167 HD
ATOM     66  C   UNL     1       6.839 -15.848   2.974  1.00  0.00     0.074 A 
ATOM     67  C   UNL     1       8.110 -16.511   2.777  1.00  0.00     0.031 C 
ATOM     68  C   UNL     1       5.780 -16.403   3.612  1.00  0.00     0.031 A 
BRANCH  55  69
ATOM     69  C   UNL     1       0.875 -12.674   3.990  1.00  0.00    -0.014 A 
ATOM     70  C   UNL     1      -0.205 -12.553   3.101  1.00  0.00     0.009 A 
ATOM     71  C   UNL     1       0.615 -12.681   5.371  1.00  0.00     0.009 A 
ATOM     72  C   UNL     1      -1.508 -12.411   3.584  1.00  0.00     0.001 A 
ATOM     73  C   UNL     1      -0.691 -12.572   5.851  1.00  0.00     0.001 A 
ATOM     74  C   UNL     1      -1.751 -12.428   4.958  1.00  0.00     0.000 A 
ENDBRANCH  55  69
BRANCH  56  75
ATOM     75  C   UNL     1      10.236 -13.540   0.690  1.00  0.00    -0.014 A 
ATOM     76  C   UNL     1      10.597 -14.507  -0.262  1.00  0.00     0.009 A 
ATOM     77  C   UNL     1      11.243 -12.732   1.244  1.00  0.00     0.009 A 
ATOM     78  C   UNL     1      11.936 -14.688  -0.616  1.00  0.00     0.001 A 
ATOM     79  C   UNL     1      12.575 -12.888   0.858  1.00  0.00     0.001 A 
ATOM     80  C   UNL     1      12.923 -13.876  -0.060  1.00  0.00     0.000 A 
ENDBRANCH  56  75
BRANCH  68  81
ATOM     81  C   UNL     1       5.928 -17.820   4.104  1.00  0.00    -0.014 A 
ATOM     82  C   UNL     1       6.786 -18.148   5.166  1.00  0.00     0.009 A 
ATOM     83  C   UNL     1       5.162 -18.840   3.515  1.00  0.00     0.009 A 
ATOM     84  C   UNL     1       6.905 -19.471   5.597  1.00  0.00     0.001 A 
ATOM     85  C   UNL     1       5.254 -20.155   3.974  1.00  0.00     0.001 A 
ATOM     86  C   UNL     1       6.135 -20.472   5.005  1.00  0.00     0.000 A 
ENDBRANCH  68  81
ENDBRANCH  42  43
ENDBRANCH  35  37
ENDBRANCH  34  35
ENDBRANCH  33  34
ENDBRANCH  32  33
ENDBRANCH   1  32
TORSDOF 19
