REMARK SMILES CC(C)CN(C(=O)NC(=O)CCCC(=O)OCCOCCOC(=O)c1ccc(-c2c3nc(c(-c4ccccc4)c4ccc([nH]4)c(-c4ccccc4)c4nc(c(-c5ccccc5)c5ccc2[nH]5)C=C4)C=C3)cc1)C1CCCC1
REMARK SMILES IDX 17 1 16 2 14 3 15 4 13 5 12 6 11 7 9 8 6 9 7 10 8 11 10 13
REMARK SMILES IDX 5 14 4 15 2 16 1 17 3 18 73 19 74 20 77 21 75 22 76 23 18 24
REMARK SMILES IDX 19 25 20 26 21 27 22 28 23 29 24 30 25 31 26 32 72 33 27 34
REMARK SMILES IDX 71 35 28 36 29 37 30 38 65 39 31 40 70 41 64 42 66 43 32 44
REMARK SMILES IDX 69 45 63 46 62 47 33 49 55 50 40 51 54 52 41 53 44 54 53 55
REMARK SMILES IDX 67 56 42 57 43 58 52 60 68 61 45 62 34 63 35 64 39 65 36 66
REMARK SMILES IDX 38 67 37 68 56 69 57 70 61 71 58 72 60 73 59 74 46 75 47 76
REMARK SMILES IDX 51 77 48 78 50 79 49 80
REMARK H PARENT 8 12 66 48 44 59
REMARK Flexibility Score: inf
ROOT
ATOM      1  C   UNL     1      -1.474   0.950  -1.251  1.00  0.00     0.261 C 
ENDROOT
BRANCH   1   2
ATOM      2  O   UNL     1      -0.235   0.195  -0.739  1.00  0.00    -0.463 OA
BRANCH   2   3
ATOM      3  C   UNL     1       0.444  -1.013  -1.029  1.00  0.00     0.305 C 
ATOM      4  O   UNL     1       1.377  -0.951  -1.844  1.00  0.00    -0.252 OA
BRANCH   3   5
ATOM      5  C   UNL     1       0.224  -2.539  -0.294  1.00  0.00     0.123 C 
BRANCH   5   6
ATOM      6  C   UNL     1       0.088  -3.337   1.108  1.00  0.00     0.022 C 
BRANCH   6   7
ATOM      7  C   UNL     1      -0.843  -3.263   2.374  1.00  0.00     0.101 C 
BRANCH   7   8
ATOM      8  C   UNL     1      -2.341  -3.491   2.436  1.00  0.00     0.228 C 
ATOM      9  C   UNL     1      -2.951  -2.668   0.348  1.00  0.00     0.324 C 
ATOM     10  O   UNL     1      -3.535  -3.485  -0.368  1.00  0.00    -0.248 OA
ATOM     11  N   UNL     1      -3.172  -2.753   1.664  1.00  0.00    -0.278 N 
ATOM     12  H   UNL     1      -3.936  -2.281   2.069  1.00  0.00     0.174 HD
ATOM     13  O   UNL     1      -2.840  -4.236   3.282  1.00  0.00    -0.275 OA
BRANCH   9  14
ATOM     14  N   UNL     1      -2.126  -1.623  -0.126  1.00  0.00    -0.321 N 
BRANCH  14  15
ATOM     15  C   UNL     1      -1.448  -0.562   1.107  1.00  0.00     0.124 C 
BRANCH  15  16
ATOM     16  C   UNL     1       0.154  -0.411   1.817  1.00  0.00     0.002 C 
ATOM     17  C   UNL     1       1.473   0.147   1.207  1.00  0.00     0.009 C 
ATOM     18  C   UNL     1       0.027   0.351   3.155  1.00  0.00     0.009 C 
ENDBRANCH  15  16
ENDBRANCH  14  15
BRANCH  14  19
ATOM     19  C   UNL     1      -2.196  -1.729  -1.848  1.00  0.00     0.087 C 
ATOM     20  C   UNL     1      -3.633  -1.673  -2.470  1.00  0.00     0.025 C 
ATOM     21  C   UNL     1      -1.308  -1.185  -3.091  1.00  0.00     0.025 C 
ATOM     22  C   UNL     1      -3.463  -1.515  -3.992  1.00  0.00     0.002 C 
ATOM     23  C   UNL     1      -2.285  -0.600  -4.130  1.00  0.00     0.002 C 
ENDBRANCH  14  19
ENDBRANCH   9  14
ENDBRANCH   7   8
ENDBRANCH   6   7
ENDBRANCH   5   6
ENDBRANCH   3   5
ENDBRANCH   2   3
ENDBRANCH   1   2
BRANCH   1  24
ATOM     24  C   UNL     1      -1.665   2.474  -1.259  1.00  0.00     0.202 C 
BRANCH  24  25
ATOM     25  O   UNL     1      -0.595   3.333  -1.558  1.00  0.00    -0.374 OA
BRANCH  25  26
ATOM     26  C   UNL     1       0.523   3.221  -0.700  1.00  0.00     0.202 C 
BRANCH  26  27
ATOM     27  C   UNL     1       0.332   3.624   0.775  1.00  0.00     0.261 C 
BRANCH  27  28
ATOM     28  O   UNL     1      -0.904   3.204   1.397  1.00  0.00    -0.460 OA
BRANCH  28  29
ATOM     29  C   UNL     1      -1.795   4.185   1.600  1.00  0.00     0.338 C 
ATOM     30  O   UNL     1      -1.644   5.400   1.315  1.00  0.00    -0.246 OA
BRANCH  29  31
ATOM     31  C   UNL     1      -3.086   3.706   2.101  1.00  0.00     0.060 A 
ATOM     32  C   UNL     1      -4.231   4.026   1.353  1.00  0.00     0.016 A 
ATOM     33  C   UNL     1      -3.211   3.152   3.381  1.00  0.00     0.016 A 
ATOM     34  C   UNL     1      -5.494   3.895   1.918  1.00  0.00     0.010 A 
ATOM     35  C   UNL     1      -4.486   3.026   3.949  1.00  0.00     0.010 A 
ATOM     36  C   UNL     1      -5.623   3.465   3.245  1.00  0.00    -0.014 A 
BRANCH  36  37
ATOM     37  C   UNL     1      -6.905   3.725   3.947  1.00  0.00     0.031 A 
ATOM     38  C   UNL     1      -7.022   4.969   4.790  1.00  0.00     0.074 A 
ATOM     39  C   UNL     1      -7.968   2.923   3.769  1.00  0.00     0.049 A 
ATOM     40  N   UNL     1      -8.048   5.428   5.460  1.00  0.00    -0.248 NA
ATOM     41  C   UNL     1      -5.818   5.812   4.886  1.00  0.00     0.031 C 
ATOM     42  C   UNL     1      -7.990   1.725   2.933  1.00  0.00     0.029 A 
ATOM     43  N   UNL     1      -9.239   3.005   4.279  1.00  0.00    -0.354 N 
ATOM     44  C   UNL     1      -7.610   6.601   6.066  1.00  0.00     0.074 A 
ATOM     45  C   UNL     1      -6.220   6.770   5.707  1.00  0.00     0.031 C 
ATOM     46  C   UNL     1      -9.215   1.177   2.992  1.00  0.00     0.029 A 
ATOM     47  C   UNL     1     -10.052   1.970   3.890  1.00  0.00     0.049 A 
ATOM     48  H   UNL     1      -9.538   3.735   4.867  1.00  0.00     0.167 HD
ATOM     49  C   UNL     1      -8.302   7.463   6.849  1.00  0.00     0.031 A 
ATOM     50  C   UNL     1     -11.322   1.685   4.237  1.00  0.00     0.031 A 
ATOM     51  C   UNL     1      -9.683   7.283   7.210  1.00  0.00     0.049 A 
ATOM     52  C   UNL     1     -12.058   2.624   5.154  1.00  0.00     0.074 A 
ATOM     53  C   UNL     1     -10.488   8.101   7.982  1.00  0.00     0.029 A 
ATOM     54  N   UNL     1     -10.459   6.198   6.829  1.00  0.00    -0.354 N 
ATOM     55  N   UNL     1     -11.640   3.743   5.698  1.00  0.00    -0.248 NA
ATOM     56  C   UNL     1     -13.442   2.268   5.496  1.00  0.00     0.031 C 
ATOM     57  C   UNL     1     -11.734   7.478   8.120  1.00  0.00     0.029 A 
ATOM     58  C   UNL     1     -11.724   6.306   7.380  1.00  0.00     0.049 A 
ATOM     59  H   UNL     1     -10.155   5.461   6.252  1.00  0.00     0.167 HD
ATOM     60  C   UNL     1     -12.713   4.233   6.432  1.00  0.00     0.074 A 
ATOM     61  C   UNL     1     -13.807   3.300   6.245  1.00  0.00     0.031 C 
ATOM     62  C   UNL     1     -12.790   5.355   7.191  1.00  0.00     0.031 A 
BRANCH  49  63
ATOM     63  C   UNL     1      -7.553   8.641   7.411  1.00  0.00    -0.014 A 
ATOM     64  C   UNL     1      -7.121   9.701   6.596  1.00  0.00     0.009 A 
ATOM     65  C   UNL     1      -7.275   8.691   8.786  1.00  0.00     0.009 A 
ATOM     66  C   UNL     1      -6.388  10.759   7.140  1.00  0.00     0.001 A 
ATOM     67  C   UNL     1      -6.569   9.764   9.332  1.00  0.00     0.001 A 
ATOM     68  C   UNL     1      -6.115  10.791   8.507  1.00  0.00     0.000 A 
ENDBRANCH  49  63
BRANCH  50  69
ATOM     69  C   UNL     1     -11.960   0.440   3.732  1.00  0.00    -0.014 A 
ATOM     70  C   UNL     1     -13.000   0.485   2.792  1.00  0.00     0.009 A 
ATOM     71  C   UNL     1     -11.508  -0.812   4.181  1.00  0.00     0.009 A 
ATOM     72  C   UNL     1     -13.580  -0.697   2.321  1.00  0.00     0.001 A 
ATOM     73  C   UNL     1     -12.068  -1.991   3.687  1.00  0.00     0.001 A 
ATOM     74  C   UNL     1     -13.108  -1.933   2.762  1.00  0.00     0.000 A 
ENDBRANCH  50  69
BRANCH  62  75
ATOM     75  C   UNL     1     -14.106   5.641   7.859  1.00  0.00    -0.014 A 
ATOM     76  C   UNL     1     -14.549   4.879   8.952  1.00  0.00     0.009 A 
ATOM     77  C   UNL     1     -14.892   6.715   7.415  1.00  0.00     0.009 A 
ATOM     78  C   UNL     1     -15.771   5.167   9.562  1.00  0.00     0.001 A 
ATOM     79  C   UNL     1     -16.098   7.019   8.047  1.00  0.00     0.001 A 
ATOM     80  C   UNL     1     -16.542   6.239   9.113  1.00  0.00     0.000 A 
ENDBRANCH  62  75
ENDBRANCH  36  37
ENDBRANCH  29  31
ENDBRANCH  28  29
ENDBRANCH  27  28
ENDBRANCH  26  27
ENDBRANCH  25  26
ENDBRANCH  24  25
ENDBRANCH   1  24
TORSDOF 21
