REMARK SMILES Cc1c(NC(=O)[C@@H]2CC=CC[C@@H]2C(=O)OCCOCCOC(=O)c2ccc(-c3c4nc(c(-c5ccccc5)c5ccc([nH]5)c(-c5ccccc5)c5nc(c(-c6ccccc6)c6ccc3[nH]6)C=C5)C=C4)cc2)cccc1C(=O)N1CCOCC1
REMARK SMILES IDX 17 1 16 2 15 3 13 4 14 5 12 6 7 7 8 8 9 9 11 10 10 11 5 12
REMARK SMILES IDX 4 13 6 15 3 16 1 17 2 18 75 19 72 20 74 21 73 22 76 23 77 24
REMARK SMILES IDX 78 25 79 26 83 27 80 28 82 29 81 30 18 31 19 32 20 33 21 34
REMARK SMILES IDX 22 35 23 36 24 37 25 38 71 39 26 40 70 41 27 42 28 43 29 44
REMARK SMILES IDX 64 45 30 46 69 47 63 48 65 49 31 50 68 51 62 52 61 53 32 55
REMARK SMILES IDX 54 56 39 57 53 58 40 59 43 60 52 61 66 62 41 63 42 64 51 66
REMARK SMILES IDX 67 67 44 68 33 69 34 70 38 71 35 72 37 73 36 74 55 75 56 76
REMARK SMILES IDX 60 77 57 78 59 79 58 80 45 81 46 82 50 83 47 84 49 85 48 86
REMARK H PARENT 4 14 65 54 43 65
REMARK Flexibility Score: inf
ROOT
ATOM      1  C   UNL     1      -4.055  -1.825   1.495  1.00  0.00     0.202 C 
ENDROOT
BRANCH   1   2
ATOM      2  C   UNL     1      -3.889  -3.049   0.647  1.00  0.00     0.261 C 
BRANCH   2   3
ATOM      3  O   UNL     1      -2.662  -3.058  -0.107  1.00  0.00    -0.463 OA
BRANCH   3   4
ATOM      4  C   UNL     1      -2.341  -2.134  -1.060  1.00  0.00     0.310 C 
ATOM      5  O   UNL     1      -3.115  -1.542  -1.773  1.00  0.00    -0.252 OA
BRANCH   4   6
ATOM      6  C   UNL     1      -0.821  -1.927  -1.072  1.00  0.00     0.116 C 
ATOM      7  C   UNL     1      -0.049  -2.853  -0.079  1.00  0.00     0.097 C 
ATOM      8  C   UNL     1      -0.467  -2.559   1.384  1.00  0.00     0.041 C 
ATOM      9  C   UNL     1      -0.560  -1.086   1.666  1.00  0.00    -0.030 C 
ATOM     10  C   UNL     1      -0.524  -0.456  -0.760  1.00  0.00     0.043 C 
ATOM     11  C   UNL     1      -0.547  -0.146   0.711  1.00  0.00    -0.030 C 
BRANCH   7  12
ATOM     12  C   UNL     1      -0.218  -4.297  -0.539  1.00  0.00     0.228 C 
ATOM     13  N   UNL     1       0.139  -5.393   0.168  1.00  0.00    -0.326 N 
ATOM     14  H   UNL     1      -0.404  -6.184  -0.053  1.00  0.00     0.169 HD
ATOM     15  O   UNL     1      -0.677  -4.540  -1.661  1.00  0.00    -0.274 OA
BRANCH  13  16
ATOM     16  C   UNL     1       1.112  -5.653   1.148  1.00  0.00     0.044 A 
ATOM     17  C   UNL     1       0.166  -7.981   1.299  1.00  0.00     0.047 C 
ATOM     18  C   UNL     1       1.256  -6.991   1.608  1.00  0.00    -0.015 A 
ATOM     19  C   UNL     1       2.406  -7.336   2.356  1.00  0.00     0.045 A 
ATOM     20  C   UNL     1       2.008  -4.676   1.579  1.00  0.00     0.026 A 
ATOM     21  C   UNL     1       3.261  -6.306   2.792  1.00  0.00     0.014 A 
ATOM     22  C   UNL     1       3.040  -4.983   2.447  1.00  0.00     0.003 A 
BRANCH  19  23
ATOM     23  C   UNL     1       2.774  -8.694   2.877  1.00  0.00     0.254 C 
ATOM     24  O   UNL     1       3.523  -8.755   3.853  1.00  0.00    -0.269 OA
ATOM     25  N   UNL     1       2.206  -9.847   2.362  1.00  0.00    -0.334 N 
ATOM     26  C   UNL     1       2.277 -10.278   0.961  1.00  0.00     0.148 C 
ATOM     27  C   UNL     1       1.983 -10.938   3.302  1.00  0.00     0.148 C 
ATOM     28  C   UNL     1       1.102 -11.210   0.600  1.00  0.00     0.181 C 
ATOM     29  C   UNL     1       0.738 -11.715   2.889  1.00  0.00     0.181 C 
ATOM     30  O   UNL     1       0.909 -12.255   1.568  1.00  0.00    -0.378 OA
ENDBRANCH  19  23
ENDBRANCH  13  16
ENDBRANCH   7  12
ENDBRANCH   4   6
ENDBRANCH   3   4
ENDBRANCH   2   3
ENDBRANCH   1   2
BRANCH   1  31
ATOM     31  O   UNL     1      -4.239  -0.745   0.602  1.00  0.00    -0.374 OA
BRANCH  31  32
ATOM     32  C   UNL     1      -4.272   0.540   1.185  1.00  0.00     0.202 C 
BRANCH  32  33
ATOM     33  C   UNL     1      -5.375   0.688   2.240  1.00  0.00     0.261 C 
BRANCH  33  34
ATOM     34  O   UNL     1      -6.674   0.524   1.631  1.00  0.00    -0.460 OA
BRANCH  34  35
ATOM     35  C   UNL     1      -7.255  -0.699   1.781  1.00  0.00     0.338 C 
ATOM     36  O   UNL     1      -7.419  -1.277   2.844  1.00  0.00    -0.246 OA
BRANCH  35  37
ATOM     37  C   UNL     1      -7.393  -1.360   0.451  1.00  0.00     0.060 A 
ATOM     38  C   UNL     1      -7.718  -2.728   0.375  1.00  0.00     0.016 A 
ATOM     39  C   UNL     1      -6.842  -0.714  -0.653  1.00  0.00     0.016 A 
ATOM     40  C   UNL     1      -7.335  -3.476  -0.744  1.00  0.00     0.010 A 
ATOM     41  C   UNL     1      -6.328  -1.483  -1.670  1.00  0.00     0.010 A 
ATOM     42  C   UNL     1      -6.552  -2.865  -1.718  1.00  0.00    -0.014 A 
BRANCH  42  43
ATOM     43  C   UNL     1      -5.888  -3.536  -2.831  1.00  0.00     0.031 A 
ATOM     44  C   UNL     1      -6.385  -3.223  -4.179  1.00  0.00     0.074 A 
ATOM     45  C   UNL     1      -4.742  -4.240  -2.674  1.00  0.00     0.049 A 
ATOM     46  N   UNL     1      -6.174  -3.968  -5.205  1.00  0.00    -0.248 NA
ATOM     47  C   UNL     1      -7.250  -2.078  -4.482  1.00  0.00     0.031 C 
ATOM     48  C   UNL     1      -3.741  -4.621  -3.670  1.00  0.00     0.029 A 
ATOM     49  N   UNL     1      -4.244  -4.833  -1.512  1.00  0.00    -0.354 N 
ATOM     50  C   UNL     1      -6.456  -3.189  -6.297  1.00  0.00     0.074 A 
ATOM     51  C   UNL     1      -7.339  -2.166  -5.809  1.00  0.00     0.031 C 
ATOM     52  C   UNL     1      -2.978  -5.612  -3.168  1.00  0.00     0.029 A 
ATOM     53  C   UNL     1      -3.545  -5.983  -1.878  1.00  0.00     0.049 A 
ATOM     54  H   UNL     1      -4.365  -4.498  -0.594  1.00  0.00     0.167 HD
ATOM     55  C   UNL     1      -5.714  -3.363  -7.424  1.00  0.00     0.031 A 
ATOM     56  C   UNL     1      -3.980  -7.201  -1.461  1.00  0.00     0.031 A 
ATOM     57  C   UNL     1      -4.829  -4.543  -7.309  1.00  0.00     0.049 A 
ATOM     58  C   UNL     1      -4.362  -7.993  -2.675  1.00  0.00     0.074 A 
ATOM     59  C   UNL     1      -3.456  -4.728  -7.319  1.00  0.00     0.029 A 
ATOM     60  N   UNL     1      -5.355  -5.745  -6.819  1.00  0.00    -0.354 N 
ATOM     61  N   UNL     1      -4.614  -7.435  -3.829  1.00  0.00    -0.248 NA
ATOM     62  C   UNL     1      -4.435  -9.441  -2.731  1.00  0.00     0.031 C 
ATOM     63  C   UNL     1      -3.176  -6.039  -6.810  1.00  0.00     0.029 A 
ATOM     64  C   UNL     1      -4.375  -6.675  -6.526  1.00  0.00     0.049 A 
ATOM     65  H   UNL     1      -6.318  -5.910  -6.697  1.00  0.00     0.167 HD
ATOM     66  C   UNL     1      -4.707  -8.381  -4.796  1.00  0.00     0.074 A 
ATOM     67  C   UNL     1      -4.708  -9.628  -4.037  1.00  0.00     0.031 C 
ATOM     68  C   UNL     1      -4.748  -8.041  -6.122  1.00  0.00     0.031 A 
BRANCH  55  69
ATOM     69  C   UNL     1      -5.634  -2.319  -8.527  1.00  0.00    -0.014 A 
ATOM     70  C   UNL     1      -4.832  -2.556  -9.655  1.00  0.00     0.009 A 
ATOM     71  C   UNL     1      -6.270  -1.057  -8.503  1.00  0.00     0.009 A 
ATOM     72  C   UNL     1      -4.690  -1.607 -10.684  1.00  0.00     0.001 A 
ATOM     73  C   UNL     1      -6.161  -0.117  -9.537  1.00  0.00     0.001 A 
ATOM     74  C   UNL     1      -5.365  -0.392 -10.632  1.00  0.00     0.000 A 
ENDBRANCH  55  69
BRANCH  56  75
ATOM     75  C   UNL     1      -4.625  -7.171  -0.107  1.00  0.00    -0.014 A 
ATOM     76  C   UNL     1      -3.796  -6.943   1.015  1.00  0.00     0.009 A 
ATOM     77  C   UNL     1      -5.994  -6.927   0.052  1.00  0.00     0.009 A 
ATOM     78  C   UNL     1      -4.289  -6.398   2.210  1.00  0.00     0.001 A 
ATOM     79  C   UNL     1      -6.487  -6.362   1.244  1.00  0.00     0.001 A 
ATOM     80  C   UNL     1      -5.633  -6.066   2.307  1.00  0.00     0.000 A 
ENDBRANCH  56  75
BRANCH  68  81
ATOM     81  C   UNL     1      -5.230  -8.976  -7.195  1.00  0.00    -0.014 A 
ATOM     82  C   UNL     1      -5.179 -10.368  -7.129  1.00  0.00     0.009 A 
ATOM     83  C   UNL     1      -5.849  -8.422  -8.337  1.00  0.00     0.009 A 
ATOM     84  C   UNL     1      -5.866 -11.160  -8.054  1.00  0.00     0.001 A 
ATOM     85  C   UNL     1      -6.507  -9.203  -9.281  1.00  0.00     0.001 A 
ATOM     86  C   UNL     1      -6.551 -10.576  -9.114  1.00  0.00     0.000 A 
ENDBRANCH  68  81
ENDBRANCH  42  43
ENDBRANCH  35  37
ENDBRANCH  34  35
ENDBRANCH  33  34
ENDBRANCH  32  33
ENDBRANCH  31  32
ENDBRANCH   1  31
TORSDOF 17
