REMARK SMILES O=C(OCCOCCOC(=O)c1cc(-c2cccc(Cl)c2)oc1C(F)(F)F)c1ccc(-c2c3nc(c(-c4ccccc4)c4ccc([nH]4)c(-c4ccccc4)c4nc(c(-c5ccccc5)c5ccc2[nH]5)C=C4)C=C3)cc1
REMARK SMILES IDX 5 1 4 2 3 3 2 4 1 5 28 6 29 7 75 8 30 9 74 10 31 11 32 12
REMARK SMILES IDX 33 13 68 14 34 15 73 16 67 17 69 18 35 19 72 20 66 21 65 22
REMARK SMILES IDX 36 24 58 25 43 26 57 27 44 28 47 29 56 30 70 31 45 32 46 33
REMARK SMILES IDX 55 35 71 36 48 37 37 38 38 39 42 40 39 41 41 42 40 43 59 44
REMARK SMILES IDX 60 45 64 46 61 47 63 48 62 49 49 50 50 51 54 52 51 53 53 54
REMARK SMILES IDX 52 55 6 56 7 57 8 58 9 59 10 60 11 61 12 62 13 63 23 64
REMARK SMILES IDX 14 65 22 66 24 67 25 68 26 69 27 70 15 71 16 72 21 73 17 74
REMARK SMILES IDX 19 75 18 76 20 77
REMARK H PARENT 69 23 47 34
REMARK Flexibility Score: inf
ROOT
ATOM      1  C   UNL     1       3.954  -1.035  -1.202  1.00  0.00     0.202 C 
ENDROOT
BRANCH   1   2
ATOM      2  C   UNL     1       3.662  -1.480   0.230  1.00  0.00     0.261 C 
BRANCH   2   3
ATOM      3  O   UNL     1       2.309  -1.153   0.582  1.00  0.00    -0.460 OA
BRANCH   3   4
ATOM      4  C   UNL     1       1.844  -0.022   1.161  1.00  0.00     0.338 C 
ATOM      5  O   UNL     1       0.625   0.126   1.248  1.00  0.00    -0.246 OA
BRANCH   4   6
ATOM      6  C   UNL     1       2.712   1.046   1.751  1.00  0.00     0.060 A 
ATOM      7  C   UNL     1       4.002   1.379   1.331  1.00  0.00     0.016 A 
ATOM      8  C   UNL     1       2.135   1.829   2.768  1.00  0.00     0.016 A 
ATOM      9  C   UNL     1       4.717   2.411   1.922  1.00  0.00     0.010 A 
ATOM     10  C   UNL     1       2.838   2.885   3.358  1.00  0.00     0.010 A 
ATOM     11  C   UNL     1       4.144   3.159   2.945  1.00  0.00    -0.014 A 
BRANCH  11  12
ATOM     12  C   UNL     1       5.011   4.118   3.648  1.00  0.00     0.031 A 
ATOM     13  C   UNL     1       5.640   3.683   4.935  1.00  0.00     0.074 A 
ATOM     14  C   UNL     1       5.352   5.270   3.047  1.00  0.00     0.049 A 
ATOM     15  N   UNL     1       6.485   4.320   5.699  1.00  0.00    -0.248 NA
ATOM     16  C   UNL     1       5.286   2.335   5.414  1.00  0.00     0.031 C 
ATOM     17  C   UNL     1       4.888   5.702   1.726  1.00  0.00     0.029 A 
ATOM     18  N   UNL     1       6.208   6.261   3.442  1.00  0.00    -0.354 N 
ATOM     19  C   UNL     1       6.745   3.462   6.759  1.00  0.00     0.074 A 
ATOM     20  C   UNL     1       5.971   2.261   6.544  1.00  0.00     0.031 C 
ATOM     21  C   UNL     1       5.499   6.854   1.404  1.00  0.00     0.029 A 
ATOM     22  C   UNL     1       6.350   7.265   2.515  1.00  0.00     0.049 A 
ATOM     23  H   UNL     1       6.677   6.256   4.308  1.00  0.00     0.167 HD
ATOM     24  C   UNL     1       7.551   3.669   7.825  1.00  0.00     0.031 A 
ATOM     25  C   UNL     1       7.082   8.392   2.575  1.00  0.00     0.031 A 
ATOM     26  C   UNL     1       8.295   4.880   8.027  1.00  0.00     0.049 A 
ATOM     27  C   UNL     1       7.897   8.640   3.815  1.00  0.00     0.074 A 
ATOM     28  C   UNL     1       9.080   5.250   9.102  1.00  0.00     0.029 A 
ATOM     29  N   UNL     1       8.339   5.926   7.114  1.00  0.00    -0.354 N 
ATOM     30  N   UNL     1       8.080   7.857   4.852  1.00  0.00    -0.248 NA
ATOM     31  C   UNL     1       8.596   9.928   3.898  1.00  0.00     0.031 C 
ATOM     32  C   UNL     1       9.566   6.539   8.857  1.00  0.00     0.029 A 
ATOM     33  C   UNL     1       9.127   6.949   7.607  1.00  0.00     0.049 A 
ATOM     34  H   UNL     1       7.878   5.937   6.245  1.00  0.00     0.167 HD
ATOM     35  C   UNL     1       8.931   8.547   5.704  1.00  0.00     0.074 A 
ATOM     36  C   UNL     1       9.241   9.804   5.050  1.00  0.00     0.031 C 
ATOM     37  C   UNL     1       9.411   8.182   6.918  1.00  0.00     0.031 A 
BRANCH  24  38
ATOM     38  C   UNL     1       7.570   2.595   8.873  1.00  0.00    -0.014 A 
ATOM     39  C   UNL     1       8.219   1.368   8.662  1.00  0.00     0.009 A 
ATOM     40  C   UNL     1       6.870   2.795  10.073  1.00  0.00     0.009 A 
ATOM     41  C   UNL     1       8.127   0.348   9.613  1.00  0.00     0.001 A 
ATOM     42  C   UNL     1       6.799   1.783  11.031  1.00  0.00     0.001 A 
ATOM     43  C   UNL     1       7.417   0.556  10.795  1.00  0.00     0.000 A 
ENDBRANCH  24  38
BRANCH  25  44
ATOM     44  C   UNL     1       7.050   9.375   1.459  1.00  0.00    -0.014 A 
ATOM     45  C   UNL     1       8.194   9.632   0.689  1.00  0.00     0.009 A 
ATOM     46  C   UNL     1       5.868  10.075   1.163  1.00  0.00     0.009 A 
ATOM     47  C   UNL     1       8.161  10.582  -0.336  1.00  0.00     0.001 A 
ATOM     48  C   UNL     1       5.829  11.003   0.120  1.00  0.00     0.001 A 
ATOM     49  C   UNL     1       6.979  11.263  -0.623  1.00  0.00     0.000 A 
ENDBRANCH  25  44
BRANCH  37  50
ATOM     50  C   UNL     1      10.349   9.143   7.587  1.00  0.00    -0.014 A 
ATOM     51  C   UNL     1       9.880  10.326   8.176  1.00  0.00     0.009 A 
ATOM     52  C   UNL     1      11.716   8.833   7.661  1.00  0.00     0.009 A 
ATOM     53  C   UNL     1      10.772  11.200   8.799  1.00  0.00     0.001 A 
ATOM     54  C   UNL     1      12.600   9.695   8.309  1.00  0.00     0.001 A 
ATOM     55  C   UNL     1      12.128  10.881   8.869  1.00  0.00     0.000 A 
ENDBRANCH  37  50
ENDBRANCH  11  12
ENDBRANCH   4   6
ENDBRANCH   3   4
ENDBRANCH   2   3
ENDBRANCH   1   2
BRANCH   1  56
ATOM     56  O   UNL     1       3.727   0.358  -1.405  1.00  0.00    -0.374 OA
BRANCH  56  57
ATOM     57  C   UNL     1       2.491   0.724  -2.019  1.00  0.00     0.202 C 
BRANCH  57  58
ATOM     58  C   UNL     1       2.799   1.508  -3.296  1.00  0.00     0.261 C 
BRANCH  58  59
ATOM     59  O   UNL     1       3.401   0.616  -4.245  1.00  0.00    -0.460 OA
BRANCH  59  60
ATOM     60  C   UNL     1       4.735   0.381  -4.077  1.00  0.00     0.342 C 
ATOM     61  O   UNL     1       5.517   1.103  -3.478  1.00  0.00    -0.246 OA
BRANCH  60  62
ATOM     62  C   UNL     1       5.094  -0.892  -4.661  1.00  0.00     0.111 A 
ATOM     63  C   UNL     1       4.400  -1.552  -5.710  1.00  0.00     0.067 A 
ATOM     64  C   UNL     1       6.141  -1.731  -4.304  1.00  0.00     0.223 A 
ATOM     65  C   UNL     1       5.111  -2.687  -6.003  1.00  0.00     0.135 A 
ATOM     66  O   UNL     1       6.136  -2.839  -5.124  1.00  0.00    -0.451 OA
BRANCH  64  67
ATOM     67  C   UNL     1       7.190  -1.712  -3.248  1.00  0.00     0.450 C 
ATOM     68  F   UNL     1       6.961  -2.685  -2.321  1.00  0.00    -0.163 F 
ATOM     69  F   UNL     1       8.430  -1.940  -3.752  1.00  0.00    -0.163 F 
ATOM     70  F   UNL     1       7.258  -0.551  -2.556  1.00  0.00    -0.163 F 
ENDBRANCH  64  67
BRANCH  65  71
ATOM     71  C   UNL     1       5.029  -3.617  -7.107  1.00  0.00     0.019 A 
ATOM     72  C   UNL     1       4.983  -3.088  -8.407  1.00  0.00     0.012 A 
ATOM     73  C   UNL     1       4.962  -4.999  -6.921  1.00  0.00     0.032 A 
ATOM     74  C   UNL     1       4.874  -3.924  -9.514  1.00  0.00     0.002 A 
ATOM     75  C   UNL     1       4.840  -5.832  -8.035  1.00  0.00     0.041 A 
ATOM     76  C   UNL     1       4.798  -5.301  -9.326  1.00  0.00     0.020 A 
ATOM     77  Cl  UNL     1       4.724  -7.535  -7.819  1.00  0.00    -0.084 Cl
ENDBRANCH  65  71
ENDBRANCH  60  62
ENDBRANCH  59  60
ENDBRANCH  58  59
ENDBRANCH  57  58
ENDBRANCH  56  57
ENDBRANCH   1  56
TORSDOF 16
