REMARK SMILES O=C(CS[C@H](C(=O)Nc1ccc(C(F)(F)F)cc1)c1ccccc1)OCCOCCOC(=O)c1ccc(-c2c3nc(c(-c4ccccc4)c4ccc([nH]4)c(-c4ccccc4)c4nc(c(-c5ccccc5)c5ccc2[nH]5)C=C4)C=C3)cc1
REMARK SMILES IDX 26 1 25 2 2 3 1 4 3 5 4 6 5 7 19 8 20 9 24 10 21 11 23 12
REMARK SMILES IDX 22 13 6 14 7 15 8 16 9 18 10 19 18 20 11 21 17 22 12 23
REMARK SMILES IDX 13 24 14 25 15 26 16 27 27 28 28 29 29 30 30 31 31 32 32 33
REMARK SMILES IDX 33 34 34 35 35 36 81 37 36 38 80 39 37 40 38 41 39 42 74 43
REMARK SMILES IDX 40 44 79 45 73 46 75 47 41 48 78 49 72 50 71 51 42 53 64 54
REMARK SMILES IDX 49 55 63 56 50 57 53 58 62 59 76 60 51 61 52 62 61 64 77 65
REMARK SMILES IDX 54 66 43 67 44 68 48 69 45 70 47 71 46 72 65 73 66 74 70 75
REMARK SMILES IDX 67 76 69 77 68 78 55 79 56 80 60 81 57 82 59 83 58 84
REMARK H PARENT 8 17 75 52 53 63
REMARK Flexibility Score: inf
ROOT
ATOM      1  C   UNL     1       1.860   0.507   1.312  1.00  0.00     0.261 C 
ENDROOT
BRANCH   1   2
ATOM      2  O   UNL     1       0.526   0.430   1.834  1.00  0.00    -0.463 OA
BRANCH   2   3
ATOM      3  C   UNL     1       0.169  -0.072   3.036  1.00  0.00     0.316 C 
ATOM      4  O   UNL     1      -0.984  -0.465   3.203  1.00  0.00    -0.251 OA
BRANCH   3   5
ATOM      5  C   UNL     1       1.185  -0.051   4.144  1.00  0.00     0.193 C 
BRANCH   5   6
ATOM      6  S   UNL     1       1.588  -1.706   4.815  1.00  0.00    -0.132 SA
BRANCH   6   7
ATOM      7  C   UNL     1       2.841  -2.441   3.635  1.00  0.00     0.166 C 
BRANCH   7   8
ATOM      8  C   UNL     1       2.147  -3.398   2.671  1.00  0.00    -0.026 A 
ATOM      9  C   UNL     1       1.255  -2.999   1.664  1.00  0.00     0.005 A 
ATOM     10  C   UNL     1       2.364  -4.785   2.813  1.00  0.00     0.005 A 
ATOM     11  C   UNL     1       0.645  -3.928   0.809  1.00  0.00     0.000 A 
ATOM     12  C   UNL     1       1.760  -5.715   1.959  1.00  0.00     0.000 A 
ATOM     13  C   UNL     1       0.905  -5.285   0.951  1.00  0.00     0.000 A 
ENDBRANCH   7   8
BRANCH   7  14
ATOM     14  C   UNL     1       3.939  -1.435   3.198  1.00  0.00     0.242 C 
ATOM     15  O   UNL     1       4.038  -0.320   3.736  1.00  0.00    -0.273 OA
ATOM     16  N   UNL     1       4.994  -1.689   2.369  1.00  0.00    -0.325 N 
ATOM     17  H   UNL     1       5.605  -0.926   2.253  1.00  0.00     0.169 HD
BRANCH  16  18
ATOM     18  C   UNL     1       5.364  -2.825   1.660  1.00  0.00     0.041 A 
ATOM     19  C   UNL     1       6.668  -3.292   1.818  1.00  0.00     0.027 A 
ATOM     20  C   UNL     1       4.510  -3.480   0.789  1.00  0.00     0.027 A 
ATOM     21  C   UNL     1       7.024  -4.541   1.306  1.00  0.00     0.015 A 
ATOM     22  C   UNL     1       4.852  -4.735   0.292  1.00  0.00     0.015 A 
ATOM     23  C   UNL     1       6.085  -5.312   0.610  1.00  0.00     0.056 A 
BRANCH  23  24
ATOM     24  C   UNL     1       6.378  -6.742   0.235  1.00  0.00     0.416 C 
ATOM     25  F   UNL     1       7.106  -6.855  -0.905  1.00  0.00    -0.166 F 
ATOM     26  F   UNL     1       7.086  -7.391   1.203  1.00  0.00    -0.166 F 
ATOM     27  F   UNL     1       5.252  -7.486   0.049  1.00  0.00    -0.166 F 
ENDBRANCH  23  24
ENDBRANCH  16  18
ENDBRANCH   7  14
ENDBRANCH   6   7
ENDBRANCH   5   6
ENDBRANCH   3   5
ENDBRANCH   2   3
ENDBRANCH   1   2
BRANCH   1  28
ATOM     28  C   UNL     1       2.475   1.905   1.249  1.00  0.00     0.202 C 
BRANCH  28  29
ATOM     29  O   UNL     1       1.619   3.034   1.270  1.00  0.00    -0.374 OA
BRANCH  29  30
ATOM     30  C   UNL     1       0.399   3.008   0.542  1.00  0.00     0.202 C 
BRANCH  30  31
ATOM     31  C   UNL     1       0.471   2.831  -0.978  1.00  0.00     0.261 C 
BRANCH  31  32
ATOM     32  O   UNL     1       0.956   1.544  -1.412  1.00  0.00    -0.460 OA
BRANCH  32  33
ATOM     33  C   UNL     1       2.103   1.563  -2.128  1.00  0.00     0.338 C 
ATOM     34  O   UNL     1       2.829   2.526  -2.344  1.00  0.00    -0.246 OA
BRANCH  33  35
ATOM     35  C   UNL     1       2.439   0.215  -2.617  1.00  0.00     0.060 A 
ATOM     36  C   UNL     1       3.595  -0.420  -2.144  1.00  0.00     0.016 A 
ATOM     37  C   UNL     1       1.703  -0.344  -3.663  1.00  0.00     0.016 A 
ATOM     38  C   UNL     1       4.034  -1.609  -2.741  1.00  0.00     0.010 A 
ATOM     39  C   UNL     1       2.151  -1.525  -4.264  1.00  0.00     0.010 A 
ATOM     40  C   UNL     1       3.332  -2.151  -3.827  1.00  0.00    -0.014 A 
BRANCH  40  41
ATOM     41  C   UNL     1       3.844  -3.327  -4.577  1.00  0.00     0.031 A 
ATOM     42  C   UNL     1       4.555  -3.126  -5.887  1.00  0.00     0.074 A 
ATOM     43  C   UNL     1       3.605  -4.574  -4.133  1.00  0.00     0.049 A 
ATOM     44  N   UNL     1       4.907  -4.016  -6.781  1.00  0.00    -0.248 NA
ATOM     45  C   UNL     1       4.905  -1.742  -6.243  1.00  0.00     0.031 C 
ATOM     46  C   UNL     1       2.942  -4.909  -2.875  1.00  0.00     0.029 A 
ATOM     47  N   UNL     1       3.867  -5.792  -4.711  1.00  0.00    -0.354 N 
ATOM     48  C   UNL     1       5.489  -3.300  -7.819  1.00  0.00     0.074 A 
ATOM     49  C   UNL     1       5.450  -1.903  -7.442  1.00  0.00     0.031 C 
ATOM     50  C   UNL     1       2.835  -6.245  -2.782  1.00  0.00     0.029 A 
ATOM     51  C   UNL     1       3.365  -6.855  -4.000  1.00  0.00     0.049 A 
ATOM     52  H   UNL     1       4.367  -5.894  -5.554  1.00  0.00     0.167 HD
ATOM     53  C   UNL     1       5.995  -3.764  -8.987  1.00  0.00     0.031 A 
ATOM     54  C   UNL     1       3.287  -8.162  -4.315  1.00  0.00     0.031 A 
ATOM     55  C   UNL     1       6.035  -5.151  -9.368  1.00  0.00     0.049 A 
ATOM     56  C   UNL     1       3.792  -8.640  -5.651  1.00  0.00     0.074 A 
ATOM     57  C   UNL     1       6.574  -5.713 -10.513  1.00  0.00     0.029 A 
ATOM     58  N   UNL     1       5.504  -6.190  -8.624  1.00  0.00    -0.354 N 
ATOM     59  N   UNL     1       4.371  -7.957  -6.609  1.00  0.00    -0.248 NA
ATOM     60  C   UNL     1       3.613 -10.068  -5.956  1.00  0.00     0.031 C 
ATOM     61  C   UNL     1       6.316  -7.087 -10.490  1.00  0.00     0.029 A 
ATOM     62  C   UNL     1       5.663  -7.385  -9.306  1.00  0.00     0.049 A 
ATOM     63  H   UNL     1       5.077  -6.094  -7.742  1.00  0.00     0.167 HD
ATOM     64  C   UNL     1       4.633  -8.873  -7.621  1.00  0.00     0.074 A 
ATOM     65  C   UNL     1       4.173 -10.163  -7.154  1.00  0.00     0.031 C 
ATOM     66  C   UNL     1       5.198  -8.662  -8.834  1.00  0.00     0.031 A 
BRANCH  53  67
ATOM     67  C   UNL     1       6.515  -2.760  -9.975  1.00  0.00    -0.014 A 
ATOM     68  C   UNL     1       7.758  -2.135  -9.797  1.00  0.00     0.009 A 
ATOM     69  C   UNL     1       5.784  -2.504 -11.147  1.00  0.00     0.009 A 
ATOM     70  C   UNL     1       8.251  -1.260 -10.768  1.00  0.00     0.001 A 
ATOM     71  C   UNL     1       6.289  -1.645 -12.124  1.00  0.00     0.001 A 
ATOM     72  C   UNL     1       7.520  -1.021 -11.932  1.00  0.00     0.000 A 
ENDBRANCH  53  67
BRANCH  54  73
ATOM     73  C   UNL     1       2.626  -9.117  -3.387  1.00  0.00    -0.014 A 
ATOM     74  C   UNL     1       3.368 -10.116  -2.739  1.00  0.00     0.009 A 
ATOM     75  C   UNL     1       1.238  -9.063  -3.184  1.00  0.00     0.009 A 
ATOM     76  C   UNL     1       2.727 -11.060  -1.932  1.00  0.00     0.001 A 
ATOM     77  C   UNL     1       0.605  -9.987  -2.352  1.00  0.00     0.001 A 
ATOM     78  C   UNL     1       1.349 -10.992  -1.736  1.00  0.00     0.000 A 
ENDBRANCH  54  73
BRANCH  66  79
ATOM     79  C   UNL     1       5.368  -9.851  -9.736  1.00  0.00    -0.014 A 
ATOM     80  C   UNL     1       4.270 -10.415 -10.405  1.00  0.00     0.009 A 
ATOM     81  C   UNL     1       6.648 -10.382  -9.960  1.00  0.00     0.009 A 
ATOM     82  C   UNL     1       4.449 -11.504 -11.261  1.00  0.00     0.001 A 
ATOM     83  C   UNL     1       6.827 -11.454 -10.836  1.00  0.00     0.001 A 
ATOM     84  C   UNL     1       5.727 -12.018 -11.480  1.00  0.00     0.000 A 
ENDBRANCH  66  79
ENDBRANCH  40  41
ENDBRANCH  33  35
ENDBRANCH  32  33
ENDBRANCH  31  32
ENDBRANCH  30  31
ENDBRANCH  29  30
ENDBRANCH  28  29
ENDBRANCH   1  28
TORSDOF 20
