REMARK SMILES C[C@H]1[C@H](C(=O)OCCOCCOC(=O)c2ccc(-c3c4nc(c(-c5ccccc5)c5ccc([nH]5)c(-c5ccccc5)c5nc(c(-c6ccccc6)c6ccc3[nH]6)C=C5)C=C4)cc2)CCN1C(=O)[C@H]1CC[C@@H](C[NH3+])CC1
REMARK SMILES IDX 8 1 7 2 6 3 4 4 5 5 3 6 1 7 2 8 65 9 63 10 64 11 66 12 67 13
REMARK SMILES IDX 68 14 75 15 69 16 74 17 70 18 71 19 72 20 73 21 9 25 10 26
REMARK SMILES IDX 11 27 12 28 13 29 14 30 15 31 16 32 62 33 17 34 61 35 18 36
REMARK SMILES IDX 19 37 20 38 55 39 21 40 60 41 54 42 56 43 22 44 59 45 53 46
REMARK SMILES IDX 52 47 23 49 45 50 30 51 44 52 31 53 34 54 43 55 57 56 32 57
REMARK SMILES IDX 33 58 42 60 58 61 35 62 24 63 25 64 29 65 26 66 28 67 27 68
REMARK SMILES IDX 46 69 47 70 51 71 48 72 50 73 49 74 36 75 37 76 41 77 38 78
REMARK SMILES IDX 40 79 39 80
REMARK H PARENT 73 22 73 23 73 24 56 48 34 59
REMARK Flexibility Score: inf
ROOT
ATOM      1  C   UNL     1       0.186   4.018   3.372  1.00  0.00     0.202 C 
ENDROOT
BRANCH   1   2
ATOM      2  C   UNL     1      -1.058   3.295   2.846  1.00  0.00     0.261 C 
BRANCH   2   3
ATOM      3  O   UNL     1      -0.765   2.163   2.007  1.00  0.00    -0.463 OA
BRANCH   3   4
ATOM      4  C   UNL     1      -1.107   2.316   0.701  1.00  0.00     0.311 C 
ATOM      5  O   UNL     1      -1.617   3.324   0.224  1.00  0.00    -0.252 OA
BRANCH   4   6
ATOM      6  C   UNL     1      -0.867   1.087  -0.140  1.00  0.00     0.123 C 
ATOM      7  C   UNL     1       1.434   0.524  -0.854  1.00  0.00     0.032 C 
ATOM      8  C   UNL     1       0.359   0.193   0.189  1.00  0.00     0.096 C 
ATOM      9  N   UNL     1      -0.154  -1.193   0.074  1.00  0.00    -0.339 N 
ATOM     10  C   UNL     1      -2.067   0.157  -0.078  1.00  0.00     0.039 C 
ATOM     11  C   UNL     1      -1.482  -1.161  -0.532  1.00  0.00     0.121 C 
BRANCH   9  12
ATOM     12  C   UNL     1       0.312  -2.425   0.484  1.00  0.00     0.225 C 
ATOM     13  O   UNL     1      -0.363  -3.437   0.234  1.00  0.00    -0.275 OA
BRANCH  12  14
ATOM     14  C   UNL     1       1.632  -2.670   1.222  1.00  0.00     0.078 C 
ATOM     15  C   UNL     1       2.865  -2.616   0.321  1.00  0.00     0.014 C 
ATOM     16  C   UNL     1       1.823  -1.961   2.562  1.00  0.00     0.014 C 
ATOM     17  C   UNL     1       4.134  -3.061   1.049  1.00  0.00     0.010 C 
ATOM     18  C   UNL     1       3.097  -2.472   3.252  1.00  0.00     0.010 C 
ATOM     19  C   UNL     1       4.351  -2.313   2.376  1.00  0.00     0.044 C 
BRANCH  19  20
ATOM     20  C   UNL     1       4.751  -0.843   2.127  1.00  0.00     0.262 C 
BRANCH  20  21
ATOM     21  N   UNL     1       5.137  -0.165   3.359  1.00  0.00    -0.357 N 
ATOM     22  H   UNL     1       4.347  -0.158   4.005  1.00  0.00     0.344 HD
ATOM     23  H   UNL     1       5.412   0.794   3.148  1.00  0.00     0.344 HD
ATOM     24  H   UNL     1       5.921  -0.657   3.787  1.00  0.00     0.344 HD
ENDBRANCH  20  21
ENDBRANCH  19  20
ENDBRANCH  12  14
ENDBRANCH   9  12
ENDBRANCH   4   6
ENDBRANCH   3   4
ENDBRANCH   2   3
ENDBRANCH   1   2
BRANCH   1  25
ATOM     25  O   UNL     1       1.125   4.489   2.411  1.00  0.00    -0.374 OA
BRANCH  25  26
ATOM     26  C   UNL     1       1.934   3.529   1.738  1.00  0.00     0.202 C 
BRANCH  26  27
ATOM     27  C   UNL     1       2.994   2.800   2.571  1.00  0.00     0.261 C 
BRANCH  27  28
ATOM     28  O   UNL     1       2.424   1.986   3.615  1.00  0.00    -0.460 OA
BRANCH  28  29
ATOM     29  C   UNL     1       2.832   2.322   4.864  1.00  0.00     0.338 C 
ATOM     30  O   UNL     1       3.694   3.140   5.157  1.00  0.00    -0.246 OA
BRANCH  29  31
ATOM     31  C   UNL     1       2.017   1.663   5.902  1.00  0.00     0.060 A 
ATOM     32  C   UNL     1       1.502   2.468   6.923  1.00  0.00     0.016 A 
ATOM     33  C   UNL     1       1.877   0.276   5.964  1.00  0.00     0.016 A 
ATOM     34  C   UNL     1       0.923   1.883   8.046  1.00  0.00     0.010 A 
ATOM     35  C   UNL     1       1.303  -0.314   7.096  1.00  0.00     0.010 A 
ATOM     36  C   UNL     1       0.871   0.487   8.165  1.00  0.00    -0.014 A 
BRANCH  36  37
ATOM     37  C   UNL     1       0.498  -0.104   9.473  1.00  0.00     0.031 A 
ATOM     38  C   UNL     1       1.582  -0.519  10.432  1.00  0.00     0.074 A 
ATOM     39  C   UNL     1      -0.792  -0.199   9.836  1.00  0.00     0.049 A 
ATOM     40  N   UNL     1       1.478  -0.922  11.673  1.00  0.00    -0.248 NA
ATOM     41  C   UNL     1       2.964  -0.469   9.928  1.00  0.00     0.031 C 
ATOM     42  C   UNL     1      -1.935   0.175   9.005  1.00  0.00     0.029 A 
ATOM     43  N   UNL     1      -1.353  -0.625  11.013  1.00  0.00    -0.354 N 
ATOM     44  C   UNL     1       2.778  -1.163  12.102  1.00  0.00     0.074 A 
ATOM     45  C   UNL     1       3.650  -0.900  10.977  1.00  0.00     0.031 C 
ATOM     46  C   UNL     1      -3.065  -0.026   9.705  1.00  0.00     0.029 A 
ATOM     47  C   UNL     1      -2.723  -0.547  11.027  1.00  0.00     0.049 A 
ATOM     48  H   UNL     1      -0.824  -0.956  11.775  1.00  0.00     0.167 HD
ATOM     49  C   UNL     1       3.211  -1.552  13.325  1.00  0.00     0.031 A 
ATOM     50  C   UNL     1      -3.603  -0.850  12.001  1.00  0.00     0.031 A 
ATOM     51  C   UNL     1       2.350  -1.832  14.442  1.00  0.00     0.049 A 
ATOM     52  C   UNL     1      -3.100  -1.316  13.339  1.00  0.00     0.074 A 
ATOM     53  C   UNL     1       2.698  -2.209  15.728  1.00  0.00     0.029 A 
ATOM     54  N   UNL     1       0.966  -1.774  14.403  1.00  0.00    -0.354 N 
ATOM     55  N   UNL     1      -1.865  -1.476  13.749  1.00  0.00    -0.248 NA
ATOM     56  C   UNL     1      -4.117  -1.622  14.356  1.00  0.00     0.031 C 
ATOM     57  C   UNL     1       1.521  -2.423  16.455  1.00  0.00     0.029 A 
ATOM     58  C   UNL     1       0.444  -2.131  15.635  1.00  0.00     0.049 A 
ATOM     59  H   UNL     1       0.434  -1.518  13.616  1.00  0.00     0.167 HD
ATOM     60  C   UNL     1      -1.956  -1.875  15.077  1.00  0.00     0.074 A 
ATOM     61  C   UNL     1      -3.366  -1.918  15.407  1.00  0.00     0.031 C 
ATOM     62  C   UNL     1      -0.961  -2.175  15.947  1.00  0.00     0.031 A 
BRANCH  49  63
ATOM     63  C   UNL     1       4.693  -1.713  13.510  1.00  0.00    -0.014 A 
ATOM     64  C   UNL     1       5.538  -0.595  13.594  1.00  0.00     0.009 A 
ATOM     65  C   UNL     1       5.248  -2.996  13.634  1.00  0.00     0.009 A 
ATOM     66  C   UNL     1       6.914  -0.761  13.767  1.00  0.00     0.001 A 
ATOM     67  C   UNL     1       6.621  -3.158  13.830  1.00  0.00     0.001 A 
ATOM     68  C   UNL     1       7.454  -2.041  13.888  1.00  0.00     0.000 A 
ENDBRANCH  49  63
BRANCH  50  69
ATOM     69  C   UNL     1      -5.059  -0.700  11.754  1.00  0.00    -0.014 A 
ATOM     70  C   UNL     1      -5.785   0.337  12.359  1.00  0.00     0.009 A 
ATOM     71  C   UNL     1      -5.731  -1.605  10.918  1.00  0.00     0.009 A 
ATOM     72  C   UNL     1      -7.161   0.451  12.149  1.00  0.00     0.001 A 
ATOM     73  C   UNL     1      -7.103  -1.474  10.692  1.00  0.00     0.001 A 
ATOM     74  C   UNL     1      -7.817  -0.452  11.314  1.00  0.00     0.000 A 
ENDBRANCH  50  69
BRANCH  62  75
ATOM     75  C   UNL     1      -1.363  -2.548  17.345  1.00  0.00    -0.014 A 
ATOM     76  C   UNL     1      -1.945  -3.794  17.627  1.00  0.00     0.009 A 
ATOM     77  C   UNL     1      -1.131  -1.650  18.399  1.00  0.00     0.009 A 
ATOM     78  C   UNL     1      -2.322  -4.117  18.933  1.00  0.00     0.001 A 
ATOM     79  C   UNL     1      -1.486  -1.986  19.706  1.00  0.00     0.001 A 
ATOM     80  C   UNL     1      -2.090  -3.215  19.971  1.00  0.00     0.000 A 
ENDBRANCH  62  75
ENDBRANCH  36  37
ENDBRANCH  29  31
ENDBRANCH  28  29
ENDBRANCH  27  28
ENDBRANCH  26  27
ENDBRANCH  25  26
ENDBRANCH   1  25
TORSDOF 18
