REMARK SMILES Cc1cc(/C=C2\C(=O)N(Cc3ccco3)C(=O)N=C2OCCOCCOC(=O)c2ccc(-c3c4nc(c(-c5ccccc5)c5ccc([nH]5)c(-c5ccccc5)c5nc(c(-c6ccccc6)c6ccc3[nH]6)C=C5)C=C4)cc2)c(C)n1-c1ccc(Cl)c(C(=O)[O-])c1
REMARK SMILES IDX 23 1 22 2 21 3 20 4 19 5 5 6 6 7 7 8 8 9 9 10 18 11 16 12
REMARK SMILES IDX 17 13 4 14 1 15 2 16 3 17 79 18 77 19 78 20 80 21 81 22
REMARK SMILES IDX 89 23 82 24 85 25 83 26 84 27 86 28 87 29 88 30 10 31 11 32
REMARK SMILES IDX 12 33 15 34 13 35 14 36 24 37 25 38 26 39 27 40 28 41 29 42
REMARK SMILES IDX 30 43 76 44 31 45 75 46 32 47 33 48 34 49 69 50 35 51 74 52
REMARK SMILES IDX 68 53 70 54 36 55 73 56 67 57 66 58 37 60 59 61 44 62 58 63
REMARK SMILES IDX 45 64 48 65 57 66 71 67 46 68 47 69 56 71 72 72 49 73 38 74
REMARK SMILES IDX 39 75 43 76 40 77 42 78 41 79 60 80 61 81 65 82 62 83 64 84
REMARK SMILES IDX 63 85 50 86 51 87 55 88 52 89 54 90 53 91
REMARK H PARENT 70 59 48 70
REMARK Flexibility Score: inf
ROOT
ATOM      1  O   UNL     1      -1.672  -8.581  -2.543  1.00  0.00    -0.374 OA
ENDROOT
BRANCH   1   2
ATOM      2  C   UNL     1      -0.416  -9.198  -2.279  1.00  0.00     0.202 C 
BRANCH   2   3
ATOM      3  C   UNL     1       0.810  -8.630  -3.027  1.00  0.00     0.260 C 
BRANCH   3   4
ATOM      4  O   UNL     1       0.957  -7.195  -2.927  1.00  0.00    -0.475 OA
BRANCH   4   5
ATOM      5  C   UNL     1       0.346  -6.472  -3.899  1.00  0.00     0.231 C 
ATOM      6  C   UNL     1       0.497  -4.409  -2.525  1.00  0.00     0.029 C 
ATOM      7  C   UNL     1       0.431  -5.011  -3.731  1.00  0.00     0.103 C 
ATOM      8  C   UNL     1       0.218  -4.316  -5.018  1.00  0.00     0.267 C 
ATOM      9  O   UNL     1       0.873  -3.339  -5.357  1.00  0.00    -0.268 OA
ATOM     10  N   UNL     1      -0.793  -4.906  -5.749  1.00  0.00    -0.250 N 
ATOM     11  N   UNL     1      -0.277  -7.040  -4.870  1.00  0.00    -0.156 NA
ATOM     12  C   UNL     1      -1.039  -6.269  -5.700  1.00  0.00     0.354 C 
ATOM     13  O   UNL     1      -1.934  -6.780  -6.367  1.00  0.00    -0.245 OA
BRANCH   6  14
ATOM     14  C   UNL     1       0.351  -3.023  -2.143  1.00  0.00    -0.003 A 
ATOM     15  C   UNL     1       1.082  -0.091   0.055  1.00  0.00     0.065 C 
ATOM     16  C   UNL     1       0.658  -1.097  -0.960  1.00  0.00     0.020 A 
ATOM     17  C   UNL     1       0.990  -2.440  -1.017  1.00  0.00     0.031 A 
ATOM     18  N   UNL     1      -0.222  -0.840  -1.997  1.00  0.00    -0.318 N 
ATOM     19  C   UNL     1      -0.468  -2.034  -2.680  1.00  0.00     0.027 A 
ATOM     20  C   UNL     1      -1.377  -2.073  -3.856  1.00  0.00     0.065 C 
BRANCH  18  21
ATOM     21  C   UNL     1      -0.733   0.430  -2.389  1.00  0.00     0.046 A 
ATOM     22  C   UNL     1      -2.111   0.612  -2.517  1.00  0.00     0.028 A 
ATOM     23  C   UNL     1       0.152   1.425  -2.823  1.00  0.00     0.038 A 
ATOM     24  C   UNL     1      -2.602   1.736  -3.177  1.00  0.00     0.023 A 
ATOM     25  C   UNL     1      -0.340   2.579  -3.471  1.00  0.00     0.018 A 
ATOM     26  C   UNL     1      -1.725   2.711  -3.672  1.00  0.00     0.050 A 
ATOM     27  Cl  UNL     1      -2.466   4.007  -4.544  1.00  0.00    -0.084 Cl
BRANCH  25  28
ATOM     28  C   UNL     1       0.618   3.615  -3.966  1.00  0.00     0.073 C 
ATOM     29  O   UNL     1       0.382   4.628  -4.572  1.00  0.00    -0.545 OA
ATOM     30  O   UNL     1       1.895   3.314  -3.640  1.00  0.00    -0.545 OA
ENDBRANCH  25  28
ENDBRANCH  18  21
ENDBRANCH   6  14
BRANCH  10  31
ATOM     31  C   UNL     1      -1.632  -4.092  -6.607  1.00  0.00     0.206 C 
BRANCH  31  32
ATOM     32  C   UNL     1      -1.170  -4.129  -8.006  1.00  0.00     0.123 A 
ATOM     33  C   UNL     1      -1.299  -5.051  -9.021  1.00  0.00     0.047 A 
ATOM     34  O   UNL     1      -0.498  -3.031  -8.447  1.00  0.00    -0.467 OA
ATOM     35  C   UNL     1      -0.636  -4.497 -10.138  1.00  0.00     0.042 A 
ATOM     36  C   UNL     1      -0.170  -3.266  -9.740  1.00  0.00     0.195 A 
ENDBRANCH  31  32
ENDBRANCH  10  31
ENDBRANCH   4   5
ENDBRANCH   3   4
ENDBRANCH   2   3
ENDBRANCH   1   2
BRANCH   1  37
ATOM     37  C   UNL     1      -1.988  -7.407  -1.783  1.00  0.00     0.202 C 
BRANCH  37  38
ATOM     38  C   UNL     1      -2.609  -7.629  -0.372  1.00  0.00     0.261 C 
BRANCH  38  39
ATOM     39  O   UNL     1      -1.809  -7.251   0.821  1.00  0.00    -0.460 OA
BRANCH  39  40
ATOM     40  C   UNL     1      -1.733  -8.171   1.847  1.00  0.00     0.338 C 
ATOM     41  O   UNL     1      -1.945  -9.366   1.674  1.00  0.00    -0.246 OA
BRANCH  40  42
ATOM     42  C   UNL     1      -1.328  -7.646   3.247  1.00  0.00     0.060 A 
ATOM     43  C   UNL     1      -0.131  -8.064   3.815  1.00  0.00     0.016 A 
ATOM     44  C   UNL     1      -2.185  -6.996   4.167  1.00  0.00     0.016 A 
ATOM     45  C   UNL     1       0.209  -7.776   5.199  1.00  0.00     0.010 A 
ATOM     46  C   UNL     1      -1.859  -6.771   5.611  1.00  0.00     0.010 A 
ATOM     47  C   UNL     1      -0.633  -7.146   6.202  1.00  0.00    -0.014 A 
BRANCH  47  48
ATOM     48  C   UNL     1      -0.244  -7.415   7.831  1.00  0.00     0.031 A 
ATOM     49  C   UNL     1       0.190  -8.838   7.768  1.00  0.00     0.074 A 
ATOM     50  C   UNL     1      -0.299  -6.944   9.170  1.00  0.00     0.049 A 
ATOM     51  N   UNL     1      -0.669  -9.706   7.319  1.00  0.00    -0.248 NA
ATOM     52  C   UNL     1       1.579  -9.291   7.760  1.00  0.00     0.031 C 
ATOM     53  C   UNL     1      -0.908  -5.699   9.683  1.00  0.00     0.029 A 
ATOM     54  N   UNL     1       0.180  -7.476  10.446  1.00  0.00    -0.354 N 
ATOM     55  C   UNL     1      -0.013 -10.904   7.233  1.00  0.00     0.074 A 
ATOM     56  C   UNL     1       1.399 -10.537   7.298  1.00  0.00     0.031 C 
ATOM     57  C   UNL     1      -0.658  -5.493  11.016  1.00  0.00     0.029 A 
ATOM     58  C   UNL     1       0.105  -6.594  11.615  1.00  0.00     0.049 A 
ATOM     59  H   UNL     1       0.539  -8.390  10.518  1.00  0.00     0.167 HD
ATOM     60  C   UNL     1      -0.656 -11.943   7.842  1.00  0.00     0.031 A 
ATOM     61  C   UNL     1       0.518  -6.736  12.958  1.00  0.00     0.031 A 
ATOM     62  C   UNL     1      -0.133 -12.171   9.163  1.00  0.00     0.049 A 
ATOM     63  C   UNL     1       0.554  -8.175  13.234  1.00  0.00     0.074 A 
ATOM     64  C   UNL     1       1.152 -12.195   9.669  1.00  0.00     0.029 A 
ATOM     65  N   UNL     1      -0.976 -11.915  10.224  1.00  0.00    -0.354 N 
ATOM     66  N   UNL     1      -0.536  -8.814  13.536  1.00  0.00    -0.248 NA
ATOM     67  C   UNL     1       1.785  -8.943  13.360  1.00  0.00     0.031 C 
ATOM     68  C   UNL     1       1.077 -11.439  10.855  1.00  0.00     0.029 A 
ATOM     69  C   UNL     1      -0.250 -11.368  11.257  1.00  0.00     0.049 A 
ATOM     70  H   UNL     1      -1.944 -12.095  10.239  1.00  0.00     0.167 HD
ATOM     71  C   UNL     1      -0.193 -10.099  13.270  1.00  0.00     0.074 A 
ATOM     72  C   UNL     1       1.245 -10.160  13.475  1.00  0.00     0.031 C 
ATOM     73  C   UNL     1      -0.951 -10.710  12.327  1.00  0.00     0.031 A 
BRANCH  60  74
ATOM     74  C   UNL     1      -2.127 -12.034   7.497  1.00  0.00    -0.014 A 
ATOM     75  C   UNL     1      -2.589 -13.120   6.751  1.00  0.00     0.009 A 
ATOM     76  C   UNL     1      -3.036 -10.988   7.778  1.00  0.00     0.009 A 
ATOM     77  C   UNL     1      -3.891 -13.117   6.233  1.00  0.00     0.001 A 
ATOM     78  C   UNL     1      -4.311 -10.959   7.219  1.00  0.00     0.001 A 
ATOM     79  C   UNL     1      -4.736 -12.024   6.437  1.00  0.00     0.000 A 
ENDBRANCH  60  74
BRANCH  61  80
ATOM     80  C   UNL     1       0.736  -6.048  14.375  1.00  0.00    -0.014 A 
ATOM     81  C   UNL     1       0.371  -6.752  15.584  1.00  0.00     0.009 A 
ATOM     82  C   UNL     1       1.673  -5.028  14.597  1.00  0.00     0.009 A 
ATOM     83  C   UNL     1       0.965  -6.543  16.854  1.00  0.00     0.001 A 
ATOM     84  C   UNL     1       2.247  -4.788  15.889  1.00  0.00     0.001 A 
ATOM     85  C   UNL     1       1.923  -5.563  17.005  1.00  0.00     0.000 A 
ENDBRANCH  61  80
BRANCH  73  86
ATOM     86  C   UNL     1      -2.442 -10.414  12.330  1.00  0.00    -0.014 A 
ATOM     87  C   UNL     1      -3.018  -9.123  12.345  1.00  0.00     0.009 A 
ATOM     88  C   UNL     1      -3.320 -11.503  12.370  1.00  0.00     0.009 A 
ATOM     89  C   UNL     1      -4.401  -8.932  12.451  1.00  0.00     0.001 A 
ATOM     90  C   UNL     1      -4.705 -11.316  12.427  1.00  0.00     0.001 A 
ATOM     91  C   UNL     1      -5.245 -10.033  12.484  1.00  0.00     0.000 A 
ENDBRANCH  73  86
ENDBRANCH  47  48
ENDBRANCH  40  42
ENDBRANCH  39  40
ENDBRANCH  38  39
ENDBRANCH  37  38
ENDBRANCH   1  37
TORSDOF 18
