REMARK SMILES O=C(OCCOCCOC(=O)c1ccc(-c2c3nc(c(-c4ccccc4)c4ccc([nH]4)c(-c4ccccc4)c4nc(c(-c5ccccc5)c5ccc2[nH]5)C=C4)C=C3)cc1)C1=Cc2cc(Cl)cc(C#Cc3ccccc3)c2O[C@@H]1C(F)(F)F
REMARK SMILES IDX 6 1 5 2 4 3 3 4 2 5 1 6 60 7 61 8 78 9 62 10 77 11 63 12
REMARK SMILES IDX 76 13 64 14 67 15 65 16 66 17 79 18 80 19 81 20 82 21 68 22
REMARK SMILES IDX 69 23 70 24 71 25 75 26 72 27 74 28 73 29 7 30 8 31 9 32
REMARK SMILES IDX 10 33 11 34 12 35 13 36 59 37 14 38 58 39 15 40 16 41 17 42
REMARK SMILES IDX 52 43 18 44 57 45 51 46 53 47 19 48 56 49 50 50 49 51 20 53
REMARK SMILES IDX 42 54 27 55 41 56 28 57 31 58 40 59 54 60 29 61 30 62 39 64
REMARK SMILES IDX 55 65 32 66 21 67 22 68 26 69 23 70 25 71 24 72 43 73 44 74
REMARK SMILES IDX 48 75 45 76 47 77 46 78 33 79 34 80 38 81 35 82 37 83 36 84
REMARK H PARENT 53 52 31 63
REMARK Flexibility Score: inf
ROOT
ATOM      1  O   UNL     1       3.724   1.955  -1.314  1.00  0.00    -0.374 OA
ENDROOT
BRANCH   1   2
ATOM      2  C   UNL     1       4.195   0.974  -0.201  1.00  0.00     0.202 C 
BRANCH   2   3
ATOM      3  C   UNL     1       3.140  -0.573   0.922  1.00  0.00     0.261 C 
BRANCH   3   4
ATOM      4  O   UNL     1       2.225  -0.380   2.134  1.00  0.00    -0.460 OA
BRANCH   4   5
ATOM      5  C   UNL     1       2.514   0.719   2.834  1.00  0.00     0.338 C 
ATOM      6  O   UNL     1       1.961   1.184   3.796  1.00  0.00    -0.246 OA
BRANCH   5   7
ATOM      7  C   UNL     1       3.440   1.274   1.870  1.00  0.00     0.087 C 
ATOM      8  C   UNL     1       4.752   0.581   1.970  1.00  0.00     0.027 C 
ATOM      9  C   UNL     1       2.252   1.165   0.348  1.00  0.00     0.316 C 
ATOM     10  C   UNL     1       5.347  -0.613   0.733  1.00  0.00     0.020 A 
ATOM     11  O   UNL     1       2.834  -0.137  -0.947  1.00  0.00    -0.474 OA
ATOM     12  C   UNL     1       6.502  -1.286   1.001  1.00  0.00     0.032 A 
ATOM     13  C   UNL     1       4.364  -1.082  -0.652  1.00  0.00     0.143 A 
ATOM     14  C   UNL     1       6.736  -2.349   0.133  1.00  0.00     0.043 A 
ATOM     15  C   UNL     1       4.632  -2.188  -1.400  1.00  0.00     0.069 A 
ATOM     16  Cl  UNL     1       8.208  -3.242   0.355  1.00  0.00    -0.084 Cl
ATOM     17  C   UNL     1       5.845  -2.778  -0.946  1.00  0.00     0.041 A 
BRANCH   9  18
ATOM     18  C   UNL     1       1.908   2.702   0.176  1.00  0.00     0.430 C 
ATOM     19  F   UNL     1       1.184   3.021  -0.910  1.00  0.00    -0.167 F 
ATOM     20  F   UNL     1       1.130   3.055   1.245  1.00  0.00    -0.167 F 
ATOM     21  F   UNL     1       2.978   3.530   0.261  1.00  0.00    -0.167 F 
ENDBRANCH   9  18
BRANCH  15  22
ATOM     22  C   UNL     1       3.872  -2.740  -2.491  1.00  0.00    -0.058 C 
ATOM     23  C   UNL     1       3.405  -3.225  -3.493  1.00  0.00    -0.062 C 
BRANCH  23  24
ATOM     24  C   UNL     1       3.123  -3.744  -4.819  1.00  0.00     0.025 A 
ATOM     25  C   UNL     1       2.728  -2.867  -5.839  1.00  0.00     0.017 A 
ATOM     26  C   UNL     1       3.503  -5.046  -5.173  1.00  0.00     0.017 A 
ATOM     27  C   UNL     1       2.814  -3.251  -7.187  1.00  0.00     0.001 A 
ATOM     28  C   UNL     1       3.602  -5.427  -6.520  1.00  0.00     0.001 A 
ATOM     29  C   UNL     1       3.277  -4.522  -7.528  1.00  0.00     0.000 A 
ENDBRANCH  23  24
ENDBRANCH  15  22
ENDBRANCH   5   7
ENDBRANCH   4   5
ENDBRANCH   3   4
ENDBRANCH   2   3
ENDBRANCH   1   2
BRANCH   1  30
ATOM     30  C   UNL     1       2.880   1.786  -2.456  1.00  0.00     0.202 C 
BRANCH  30  31
ATOM     31  C   UNL     1       3.349   1.195  -3.774  1.00  0.00     0.261 C 
BRANCH  31  32
ATOM     32  O   UNL     1       4.265   0.120  -3.693  1.00  0.00    -0.460 OA
BRANCH  32  33
ATOM     33  C   UNL     1       5.574   0.435  -3.854  1.00  0.00     0.338 C 
ATOM     34  O   UNL     1       6.103   1.523  -3.758  1.00  0.00    -0.246 OA
BRANCH  33  35
ATOM     35  C   UNL     1       6.231  -0.828  -4.251  1.00  0.00     0.060 A 
ATOM     36  C   UNL     1       7.206  -1.444  -3.467  1.00  0.00     0.016 A 
ATOM     37  C   UNL     1       5.724  -1.490  -5.359  1.00  0.00     0.016 A 
ATOM     38  C   UNL     1       7.539  -2.802  -3.692  1.00  0.00     0.010 A 
ATOM     39  C   UNL     1       6.046  -2.831  -5.554  1.00  0.00     0.010 A 
ATOM     40  C   UNL     1       6.897  -3.546  -4.692  1.00  0.00    -0.014 A 
BRANCH  40  41
ATOM     41  C   UNL     1       7.132  -5.013  -4.966  1.00  0.00     0.031 A 
ATOM     42  C   UNL     1       7.636  -5.392  -6.337  1.00  0.00     0.074 A 
ATOM     43  C   UNL     1       6.765  -6.032  -4.146  1.00  0.00     0.049 A 
ATOM     44  N   UNL     1       7.770  -6.581  -6.870  1.00  0.00    -0.248 NA
ATOM     45  C   UNL     1       7.939  -4.285  -7.261  1.00  0.00     0.031 C 
ATOM     46  C   UNL     1       6.062  -5.904  -2.880  1.00  0.00     0.029 A 
ATOM     47  N   UNL     1       6.877  -7.406  -4.280  1.00  0.00    -0.354 N 
ATOM     48  C   UNL     1       8.135  -6.350  -8.186  1.00  0.00     0.074 A 
ATOM     49  C   UNL     1       8.064  -4.926  -8.408  1.00  0.00     0.031 C 
ATOM     50  C   UNL     1       5.873  -7.106  -2.311  1.00  0.00     0.029 A 
ATOM     51  C   UNL     1       6.374  -8.132  -3.214  1.00  0.00     0.049 A 
ATOM     52  H   UNL     1       7.280  -7.833  -5.071  1.00  0.00     0.167 HD
ATOM     53  C   UNL     1       8.573  -7.223  -9.120  1.00  0.00     0.031 A 
ATOM     54  C   UNL     1       6.290  -9.462  -2.987  1.00  0.00     0.031 A 
ATOM     55  C   UNL     1       8.715  -8.633  -8.911  1.00  0.00     0.049 A 
ATOM     56  C   UNL     1       6.799 -10.421  -4.035  1.00  0.00     0.074 A 
ATOM     57  C   UNL     1       9.280  -9.567  -9.759  1.00  0.00     0.029 A 
ATOM     58  N   UNL     1       8.292  -9.311  -7.783  1.00  0.00    -0.354 N 
ATOM     59  N   UNL     1       7.321 -10.162  -5.207  1.00  0.00    -0.248 NA
ATOM     60  C   UNL     1       6.723 -11.860  -3.723  1.00  0.00     0.031 C 
ATOM     61  C   UNL     1       9.139 -10.826  -9.173  1.00  0.00     0.029 A 
ATOM     62  C   UNL     1       8.553 -10.662  -7.929  1.00  0.00     0.049 A 
ATOM     63  H   UNL     1       7.870  -8.896  -6.997  1.00  0.00     0.167 HD
ATOM     64  C   UNL     1       7.677 -11.394  -5.744  1.00  0.00     0.074 A 
ATOM     65  C   UNL     1       7.332 -12.400  -4.767  1.00  0.00     0.031 C 
ATOM     66  C   UNL     1       8.238 -11.662  -6.947  1.00  0.00     0.031 A 
BRANCH  53  67
ATOM     67  C   UNL     1       8.996  -6.650 -10.440  1.00  0.00    -0.014 A 
ATOM     68  C   UNL     1      10.115  -5.803 -10.531  1.00  0.00     0.009 A 
ATOM     69  C   UNL     1       8.293  -6.980 -11.606  1.00  0.00     0.009 A 
ATOM     70  C   UNL     1      10.491  -5.259 -11.756  1.00  0.00     0.001 A 
ATOM     71  C   UNL     1       8.699  -6.468 -12.838  1.00  0.00     0.001 A 
ATOM     72  C   UNL     1       9.789  -5.600 -12.910  1.00  0.00     0.000 A 
ENDBRANCH  53  67
BRANCH  54  73
ATOM     73  C   UNL     1       5.721 -10.021  -1.718  1.00  0.00    -0.014 A 
ATOM     74  C   UNL     1       6.548 -10.734  -0.830  1.00  0.00     0.009 A 
ATOM     75  C   UNL     1       4.346  -9.962  -1.442  1.00  0.00     0.009 A 
ATOM     76  C   UNL     1       6.008 -11.427   0.259  1.00  0.00     0.001 A 
ATOM     77  C   UNL     1       3.813 -10.623  -0.327  1.00  0.00     0.001 A 
ATOM     78  C   UNL     1       4.640 -11.371   0.509  1.00  0.00     0.000 A 
ENDBRANCH  54  73
BRANCH  66  79
ATOM     79  C   UNL     1       8.581 -13.091  -7.266  1.00  0.00    -0.014 A 
ATOM     80  C   UNL     1       7.586 -14.051  -7.504  1.00  0.00     0.009 A 
ATOM     81  C   UNL     1       9.929 -13.461  -7.405  1.00  0.00     0.009 A 
ATOM     82  C   UNL     1       7.935 -15.359  -7.848  1.00  0.00     0.001 A 
ATOM     83  C   UNL     1      10.274 -14.758  -7.786  1.00  0.00     0.001 A 
ATOM     84  C   UNL     1       9.277 -15.708  -7.999  1.00  0.00     0.000 A 
ENDBRANCH  66  79
ENDBRANCH  40  41
ENDBRANCH  33  35
ENDBRANCH  32  33
ENDBRANCH  31  32
ENDBRANCH  30  31
ENDBRANCH   1  30
TORSDOF 17
