REMARK SMILES CC(C)[NH2+][C@]1(C(=O)OCCOCCOC(=O)c2ccc(-c3c4nc(c(-c5ccccc5)c5ccc([nH]5)c(-c5ccccc5)c5nc(c(-c6ccccc6)c6ccc3[nH]6)C=C5)C=C4)cc2)CC[C@H]([NH+]2CCC(C)(C)CC2)C1
REMARK SMILES IDX 11 1 10 2 9 3 8 4 6 5 7 6 5 7 65 8 76 9 66 10 67 11 4 12
REMARK SMILES IDX 2 15 1 16 3 17 68 18 69 19 75 20 70 22 74 23 71 24 72 25
REMARK SMILES IDX 73 26 12 27 13 28 14 29 15 30 16 31 17 32 18 33 64 34 19 35
REMARK SMILES IDX 63 36 20 37 21 38 22 39 57 40 23 41 62 42 56 43 58 44 24 45
REMARK SMILES IDX 61 46 55 47 54 48 25 50 47 51 32 52 46 53 33 54 36 55 45 56
REMARK SMILES IDX 59 57 34 58 35 59 44 61 60 62 37 63 26 64 27 65 31 66 28 67
REMARK SMILES IDX 30 68 29 69 48 70 49 71 53 72 50 73 52 74 51 75 38 76 39 77
REMARK SMILES IDX 43 78 40 79 42 80 41 81
REMARK H PARENT 4 13 4 14 68 21 58 49 36 60
REMARK Flexibility Score: inf
ROOT
ATOM      1  O   UNL     1      -1.653   1.217  -1.002  1.00  0.00    -0.374 OA
ENDROOT
BRANCH   1   2
ATOM      2  C   UNL     1      -0.417   0.673  -1.447  1.00  0.00     0.202 C 
BRANCH   2   3
ATOM      3  C   UNL     1       0.426  -0.136  -0.458  1.00  0.00     0.261 C 
BRANCH   3   4
ATOM      4  O   UNL     1      -0.291  -1.195   0.192  1.00  0.00    -0.459 OA
BRANCH   4   5
ATOM      5  C   UNL     1      -0.659  -0.902   1.468  1.00  0.00     0.368 C 
ATOM      6  O   UNL     1      -0.494   0.198   1.997  1.00  0.00    -0.245 OA
BRANCH   5   7
ATOM      7  C   UNL     1      -1.295  -2.091   2.240  1.00  0.00     0.200 C 
ATOM      8  C   UNL     1      -2.566  -2.675   1.617  1.00  0.00     0.087 C 
ATOM      9  C   UNL     1      -0.384  -3.338   2.080  1.00  0.00     0.146 C 
ATOM     10  C   UNL     1      -2.699  -4.066   2.248  1.00  0.00     0.072 C 
ATOM     11  C   UNL     1      -1.246  -4.569   2.465  1.00  0.00     0.191 C 
BRANCH   7  12
ATOM     12  N   UNL     1      -1.334  -1.643   3.660  1.00  0.00    -0.330 N 
ATOM     13  H   UNL     1      -0.694  -2.262   4.157  1.00  0.00     0.347 HD
ATOM     14  H   UNL     1      -1.139  -0.649   3.544  1.00  0.00     0.347 HD
BRANCH  12  15
ATOM     15  C   UNL     1      -2.538  -1.581   4.487  1.00  0.00     0.176 C 
ATOM     16  C   UNL     1      -2.057  -1.119   5.877  1.00  0.00     0.075 C 
ATOM     17  C   UNL     1      -3.653  -0.638   4.040  1.00  0.00     0.075 C 
ENDBRANCH  12  15
ENDBRANCH   7  12
BRANCH  11  18
ATOM     18  N   UNL     1      -0.901  -5.271   3.727  1.00  0.00    -0.332 N 
ATOM     19  C   UNL     1      -1.955  -6.169   4.221  1.00  0.00     0.263 C 
ATOM     20  C   UNL     1      -0.353  -4.401   4.767  1.00  0.00     0.263 C 
ATOM     21  H   UNL     1      -0.129  -5.883   3.462  1.00  0.00     0.348 HD
ATOM     22  C   UNL     1      -1.596  -6.881   5.539  1.00  0.00     0.068 C 
ATOM     23  C   UNL     1       0.042  -5.109   6.054  1.00  0.00     0.068 C 
ATOM     24  C   UNL     1      -1.127  -5.907   6.640  1.00  0.00    -0.025 C 
ATOM     25  C   UNL     1      -0.622  -6.670   7.872  1.00  0.00     0.011 C 
ATOM     26  C   UNL     1      -2.272  -4.977   7.096  1.00  0.00     0.011 C 
ENDBRANCH  11  18
ENDBRANCH   5   7
ENDBRANCH   4   5
ENDBRANCH   3   4
ENDBRANCH   2   3
ENDBRANCH   1   2
BRANCH   1  27
ATOM     27  C   UNL     1      -2.738   0.333  -0.729  1.00  0.00     0.202 C 
BRANCH  27  28
ATOM     28  C   UNL     1      -3.335  -0.467  -1.891  1.00  0.00     0.261 C 
BRANCH  28  29
ATOM     29  O   UNL     1      -2.385  -1.356  -2.508  1.00  0.00    -0.460 OA
BRANCH  29  30
ATOM     30  C   UNL     1      -2.162  -1.099  -3.818  1.00  0.00     0.338 C 
ATOM     31  O   UNL     1      -2.731  -0.269  -4.518  1.00  0.00    -0.246 OA
BRANCH  30  32
ATOM     32  C   UNL     1      -0.991  -1.837  -4.316  1.00  0.00     0.060 A 
ATOM     33  C   UNL     1       0.040  -1.081  -4.887  1.00  0.00     0.016 A 
ATOM     34  C   UNL     1      -0.971  -3.232  -4.379  1.00  0.00     0.016 A 
ATOM     35  C   UNL     1       1.050  -1.712  -5.605  1.00  0.00     0.010 A 
ATOM     36  C   UNL     1       0.043  -3.866  -5.108  1.00  0.00     0.010 A 
ATOM     37  C   UNL     1       1.021  -3.103  -5.773  1.00  0.00    -0.014 A 
BRANCH  37  38
ATOM     38  C   UNL     1       1.890  -3.697  -6.816  1.00  0.00     0.031 A 
ATOM     39  C   UNL     1       1.309  -3.960  -8.182  1.00  0.00     0.074 A 
ATOM     40  C   UNL     1       3.200  -3.898  -6.592  1.00  0.00     0.049 A 
ATOM     41  N   UNL     1       1.906  -4.371  -9.272  1.00  0.00    -0.248 NA
ATOM     42  C   UNL     1      -0.135  -3.719  -8.341  1.00  0.00     0.031 C 
ATOM     43  C   UNL     1       3.892  -3.640  -5.331  1.00  0.00     0.029 A 
ATOM     44  N   UNL     1       4.185  -4.348  -7.434  1.00  0.00    -0.354 N 
ATOM     45  C   UNL     1       0.913  -4.435 -10.243  1.00  0.00     0.074 A 
ATOM     46  C   UNL     1      -0.329  -4.057  -9.607  1.00  0.00     0.031 C 
ATOM     47  C   UNL     1       5.197  -3.925  -5.485  1.00  0.00     0.029 A 
ATOM     48  C   UNL     1       5.426  -4.401  -6.848  1.00  0.00     0.049 A 
ATOM     49  H   UNL     1       4.019  -4.608  -8.369  1.00  0.00     0.167 HD
ATOM     50  C   UNL     1       1.024  -4.765 -11.552  1.00  0.00     0.031 A 
ATOM     51  C   UNL     1       6.611  -4.788  -7.356  1.00  0.00     0.031 A 
ATOM     52  C   UNL     1       2.254  -5.150 -12.190  1.00  0.00     0.049 A 
ATOM     53  C   UNL     1       6.697  -5.212  -8.797  1.00  0.00     0.074 A 
ATOM     54  C   UNL     1       2.470  -5.494 -13.513  1.00  0.00     0.029 A 
ATOM     55  N   UNL     1       3.476  -5.248 -11.545  1.00  0.00    -0.354 N 
ATOM     56  N   UNL     1       5.756  -5.239  -9.710  1.00  0.00    -0.248 NA
ATOM     57  C   UNL     1       8.017  -5.645  -9.280  1.00  0.00     0.031 C 
ATOM     58  C   UNL     1       3.816  -5.848 -13.658  1.00  0.00     0.029 A 
ATOM     59  C   UNL     1       4.447  -5.672 -12.437  1.00  0.00     0.049 A 
ATOM     60  H   UNL     1       3.632  -5.046 -10.594  1.00  0.00     0.167 HD
ATOM     61  C   UNL     1       6.373  -5.670 -10.878  1.00  0.00     0.074 A 
ATOM     62  C   UNL     1       7.772  -5.872 -10.563  1.00  0.00     0.031 C 
ATOM     63  C   UNL     1       5.832  -5.878 -12.104  1.00  0.00     0.031 A 
BRANCH  50  64
ATOM     64  C   UNL     1      -0.234  -4.752 -12.373  1.00  0.00    -0.014 A 
ATOM     65  C   UNL     1      -0.847  -3.545 -12.749  1.00  0.00     0.009 A 
ATOM     66  C   UNL     1      -0.804  -5.963 -12.793  1.00  0.00     0.009 A 
ATOM     67  C   UNL     1      -2.024  -3.555 -13.501  1.00  0.00     0.001 A 
ATOM     68  C   UNL     1      -1.967  -5.969 -13.566  1.00  0.00     0.001 A 
ATOM     69  C   UNL     1      -2.580  -4.766 -13.912  1.00  0.00     0.000 A 
ENDBRANCH  50  64
BRANCH  51  70
ATOM     70  C   UNL     1       7.821  -4.798  -6.494  1.00  0.00    -0.014 A 
ATOM     71  C   UNL     1       8.857  -3.875  -6.698  1.00  0.00     0.009 A 
ATOM     72  C   UNL     1       7.952  -5.752  -5.472  1.00  0.00     0.009 A 
ATOM     73  C   UNL     1      10.011  -3.923  -5.912  1.00  0.00     0.001 A 
ATOM     74  C   UNL     1       9.094  -5.780  -4.670  1.00  0.00     0.001 A 
ATOM     75  C   UNL     1      10.127  -4.872  -4.897  1.00  0.00     0.000 A 
ENDBRANCH  51  70
BRANCH  63  76
ATOM     76  C   UNL     1       6.762  -6.328 -13.195  1.00  0.00    -0.014 A 
ATOM     77  C   UNL     1       7.284  -7.631 -13.215  1.00  0.00     0.009 A 
ATOM     78  C   UNL     1       7.101  -5.443 -14.230  1.00  0.00     0.009 A 
ATOM     79  C   UNL     1       8.159  -8.025 -14.230  1.00  0.00     0.001 A 
ATOM     80  C   UNL     1       7.953  -5.849 -15.258  1.00  0.00     0.001 A 
ATOM     81  C   UNL     1       8.490  -7.135 -15.251  1.00  0.00     0.000 A 
ENDBRANCH  63  76
ENDBRANCH  37  38
ENDBRANCH  30  32
ENDBRANCH  29  30
ENDBRANCH  28  29
ENDBRANCH  27  28
ENDBRANCH   1  27
TORSDOF 17
