REMARK SMILES CCCCNC(=O)[C@@H](C)Oc1ccc(N)cc1C(=O)OCCOCCOC(=O)c1ccc(-c2c3nc(c(-c4ccccc4)c4ccc([nH]4)c(-c4ccccc4)c4nc(c(-c5ccccc5)c5ccc2[nH]5)C=C4)C=C3)cc1
REMARK SMILES IDX 21 1 20 2 18 3 19 4 17 5 11 6 12 7 13 8 16 9 14 10 10 11
REMARK SMILES IDX 8 12 9 13 6 14 5 15 7 17 4 18 3 19 2 20 1 21 15 22 22 25
REMARK SMILES IDX 23 26 24 27 25 28 26 29 27 30 28 31 29 32 30 33 76 34 31 35
REMARK SMILES IDX 75 36 32 37 33 38 34 39 69 40 35 41 74 42 68 43 70 44 36 45
REMARK SMILES IDX 73 46 67 47 66 48 37 50 59 51 44 52 58 53 45 54 48 55 57 56
REMARK SMILES IDX 71 57 46 58 47 59 56 61 72 62 49 63 38 64 39 65 43 66 40 67
REMARK SMILES IDX 42 68 41 69 60 70 61 71 65 72 62 73 64 74 63 75 50 76 51 77
REMARK SMILES IDX 55 78 52 79 54 80 53 81
REMARK H PARENT 5 16 15 23 15 24 70 49 48 60
REMARK Flexibility Score: inf
ROOT
ATOM      1  C   UNL     1       1.969   6.793  -5.986  1.00  0.00     0.261 C 
ENDROOT
BRANCH   1   2
ATOM      2  O   UNL     1       1.481   5.694  -5.196  1.00  0.00    -0.460 OA
BRANCH   2   3
ATOM      3  C   UNL     1       2.113   4.526  -5.443  1.00  0.00     0.342 C 
ATOM      4  O   UNL     1       2.965   4.346  -6.304  1.00  0.00    -0.246 OA
BRANCH   3   5
ATOM      5  C   UNL     1       1.781   3.452  -4.479  1.00  0.00     0.104 A 
ATOM      6  C   UNL     1       0.526   3.216  -3.911  1.00  0.00     0.135 A 
ATOM      7  C   UNL     1       0.265   1.931  -3.442  1.00  0.00     0.049 A 
ATOM      8  C   UNL     1       1.306   1.011  -3.260  1.00  0.00     0.029 A 
ATOM      9  C   UNL     1       2.832   2.545  -4.235  1.00  0.00     0.045 A 
ATOM     10  C   UNL     1       2.620   1.365  -3.534  1.00  0.00     0.032 A 
BRANCH   6  11
ATOM     11  O   UNL     1      -0.463   4.151  -3.909  1.00  0.00    -0.480 OA
BRANCH  11  12
ATOM     12  C   UNL     1      -0.975   4.544  -2.624  1.00  0.00     0.258 C 
ATOM     13  C   UNL     1      -0.083   5.582  -1.936  1.00  0.00     0.064 C 
BRANCH  12  14
ATOM     14  C   UNL     1      -1.688   3.574  -1.617  1.00  0.00     0.260 C 
ATOM     15  N   UNL     1      -1.061   2.936  -0.583  1.00  0.00    -0.353 N 
ATOM     16  H   UNL     1      -1.667   2.572   0.103  1.00  0.00     0.163 HD
ATOM     17  O   UNL     1      -2.901   3.356  -1.729  1.00  0.00    -0.271 OA
BRANCH  15  18
ATOM     18  C   UNL     1       0.348   2.708  -0.330  1.00  0.00     0.116 C 
BRANCH  18  19
ATOM     19  C   UNL     1       0.677   2.325   1.110  1.00  0.00     0.021 C 
BRANCH  19  20
ATOM     20  C   UNL     1       0.247   0.911   1.528  1.00  0.00    -0.002 C 
ATOM     21  C   UNL     1       0.798  -0.204   0.646  1.00  0.00     0.004 C 
ENDBRANCH  19  20
ENDBRANCH  18  19
ENDBRANCH  15  18
ENDBRANCH  12  14
ENDBRANCH  11  12
ENDBRANCH   6  11
BRANCH  10  22
ATOM     22  N   UNL     1       3.666   0.503  -3.269  1.00  0.00    -0.399 N 
ATOM     23  H   UNL     1       3.502  -0.331  -2.771  1.00  0.00     0.156 HD
ATOM     24  H   UNL     1       4.575   0.721  -3.577  1.00  0.00     0.156 HD
ENDBRANCH  10  22
ENDBRANCH   3   5
ENDBRANCH   2   3
ENDBRANCH   1   2
BRANCH   1  25
ATOM     25  C   UNL     1       2.819   7.743  -5.143  1.00  0.00     0.202 C 
BRANCH  25  26
ATOM     26  O   UNL     1       4.008   7.193  -4.576  1.00  0.00    -0.374 OA
BRANCH  26  27
ATOM     27  C   UNL     1       3.866   6.466  -3.354  1.00  0.00     0.202 C 
BRANCH  27  28
ATOM     28  C   UNL     1       3.749   7.314  -2.082  1.00  0.00     0.261 C 
BRANCH  28  29
ATOM     29  O   UNL     1       2.474   7.979  -2.009  1.00  0.00    -0.460 OA
BRANCH  29  30
ATOM     30  C   UNL     1       2.513   9.316  -2.204  1.00  0.00     0.338 C 
ATOM     31  O   UNL     1       3.508  10.022  -2.314  1.00  0.00    -0.246 OA
BRANCH  30  32
ATOM     32  C   UNL     1       1.153   9.821  -2.471  1.00  0.00     0.060 A 
ATOM     33  C   UNL     1       0.971  10.618  -3.609  1.00  0.00     0.016 A 
ATOM     34  C   UNL     1       0.087   9.564  -1.606  1.00  0.00     0.016 A 
ATOM     35  C   UNL     1      -0.265  11.209  -3.858  1.00  0.00     0.010 A 
ATOM     36  C   UNL     1      -1.151  10.164  -1.853  1.00  0.00     0.010 A 
ATOM     37  C   UNL     1      -1.320  11.021  -2.957  1.00  0.00    -0.014 A 
BRANCH  37  38
ATOM     38  C   UNL     1      -2.541  11.850  -3.083  1.00  0.00     0.031 A 
ATOM     39  C   UNL     1      -2.698  13.053  -2.195  1.00  0.00     0.074 A 
ATOM     40  C   UNL     1      -3.488  11.553  -3.989  1.00  0.00     0.049 A 
ATOM     41  N   UNL     1      -3.685  13.909  -2.124  1.00  0.00    -0.248 NA
ATOM     42  C   UNL     1      -1.595  13.322  -1.259  1.00  0.00     0.031 C 
ATOM     43  C   UNL     1      -3.441  10.434  -4.926  1.00  0.00     0.029 A 
ATOM     44  N   UNL     1      -4.682  12.173  -4.257  1.00  0.00    -0.354 N 
ATOM     45  C   UNL     1      -3.330  14.807  -1.125  1.00  0.00     0.074 A 
ATOM     46  C   UNL     1      -2.053  14.375  -0.600  1.00  0.00     0.031 C 
ATOM     47  C   UNL     1      -4.566  10.437  -5.661  1.00  0.00     0.029 A 
ATOM     48  C   UNL     1      -5.420  11.540  -5.225  1.00  0.00     0.049 A 
ATOM     49  H   UNL     1      -4.981  12.991  -3.799  1.00  0.00     0.167 HD
ATOM     50  C   UNL     1      -4.005  15.896  -0.685  1.00  0.00     0.031 A 
ATOM     51  C   UNL     1      -6.655  11.807  -5.692  1.00  0.00     0.031 A 
ATOM     52  C   UNL     1      -5.281  16.319  -1.198  1.00  0.00     0.049 A 
ATOM     53  C   UNL     1      -7.413  12.989  -5.154  1.00  0.00     0.074 A 
ATOM     54  C   UNL     1      -6.026  17.430  -0.846  1.00  0.00     0.029 A 
ATOM     55  N   UNL     1      -6.007  15.638  -2.163  1.00  0.00    -0.354 N 
ATOM     56  N   UNL     1      -7.048  13.860  -4.243  1.00  0.00    -0.248 NA
ATOM     57  C   UNL     1      -8.749  13.232  -5.717  1.00  0.00     0.031 C 
ATOM     58  C   UNL     1      -7.233  17.387  -1.553  1.00  0.00     0.029 A 
ATOM     59  C   UNL     1      -7.210  16.284  -2.392  1.00  0.00     0.049 A 
ATOM     60  H   UNL     1      -5.711  14.816  -2.618  1.00  0.00     0.167 HD
ATOM     61  C   UNL     1      -8.099  14.764  -4.138  1.00  0.00     0.074 A 
ATOM     62  C   UNL     1      -9.108  14.343  -5.089  1.00  0.00     0.031 C 
ATOM     63  C   UNL     1      -8.213  15.847  -3.330  1.00  0.00     0.031 A 
BRANCH  50  64
ATOM     64  C   UNL     1      -3.388  16.671   0.447  1.00  0.00    -0.014 A 
ATOM     65  C   UNL     1      -2.220  17.430   0.268  1.00  0.00     0.009 A 
ATOM     66  C   UNL     1      -3.987  16.637   1.715  1.00  0.00     0.009 A 
ATOM     67  C   UNL     1      -1.639  18.097   1.349  1.00  0.00     0.001 A 
ATOM     68  C   UNL     1      -3.421  17.330   2.787  1.00  0.00     0.001 A 
ATOM     69  C   UNL     1      -2.240  18.048   2.606  1.00  0.00     0.000 A 
ENDBRANCH  50  64
BRANCH  51  70
ATOM     70  C   UNL     1      -7.254  10.917  -6.719  1.00  0.00    -0.014 A 
ATOM     71  C   UNL     1      -7.399  11.346  -8.046  1.00  0.00     0.009 A 
ATOM     72  C   UNL     1      -7.658   9.616  -6.377  1.00  0.00     0.009 A 
ATOM     73  C   UNL     1      -7.947  10.493  -9.008  1.00  0.00     0.001 A 
ATOM     74  C   UNL     1      -8.181   8.757  -7.345  1.00  0.00     0.001 A 
ATOM     75  C   UNL     1      -8.329   9.198  -8.658  1.00  0.00     0.000 A 
ENDBRANCH  51  70
BRANCH  63  76
ATOM     76  C   UNL     1      -9.466  16.670  -3.452  1.00  0.00    -0.014 A 
ATOM     77  C   UNL     1     -10.698  16.201  -2.969  1.00  0.00     0.009 A 
ATOM     78  C   UNL     1      -9.402  17.954  -4.016  1.00  0.00     0.009 A 
ATOM     79  C   UNL     1     -11.846  16.990  -3.077  1.00  0.00     0.001 A 
ATOM     80  C   UNL     1     -10.545  18.752  -4.096  1.00  0.00     0.001 A 
ATOM     81  C   UNL     1     -11.767  18.265  -3.635  1.00  0.00     0.000 A 
ENDBRANCH  63  76
ENDBRANCH  37  38
ENDBRANCH  30  32
ENDBRANCH  29  30
ENDBRANCH  28  29
ENDBRANCH  27  28
ENDBRANCH  26  27
ENDBRANCH  25  26
ENDBRANCH   1  25
TORSDOF 21
