REMARK SMILES C[C@H]1[C@H](C(=O)OCCOCCOC(=O)c2ccc(-c3c4nc(c(-c5ccccc5)c5ccc([nH]5)c(-c5ccccc5)c5nc(c(-c6ccccc6)c6ccc3[nH]6)C=C5)C=C4)cc2)CC[N@@H+]1Cc1nnnn1-c1ccccc1
REMARK SMILES IDX 8 1 7 2 6 3 4 4 5 5 3 6 1 7 2 8 65 9 63 10 64 11 66 13 67 14
REMARK SMILES IDX 68 15 71 16 69 17 70 18 72 19 73 20 77 21 74 22 76 23 75 24
REMARK SMILES IDX 9 25 10 26 11 27 12 28 13 29 14 30 15 31 16 32 62 33 17 34
REMARK SMILES IDX 61 35 18 36 19 37 20 38 55 39 21 40 60 41 54 42 56 43 22 44
REMARK SMILES IDX 59 45 53 46 52 47 23 49 45 50 30 51 44 52 31 53 34 54 43 55
REMARK SMILES IDX 57 56 32 57 33 58 42 60 58 61 35 62 24 63 25 64 29 65 26 66
REMARK SMILES IDX 28 67 27 68 46 69 47 70 51 71 48 72 50 73 49 74 36 75 37 76
REMARK SMILES IDX 41 77 38 78 40 79 39 80
REMARK H PARENT 65 12 56 48 34 59
REMARK Flexibility Score: inf
ROOT
ATOM      1  C   UNL     1       0.579   3.934   3.356  1.00  0.00     0.202 C 
ENDROOT
BRANCH   1   2
ATOM      2  C   UNL     1      -0.672   3.623   2.533  1.00  0.00     0.261 C 
BRANCH   2   3
ATOM      3  O   UNL     1      -0.450   2.427   1.768  1.00  0.00    -0.463 OA
BRANCH   3   4
ATOM      4  C   UNL     1      -0.725   2.484   0.448  1.00  0.00     0.315 C 
ATOM      5  O   UNL     1      -1.323   3.400  -0.105  1.00  0.00    -0.252 OA
BRANCH   4   6
ATOM      6  C   UNL     1      -0.184   1.292  -0.321  1.00  0.00     0.162 C 
ATOM      7  C   UNL     1       1.994   0.021  -0.184  1.00  0.00     0.076 C 
ATOM      8  C   UNL     1       0.616   0.231   0.463  1.00  0.00     0.195 C 
ATOM      9  N   UNL     1      -0.114  -1.035   0.320  1.00  0.00    -0.326 N 
ATOM     10  C   UNL     1      -1.343   0.543  -0.961  1.00  0.00     0.083 C 
ATOM     11  C   UNL     1      -0.989  -0.922  -0.836  1.00  0.00     0.263 C 
ATOM     12  H   UNL     1       0.550  -1.784   0.124  1.00  0.00     0.348 HD
BRANCH   9  13
ATOM     13  C   UNL     1      -0.655  -1.631   1.548  1.00  0.00     0.343 C 
BRANCH  13  14
ATOM     14  C   UNL     1      -1.491  -0.779   2.446  1.00  0.00     0.210 A 
ATOM     15  N   UNL     1      -1.051  -0.163   3.531  1.00  0.00    -0.107 NA
ATOM     16  N   UNL     1      -2.816  -0.420   2.265  1.00  0.00    -0.192 N 
ATOM     17  N   UNL     1      -2.062   0.652   3.953  1.00  0.00    -0.023 NA
ATOM     18  N   UNL     1      -3.108   0.564   3.148  1.00  0.00    -0.040 NA
BRANCH  16  19
ATOM     19  C   UNL     1      -3.760  -0.848   1.309  1.00  0.00     0.069 A 
ATOM     20  C   UNL     1      -4.588   0.110   0.706  1.00  0.00     0.028 A 
ATOM     21  C   UNL     1      -3.819  -2.184   0.901  1.00  0.00     0.028 A 
ATOM     22  C   UNL     1      -5.367  -0.250  -0.393  1.00  0.00     0.002 A 
ATOM     23  C   UNL     1      -4.630  -2.542  -0.177  1.00  0.00     0.002 A 
ATOM     24  C   UNL     1      -5.377  -1.571  -0.842  1.00  0.00     0.000 A 
ENDBRANCH  16  19
ENDBRANCH  13  14
ENDBRANCH   9  13
ENDBRANCH   4   6
ENDBRANCH   3   4
ENDBRANCH   2   3
ENDBRANCH   1   2
BRANCH   1  25
ATOM     25  O   UNL     1       1.717   4.367   2.603  1.00  0.00    -0.374 OA
BRANCH  25  26
ATOM     26  C   UNL     1       2.416   3.384   1.841  1.00  0.00     0.202 C 
BRANCH  26  27
ATOM     27  C   UNL     1       3.394   2.491   2.613  1.00  0.00     0.261 C 
BRANCH  27  28
ATOM     28  O   UNL     1       2.748   1.712   3.634  1.00  0.00    -0.460 OA
BRANCH  28  29
ATOM     29  C   UNL     1       3.025   2.120   4.893  1.00  0.00     0.338 C 
ATOM     30  O   UNL     1       3.813   2.999   5.226  1.00  0.00    -0.246 OA
BRANCH  29  31
ATOM     31  C   UNL     1       2.157   1.459   5.883  1.00  0.00     0.060 A 
ATOM     32  C   UNL     1       1.556   2.284   6.841  1.00  0.00     0.016 A 
ATOM     33  C   UNL     1       2.049   0.069   5.975  1.00  0.00     0.016 A 
ATOM     34  C   UNL     1       0.926   1.724   7.947  1.00  0.00     0.010 A 
ATOM     35  C   UNL     1       1.413  -0.494   7.090  1.00  0.00     0.010 A 
ATOM     36  C   UNL     1       0.903   0.332   8.108  1.00  0.00    -0.014 A 
BRANCH  36  37
ATOM     37  C   UNL     1       0.516  -0.214   9.432  1.00  0.00     0.031 A 
ATOM     38  C   UNL     1       1.597  -0.591  10.412  1.00  0.00     0.074 A 
ATOM     39  C   UNL     1      -0.775  -0.275   9.803  1.00  0.00     0.049 A 
ATOM     40  N   UNL     1       1.490  -0.985  11.657  1.00  0.00    -0.248 NA
ATOM     41  C   UNL     1       2.984  -0.506   9.927  1.00  0.00     0.031 C 
ATOM     42  C   UNL     1      -1.914   0.099   8.966  1.00  0.00     0.029 A 
ATOM     43  N   UNL     1      -1.339  -0.656  10.994  1.00  0.00    -0.354 N 
ATOM     44  C   UNL     1       2.791  -1.192  12.100  1.00  0.00     0.074 A 
ATOM     45  C   UNL     1       3.668  -0.917  10.984  1.00  0.00     0.031 C 
ATOM     46  C   UNL     1      -3.044  -0.057   9.678  1.00  0.00     0.029 A 
ATOM     47  C   UNL     1      -2.708  -0.557  11.009  1.00  0.00     0.049 A 
ATOM     48  H   UNL     1      -0.813  -0.970  11.765  1.00  0.00     0.167 HD
ATOM     49  C   UNL     1       3.221  -1.564  13.329  1.00  0.00     0.031 A 
ATOM     50  C   UNL     1      -3.590  -0.838  11.988  1.00  0.00     0.031 A 
ATOM     51  C   UNL     1       2.356  -1.845  14.443  1.00  0.00     0.049 A 
ATOM     52  C   UNL     1      -3.090  -1.305  13.328  1.00  0.00     0.074 A 
ATOM     53  C   UNL     1       2.700  -2.222  15.730  1.00  0.00     0.029 A 
ATOM     54  N   UNL     1       0.973  -1.784  14.399  1.00  0.00    -0.354 N 
ATOM     55  N   UNL     1      -1.857  -1.469  13.741  1.00  0.00    -0.248 NA
ATOM     56  C   UNL     1      -4.110  -1.610  14.343  1.00  0.00     0.031 C 
ATOM     57  C   UNL     1       1.521  -2.434  16.453  1.00  0.00     0.029 A 
ATOM     58  C   UNL     1       0.446  -2.138  15.630  1.00  0.00     0.049 A 
ATOM     59  H   UNL     1       0.443  -1.528  13.610  1.00  0.00     0.167 HD
ATOM     60  C   UNL     1      -1.952  -1.870  15.069  1.00  0.00     0.074 A 
ATOM     61  C   UNL     1      -3.362  -1.908  15.396  1.00  0.00     0.031 C 
ATOM     62  C   UNL     1      -0.959  -2.176  15.940  1.00  0.00     0.031 A 
BRANCH  49  63
ATOM     63  C   UNL     1       4.704  -1.716  13.522  1.00  0.00    -0.014 A 
ATOM     64  C   UNL     1       5.548  -0.596  13.589  1.00  0.00     0.009 A 
ATOM     65  C   UNL     1       5.261  -2.996  13.663  1.00  0.00     0.009 A 
ATOM     66  C   UNL     1       6.925  -0.758  13.760  1.00  0.00     0.001 A 
ATOM     67  C   UNL     1       6.634  -3.154  13.859  1.00  0.00     0.001 A 
ATOM     68  C   UNL     1       7.466  -2.036  13.898  1.00  0.00     0.000 A 
ENDBRANCH  49  63
BRANCH  50  69
ATOM     69  C   UNL     1      -5.047  -0.685  11.740  1.00  0.00    -0.014 A 
ATOM     70  C   UNL     1      -5.779   0.337  12.364  1.00  0.00     0.009 A 
ATOM     71  C   UNL     1      -5.717  -1.579  10.891  1.00  0.00     0.009 A 
ATOM     72  C   UNL     1      -7.157   0.444  12.162  1.00  0.00     0.001 A 
ATOM     73  C   UNL     1      -7.090  -1.454  10.670  1.00  0.00     0.001 A 
ATOM     74  C   UNL     1      -7.810  -0.449  11.313  1.00  0.00     0.000 A 
ENDBRANCH  50  69
BRANCH  62  75
ATOM     75  C   UNL     1      -1.365  -2.547  17.339  1.00  0.00    -0.014 A 
ATOM     76  C   UNL     1      -1.969  -3.783  17.620  1.00  0.00     0.009 A 
ATOM     77  C   UNL     1      -1.113  -1.657  18.395  1.00  0.00     0.009 A 
ATOM     78  C   UNL     1      -2.348  -4.102  18.925  1.00  0.00     0.001 A 
ATOM     79  C   UNL     1      -1.468  -1.991  19.703  1.00  0.00     0.001 A 
ATOM     80  C   UNL     1      -2.094  -3.208  19.965  1.00  0.00     0.000 A 
ENDBRANCH  62  75
ENDBRANCH  36  37
ENDBRANCH  29  31
ENDBRANCH  28  29
ENDBRANCH  27  28
ENDBRANCH  26  27
ENDBRANCH  25  26
ENDBRANCH   1  25
TORSDOF 17
