REMARK SMILES O=C(NCc1ccc(C(=O)OCCOCCOC(=O)c2ccc(-c3c4nc(c(-c5ccccc5)c5ccc([nH]5)c(-c5ccccc5)c5nc(c(-c6ccccc6)c6ccc3[nH]6)C=C5)C=C4)cc2)o1)Nc1ccc(F)c(Cl)c1
REMARK SMILES IDX 13 1 12 2 11 3 9 4 10 5 8 6 5 7 6 8 68 9 7 10 4 11 3 12 1 13
REMARK SMILES IDX 2 14 69 15 70 18 71 19 77 20 72 21 75 22 73 23 76 24 74 25
REMARK SMILES IDX 14 26 15 27 16 28 17 29 18 30 19 31 20 32 21 33 67 34 22 35
REMARK SMILES IDX 66 36 23 37 24 38 25 39 60 40 26 41 65 42 59 43 61 44 27 45
REMARK SMILES IDX 64 46 58 47 57 48 28 50 50 51 35 52 49 53 36 54 39 55 48 56
REMARK SMILES IDX 62 57 37 58 38 59 47 61 63 62 40 63 29 64 30 65 34 66 31 67
REMARK SMILES IDX 33 68 32 69 51 70 52 71 56 72 53 73 55 74 54 75 41 76 42 77
REMARK SMILES IDX 46 78 43 79 45 80 44 81
REMARK H PARENT 3 16 69 17 61 49 39 60
REMARK Flexibility Score: inf
ROOT
ATOM      1  C   UNL     1       8.379   6.029  -3.292  1.00  0.00     0.202 C 
ENDROOT
BRANCH   1   2
ATOM      2  C   UNL     1       6.946   5.806  -3.785  1.00  0.00     0.261 C 
BRANCH   2   3
ATOM      3  O   UNL     1       6.101   5.441  -2.681  1.00  0.00    -0.457 OA
BRANCH   3   4
ATOM      4  C   UNL     1       5.635   4.159  -2.687  1.00  0.00     0.374 C 
ATOM      5  O   UNL     1       5.695   3.397  -3.644  1.00  0.00    -0.242 OA
BRANCH   4   6
ATOM      6  C   UNL     1       5.179   3.812  -1.360  1.00  0.00     0.211 A 
ATOM      7  C   UNL     1       4.679   2.382   0.243  1.00  0.00     0.124 A 
ATOM      8  C   UNL     1       4.600   3.638   0.808  1.00  0.00     0.048 A 
ATOM      9  O   UNL     1       5.021   2.483  -1.069  1.00  0.00    -0.452 OA
ATOM     10  C   UNL     1       4.921   4.557  -0.222  1.00  0.00     0.058 A 
BRANCH   7  11
ATOM     11  C   UNL     1       4.450   1.008   0.756  1.00  0.00     0.193 C 
BRANCH  11  12
ATOM     12  N   UNL     1       3.021   0.817   0.852  1.00  0.00    -0.331 N 
ATOM     13  O   UNL     1       1.005   0.237   0.152  1.00  0.00    -0.248 OA
ATOM     14  C   UNL     1       2.208  -0.008   0.147  1.00  0.00     0.319 C 
ATOM     15  N   UNL     1       2.799  -1.077  -0.466  1.00  0.00    -0.308 N 
ATOM     16  H   UNL     1       2.570   1.368   1.532  1.00  0.00     0.165 HD
ATOM     17  H   UNL     1       3.740  -1.261  -0.246  1.00  0.00     0.171 HD
BRANCH  15  18
ATOM     18  C   UNL     1       2.170  -1.938  -1.389  1.00  0.00     0.044 A 
ATOM     19  C   UNL     1       2.708  -3.220  -1.565  1.00  0.00     0.029 A 
ATOM     20  C   UNL     1       1.049  -1.556  -2.136  1.00  0.00     0.049 A 
ATOM     21  C   UNL     1       2.099  -4.127  -2.435  1.00  0.00     0.043 A 
ATOM     22  C   UNL     1       0.455  -2.457  -3.022  1.00  0.00     0.078 A 
ATOM     23  C   UNL     1       0.974  -3.741  -3.157  1.00  0.00     0.141 A 
ATOM     24  Cl  UNL     1      -0.914  -1.964  -3.944  1.00  0.00    -0.081 Cl
ATOM     25  F   UNL     1       0.404  -4.629  -3.985  1.00  0.00    -0.205 F 
ENDBRANCH  15  18
ENDBRANCH  11  12
ENDBRANCH   7  11
ENDBRANCH   4   6
ENDBRANCH   3   4
ENDBRANCH   2   3
ENDBRANCH   1   2
BRANCH   1  26
ATOM     26  O   UNL     1       9.063   4.834  -2.912  1.00  0.00    -0.374 OA
BRANCH  26  27
ATOM     27  C   UNL     1       8.876   4.393  -1.566  1.00  0.00     0.202 C 
BRANCH  27  28
ATOM     28  C   UNL     1       9.807   5.045  -0.539  1.00  0.00     0.261 C 
BRANCH  28  29
ATOM     29  O   UNL     1       9.455   6.425  -0.327  1.00  0.00    -0.460 OA
BRANCH  29  30
ATOM     30  C   UNL     1      10.333   7.323  -0.832  1.00  0.00     0.338 C 
ATOM     31  O   UNL     1      11.415   7.094  -1.345  1.00  0.00    -0.246 OA
BRANCH  30  32
ATOM     32  C   UNL     1       9.723   8.668  -0.835  1.00  0.00     0.060 A 
ATOM     33  C   UNL     1       9.819   9.416  -2.015  1.00  0.00     0.016 A 
ATOM     34  C   UNL     1       9.115   9.211   0.300  1.00  0.00     0.016 A 
ATOM     35  C   UNL     1       9.348  10.726  -2.052  1.00  0.00     0.010 A 
ATOM     36  C   UNL     1       8.647  10.529   0.263  1.00  0.00     0.010 A 
ATOM     37  C   UNL     1       8.790  11.303  -0.903  1.00  0.00    -0.014 A 
BRANCH  37  38
ATOM     38  C   UNL     1       8.471  12.750  -0.889  1.00  0.00     0.031 A 
ATOM     39  C   UNL     1       9.445  13.711  -0.264  1.00  0.00     0.074 A 
ATOM     40  C   UNL     1       7.339  13.210  -1.450  1.00  0.00     0.049 A 
ATOM     41  N   UNL     1       9.359  15.011  -0.136  1.00  0.00    -0.248 NA
ATOM     42  C   UNL     1      10.678  13.129   0.290  1.00  0.00     0.031 C 
ATOM     43  C   UNL     1       6.332  12.389  -2.121  1.00  0.00     0.029 A 
ATOM     44  N   UNL     1       6.848  14.488  -1.540  1.00  0.00    -0.354 N 
ATOM     45  C   UNL     1      10.522  15.402   0.515  1.00  0.00     0.074 A 
ATOM     46  C   UNL     1      11.284  14.200   0.782  1.00  0.00     0.031 C 
ATOM     47  C   UNL     1       5.338  13.185  -2.551  1.00  0.00     0.029 A 
ATOM     48  C   UNL     1       5.626  14.564  -2.161  1.00  0.00     0.049 A 
ATOM     49  H   UNL     1       7.327  15.275  -1.193  1.00  0.00     0.167 HD
ATOM     50  C   UNL     1      10.924  16.649   0.856  1.00  0.00     0.031 A 
ATOM     51  C   UNL     1       4.823  15.624  -2.377  1.00  0.00     0.031 A 
ATOM     52  C   UNL     1      10.166  17.845   0.605  1.00  0.00     0.049 A 
ATOM     53  C   UNL     1       5.259  16.991  -1.923  1.00  0.00     0.074 A 
ATOM     54  C   UNL     1      10.501  19.156   0.897  1.00  0.00     0.029 A 
ATOM     55  N   UNL     1       8.916  17.874   0.009  1.00  0.00    -0.354 N 
ATOM     56  N   UNL     1       6.374  17.350  -1.335  1.00  0.00    -0.248 NA
ATOM     57  C   UNL     1       4.324  18.099  -2.169  1.00  0.00     0.031 C 
ATOM     58  C   UNL     1       9.430  19.974   0.523  1.00  0.00     0.029 A 
ATOM     59  C   UNL     1       8.453  19.178  -0.051  1.00  0.00     0.049 A 
ATOM     60  H   UNL     1       8.429  17.086  -0.324  1.00  0.00     0.167 HD
ATOM     61  C   UNL     1       6.288  18.727  -1.167  1.00  0.00     0.074 A 
ATOM     62  C   UNL     1       5.016  19.139  -1.724  1.00  0.00     0.031 C 
ATOM     63  C   UNL     1       7.185  19.574  -0.607  1.00  0.00     0.031 A 
BRANCH  50  64
ATOM     64  C   UNL     1      12.239  16.777   1.571  1.00  0.00    -0.014 A 
ATOM     65  C   UNL     1      13.456  16.596   0.896  1.00  0.00     0.009 A 
ATOM     66  C   UNL     1      12.260  17.116   2.933  1.00  0.00     0.009 A 
ATOM     67  C   UNL     1      14.668  16.721   1.579  1.00  0.00     0.001 A 
ATOM     68  C   UNL     1      13.473  17.264   3.607  1.00  0.00     0.001 A 
ATOM     69  C   UNL     1      14.675  17.058   2.932  1.00  0.00     0.000 A 
ENDBRANCH  50  64
BRANCH  51  70
ATOM     70  C   UNL     1       3.510  15.436  -3.046  1.00  0.00    -0.014 A 
ATOM     71  C   UNL     1       3.296  15.911  -4.348  1.00  0.00     0.009 A 
ATOM     72  C   UNL     1       2.458  14.791  -2.375  1.00  0.00     0.009 A 
ATOM     73  C   UNL     1       2.047  15.763  -4.957  1.00  0.00     0.001 A 
ATOM     74  C   UNL     1       1.220  14.623  -2.997  1.00  0.00     0.001 A 
ATOM     75  C   UNL     1       1.013  15.116  -4.283  1.00  0.00     0.000 A 
ENDBRANCH  51  70
BRANCH  63  76
ATOM     76  C   UNL     1       6.841  21.036  -0.597  1.00  0.00    -0.014 A 
ATOM     77  C   UNL     1       5.875  21.552   0.281  1.00  0.00     0.009 A 
ATOM     78  C   UNL     1       7.530  21.917  -1.446  1.00  0.00     0.009 A 
ATOM     79  C   UNL     1       5.585  22.918   0.286  1.00  0.00     0.001 A 
ATOM     80  C   UNL     1       7.256  23.285  -1.419  1.00  0.00     0.001 A 
ATOM     81  C   UNL     1       6.279  23.784  -0.560  1.00  0.00     0.000 A 
ENDBRANCH  63  76
ENDBRANCH  37  38
ENDBRANCH  30  32
ENDBRANCH  29  30
ENDBRANCH  28  29
ENDBRANCH  27  28
ENDBRANCH  26  27
ENDBRANCH   1  26
TORSDOF 17
