REMARK SMILES O=C(OCCOCCOC(=O)c1ccc(-c2c3nc(c(-c4ccccc4)c4ccc([nH]4)c(-c4ccccc4)c4nc(c(-c5ccccc5)c5ccc2[nH]5)C=C4)C=C3)cc1)C1=Cc2cc(Cl)c(Cl)cc2O[C@@H]1C(F)(F)F
REMARK SMILES IDX 7 1 6 2 5 3 4 4 3 5 2 6 1 7 60 8 61 9 71 10 62 11 70 12
REMARK SMILES IDX 63 13 69 14 64 15 68 16 65 17 66 18 67 19 72 20 73 21 74 22
REMARK SMILES IDX 75 23 8 24 9 25 10 26 11 27 12 28 13 29 59 30 14 31 58 32
REMARK SMILES IDX 15 33 16 34 17 35 52 36 18 37 57 38 51 39 53 40 19 41 56 42
REMARK SMILES IDX 50 43 49 44 20 46 42 47 27 48 41 49 28 50 31 51 40 52 54 53
REMARK SMILES IDX 29 54 30 55 39 57 55 58 32 59 21 60 22 61 26 62 23 63 25 64
REMARK SMILES IDX 24 65 43 66 44 67 48 68 45 69 47 70 46 71 33 72 34 73 38 74
REMARK SMILES IDX 35 75 37 76 36 77
REMARK H PARENT 53 45 31 56
REMARK Flexibility Score: inf
ROOT
ATOM      1  C   UNL     1       2.853  -2.988  -0.237  1.00  0.00     0.202 C 
ENDROOT
BRANCH   1   2
ATOM      2  O   UNL     1       4.084  -2.323  -0.594  1.00  0.00    -0.374 OA
BRANCH   2   3
ATOM      3  C   UNL     1       4.417  -0.780  -0.991  1.00  0.00     0.202 C 
BRANCH   3   4
ATOM      4  C   UNL     1       3.571   1.080  -0.217  1.00  0.00     0.261 C 
BRANCH   4   5
ATOM      5  O   UNL     1       2.544   1.972  -0.916  1.00  0.00    -0.460 OA
BRANCH   5   6
ATOM      6  C   UNL     1       2.635   1.917  -2.248  1.00  0.00     0.338 C 
ATOM      7  O   UNL     1       1.931   2.424  -3.083  1.00  0.00    -0.246 OA
BRANCH   6   8
ATOM      8  C   UNL     1       3.543   0.791  -2.293  1.00  0.00     0.087 C 
ATOM      9  C   UNL     1       4.938   1.190  -2.018  1.00  0.00     0.027 C 
ATOM     10  C   UNL     1       2.478  -0.359  -1.159  1.00  0.00     0.316 C 
ATOM     11  C   UNL     1       5.781   0.870  -0.452  1.00  0.00     0.019 A 
ATOM     12  O   UNL     1       3.329  -0.655   0.555  1.00  0.00    -0.475 OA
ATOM     13  C   UNL     1       6.997   1.453  -0.233  1.00  0.00     0.034 A 
ATOM     14  C   UNL     1       4.995   0.046   0.859  1.00  0.00     0.129 A 
ATOM     15  C   UNL     1       7.458   1.394   1.093  1.00  0.00     0.060 A 
ATOM     16  C   UNL     1       5.461   0.133   2.139  1.00  0.00     0.069 A 
ATOM     17  Cl  UNL     1       9.027   2.121   1.339  1.00  0.00    -0.083 Cl
ATOM     18  C   UNL     1       6.710   0.824   2.219  1.00  0.00     0.063 A 
ATOM     19  Cl  UNL     1       7.354   1.096   3.812  1.00  0.00    -0.083 Cl
BRANCH  10  20
ATOM     20  C   UNL     1       2.019  -1.365  -2.319  1.00  0.00     0.430 C 
ATOM     21  F   UNL     1       1.124  -2.302  -1.960  1.00  0.00    -0.167 F 
ATOM     22  F   UNL     1       1.374  -0.618  -3.266  1.00  0.00    -0.167 F 
ATOM     23  F   UNL     1       3.026  -1.966  -2.991  1.00  0.00    -0.167 F 
ENDBRANCH  10  20
ENDBRANCH   6   8
ENDBRANCH   5   6
ENDBRANCH   4   5
ENDBRANCH   3   4
ENDBRANCH   2   3
ENDBRANCH   1   2
BRANCH   1  24
ATOM     24  C   UNL     1       2.923  -3.950   0.944  1.00  0.00     0.261 C 
BRANCH  24  25
ATOM     25  O   UNL     1       3.417  -3.319   2.115  1.00  0.00    -0.460 OA
BRANCH  25  26
ATOM     26  C   UNL     1       4.752  -3.450   2.263  1.00  0.00     0.338 C 
ATOM     27  O   UNL     1       5.552  -3.926   1.477  1.00  0.00    -0.246 OA
BRANCH  26  28
ATOM     28  C   UNL     1       5.126  -2.918   3.580  1.00  0.00     0.060 A 
ATOM     29  C   UNL     1       6.443  -2.484   3.742  1.00  0.00     0.016 A 
ATOM     30  C   UNL     1       4.205  -2.844   4.636  1.00  0.00     0.016 A 
ATOM     31  C   UNL     1       6.838  -1.956   4.960  1.00  0.00     0.010 A 
ATOM     32  C   UNL     1       4.604  -2.320   5.859  1.00  0.00     0.010 A 
ATOM     33  C   UNL     1       5.924  -1.882   6.017  1.00  0.00    -0.014 A 
BRANCH  33  34
ATOM     34  C   UNL     1       6.434  -1.552   7.354  1.00  0.00     0.031 A 
ATOM     35  C   UNL     1       6.962  -2.682   8.178  1.00  0.00     0.074 A 
ATOM     36  C   UNL     1       6.479  -0.281   7.780  1.00  0.00     0.049 A 
ATOM     37  N   UNL     1       7.518  -2.652   9.357  1.00  0.00    -0.248 NA
ATOM     38  C   UNL     1       6.849  -4.028   7.588  1.00  0.00     0.031 C 
ATOM     39  C   UNL     1       6.022   0.882   7.023  1.00  0.00     0.029 A 
ATOM     40  N   UNL     1       6.951   0.243   8.952  1.00  0.00    -0.354 N 
ATOM     41  C   UNL     1       7.830  -3.972   9.646  1.00  0.00     0.074 A 
ATOM     42  C   UNL     1       7.372  -4.781   8.540  1.00  0.00     0.031 C 
ATOM     43  C   UNL     1       6.271   1.993   7.737  1.00  0.00     0.029 A 
ATOM     44  C   UNL     1       6.843   1.609   9.024  1.00  0.00     0.049 A 
ATOM     45  H   UNL     1       7.333  -0.307   9.674  1.00  0.00     0.167 HD
ATOM     46  C   UNL     1       8.446  -4.460  10.744  1.00  0.00     0.031 A 
ATOM     47  C   UNL     1       7.153   2.443  10.034  1.00  0.00     0.031 A 
ATOM     48  C   UNL     1       8.841  -3.644  11.857  1.00  0.00     0.049 A 
ATOM     49  C   UNL     1       7.734   1.854  11.293  1.00  0.00     0.074 A 
ATOM     50  C   UNL     1       9.450  -4.031  13.035  1.00  0.00     0.029 A 
ATOM     51  N   UNL     1       8.643  -2.272  11.934  1.00  0.00    -0.354 N 
ATOM     52  N   UNL     1       8.049   0.607  11.557  1.00  0.00    -0.248 NA
ATOM     53  C   UNL     1       8.005   2.788  12.393  1.00  0.00     0.031 C 
ATOM     54  C   UNL     1       9.548  -2.906  13.858  1.00  0.00     0.029 A 
ATOM     55  C   UNL     1       9.086  -1.802  13.157  1.00  0.00     0.049 A 
ATOM     56  H   UNL     1       8.247  -1.717  11.225  1.00  0.00     0.167 HD
ATOM     57  C   UNL     1       8.587   0.613  12.838  1.00  0.00     0.074 A 
ATOM     58  C   UNL     1       8.572   1.991  13.287  1.00  0.00     0.031 C 
ATOM     59  C   UNL     1       9.055  -0.424  13.578  1.00  0.00     0.031 A 
BRANCH  46  60
ATOM     60  C   UNL     1       8.653  -5.945  10.807  1.00  0.00    -0.014 A 
ATOM     61  C   UNL     1       9.550  -6.600   9.946  1.00  0.00     0.009 A 
ATOM     62  C   UNL     1       7.931  -6.703  11.740  1.00  0.00     0.009 A 
ATOM     63  C   UNL     1       9.689  -7.989   9.996  1.00  0.00     0.001 A 
ATOM     64  C   UNL     1       8.099  -8.086  11.812  1.00  0.00     0.001 A 
ATOM     65  C   UNL     1       8.969  -8.729  10.933  1.00  0.00     0.000 A 
ENDBRANCH  46  60
BRANCH  47  66
ATOM     66  C   UNL     1       6.886   3.902   9.921  1.00  0.00    -0.014 A 
ATOM     67  C   UNL     1       7.934   4.834   9.949  1.00  0.00     0.009 A 
ATOM     68  C   UNL     1       5.567   4.375   9.822  1.00  0.00     0.009 A 
ATOM     69  C   UNL     1       7.665   6.206   9.922  1.00  0.00     0.001 A 
ATOM     70  C   UNL     1       5.302   5.744   9.757  1.00  0.00     0.001 A 
ATOM     71  C   UNL     1       6.350   6.659   9.822  1.00  0.00     0.000 A 
ENDBRANCH  47  66
BRANCH  59  72
ATOM     72  C   UNL     1       9.635  -0.099  14.928  1.00  0.00    -0.014 A 
ATOM     73  C   UNL     1       8.833   0.348  15.989  1.00  0.00     0.009 A 
ATOM     74  C   UNL     1      11.009  -0.291  15.148  1.00  0.00     0.009 A 
ATOM     75  C   UNL     1       9.404   0.637  17.230  1.00  0.00     0.001 A 
ATOM     76  C   UNL     1      11.569  -0.043  16.401  1.00  0.00     0.001 A 
ATOM     77  C   UNL     1      10.768   0.435  17.436  1.00  0.00     0.000 A 
ENDBRANCH  59  72
ENDBRANCH  33  34
ENDBRANCH  26  28
ENDBRANCH  25  26
ENDBRANCH  24  25
ENDBRANCH   1  24
TORSDOF 15
