REMARK SMILES COC(=O)c1ccc2c(c1)=N[C@H](c1cn(CCC(=O)OCCOCCOC(=O)c3ccc(-c4c5nc(c(-c6ccccc6)c6ccc([nH]6)c(-c6ccccc6)c6nc(c(-c7ccccc7)c7ccc4[nH]7)C=C6)C=C5)cc3)c3ccccc13)N=2
REMARK SMILES IDX 21 1 20 2 18 3 19 4 17 5 16 6 15 7 13 8 14 9 82 10 77 11
REMARK SMILES IDX 81 12 78 13 80 14 79 15 12 16 5 17 6 18 10 19 7 20 9 21 8 22
REMARK SMILES IDX 11 23 83 24 3 25 4 26 2 27 1 28 22 29 23 30 24 31 25 32
REMARK SMILES IDX 26 33 27 34 28 35 29 36 30 37 76 38 31 39 75 40 32 41 33 42
REMARK SMILES IDX 34 43 69 44 35 45 74 46 68 47 70 48 36 49 73 50 67 51 66 52
REMARK SMILES IDX 37 54 59 55 44 56 58 57 45 58 48 59 57 60 71 61 46 62 47 63
REMARK SMILES IDX 56 65 72 66 49 67 38 68 39 69 43 70 40 71 42 72 41 73 60 74
REMARK SMILES IDX 61 75 65 76 62 77 64 78 63 79 50 80 51 81 55 82 52 83 54 84
REMARK SMILES IDX 53 85
REMARK H PARENT 70 53 48 64
REMARK Flexibility Score: inf
ROOT
ATOM      1  C   UNL     1      -1.853  11.699  -8.361  1.00  0.00     0.261 C 
ENDROOT
BRANCH   1   2
ATOM      2  O   UNL     1      -0.696  10.847  -8.461  1.00  0.00    -0.463 OA
BRANCH   2   3
ATOM      3  C   UNL     1       0.505  11.462  -8.596  1.00  0.00     0.307 C 
ATOM      4  O   UNL     1       0.685  12.672  -8.605  1.00  0.00    -0.252 OA
BRANCH   3   5
ATOM      5  C   UNL     1       1.626  10.464  -8.722  1.00  0.00     0.144 C 
BRANCH   5   6
ATOM      6  C   UNL     1       2.147   9.980  -7.368  1.00  0.00     0.134 C 
BRANCH   6   7
ATOM      7  N   UNL     1       1.650   8.658  -7.024  1.00  0.00    -0.346 N 
ATOM      8  C   UNL     1       1.204   6.537  -7.399  1.00  0.00     0.024 A 
ATOM      9  C   UNL     1       2.254   7.456  -7.316  1.00  0.00     0.094 A 
ATOM     10  C   UNL     1       0.016   7.366  -7.515  1.00  0.00     0.007 A 
ATOM     11  C   UNL     1       0.396   8.326  -6.571  1.00  0.00     0.048 A 
ATOM     12  C   UNL     1      -1.343   7.030  -7.569  1.00  0.00     0.011 A 
ATOM     13  C   UNL     1      -0.207   8.313  -5.309  1.00  0.00     0.027 A 
ATOM     14  C   UNL     1      -1.962   6.954  -6.328  1.00  0.00     0.001 A 
ATOM     15  C   UNL     1      -1.330   7.480  -5.197  1.00  0.00     0.002 A 
BRANCH   8  16
ATOM     16  C   UNL     1       1.267   5.042  -7.169  1.00  0.00     0.255 C 
ATOM     17  C   UNL     1       0.717   2.989  -3.152  1.00  0.00     0.062 A 
ATOM     18  C   UNL     1      -0.637   2.856  -3.679  1.00  0.00     0.018 A 
ATOM     19  C   UNL     1       1.679   3.659  -3.812  1.00  0.00     0.046 A 
ATOM     20  C   UNL     1      -1.010   3.338  -4.877  1.00  0.00     0.031 A 
ATOM     21  C   UNL     1       1.366   4.190  -5.148  1.00  0.00     0.087 A 
ATOM     22  C   UNL     1       0.011   4.005  -5.700  1.00  0.00     0.086 A 
ATOM     23  N   UNL     1       2.152   4.773  -5.986  1.00  0.00    -0.252 NA
ATOM     24  N   UNL     1      -0.080   4.444  -6.906  1.00  0.00    -0.252 NA
BRANCH  17  25
ATOM     25  C   UNL     1       1.121   2.377  -1.849  1.00  0.00     0.337 C 
ATOM     26  O   UNL     1       1.967   2.848  -1.104  1.00  0.00    -0.246 OA
BRANCH  25  27
ATOM     27  O   UNL     1       0.470   1.198  -1.665  1.00  0.00    -0.465 OA
ATOM     28  C   UNL     1       0.901   0.461  -0.515  1.00  0.00     0.282 C 
ENDBRANCH  25  27
ENDBRANCH  17  25
ENDBRANCH   8  16
ENDBRANCH   6   7
ENDBRANCH   5   6
ENDBRANCH   3   5
ENDBRANCH   2   3
ENDBRANCH   1   2
BRANCH   1  29
ATOM     29  C   UNL     1      -2.318  11.853  -6.912  1.00  0.00     0.202 C 
BRANCH  29  30
ATOM     30  O   UNL     1      -1.548  12.770  -6.125  1.00  0.00    -0.374 OA
BRANCH  30  31
ATOM     31  C   UNL     1      -0.412  12.184  -5.485  1.00  0.00     0.202 C 
BRANCH  31  32
ATOM     32  C   UNL     1      -0.667  11.787  -4.025  1.00  0.00     0.261 C 
BRANCH  32  33
ATOM     33  O   UNL     1      -1.696  10.791  -3.983  1.00  0.00    -0.460 OA
BRANCH  33  34
ATOM     34  C   UNL     1      -2.798  11.103  -3.248  1.00  0.00     0.338 C 
ATOM     35  O   UNL     1      -2.879  11.838  -2.299  1.00  0.00    -0.246 OA
BRANCH  34  36
ATOM     36  C   UNL     1      -3.935  10.614  -4.054  1.00  0.00     0.060 A 
ATOM     37  C   UNL     1      -3.928   9.321  -4.555  1.00  0.00     0.016 A 
ATOM     38  C   UNL     1      -4.863  11.544  -4.514  1.00  0.00     0.016 A 
ATOM     39  C   UNL     1      -4.696   9.012  -5.665  1.00  0.00     0.010 A 
ATOM     40  C   UNL     1      -5.709  11.201  -5.567  1.00  0.00     0.010 A 
ATOM     41  C   UNL     1      -5.573   9.962  -6.205  1.00  0.00    -0.014 A 
BRANCH  41  42
ATOM     42  C   UNL     1      -6.424   9.528  -7.332  1.00  0.00     0.031 A 
ATOM     43  C   UNL     1      -7.089   8.199  -7.132  1.00  0.00     0.074 A 
ATOM     44  C   UNL     1      -6.727  10.295  -8.403  1.00  0.00     0.049 A 
ATOM     45  N   UNL     1      -7.191   7.206  -7.959  1.00  0.00    -0.248 NA
ATOM     46  C   UNL     1      -7.614   7.909  -5.782  1.00  0.00     0.031 C 
ATOM     47  C   UNL     1      -6.327  11.688  -8.620  1.00  0.00     0.029 A 
ATOM     48  N   UNL     1      -7.585  10.056  -9.449  1.00  0.00    -0.354 N 
ATOM     49  C   UNL     1      -7.925   6.230  -7.284  1.00  0.00     0.074 A 
ATOM     50  C   UNL     1      -8.010   6.646  -5.911  1.00  0.00     0.031 C 
ATOM     51  C   UNL     1      -7.156  12.251  -9.523  1.00  0.00     0.029 A 
ATOM     52  C   UNL     1      -8.040  11.226 -10.048  1.00  0.00     0.049 A 
ATOM     53  H   UNL     1      -7.849   9.154  -9.742  1.00  0.00     0.167 HD
ATOM     54  C   UNL     1      -8.647   5.279  -7.934  1.00  0.00     0.031 A 
ATOM     55  C   UNL     1      -9.118  11.386 -10.851  1.00  0.00     0.031 A 
ATOM     56  C   UNL     1      -8.232   5.092  -9.293  1.00  0.00     0.049 A 
ATOM     57  C   UNL     1      -9.506  10.086 -11.427  1.00  0.00     0.074 A 
ATOM     58  C   UNL     1      -7.291   4.354  -9.973  1.00  0.00     0.029 A 
ATOM     59  N   UNL     1      -8.753   6.001 -10.168  1.00  0.00    -0.354 N 
ATOM     60  N   UNL     1      -8.802   9.450 -12.316  1.00  0.00    -0.248 NA
ATOM     61  C   UNL     1     -10.607   9.332 -10.838  1.00  0.00     0.031 C 
ATOM     62  C   UNL     1      -7.176   4.943 -11.267  1.00  0.00     0.029 A 
ATOM     63  C   UNL     1      -8.058   6.017 -11.347  1.00  0.00     0.049 A 
ATOM     64  H   UNL     1      -9.530   6.573  -9.976  1.00  0.00     0.167 HD
ATOM     65  C   UNL     1      -9.095   8.123 -12.089  1.00  0.00     0.074 A 
ATOM     66  C   UNL     1     -10.331   8.118 -11.320  1.00  0.00     0.031 C 
ATOM     67  C   UNL     1      -8.140   7.163 -12.225  1.00  0.00     0.031 A 
BRANCH  54  68
ATOM     68  C   UNL     1     -10.039   4.873  -7.486  1.00  0.00    -0.014 A 
ATOM     69  C   UNL     1     -10.795   5.602  -6.546  1.00  0.00     0.009 A 
ATOM     70  C   UNL     1     -10.739   3.907  -8.233  1.00  0.00     0.009 A 
ATOM     71  C   UNL     1     -12.164   5.391  -6.359  1.00  0.00     0.001 A 
ATOM     72  C   UNL     1     -12.119   3.718  -8.076  1.00  0.00     0.001 A 
ATOM     73  C   UNL     1     -12.832   4.463  -7.141  1.00  0.00     0.000 A 
ENDBRANCH  54  68
BRANCH  55  74
ATOM     74  C   UNL     1     -10.001  12.566 -10.976  1.00  0.00    -0.014 A 
ATOM     75  C   UNL     1     -10.238  13.395  -9.865  1.00  0.00     0.009 A 
ATOM     76  C   UNL     1     -10.832  12.717 -12.098  1.00  0.00     0.009 A 
ATOM     77  C   UNL     1     -11.295  14.309  -9.856  1.00  0.00     0.001 A 
ATOM     78  C   UNL     1     -11.895  13.628 -12.085  1.00  0.00     0.001 A 
ATOM     79  C   UNL     1     -12.136  14.411 -10.959  1.00  0.00     0.000 A 
ENDBRANCH  55  74
BRANCH  67  80
ATOM     80  C   UNL     1      -6.992   7.431 -13.150  1.00  0.00    -0.014 A 
ATOM     81  C   UNL     1      -6.795   6.547 -14.222  1.00  0.00     0.009 A 
ATOM     82  C   UNL     1      -6.062   8.462 -12.947  1.00  0.00     0.009 A 
ATOM     83  C   UNL     1      -5.690   6.679 -15.063  1.00  0.00     0.001 A 
ATOM     84  C   UNL     1      -4.968   8.609 -13.806  1.00  0.00     0.001 A 
ATOM     85  C   UNL     1      -4.779   7.712 -14.856  1.00  0.00     0.000 A 
ENDBRANCH  67  80
ENDBRANCH  41  42
ENDBRANCH  34  36
ENDBRANCH  33  34
ENDBRANCH  32  33
ENDBRANCH  31  32
ENDBRANCH  30  31
ENDBRANCH  29  30
ENDBRANCH   1  29
TORSDOF 19
