REMARK SMILES Cc1nn(C)c(=O)c(C(=O)N2CCCC[C@H]2C(=O)OCCOCCOC(=O)c2ccc(-c3c4nc(c(-c5ccccc5)c5ccc([nH]5)c(-c5ccccc5)c5nc(c(-c6ccccc6)c6ccc3[nH]6)C=C5)C=C4)cc2)c1C
REMARK SMILES IDX 22 1 21 2 20 3 19 4 17 5 18 6 16 7 11 8 12 9 13 10 15 11
REMARK SMILES IDX 14 12 9 13 10 14 8 15 1 16 2 17 3 18 76 19 4 20 77 21 5 22
REMARK SMILES IDX 6 23 7 24 23 25 24 26 25 27 26 28 27 29 28 30 29 31 75 32
REMARK SMILES IDX 30 33 74 34 31 35 32 36 33 37 68 38 34 39 73 40 67 41 69 42
REMARK SMILES IDX 35 43 72 44 66 45 65 46 36 48 58 49 43 50 57 51 44 52 47 53
REMARK SMILES IDX 56 54 70 55 45 56 46 57 55 59 71 60 48 61 37 62 38 63 42 64
REMARK SMILES IDX 39 65 41 66 40 67 59 68 60 69 64 70 61 71 63 72 62 73 49 74
REMARK SMILES IDX 50 75 54 76 51 77 53 78 52 79
REMARK H PARENT 69 47 47 58
REMARK Flexibility Score: inf
ROOT
ATOM      1  O   UNL     1      -0.005   4.554  -0.862  1.00  0.00    -0.374 OA
ENDROOT
BRANCH   1   2
ATOM      2  C   UNL     1       0.885   5.188   0.051  1.00  0.00     0.202 C 
BRANCH   2   3
ATOM      3  C   UNL     1       0.265   5.663   1.364  1.00  0.00     0.261 C 
BRANCH   3   4
ATOM      4  O   UNL     1      -0.107   4.580   2.241  1.00  0.00    -0.462 OA
BRANCH   4   5
ATOM      5  C   UNL     1      -1.424   4.239   2.228  1.00  0.00     0.328 C 
ATOM      6  O   UNL     1      -2.239   4.705   1.437  1.00  0.00    -0.250 OA
BRANCH   5   7
ATOM      7  C   UNL     1      -1.825   3.222   3.330  1.00  0.00     0.195 C 
ATOM      8  N   UNL     1      -0.815   2.733   4.308  1.00  0.00    -0.325 N 
ATOM      9  C   UNL     1      -0.259   3.757   5.199  1.00  0.00     0.121 C 
ATOM     10  C   UNL     1      -1.330   4.582   5.909  1.00  0.00     0.022 C 
ATOM     11  C   UNL     1      -2.958   3.924   4.116  1.00  0.00     0.037 C 
ATOM     12  C   UNL     1      -2.396   5.088   4.944  1.00  0.00     0.005 C 
BRANCH   8  13
ATOM     13  C   UNL     1      -0.785   1.411   4.790  1.00  0.00     0.260 C 
ATOM     14  O   UNL     1      -0.794   1.197   6.003  1.00  0.00    -0.269 OA
BRANCH  13  15
ATOM     15  C   UNL     1      -0.490   0.257   3.851  1.00  0.00     0.111 A 
ATOM     16  C   UNL     1       1.673  -0.837   0.904  1.00  0.00     0.069 C 
ATOM     17  C   UNL     1       0.846  -0.879   2.168  1.00  0.00     0.062 A 
ATOM     18  N   UNL     1       0.538  -2.069   2.553  1.00  0.00    -0.175 NA
ATOM     19  C   UNL     1       0.467   0.363   2.906  1.00  0.00    -0.010 A 
ATOM     20  N   UNL     1      -0.247  -2.193   3.651  1.00  0.00    -0.232 N 
ATOM     21  C   UNL     1       1.319   1.567   2.722  1.00  0.00     0.047 C 
ATOM     22  C   UNL     1      -0.383  -3.560   4.124  1.00  0.00     0.178 C 
ATOM     23  C   UNL     1      -0.941  -1.132   4.236  1.00  0.00     0.279 A 
ATOM     24  O   UNL     1      -1.842  -1.303   5.053  1.00  0.00    -0.267 OA
ENDBRANCH  13  15
ENDBRANCH   8  13
ENDBRANCH   5   7
ENDBRANCH   4   5
ENDBRANCH   3   4
ENDBRANCH   2   3
ENDBRANCH   1   2
BRANCH   1  25
ATOM     25  C   UNL     1      -0.250   3.160  -0.678  1.00  0.00     0.202 C 
BRANCH  25  26
ATOM     26  C   UNL     1       0.929   2.254  -1.044  1.00  0.00     0.261 C 
BRANCH  26  27
ATOM     27  O   UNL     1       1.980   2.414  -0.064  1.00  0.00    -0.460 OA
BRANCH  27  28
ATOM     28  C   UNL     1       3.254   2.430  -0.517  1.00  0.00     0.338 C 
ATOM     29  O   UNL     1       3.636   2.163  -1.639  1.00  0.00    -0.246 OA
BRANCH  28  30
ATOM     30  C   UNL     1       4.132   2.989   0.539  1.00  0.00     0.060 A 
ATOM     31  C   UNL     1       4.551   4.314   0.400  1.00  0.00     0.016 A 
ATOM     32  C   UNL     1       4.611   2.218   1.603  1.00  0.00     0.016 A 
ATOM     33  C   UNL     1       5.494   4.848   1.284  1.00  0.00     0.010 A 
ATOM     34  C   UNL     1       5.519   2.772   2.520  1.00  0.00     0.010 A 
ATOM     35  C   UNL     1       6.023   4.070   2.327  1.00  0.00    -0.014 A 
BRANCH  35  36
ATOM     36  C   UNL     1       7.239   4.563   3.043  1.00  0.00     0.031 A 
ATOM     37  C   UNL     1       8.582   3.948   2.722  1.00  0.00     0.074 A 
ATOM     38  C   UNL     1       7.197   5.628   3.869  1.00  0.00     0.049 A 
ATOM     39  N   UNL     1       9.780   4.348   3.074  1.00  0.00    -0.248 NA
ATOM     40  C   UNL     1       8.580   2.735   1.889  1.00  0.00     0.031 C 
ATOM     41  C   UNL     1       5.989   6.347   4.266  1.00  0.00     0.029 A 
ATOM     42  N   UNL     1       8.216   6.310   4.497  1.00  0.00    -0.354 N 
ATOM     43  C   UNL     1      10.666   3.450   2.489  1.00  0.00     0.074 A 
ATOM     44  C   UNL     1       9.871   2.449   1.816  1.00  0.00     0.031 C 
ATOM     45  C   UNL     1       6.339   7.393   5.037  1.00  0.00     0.029 A 
ATOM     46  C   UNL     1       7.793   7.410   5.206  1.00  0.00     0.049 A 
ATOM     47  H   UNL     1       9.160   6.036   4.443  1.00  0.00     0.167 HD
ATOM     48  C   UNL     1      12.020   3.465   2.478  1.00  0.00     0.031 A 
ATOM     49  C   UNL     1       8.488   8.334   5.903  1.00  0.00     0.031 A 
ATOM     50  C   UNL     1      12.837   4.442   3.141  1.00  0.00     0.049 A 
ATOM     51  C   UNL     1       9.994   8.274   5.959  1.00  0.00     0.074 A 
ATOM     52  C   UNL     1      14.219   4.541   3.145  1.00  0.00     0.029 A 
ATOM     53  N   UNL     1      12.358   5.476   3.925  1.00  0.00    -0.354 N 
ATOM     54  N   UNL     1      10.812   7.463   5.336  1.00  0.00    -0.248 NA
ATOM     55  C   UNL     1      10.672   9.265   6.813  1.00  0.00     0.031 C 
ATOM     56  C   UNL     1      14.578   5.593   3.991  1.00  0.00     0.029 A 
ATOM     57  C   UNL     1      13.419   6.188   4.459  1.00  0.00     0.049 A 
ATOM     58  H   UNL     1      11.407   5.675   4.080  1.00  0.00     0.167 HD
ATOM     59  C   UNL     1      12.095   7.854   5.708  1.00  0.00     0.074 A 
ATOM     60  C   UNL     1      11.951   8.989   6.593  1.00  0.00     0.031 C 
ATOM     61  C   UNL     1      13.283   7.313   5.347  1.00  0.00     0.031 A 
BRANCH  48  62
ATOM     62  C   UNL     1      12.719   2.376   1.713  1.00  0.00    -0.014 A 
ATOM     63  C   UNL     1      12.710   2.359   0.309  1.00  0.00     0.009 A 
ATOM     64  C   UNL     1      13.453   1.398   2.402  1.00  0.00     0.009 A 
ATOM     65  C   UNL     1      13.403   1.369  -0.389  1.00  0.00     0.001 A 
ATOM     66  C   UNL     1      14.169   0.428   1.701  1.00  0.00     0.001 A 
ATOM     67  C   UNL     1      14.138   0.409   0.307  1.00  0.00     0.000 A 
ENDBRANCH  48  62
BRANCH  49  68
ATOM     68  C   UNL     1       7.763   9.424   6.614  1.00  0.00    -0.014 A 
ATOM     69  C   UNL     1       7.869  10.756   6.184  1.00  0.00     0.009 A 
ATOM     70  C   UNL     1       6.977   9.136   7.741  1.00  0.00     0.009 A 
ATOM     71  C   UNL     1       7.214  11.778   6.877  1.00  0.00     0.001 A 
ATOM     72  C   UNL     1       6.300  10.156   8.414  1.00  0.00     0.001 A 
ATOM     73  C   UNL     1       6.425  11.476   7.986  1.00  0.00     0.000 A 
ENDBRANCH  49  68
BRANCH  61  74
ATOM     74  C   UNL     1      14.545   7.916   5.902  1.00  0.00    -0.014 A 
ATOM     75  C   UNL     1      14.909   7.717   7.242  1.00  0.00     0.009 A 
ATOM     76  C   UNL     1      15.438   8.588   5.051  1.00  0.00     0.009 A 
ATOM     77  C   UNL     1      16.136   8.184   7.720  1.00  0.00     0.001 A 
ATOM     78  C   UNL     1      16.675   9.030   5.524  1.00  0.00     0.001 A 
ATOM     79  C   UNL     1      17.022   8.830   6.859  1.00  0.00     0.000 A 
ENDBRANCH  61  74
ENDBRANCH  35  36
ENDBRANCH  28  30
ENDBRANCH  27  28
ENDBRANCH  26  27
ENDBRANCH  25  26
ENDBRANCH   1  25
TORSDOF 16
