REMARK SMILES CCOc1ccc(NC(=O)[C@@H]2[C@@H](C(=O)OCCOCCOC(=O)c3ccc(-c4c5nc(c(-c6ccccc6)c6ccc([nH]6)c(-c6ccccc6)c6nc(c(-c7ccccc7)c7ccc4[nH]7)C=C6)C=C5)cc3)[C@H]3C=C[C@@H]2C3)cc1
REMARK SMILES IDX 17 1 16 2 15 3 13 4 14 5 12 6 11 7 75 8 72 9 74 10 76 11
REMARK SMILES IDX 73 12 9 13 8 14 10 16 7 17 4 18 5 19 78 20 6 21 77 22 3 23
REMARK SMILES IDX 2 24 1 25 18 26 19 27 20 28 21 29 22 30 23 31 24 32 25 33
REMARK SMILES IDX 71 34 26 35 70 36 27 37 28 38 29 39 64 40 30 41 69 42 63 43
REMARK SMILES IDX 65 44 31 45 68 46 62 47 61 48 32 50 54 51 39 52 53 53 40 54
REMARK SMILES IDX 43 55 52 56 66 57 41 58 42 59 51 61 67 62 44 63 33 64 34 65
REMARK SMILES IDX 38 66 35 67 37 68 36 69 55 70 56 71 60 72 57 73 59 74 58 75
REMARK SMILES IDX 45 76 46 77 50 78 47 79 49 80 48 81
REMARK H PARENT 8 15 65 49 43 60
REMARK Flexibility Score: inf
ROOT
ATOM      1  C   UNL     1       2.177  -6.025   3.976  1.00  0.00     0.202 C 
ENDROOT
BRANCH   1   2
ATOM      2  C   UNL     1       2.042  -5.023   5.184  1.00  0.00     0.261 C 
BRANCH   2   3
ATOM      3  O   UNL     1       3.288  -4.479   5.669  1.00  0.00    -0.463 OA
BRANCH   3   4
ATOM      4  C   UNL     1       4.163  -5.331   6.223  1.00  0.00     0.310 C 
ATOM      5  O   UNL     1       3.804  -6.303   6.873  1.00  0.00    -0.252 OA
BRANCH   4   6
ATOM      6  C   UNL     1       5.611  -4.889   5.970  1.00  0.00     0.119 C 
ATOM      7  C   UNL     1       6.040  -4.668   4.467  1.00  0.00     0.100 C 
ATOM      8  C   UNL     1       7.192  -5.706   4.297  1.00  0.00     0.025 C 
ATOM      9  C   UNL     1       6.544  -6.057   6.402  1.00  0.00     0.027 C 
ATOM     10  C   UNL     1       6.560  -7.080   4.334  1.00  0.00    -0.027 C 
ATOM     11  C   UNL     1       7.843  -5.713   5.685  1.00  0.00     0.017 C 
ATOM     12  C   UNL     1       6.185  -7.298   5.603  1.00  0.00    -0.027 C 
BRANCH   7  13
ATOM     13  C   UNL     1       6.572  -3.274   4.109  1.00  0.00     0.228 C 
ATOM     14  N   UNL     1       6.132  -2.612   2.989  1.00  0.00    -0.326 N 
ATOM     15  H   UNL     1       6.736  -1.905   2.664  1.00  0.00     0.169 HD
ATOM     16  O   UNL     1       7.531  -2.783   4.713  1.00  0.00    -0.274 OA
BRANCH  14  17
ATOM     17  C   UNL     1       4.965  -2.778   2.236  1.00  0.00     0.041 A 
ATOM     18  C   UNL     1       1.954  -3.062   0.233  1.00  0.00     0.119 A 
ATOM     19  C   UNL     1       1.938  -3.662   1.926  1.00  0.00     0.048 A 
ATOM     20  C   UNL     1       3.449  -2.346  -0.439  1.00  0.00     0.048 A 
ATOM     21  C   UNL     1       3.490  -3.522   2.922  1.00  0.00     0.030 A 
ATOM     22  C   UNL     1       4.923  -2.194   0.554  1.00  0.00     0.030 A 
BRANCH  18  23
ATOM     23  O   UNL     1       0.759  -3.086  -0.426  1.00  0.00    -0.494 OA
BRANCH  23  24
ATOM     24  C   UNL     1       0.633  -2.223  -1.560  1.00  0.00     0.226 C 
ATOM     25  C   UNL     1       0.601  -0.751  -1.180  1.00  0.00     0.049 C 
ENDBRANCH  23  24
ENDBRANCH  18  23
ENDBRANCH  14  17
ENDBRANCH   7  13
ENDBRANCH   4   6
ENDBRANCH   3   4
ENDBRANCH   2   3
ENDBRANCH   1   2
BRANCH   1  26
ATOM     26  O   UNL     1       3.385  -5.927   3.181  1.00  0.00    -0.374 OA
BRANCH  26  27
ATOM     27  C   UNL     1       3.293  -5.714   1.742  1.00  0.00     0.202 C 
BRANCH  27  28
ATOM     28  C   UNL     1       3.785  -4.176   0.968  1.00  0.00     0.261 C 
BRANCH  28  29
ATOM     29  O   UNL     1       3.206  -2.310   1.499  1.00  0.00    -0.460 OA
BRANCH  29  30
ATOM     30  C   UNL     1       2.679  -1.383   2.479  1.00  0.00     0.338 C 
ATOM     31  O   UNL     1       2.505  -1.515   3.694  1.00  0.00    -0.246 OA
BRANCH  30  32
ATOM     32  C   UNL     1       2.029  -0.232   1.935  1.00  0.00     0.060 A 
ATOM     33  C   UNL     1       0.663  -0.112   2.250  1.00  0.00     0.016 A 
ATOM     34  C   UNL     1       2.833   0.818   1.523  1.00  0.00     0.016 A 
ATOM     35  C   UNL     1       0.078   1.121   2.158  1.00  0.00     0.010 A 
ATOM     36  C   UNL     1       2.254   2.062   1.476  1.00  0.00     0.010 A 
ATOM     37  C   UNL     1       0.897   2.200   1.819  1.00  0.00    -0.014 A 
BRANCH  37  38
ATOM     38  C   UNL     1       0.317   3.530   1.878  1.00  0.00     0.031 A 
ATOM     39  C   UNL     1      -0.074   4.158   0.594  1.00  0.00     0.074 A 
ATOM     40  C   UNL     1       0.160   4.069   3.097  1.00  0.00     0.049 A 
ATOM     41  N   UNL     1      -0.586   5.333   0.389  1.00  0.00    -0.248 NA
ATOM     42  C   UNL     1       0.135   3.356  -0.628  1.00  0.00     0.031 C 
ATOM     43  C   UNL     1       0.504   3.408   4.366  1.00  0.00     0.029 A 
ATOM     44  N   UNL     1      -0.336   5.277   3.477  1.00  0.00    -0.354 N 
ATOM     45  C   UNL     1      -0.749   5.422  -0.984  1.00  0.00     0.074 A 
ATOM     46  C   UNL     1      -0.279   4.189  -1.569  1.00  0.00     0.031 C 
ATOM     47  C   UNL     1       0.190   4.223   5.385  1.00  0.00     0.029 A 
ATOM     48  C   UNL     1      -0.309   5.473   4.835  1.00  0.00     0.049 A 
ATOM     49  H   UNL     1      -0.680   5.945   2.841  1.00  0.00     0.167 HD
ATOM     50  C   UNL     1      -1.237   6.475  -1.670  1.00  0.00     0.031 A 
ATOM     51  C   UNL     1      -0.627   6.574   5.533  1.00  0.00     0.031 A 
ATOM     52  C   UNL     1      -1.626   7.691  -1.013  1.00  0.00     0.049 A 
ATOM     53  C   UNL     1      -1.100   7.750   4.730  1.00  0.00     0.074 A 
ATOM     54  C   UNL     1      -2.098   8.863  -1.565  1.00  0.00     0.029 A 
ATOM     55  N   UNL     1      -1.563   7.883   0.365  1.00  0.00    -0.354 N 
ATOM     56  N   UNL     1      -1.264   7.839   3.427  1.00  0.00    -0.248 NA
ATOM     57  C   UNL     1      -1.424   8.969   5.470  1.00  0.00     0.031 C 
ATOM     58  C   UNL     1      -2.262   9.784  -0.524  1.00  0.00     0.029 A 
ATOM     59  C   UNL     1      -1.954   9.167   0.683  1.00  0.00     0.049 A 
ATOM     60  H   UNL     1      -1.280   7.202   1.018  1.00  0.00     0.167 HD
ATOM     61  C   UNL     1      -1.724   9.121   3.187  1.00  0.00     0.074 A 
ATOM     62  C   UNL     1      -1.835   9.761   4.489  1.00  0.00     0.031 C 
ATOM     63  C   UNL     1      -2.025   9.727   2.011  1.00  0.00     0.031 A 
BRANCH  50  64
ATOM     64  C   UNL     1      -1.276   6.365  -3.164  1.00  0.00    -0.014 A 
ATOM     65  C   UNL     1      -2.192   5.525  -3.818  1.00  0.00     0.009 A 
ATOM     66  C   UNL     1      -0.362   7.099  -3.934  1.00  0.00     0.009 A 
ATOM     67  C   UNL     1      -2.181   5.414  -5.212  1.00  0.00     0.001 A 
ATOM     68  C   UNL     1      -0.366   7.003  -5.326  1.00  0.00     0.001 A 
ATOM     69  C   UNL     1      -1.272   6.158  -5.964  1.00  0.00     0.000 A 
ENDBRANCH  50  64
BRANCH  51  70
ATOM     70  C   UNL     1      -0.469   6.603   7.010  1.00  0.00    -0.014 A 
ATOM     71  C   UNL     1      -1.582   6.703   7.857  1.00  0.00     0.009 A 
ATOM     72  C   UNL     1       0.806   6.480   7.590  1.00  0.00     0.009 A 
ATOM     73  C   UNL     1      -1.421   6.693   9.246  1.00  0.00     0.001 A 
ATOM     74  C   UNL     1       0.962   6.439   8.978  1.00  0.00     0.001 A 
ATOM     75  C   UNL     1      -0.151   6.554   9.805  1.00  0.00     0.000 A 
ENDBRANCH  51  70
BRANCH  63  76
ATOM     76  C   UNL     1      -2.519  11.135   2.120  1.00  0.00    -0.014 A 
ATOM     77  C   UNL     1      -1.641  12.187   2.419  1.00  0.00     0.009 A 
ATOM     78  C   UNL     1      -3.876  11.405   1.891  1.00  0.00     0.009 A 
ATOM     79  C   UNL     1      -2.128  13.488   2.529  1.00  0.00     0.001 A 
ATOM     80  C   UNL     1      -4.351  12.710   1.968  1.00  0.00     0.001 A 
ATOM     81  C   UNL     1      -3.479  13.748   2.300  1.00  0.00     0.000 A 
ENDBRANCH  63  76
ENDBRANCH  37  38
ENDBRANCH  30  32
ENDBRANCH  29  30
ENDBRANCH  28  29
ENDBRANCH  27  28
ENDBRANCH  26  27
ENDBRANCH   1  26
TORSDOF 18
