REMARK SMILES CC[C@@](C)(NS(=O)(=O)c1ccc(Cl)s1)C(=O)OCCOCCOC(=O)c1ccc(-c2c3nc(c(-c4ccccc4)c4ccc([nH]4)c(-c4ccccc4)c4nc(c(-c5ccccc5)c5ccc2[nH]5)C=C4)C=C3)cc1
REMARK SMILES IDX 19 1 18 2 17 3 15 4 16 5 3 6 4 7 2 8 1 9 5 10 6 12 7 13 8 14
REMARK SMILES IDX 9 15 10 16 14 17 11 18 12 19 13 20 20 21 21 22 22 23 23 24
REMARK SMILES IDX 24 25 25 26 26 27 27 28 73 29 28 30 72 31 29 32 30 33 31 34
REMARK SMILES IDX 66 35 32 36 71 37 65 38 67 39 33 40 70 41 64 42 63 43 34 45
REMARK SMILES IDX 56 46 41 47 55 48 42 49 45 50 54 51 68 52 43 53 44 54 53 56
REMARK SMILES IDX 69 57 46 58 35 59 36 60 40 61 37 62 39 63 38 64 57 65 58 66
REMARK SMILES IDX 62 67 59 68 61 69 60 70 47 71 48 72 52 73 49 74 51 75 50 76
REMARK H PARENT 5 11 67 44 45 55
REMARK Flexibility Score: inf
ROOT
ATOM      1  C   UNL     1       5.241  -0.420   2.489  1.00  0.00     0.202 C 
ENDROOT
BRANCH   1   2
ATOM      2  C   UNL     1       4.624   0.636   1.562  1.00  0.00     0.261 C 
BRANCH   2   3
ATOM      3  O   UNL     1       3.314   0.962   2.055  1.00  0.00    -0.462 OA
BRANCH   3   4
ATOM      4  C   UNL     1       2.365   1.314   1.159  1.00  0.00     0.327 C 
ATOM      5  O   UNL     1       2.597   1.563  -0.018  1.00  0.00    -0.250 OA
BRANCH   4   6
ATOM      6  C   UNL     1       0.956   1.299   1.791  1.00  0.00     0.127 C 
ATOM      7  C   UNL     1       0.230   2.571   1.353  1.00  0.00     0.042 C 
BRANCH   6   8
ATOM      8  C   UNL     1       0.204   0.028   1.276  1.00  0.00     0.032 C 
ATOM      9  C   UNL     1       0.093  -0.167  -0.231  1.00  0.00     0.006 C 
ENDBRANCH   6   8
BRANCH   6  10
ATOM     10  N   UNL     1       0.964   1.134   3.289  1.00  0.00    -0.193 NA
ATOM     11  H   UNL     1       1.793   0.572   3.484  1.00  0.00     0.142 HD
BRANCH  10  12
ATOM     12  S   UNL     1       0.984   2.339   4.447  1.00  0.00     0.251 S 
ATOM     13  O   UNL     1       0.006   3.344   4.097  1.00  0.00    -0.206 OA
ATOM     14  O   UNL     1       0.902   1.648   5.715  1.00  0.00    -0.206 OA
BRANCH  12  15
ATOM     15  C   UNL     1       2.530   3.197   4.491  1.00  0.00     0.136 A 
ATOM     16  C   UNL     1       2.870   4.538   4.448  1.00  0.00     0.035 A 
ATOM     17  S   UNL     1       3.915   2.233   4.718  1.00  0.00    -0.110 S 
ATOM     18  C   UNL     1       4.285   4.742   4.463  1.00  0.00     0.034 A 
ATOM     19  C   UNL     1       4.948   3.546   4.524  1.00  0.00     0.094 A 
ATOM     20  Cl  UNL     1       6.642   3.289   4.433  1.00  0.00    -0.072 Cl
ENDBRANCH  12  15
ENDBRANCH  10  12
ENDBRANCH   6  10
ENDBRANCH   4   6
ENDBRANCH   3   4
ENDBRANCH   2   3
ENDBRANCH   1   2
BRANCH   1  21
ATOM     21  O   UNL     1       4.506  -1.648   2.467  1.00  0.00    -0.374 OA
BRANCH  21  22
ATOM     22  C   UNL     1       3.380  -1.710   3.349  1.00  0.00     0.202 C 
BRANCH  22  23
ATOM     23  C   UNL     1       3.721  -2.275   4.727  1.00  0.00     0.261 C 
BRANCH  23  24
ATOM     24  O   UNL     1       4.087  -1.205   5.624  1.00  0.00    -0.460 OA
BRANCH  24  25
ATOM     25  C   UNL     1       5.358  -1.221   6.085  1.00  0.00     0.338 C 
ATOM     26  O   UNL     1       6.213  -2.055   5.834  1.00  0.00    -0.246 OA
BRANCH  25  27
ATOM     27  C   UNL     1       5.638  -0.002   6.886  1.00  0.00     0.060 A 
ATOM     28  C   UNL     1       6.951   0.480   6.875  1.00  0.00     0.016 A 
ATOM     29  C   UNL     1       4.662   0.660   7.644  1.00  0.00     0.016 A 
ATOM     30  C   UNL     1       7.298   1.597   7.635  1.00  0.00     0.010 A 
ATOM     31  C   UNL     1       5.007   1.794   8.397  1.00  0.00     0.010 A 
ATOM     32  C   UNL     1       6.337   2.245   8.424  1.00  0.00    -0.014 A 
BRANCH  32  33
ATOM     33  C   UNL     1       6.815   3.224   9.433  1.00  0.00     0.031 A 
ATOM     34  C   UNL     1       7.186   2.700  10.792  1.00  0.00     0.074 A 
ATOM     35  C   UNL     1       7.041   4.517   9.136  1.00  0.00     0.049 A 
ATOM     36  N   UNL     1       7.870   3.278  11.745  1.00  0.00    -0.248 NA
ATOM     37  C   UNL     1       6.743   1.332  11.107  1.00  0.00     0.031 C 
ATOM     38  C   UNL     1       6.742   5.162   7.862  1.00  0.00     0.029 A 
ATOM     39  N   UNL     1       7.611   5.515   9.891  1.00  0.00    -0.354 N 
ATOM     40  C   UNL     1       7.981   2.326  12.750  1.00  0.00     0.074 A 
ATOM     41  C   UNL     1       7.243   1.160  12.319  1.00  0.00     0.031 C 
ATOM     42  C   UNL     1       7.156   6.442   7.909  1.00  0.00     0.029 A 
ATOM     43  C   UNL     1       7.748   6.706   9.219  1.00  0.00     0.049 A 
ATOM     44  H   UNL     1       7.893   5.388  10.825  1.00  0.00     0.167 HD
ATOM     45  C   UNL     1       8.655   2.401  13.920  1.00  0.00     0.031 A 
ATOM     46  C   UNL     1       8.310   7.867   9.610  1.00  0.00     0.031 A 
ATOM     47  C   UNL     1       9.337   3.572  14.392  1.00  0.00     0.049 A 
ATOM     48  C   UNL     1       8.965   7.960  10.965  1.00  0.00     0.074 A 
ATOM     49  C   UNL     1      10.029   3.751  15.576  1.00  0.00     0.029 A 
ATOM     50  N   UNL     1       9.387   4.776  13.709  1.00  0.00    -0.354 N 
ATOM     51  N   UNL     1       9.144   7.025  11.867  1.00  0.00    -0.248 NA
ATOM     52  C   UNL     1       9.521   9.269  11.342  1.00  0.00     0.031 C 
ATOM     53  C   UNL     1      10.454   5.082  15.634  1.00  0.00     0.029 A 
ATOM     54  C   UNL     1      10.073   5.714  14.460  1.00  0.00     0.049 A 
ATOM     55  H   UNL     1       8.994   4.940  12.822  1.00  0.00     0.167 HD
ATOM     56  C   UNL     1       9.868   7.620  12.893  1.00  0.00     0.074 A 
ATOM     57  C   UNL     1      10.101   8.994  12.502  1.00  0.00     0.031 C 
ATOM     58  C   UNL     1      10.309   7.074  14.053  1.00  0.00     0.031 A 
BRANCH  45  59
ATOM     59  C   UNL     1       8.648   1.168  14.774  1.00  0.00    -0.014 A 
ATOM     60  C   UNL     1       9.410   0.043  14.417  1.00  0.00     0.009 A 
ATOM     61  C   UNL     1       7.853   1.119  15.927  1.00  0.00     0.009 A 
ATOM     62  C   UNL     1       9.342  -1.124  15.180  1.00  0.00     0.001 A 
ATOM     63  C   UNL     1       7.805  -0.042  16.700  1.00  0.00     0.001 A 
ATOM     64  C   UNL     1       8.540  -1.165  16.320  1.00  0.00     0.000 A 
ENDBRANCH  45  59
BRANCH  46  65
ATOM     65  C   UNL     1       8.313   9.049   8.707  1.00  0.00    -0.014 A 
ATOM     66  C   UNL     1       9.511   9.518   8.144  1.00  0.00     0.009 A 
ATOM     67  C   UNL     1       7.127   9.758   8.461  1.00  0.00     0.009 A 
ATOM     68  C   UNL     1       9.527  10.691   7.386  1.00  0.00     0.001 A 
ATOM     69  C   UNL     1       7.142  10.917   7.682  1.00  0.00     0.001 A 
ATOM     70  C   UNL     1       8.343  11.390   7.155  1.00  0.00     0.000 A 
ENDBRANCH  46  65
BRANCH  58  71
ATOM     71  C   UNL     1      11.130   7.944  14.964  1.00  0.00    -0.014 A 
ATOM     72  C   UNL     1      10.550   8.984  15.705  1.00  0.00     0.009 A 
ATOM     73  C   UNL     1      12.501   7.679  15.120  1.00  0.00     0.009 A 
ATOM     74  C   UNL     1      11.332   9.762  16.561  1.00  0.00     0.001 A 
ATOM     75  C   UNL     1      13.274   8.440  15.998  1.00  0.00     0.001 A 
ATOM     76  C   UNL     1      12.691   9.486  16.711  1.00  0.00     0.000 A 
ENDBRANCH  58  71
ENDBRANCH  32  33
ENDBRANCH  25  27
ENDBRANCH  24  25
ENDBRANCH  23  24
ENDBRANCH  22  23
ENDBRANCH  21  22
ENDBRANCH   1  21
TORSDOF 18
