REMARK SMILES Cc1c(Cl)cc2c(c1C)O[C@H](C(F)(F)F)C(C(=O)OCCOCCOC(=O)c1ccc(-c3c4nc(c(-c5ccccc5)c5ccc([nH]5)c(-c5ccccc5)c5nc(c(-c6ccccc6)c6ccc3[nH]6)C=C5)C=C4)cc1)=C2
REMARK SMILES IDX 23 1 22 2 21 3 20 4 19 5 17 6 18 7 16 8 1 9 2 10 3 11 8 12
REMARK SMILES IDX 4 13 5 14 7 15 9 16 6 17 10 18 76 19 11 20 12 21 13 22 14 23
REMARK SMILES IDX 15 24 24 25 25 26 26 27 27 28 28 29 29 30 75 31 30 32 74 33
REMARK SMILES IDX 31 34 32 35 33 36 68 37 34 38 73 39 67 40 69 41 35 42 72 43
REMARK SMILES IDX 66 44 65 45 36 47 58 48 43 49 57 50 44 51 47 52 56 53 70 54
REMARK SMILES IDX 45 55 46 56 55 58 71 59 48 60 37 61 38 62 42 63 39 64 41 65
REMARK SMILES IDX 40 66 59 67 60 68 64 69 61 70 63 71 62 72 49 73 50 74 54 75
REMARK SMILES IDX 51 76 53 77 52 78
REMARK H PARENT 69 46 47 57
REMARK Flexibility Score: inf
ROOT
ATOM      1  C   UNL     1       0.058  -0.971   8.806  1.00  0.00     0.202 C 
ENDROOT
BRANCH   1   2
ATOM      2  O   UNL     1      -1.033  -1.041   9.726  1.00  0.00    -0.374 OA
BRANCH   2   3
ATOM      3  C   UNL     1      -1.674  -2.303   9.899  1.00  0.00     0.202 C 
BRANCH   3   4
ATOM      4  C   UNL     1      -2.684  -2.703   8.821  1.00  0.00     0.261 C 
BRANCH   4   5
ATOM      5  O   UNL     1      -2.070  -2.756   7.523  1.00  0.00    -0.460 OA
BRANCH   5   6
ATOM      6  C   UNL     1      -2.535  -1.841   6.643  1.00  0.00     0.338 C 
ATOM      7  O   UNL     1      -3.493  -1.095   6.798  1.00  0.00    -0.246 OA
BRANCH   6   8
ATOM      8  C   UNL     1      -1.643  -1.768   5.473  1.00  0.00     0.087 C 
ATOM      9  C   UNL     1       1.137  -0.015  -0.136  1.00  0.00     0.046 C 
ATOM     10  C   UNL     1       0.582  -0.150   1.260  1.00  0.00    -0.026 A 
ATOM     11  C   UNL     1       0.199   0.986   1.998  1.00  0.00     0.045 A 
ATOM     12  C   UNL     1       0.451  -1.429   1.864  1.00  0.00    -0.004 A 
ATOM     13  Cl  UNL     1       0.421   2.598   1.410  1.00  0.00    -0.084 Cl
ATOM     14  C   UNL     1      -0.400   0.857   3.252  1.00  0.00     0.032 A 
ATOM     15  C   UNL     1      -0.162  -1.541   3.131  1.00  0.00     0.131 A 
ATOM     16  C   UNL     1       0.899  -2.696   1.173  1.00  0.00     0.049 C 
ATOM     17  C   UNL     1      -0.616  -0.405   3.801  1.00  0.00     0.019 A 
ATOM     18  O   UNL     1      -0.282  -2.801   3.656  1.00  0.00    -0.475 OA
ATOM     19  C   UNL     1      -1.372  -0.534   5.032  1.00  0.00     0.027 C 
ATOM     20  C   UNL     1      -1.121  -3.018   4.826  1.00  0.00     0.316 C 
BRANCH  20  21
ATOM     21  C   UNL     1      -2.236  -4.002   4.441  1.00  0.00     0.430 C 
ATOM     22  F   UNL     1      -1.729  -5.099   3.827  1.00  0.00    -0.167 F 
ATOM     23  F   UNL     1      -2.911  -4.447   5.527  1.00  0.00    -0.167 F 
ATOM     24  F   UNL     1      -3.137  -3.447   3.601  1.00  0.00    -0.167 F 
ENDBRANCH  20  21
ENDBRANCH   6   8
ENDBRANCH   5   6
ENDBRANCH   4   5
ENDBRANCH   3   4
ENDBRANCH   2   3
ENDBRANCH   1   2
BRANCH   1  25
ATOM     25  C   UNL     1       1.382  -1.598   9.259  1.00  0.00     0.261 C 
BRANCH  25  26
ATOM     26  O   UNL     1       1.299  -3.035   9.327  1.00  0.00    -0.460 OA
BRANCH  26  27
ATOM     27  C   UNL     1       1.466  -3.556  10.564  1.00  0.00     0.338 C 
ATOM     28  O   UNL     1       1.754  -2.955  11.593  1.00  0.00    -0.246 OA
BRANCH  27  29
ATOM     29  C   UNL     1       1.068  -4.973  10.574  1.00  0.00     0.060 A 
ATOM     30  C   UNL     1       0.060  -5.357  11.467  1.00  0.00     0.016 A 
ATOM     31  C   UNL     1       1.730  -5.925   9.795  1.00  0.00     0.016 A 
ATOM     32  C   UNL     1      -0.257  -6.703  11.622  1.00  0.00     0.010 A 
ATOM     33  C   UNL     1       1.419  -7.279   9.962  1.00  0.00     0.010 A 
ATOM     34  C   UNL     1       0.451  -7.675  10.903  1.00  0.00    -0.014 A 
BRANCH  34  35
ATOM     35  C   UNL     1       0.281  -9.102  11.261  1.00  0.00     0.031 A 
ATOM     36  C   UNL     1       1.257  -9.735  12.214  1.00  0.00     0.074 A 
ATOM     37  C   UNL     1      -0.766  -9.808  10.799  1.00  0.00     0.049 A 
ATOM     38  N   UNL     1       1.274 -10.953  12.694  1.00  0.00    -0.248 NA
ATOM     39  C   UNL     1       2.354  -8.881  12.699  1.00  0.00     0.031 C 
ATOM     40  C   UNL     1      -1.811  -9.292   9.916  1.00  0.00     0.029 A 
ATOM     41  N   UNL     1      -1.126 -11.113  11.023  1.00  0.00    -0.354 N 
ATOM     42  C   UNL     1       2.373 -11.007  13.541  1.00  0.00     0.074 A 
ATOM     43  C   UNL     1       3.020  -9.715  13.484  1.00  0.00     0.031 C 
ATOM     44  C   UNL     1      -2.703 -10.270   9.682  1.00  0.00     0.029 A 
ATOM     45  C   UNL     1      -2.278 -11.485  10.375  1.00  0.00     0.049 A 
ATOM     46  H   UNL     1      -0.608 -11.725  11.595  1.00  0.00     0.167 HD
ATOM     47  C   UNL     1       2.798 -12.037  14.309  1.00  0.00     0.031 A 
ATOM     48  C   UNL     1      -2.912 -12.673  10.338  1.00  0.00     0.031 A 
ATOM     49  C   UNL     1       2.168 -13.328  14.357  1.00  0.00     0.049 A 
ATOM     50  C   UNL     1      -2.356 -13.835  11.115  1.00  0.00     0.074 A 
ATOM     51  C   UNL     1       2.527 -14.433  15.108  1.00  0.00     0.029 A 
ATOM     52  N   UNL     1       1.054 -13.688  13.617  1.00  0.00    -0.354 N 
ATOM     53  N   UNL     1      -1.325 -13.869  11.924  1.00  0.00    -0.248 NA
ATOM     54  C   UNL     1      -3.051 -15.123  10.973  1.00  0.00     0.031 C 
ATOM     55  C   UNL     1       1.660 -15.480  14.782  1.00  0.00     0.029 A 
ATOM     56  C   UNL     1       0.731 -15.010  13.868  1.00  0.00     0.049 A 
ATOM     57  H   UNL     1       0.566 -13.093  13.003  1.00  0.00     0.167 HD
ATOM     58  C   UNL     1      -1.259 -15.172  12.401  1.00  0.00     0.074 A 
ATOM     59  C   UNL     1      -2.361 -15.896  11.802  1.00  0.00     0.031 C 
ATOM     60  C   UNL     1      -0.364 -15.719  13.259  1.00  0.00     0.031 A 
BRANCH  47  61
ATOM     61  C   UNL     1       4.021 -11.815  15.152  1.00  0.00    -0.014 A 
ATOM     62  C   UNL     1       3.965 -11.028  16.313  1.00  0.00     0.009 A 
ATOM     63  C   UNL     1       5.229 -12.443  14.811  1.00  0.00     0.009 A 
ATOM     64  C   UNL     1       5.103 -10.857  17.104  1.00  0.00     0.001 A 
ATOM     65  C   UNL     1       6.358 -12.288  15.616  1.00  0.00     0.001 A 
ATOM     66  C   UNL     1       6.296 -11.491  16.758  1.00  0.00     0.000 A 
ENDBRANCH  47  61
BRANCH  48  67
ATOM     67  C   UNL     1      -4.148 -12.826   9.528  1.00  0.00    -0.014 A 
ATOM     68  C   UNL     1      -5.395 -12.978  10.151  1.00  0.00     0.009 A 
ATOM     69  C   UNL     1      -4.086 -12.818   8.125  1.00  0.00     0.009 A 
ATOM     70  C   UNL     1      -6.554 -13.131   9.386  1.00  0.00     0.001 A 
ATOM     71  C   UNL     1      -5.249 -12.946   7.363  1.00  0.00     0.001 A 
ATOM     72  C   UNL     1      -6.481 -13.109   7.994  1.00  0.00     0.000 A 
ENDBRANCH  48  67
BRANCH  60  73
ATOM     73  C   UNL     1      -0.534 -17.167  13.617  1.00  0.00    -0.014 A 
ATOM     74  C   UNL     1      -0.176 -18.180  12.715  1.00  0.00     0.009 A 
ATOM     75  C   UNL     1      -0.970 -17.522  14.904  1.00  0.00     0.009 A 
ATOM     76  C   UNL     1      -0.264 -19.522  13.091  1.00  0.00     0.001 A 
ATOM     77  C   UNL     1      -1.033 -18.863  15.284  1.00  0.00     0.001 A 
ATOM     78  C   UNL     1      -0.684 -19.862  14.376  1.00  0.00     0.000 A 
ENDBRANCH  60  73
ENDBRANCH  34  35
ENDBRANCH  27  29
ENDBRANCH  26  27
ENDBRANCH  25  26
ENDBRANCH   1  25
TORSDOF 15
