REMARK SMILES Cc1cc2c(c(C)c1Cl)C=C(C(=O)OCCOCCOC(=O)c1ccc(-c3c4nc(c(-c5ccccc5)c5ccc([nH]5)c(-c5ccccc5)c5nc(c(-c6ccccc6)c6ccc3[nH]6)C=C5)C=C4)cc1)[C@@H](C(F)(F)F)O2
REMARK SMILES IDX 18 1 17 2 16 3 15 4 14 5 12 6 13 7 11 8 1 9 2 10 3 11 8 12
REMARK SMILES IDX 4 13 6 14 9 15 5 16 76 17 7 18 10 19 71 20 72 21 73 22 74 23
REMARK SMILES IDX 75 24 19 25 20 26 21 27 22 28 23 29 24 30 70 31 25 32 69 33
REMARK SMILES IDX 26 34 27 35 28 36 63 37 29 38 68 39 62 40 64 41 30 42 67 43
REMARK SMILES IDX 61 44 60 45 31 47 53 48 38 49 52 50 39 51 42 52 51 53 65 54
REMARK SMILES IDX 40 55 41 56 50 58 66 59 43 60 32 61 33 62 37 63 34 64 36 65
REMARK SMILES IDX 35 66 54 67 55 68 59 69 56 70 58 71 57 72 44 73 45 74 49 75
REMARK SMILES IDX 46 76 48 77 47 78
REMARK H PARENT 64 46 42 57
REMARK Flexibility Score: inf
ROOT
ATOM      1  C   UNL     1       0.680   6.426   6.161  1.00  0.00     0.202 C 
ENDROOT
BRANCH   1   2
ATOM      2  O   UNL     1      -0.145   7.562   6.424  1.00  0.00    -0.374 OA
BRANCH   2   3
ATOM      3  C   UNL     1      -1.332   7.362   7.187  1.00  0.00     0.202 C 
BRANCH   3   4
ATOM      4  C   UNL     1      -2.534   6.768   6.447  1.00  0.00     0.261 C 
BRANCH   4   5
ATOM      5  O   UNL     1      -2.208   5.517   5.821  1.00  0.00    -0.460 OA
BRANCH   5   6
ATOM      6  C   UNL     1      -2.234   5.546   4.468  1.00  0.00     0.338 C 
ATOM      7  O   UNL     1      -2.633   6.460   3.761  1.00  0.00    -0.246 OA
BRANCH   6   8
ATOM      8  C   UNL     1      -1.583   4.340   3.928  1.00  0.00     0.087 C 
ATOM      9  C   UNL     1       1.066  -0.142   0.084  1.00  0.00     0.046 C 
ATOM     10  C   UNL     1       0.708   1.107   0.845  1.00  0.00    -0.028 A 
ATOM     11  C   UNL     1      -0.059   0.993   2.011  1.00  0.00     0.052 A 
ATOM     12  C   UNL     1       1.104   2.387   0.410  1.00  0.00     0.047 A 
ATOM     13  C   UNL     1      -0.484   2.127   2.700  1.00  0.00     0.128 A 
ATOM     14  C   UNL     1       0.702   3.549   1.108  1.00  0.00    -0.021 A 
ATOM     15  Cl  UNL     1       2.082   2.510  -1.022  1.00  0.00    -0.084 Cl
ATOM     16  C   UNL     1      -0.141   3.402   2.240  1.00  0.00     0.022 A 
ATOM     17  O   UNL     1      -1.234   1.883   3.817  1.00  0.00    -0.475 OA
ATOM     18  C   UNL     1       1.137   4.931   0.676  1.00  0.00     0.047 C 
ATOM     19  C   UNL     1      -0.731   4.551   2.917  1.00  0.00     0.027 C 
ATOM     20  C   UNL     1      -1.904   2.986   4.483  1.00  0.00     0.316 C 
BRANCH  20  21
ATOM     21  C   UNL     1      -3.412   2.692   4.503  1.00  0.00     0.430 C 
ATOM     22  F   UNL     1      -3.661   1.445   4.974  1.00  0.00    -0.167 F 
ATOM     23  F   UNL     1      -4.080   3.548   5.311  1.00  0.00    -0.167 F 
ATOM     24  F   UNL     1      -3.964   2.780   3.273  1.00  0.00    -0.167 F 
ENDBRANCH  20  21
ENDBRANCH   6   8
ENDBRANCH   5   6
ENDBRANCH   4   5
ENDBRANCH   3   4
ENDBRANCH   2   3
ENDBRANCH   1   2
BRANCH   1  25
ATOM     25  C   UNL     1       1.458   5.836   7.344  1.00  0.00     0.261 C 
BRANCH  25  26
ATOM     26  O   UNL     1       0.588   5.189   8.292  1.00  0.00    -0.460 OA
BRANCH  26  27
ATOM     27  C   UNL     1       0.600   5.725   9.535  1.00  0.00     0.338 C 
ATOM     28  O   UNL     1       1.310   6.633   9.949  1.00  0.00    -0.246 OA
BRANCH  27  29
ATOM     29  C   UNL     1      -0.522   5.189  10.321  1.00  0.00     0.060 A 
ATOM     30  C   UNL     1      -1.480   6.097  10.792  1.00  0.00     0.016 A 
ATOM     31  C   UNL     1      -0.588   3.839  10.670  1.00  0.00     0.016 A 
ATOM     32  C   UNL     1      -2.488   5.663  11.648  1.00  0.00     0.010 A 
ATOM     33  C   UNL     1      -1.593   3.408  11.542  1.00  0.00     0.010 A 
ATOM     34  C   UNL     1      -2.526   4.324  12.060  1.00  0.00    -0.014 A 
BRANCH  34  35
ATOM     35  C   UNL     1      -3.451   3.931  13.148  1.00  0.00     0.031 A 
ATOM     36  C   UNL     1      -2.935   3.875  14.559  1.00  0.00     0.074 A 
ATOM     37  C   UNL     1      -4.749   3.688  12.893  1.00  0.00     0.049 A 
ATOM     38  N   UNL     1      -3.577   3.591  15.664  1.00  0.00    -0.248 NA
ATOM     39  C   UNL     1      -1.510   4.190  14.753  1.00  0.00     0.031 C 
ATOM     40  C   UNL     1      -5.380   3.765  11.577  1.00  0.00     0.029 A 
ATOM     41  N   UNL     1      -5.771   3.339  13.739  1.00  0.00    -0.354 N 
ATOM     42  C   UNL     1      -2.639   3.701  16.682  1.00  0.00     0.074 A 
ATOM     43  C   UNL     1      -1.376   4.041  16.063  1.00  0.00     0.031 C 
ATOM     44  C   UNL     1      -6.688   3.482  11.706  1.00  0.00     0.029 A 
ATOM     45  C   UNL     1      -6.978   3.176  13.105  1.00  0.00     0.049 A 
ATOM     46  H   UNL     1      -5.650   3.217  14.709  1.00  0.00     0.167 HD
ATOM     47  C   UNL     1      -2.815   3.546  18.015  1.00  0.00     0.031 A 
ATOM     48  C   UNL     1      -8.178   2.814  13.598  1.00  0.00     0.031 A 
ATOM     49  C   UNL     1      -4.063   3.191  18.631  1.00  0.00     0.049 A 
ATOM     50  C   UNL     1      -8.323   2.542  15.071  1.00  0.00     0.074 A 
ATOM     51  C   UNL     1      -4.339   3.011  19.976  1.00  0.00     0.029 A 
ATOM     52  N   UNL     1      -5.242   2.954  17.944  1.00  0.00    -0.354 N 
ATOM     53  N   UNL     1      -7.432   2.664  16.025  1.00  0.00    -0.248 NA
ATOM     54  C   UNL     1      -9.641   2.082  15.536  1.00  0.00     0.031 C 
ATOM     55  C   UNL     1      -5.673   2.613  20.097  1.00  0.00     0.029 A 
ATOM     56  C   UNL     1      -6.242   2.599  18.834  1.00  0.00     0.049 A 
ATOM     57  H   UNL     1      -5.353   3.027  16.968  1.00  0.00     0.167 HD
ATOM     58  C   UNL     1      -8.085   2.317  17.202  1.00  0.00     0.074 A 
ATOM     59  C   UNL     1      -9.450   1.993  16.845  1.00  0.00     0.031 C 
ATOM     60  C   UNL     1      -7.595   2.273  18.464  1.00  0.00     0.031 A 
BRANCH  47  61
ATOM     61  C   UNL     1      -1.618   3.742  18.900  1.00  0.00    -0.014 A 
ATOM     62  C   UNL     1      -1.107   5.025  19.152  1.00  0.00     0.009 A 
ATOM     63  C   UNL     1      -1.027   2.637  19.533  1.00  0.00     0.009 A 
ATOM     64  C   UNL     1      -0.013   5.194  20.003  1.00  0.00     0.001 A 
ATOM     65  C   UNL     1       0.050   2.812  20.402  1.00  0.00     0.001 A 
ATOM     66  C   UNL     1       0.560   4.090  20.632  1.00  0.00     0.000 A 
ENDBRANCH  47  61
BRANCH  48  67
ATOM     67  C   UNL     1      -9.344   2.683  12.686  1.00  0.00    -0.014 A 
ATOM     68  C   UNL     1     -10.400   3.605  12.741  1.00  0.00     0.009 A 
ATOM     69  C   UNL     1      -9.406   1.635  11.754  1.00  0.00     0.009 A 
ATOM     70  C   UNL     1     -11.500   3.472  11.890  1.00  0.00     0.001 A 
ATOM     71  C   UNL     1     -10.495   1.519  10.888  1.00  0.00     0.001 A 
ATOM     72  C   UNL     1     -11.544   2.433  10.961  1.00  0.00     0.000 A 
ENDBRANCH  48  67
BRANCH  60  73
ATOM     73  C   UNL     1      -8.534   1.871  19.565  1.00  0.00    -0.014 A 
ATOM     74  C   UNL     1      -8.922   0.533  19.732  1.00  0.00     0.009 A 
ATOM     75  C   UNL     1      -8.966   2.828  20.498  1.00  0.00     0.009 A 
ATOM     76  C   UNL     1      -9.736   0.164  20.804  1.00  0.00     0.001 A 
ATOM     77  C   UNL     1      -9.758   2.451  21.583  1.00  0.00     0.001 A 
ATOM     78  C   UNL     1     -10.146   1.121  21.733  1.00  0.00     0.000 A 
ENDBRANCH  60  73
ENDBRANCH  34  35
ENDBRANCH  27  29
ENDBRANCH  26  27
ENDBRANCH  25  26
ENDBRANCH   1  25
TORSDOF 15
