REMARK SMILES COc1cc(/C=C2\SC(=S)N(CC(=O)OCCOCCOC(=O)c3ccc(-c4c5nc(c(-c6ccccc6)c6ccc([nH]6)c(-c6ccccc6)c6nc(c(-c7ccccc7)c7ccc4[nH]7)C=C6)C=C5)cc3)C2=O)cc2c1OCO2
REMARK SMILES IDX 17 1 16 2 15 3 13 4 14 5 12 6 11 7 6 8 7 9 8 10 72 11 9 12
REMARK SMILES IDX 73 13 10 14 5 15 3 16 4 17 76 18 75 19 77 20 74 21 79 22
REMARK SMILES IDX 78 23 2 24 1 25 18 26 19 27 20 28 21 29 22 30 23 31 24 32
REMARK SMILES IDX 25 33 71 34 26 35 70 36 27 37 28 38 29 39 64 40 30 41 69 42
REMARK SMILES IDX 63 43 65 44 31 45 68 46 62 47 61 48 32 50 54 51 39 52 53 53
REMARK SMILES IDX 40 54 43 55 52 56 66 57 41 58 42 59 51 61 67 62 44 63 33 64
REMARK SMILES IDX 34 65 38 66 35 67 37 68 36 69 55 70 56 71 60 72 57 73 59 74
REMARK SMILES IDX 58 75 45 76 46 77 50 78 47 79 49 80 48 81
REMARK H PARENT 65 49 43 60
REMARK Flexibility Score: inf
ROOT
ATOM      1  C   UNL     1      -5.075   9.587   1.348  1.00  0.00     0.202 C 
ENDROOT
BRANCH   1   2
ATOM      2  C   UNL     1      -4.001  10.678   1.298  1.00  0.00     0.261 C 
BRANCH   2   3
ATOM      3  O   UNL     1      -2.716  10.191   1.733  1.00  0.00    -0.462 OA
BRANCH   3   4
ATOM      4  C   UNL     1      -2.099  10.948   2.681  1.00  0.00     0.326 C 
ATOM      5  O   UNL     1      -2.505  12.033   3.083  1.00  0.00    -0.250 OA
BRANCH   4   6
ATOM      6  C   UNL     1      -0.857  10.292   3.271  1.00  0.00     0.250 C 
BRANCH   6   7
ATOM      7  N   UNL     1      -0.403   9.041   2.659  1.00  0.00    -0.282 N 
ATOM      8  C   UNL     1      -0.173   5.446   2.986  1.00  0.00     0.029 C 
ATOM      9  C   UNL     1      -0.071   6.710   2.550  1.00  0.00     0.081 C 
ATOM     10  S   UNL     1       0.864   7.303   1.239  1.00  0.00    -0.054 SA
ATOM     11  C   UNL     1      -0.743   7.837   3.247  1.00  0.00     0.266 C 
ATOM     12  C   UNL     1       0.428   8.977   1.561  1.00  0.00     0.148 C 
ATOM     13  O   UNL     1      -1.446   7.692   4.238  1.00  0.00    -0.268 OA
ATOM     14  S   UNL     1       0.997  10.240   0.634  1.00  0.00    -0.052 S 
BRANCH   8  15
ATOM     15  C   UNL     1       0.616   4.321   2.478  1.00  0.00    -0.017 A 
ATOM     16  C   UNL     1       0.827   2.303   1.103  1.00  0.00     0.165 A 
ATOM     17  C   UNL     1       0.067   3.385   1.581  1.00  0.00     0.058 A 
ATOM     18  C   UNL     1       2.143   2.208   1.525  1.00  0.00     0.207 A 
ATOM     19  C   UNL     1       2.674   3.127   2.405  1.00  0.00     0.170 A 
ATOM     20  O   UNL     1       3.073   1.278   1.167  1.00  0.00    -0.450 OA
ATOM     21  C   UNL     1       1.940   4.180   2.906  1.00  0.00     0.059 A 
ATOM     22  O   UNL     1       3.978   2.883   2.708  1.00  0.00    -0.453 OA
ATOM     23  C   UNL     1       4.243   1.752   1.862  1.00  0.00     0.468 C 
BRANCH  16  24
ATOM     24  O   UNL     1       0.164   1.472   0.245  1.00  0.00    -0.493 OA
ATOM     25  C   UNL     1       0.748   0.195   0.015  1.00  0.00     0.278 C 
ENDBRANCH  16  24
ENDBRANCH   8  15
ENDBRANCH   6   7
ENDBRANCH   4   6
ENDBRANCH   3   4
ENDBRANCH   2   3
ENDBRANCH   1   2
BRANCH   1  26
ATOM     26  O   UNL     1      -5.382   9.056   2.636  1.00  0.00    -0.374 OA
BRANCH  26  27
ATOM     27  C   UNL     1      -4.413   8.197   3.239  1.00  0.00     0.202 C 
BRANCH  27  28
ATOM     28  C   UNL     1      -4.310   6.779   2.663  1.00  0.00     0.261 C 
BRANCH  28  29
ATOM     29  O   UNL     1      -3.874   6.774   1.288  1.00  0.00    -0.460 OA
BRANCH  29  30
ATOM     30  C   UNL     1      -4.765   6.229   0.425  1.00  0.00     0.338 C 
ATOM     31  O   UNL     1      -5.810   5.654   0.702  1.00  0.00    -0.246 OA
BRANCH  30  32
ATOM     32  C   UNL     1      -4.417   6.560  -0.969  1.00  0.00     0.060 A 
ATOM     33  C   UNL     1      -5.406   7.181  -1.743  1.00  0.00     0.016 A 
ATOM     34  C   UNL     1      -3.203   6.176  -1.542  1.00  0.00     0.016 A 
ATOM     35  C   UNL     1      -5.210   7.366  -3.110  1.00  0.00     0.010 A 
ATOM     36  C   UNL     1      -3.011   6.357  -2.918  1.00  0.00     0.010 A 
ATOM     37  C   UNL     1      -4.029   6.914  -3.714  1.00  0.00    -0.014 A 
BRANCH  37  38
ATOM     38  C   UNL     1      -3.940   6.894  -5.194  1.00  0.00     0.031 A 
ATOM     39  C   UNL     1      -4.219   5.612  -5.930  1.00  0.00     0.074 A 
ATOM     40  C   UNL     1      -3.663   8.016  -5.882  1.00  0.00     0.049 A 
ATOM     41  N   UNL     1      -4.224   5.379  -7.219  1.00  0.00    -0.248 NA
ATOM     42  C   UNL     1      -4.535   4.437  -5.103  1.00  0.00     0.031 C 
ATOM     43  C   UNL     1      -3.406   9.328  -5.291  1.00  0.00     0.029 A 
ATOM     44  N   UNL     1      -3.551   8.224  -7.234  1.00  0.00    -0.354 N 
ATOM     45  C   UNL     1      -4.540   4.033  -7.357  1.00  0.00     0.074 A 
ATOM     46  C   UNL     1      -4.687   3.494  -6.022  1.00  0.00     0.031 C 
ATOM     47  C   UNL     1      -3.156  10.206  -6.277  1.00  0.00     0.029 A 
ATOM     48  C   UNL     1      -3.212   9.513  -7.563  1.00  0.00     0.049 A 
ATOM     49  H   UNL     1      -3.700   7.518  -7.903  1.00  0.00     0.167 HD
ATOM     50  C   UNL     1      -4.699   3.310  -8.491  1.00  0.00     0.031 A 
ATOM     51  C   UNL     1      -2.959  10.068  -8.764  1.00  0.00     0.031 A 
ATOM     52  C   UNL     1      -4.533   3.836  -9.819  1.00  0.00     0.049 A 
ATOM     53  C   UNL     1      -3.079   9.232 -10.008  1.00  0.00     0.074 A 
ATOM     54  C   UNL     1      -4.693   3.187 -11.032  1.00  0.00     0.029 A 
ATOM     55  N   UNL     1      -4.156   5.138 -10.109  1.00  0.00    -0.354 N 
ATOM     56  N   UNL     1      -3.418   7.970 -10.127  1.00  0.00    -0.248 NA
ATOM     57  C   UNL     1      -2.792   9.900 -11.286  1.00  0.00     0.031 C 
ATOM     58  C   UNL     1      -4.359   4.083 -12.054  1.00  0.00     0.029 A 
ATOM     59  C   UNL     1      -4.046   5.305 -11.479  1.00  0.00     0.049 A 
ATOM     60  H   UNL     1      -3.991   5.840  -9.439  1.00  0.00     0.167 HD
ATOM     61  C   UNL     1      -3.403   7.699 -11.489  1.00  0.00     0.074 A 
ATOM     62  C   UNL     1      -3.039   8.932 -12.158  1.00  0.00     0.031 C 
ATOM     63  C   UNL     1      -3.669   6.534 -12.129  1.00  0.00     0.031 A 
BRANCH  50  64
ATOM     64  C   UNL     1      -5.034   1.853  -8.332  1.00  0.00    -0.014 A 
ATOM     65  C   UNL     1      -6.300   1.439  -7.887  1.00  0.00     0.009 A 
ATOM     66  C   UNL     1      -4.071   0.879  -8.640  1.00  0.00     0.009 A 
ATOM     67  C   UNL     1      -6.579   0.081  -7.713  1.00  0.00     0.001 A 
ATOM     68  C   UNL     1      -4.362  -0.478  -8.492  1.00  0.00     0.001 A 
ATOM     69  C   UNL     1      -5.612  -0.875  -8.018  1.00  0.00     0.000 A 
ENDBRANCH  50  64
BRANCH  51  70
ATOM     70  C   UNL     1      -2.541  11.491  -8.841  1.00  0.00    -0.014 A 
ATOM     71  C   UNL     1      -3.405  12.470  -9.353  1.00  0.00     0.009 A 
ATOM     72  C   UNL     1      -1.268  11.877  -8.389  1.00  0.00     0.009 A 
ATOM     73  C   UNL     1      -2.996  13.804  -9.425  1.00  0.00     0.001 A 
ATOM     74  C   UNL     1      -0.873  13.214  -8.439  1.00  0.00     0.001 A 
ATOM     75  C   UNL     1      -1.734  14.176  -8.963  1.00  0.00     0.000 A 
ENDBRANCH  51  70
BRANCH  63  76
ATOM     76  C   UNL     1      -3.592   6.541 -13.630  1.00  0.00    -0.014 A 
ATOM     77  C   UNL     1      -2.357   6.590 -14.295  1.00  0.00     0.009 A 
ATOM     78  C   UNL     1      -4.771   6.455 -14.389  1.00  0.00     0.009 A 
ATOM     79  C   UNL     1      -2.306   6.586 -15.691  1.00  0.00     0.001 A 
ATOM     80  C   UNL     1      -4.715   6.424 -15.783  1.00  0.00     0.001 A 
ATOM     81  C   UNL     1      -3.484   6.498 -16.433  1.00  0.00     0.000 A 
ENDBRANCH  63  76
ENDBRANCH  37  38
ENDBRANCH  30  32
ENDBRANCH  29  30
ENDBRANCH  28  29
ENDBRANCH  27  28
ENDBRANCH  26  27
ENDBRANCH   1  26
TORSDOF 17
