REMARK SMILES COc1cc(C(=O)CCC(=O)OCCOCCOC(=O)c2ccc(-c3c4nc(c(-c5ccccc5)c5ccc([nH]5)c(-c5ccccc5)c5nc(c(-c6ccccc6)c6ccc3[nH]6)C=C5)C=C4)cc2)cc(OC)c1OC
REMARK SMILES IDX 14 1 13 2 12 3 10 4 11 5 9 6 8 7 6 8 7 9 5 10 3 11 4 12
REMARK SMILES IDX 73 13 70 14 69 15 2 16 1 17 74 18 75 19 71 20 72 21 15 22
REMARK SMILES IDX 16 23 17 24 18 25 19 26 20 27 21 28 22 29 68 30 23 31 67 32
REMARK SMILES IDX 24 33 25 34 26 35 61 36 27 37 66 38 60 39 62 40 28 41 65 42
REMARK SMILES IDX 59 43 58 44 29 46 51 47 36 48 50 49 37 50 40 51 49 52 63 53
REMARK SMILES IDX 38 54 39 55 48 57 64 58 41 59 30 60 31 61 35 62 32 63 34 64
REMARK SMILES IDX 33 65 52 66 53 67 57 68 54 69 56 70 55 71 42 72 43 73 47 74
REMARK SMILES IDX 44 75 46 76 45 77
REMARK H PARENT 62 45 40 56
REMARK Flexibility Score: inf
ROOT
ATOM      1  C   UNL     1       4.204   5.386  -2.750  1.00  0.00     0.202 C 
ENDROOT
BRANCH   1   2
ATOM      2  C   UNL     1       3.086   6.292  -2.206  1.00  0.00     0.261 C 
BRANCH   2   3
ATOM      3  O   UNL     1       1.804   6.008  -2.784  1.00  0.00    -0.463 OA
BRANCH   3   4
ATOM      4  C   UNL     1       1.347   6.866  -3.720  1.00  0.00     0.306 C 
ATOM      5  O   UNL     1       1.920   7.892  -4.073  1.00  0.00    -0.252 OA
BRANCH   4   6
ATOM      6  C   UNL     1       0.004   6.425  -4.244  1.00  0.00     0.131 C 
BRANCH   6   7
ATOM      7  C   UNL     1      -0.033   5.001  -4.793  1.00  0.00     0.093 C 
BRANCH   7   8
ATOM      8  C   UNL     1      -0.676   3.989  -3.859  1.00  0.00     0.163 C 
ATOM      9  O   UNL     1      -1.879   3.748  -3.979  1.00  0.00    -0.294 OA
BRANCH   8  10
ATOM     10  C   UNL     1       0.094   3.271  -2.784  1.00  0.00     0.025 A 
ATOM     11  C   UNL     1       0.083   1.810  -0.883  1.00  0.00     0.165 A 
ATOM     12  C   UNL     1      -0.603   2.471  -1.907  1.00  0.00     0.062 A 
ATOM     13  C   UNL     1       1.490   1.888  -0.681  1.00  0.00     0.203 A 
ATOM     14  C   UNL     1       2.215   2.554  -1.651  1.00  0.00     0.165 A 
ATOM     15  C   UNL     1       1.483   3.250  -2.659  1.00  0.00     0.062 A 
BRANCH  11  16
ATOM     16  O   UNL     1      -0.678   0.872  -0.224  1.00  0.00    -0.493 OA
ATOM     17  C   UNL     1      -1.132   1.363   1.027  1.00  0.00     0.278 C 
ENDBRANCH  11  16
BRANCH  13  18
ATOM     18  O   UNL     1       1.913   1.227   0.420  1.00  0.00    -0.490 OA
ATOM     19  C   UNL     1       3.253   1.078   0.818  1.00  0.00     0.278 C 
ENDBRANCH  13  18
BRANCH  14  20
ATOM     20  O   UNL     1       3.503   2.273  -2.035  1.00  0.00    -0.493 OA
ATOM     21  C   UNL     1       4.690   2.504  -1.296  1.00  0.00     0.278 C 
ENDBRANCH  14  20
ENDBRANCH   8  10
ENDBRANCH   7   8
ENDBRANCH   6   7
ENDBRANCH   4   6
ENDBRANCH   3   4
ENDBRANCH   2   3
ENDBRANCH   1   2
BRANCH   1  22
ATOM     22  O   UNL     1       4.574   5.395  -4.124  1.00  0.00    -0.374 OA
BRANCH  22  23
ATOM     23  C   UNL     1       3.801   4.637  -5.072  1.00  0.00     0.202 C 
BRANCH  23  24
ATOM     24  C   UNL     1       4.065   3.094  -5.273  1.00  0.00     0.261 C 
BRANCH  24  25
ATOM     25  O   UNL     1       3.088   2.162  -4.683  1.00  0.00    -0.460 OA
BRANCH  25  26
ATOM     26  C   UNL     1       3.463   0.838  -4.628  1.00  0.00     0.338 C 
ATOM     27  O   UNL     1       4.449   0.391  -5.201  1.00  0.00    -0.246 OA
BRANCH  26  28
ATOM     28  C   UNL     1       2.715  -0.026  -3.624  1.00  0.00     0.060 A 
ATOM     29  C   UNL     1       3.483  -0.597  -2.595  1.00  0.00     0.016 A 
ATOM     30  C   UNL     1       1.351  -0.345  -3.646  1.00  0.00     0.016 A 
ATOM     31  C   UNL     1       2.912  -1.389  -1.573  1.00  0.00     0.010 A 
ATOM     32  C   UNL     1       0.779  -1.187  -2.632  1.00  0.00     0.010 A 
ATOM     33  C   UNL     1       1.548  -1.708  -1.563  1.00  0.00    -0.014 A 
BRANCH  33  34
ATOM     34  C   UNL     1       1.080  -2.812  -0.629  1.00  0.00     0.031 A 
ATOM     35  C   UNL     1       1.379  -4.221  -1.067  1.00  0.00     0.074 A 
ATOM     36  C   UNL     1       0.625  -2.678   0.643  1.00  0.00     0.049 A 
ATOM     37  N   UNL     1       1.289  -5.335  -0.385  1.00  0.00    -0.248 NA
ATOM     38  C   UNL     1       1.956  -4.375  -2.410  1.00  0.00     0.031 C 
ATOM     39  C   UNL     1       0.536  -1.433   1.371  1.00  0.00     0.029 A 
ATOM     40  N   UNL     1       0.181  -3.595   1.583  1.00  0.00    -0.354 N 
ATOM     41  C   UNL     1       1.897  -6.298  -1.173  1.00  0.00     0.074 A 
ATOM     42  C   UNL     1       2.290  -5.655  -2.409  1.00  0.00     0.031 C 
ATOM     43  C   UNL     1      -0.001  -1.614   2.587  1.00  0.00     0.029 A 
ATOM     44  C   UNL     1      -0.289  -3.026   2.755  1.00  0.00     0.049 A 
ATOM     45  H   UNL     1       0.199  -4.568   1.431  1.00  0.00     0.167 HD
ATOM     46  C   UNL     1       2.141  -7.597  -0.891  1.00  0.00     0.031 A 
ATOM     47  C   UNL     1      -0.873  -3.555   3.852  1.00  0.00     0.031 A 
ATOM     48  C   UNL     1       1.661  -8.288   0.272  1.00  0.00     0.049 A 
ATOM     49  C   UNL     1      -0.898  -5.050   3.993  1.00  0.00     0.074 A 
ATOM     50  C   UNL     1       1.732  -9.640   0.557  1.00  0.00     0.029 A 
ATOM     51  N   UNL     1       0.992  -7.691   1.329  1.00  0.00    -0.354 N 
ATOM     52  N   UNL     1      -0.345  -5.948   3.217  1.00  0.00    -0.248 NA
ATOM     53  C   UNL     1      -1.552  -5.604   5.188  1.00  0.00     0.031 C 
ATOM     54  C   UNL     1       1.047  -9.872   1.754  1.00  0.00     0.029 A 
ATOM     55  C   UNL     1       0.612  -8.655   2.251  1.00  0.00     0.049 A 
ATOM     56  H   UNL     1       0.813  -6.726   1.413  1.00  0.00     0.167 HD
ATOM     57  C   UNL     1      -0.517  -7.161   3.864  1.00  0.00     0.074 A 
ATOM     58  C   UNL     1      -1.226  -6.886   5.097  1.00  0.00     0.031 C 
ATOM     59  C   UNL     1      -0.098  -8.389   3.475  1.00  0.00     0.031 A 
BRANCH  46  60
ATOM     60  C   UNL     1       2.908  -8.355  -1.930  1.00  0.00    -0.014 A 
ATOM     61  C   UNL     1       4.289  -8.158  -2.095  1.00  0.00     0.009 A 
ATOM     62  C   UNL     1       2.230  -9.226  -2.793  1.00  0.00     0.009 A 
ATOM     63  C   UNL     1       4.970  -8.796  -3.132  1.00  0.00     0.001 A 
ATOM     64  C   UNL     1       2.919  -9.880  -3.813  1.00  0.00     0.001 A 
ATOM     65  C   UNL     1       4.284  -9.657  -3.989  1.00  0.00     0.000 A 
ENDBRANCH  46  60
BRANCH  47  66
ATOM     66  C   UNL     1      -1.490  -2.700   4.918  1.00  0.00    -0.014 A 
ATOM     67  C   UNL     1      -1.007  -2.697   6.238  1.00  0.00     0.009 A 
ATOM     68  C   UNL     1      -2.662  -1.975   4.640  1.00  0.00     0.009 A 
ATOM     69  C   UNL     1      -1.709  -2.040   7.258  1.00  0.00     0.001 A 
ATOM     70  C   UNL     1      -3.347  -1.296   5.655  1.00  0.00     0.001 A 
ATOM     71  C   UNL     1      -2.879  -1.342   6.966  1.00  0.00     0.000 A 
ENDBRANCH  47  66
BRANCH  59  72
ATOM     72  C   UNL     1      -0.353  -9.529   4.418  1.00  0.00    -0.014 A 
ATOM     73  C   UNL     1      -1.652  -9.992   4.678  1.00  0.00     0.009 A 
ATOM     74  C   UNL     1       0.732 -10.157   5.050  1.00  0.00     0.009 A 
ATOM     75  C   UNL     1      -1.863 -11.027   5.591  1.00  0.00     0.001 A 
ATOM     76  C   UNL     1       0.521 -11.216   5.933  1.00  0.00     0.001 A 
ATOM     77  C   UNL     1      -0.776 -11.641   6.214  1.00  0.00     0.000 A 
ENDBRANCH  59  72
ENDBRANCH  33  34
ENDBRANCH  26  28
ENDBRANCH  25  26
ENDBRANCH  24  25
ENDBRANCH  23  24
ENDBRANCH  22  23
ENDBRANCH   1  22
TORSDOF 20
