REMARK SMILES CC(C)[NH2+][C@]1(C(=O)OCCOCCOC(=O)c2ccc(-c3c4nc(c(-c5ccccc5)c5ccc([nH]5)c(-c5ccccc5)c5nc(c(-c6ccccc6)c6ccc3[nH]6)C=C5)C=C4)cc2)CCC[C@@H](Sc2nnnn2C)C1
REMARK SMILES IDX 11 1 10 2 9 3 8 4 6 5 7 6 5 7 65 8 76 9 66 10 68 11 67 12
REMARK SMILES IDX 4 13 2 16 1 17 3 18 69 19 70 20 71 21 74 22 72 23 73 24
REMARK SMILES IDX 75 25 12 26 13 27 14 28 15 29 16 30 17 31 18 32 64 33 19 34
REMARK SMILES IDX 63 35 20 36 21 37 22 38 57 39 23 40 62 41 56 42 58 43 24 44
REMARK SMILES IDX 61 45 55 46 54 47 25 49 47 50 32 51 46 52 33 53 36 54 45 55
REMARK SMILES IDX 59 56 34 57 35 58 44 60 60 61 37 62 26 63 27 64 31 65 28 66
REMARK SMILES IDX 30 67 29 68 48 69 49 70 53 71 50 72 52 73 51 74 38 75 39 76
REMARK SMILES IDX 43 77 40 78 42 79 41 80
REMARK H PARENT 4 14 4 15 58 48 36 59
REMARK Flexibility Score: inf
ROOT
ATOM      1  O   UNL     1      -1.381  -1.292   0.659  1.00  0.00    -0.374 OA
ENDROOT
BRANCH   1   2
ATOM      2  C   UNL     1      -0.242  -0.598   1.155  1.00  0.00     0.202 C 
BRANCH   2   3
ATOM      3  C   UNL     1       0.576   0.222   0.155  1.00  0.00     0.261 C 
BRANCH   3   4
ATOM      4  O   UNL     1      -0.163   1.313  -0.425  1.00  0.00    -0.459 OA
BRANCH   4   5
ATOM      5  C   UNL     1      -0.506   1.139  -1.732  1.00  0.00     0.368 C 
ATOM      6  O   UNL     1      -0.315   0.100  -2.363  1.00  0.00    -0.245 OA
BRANCH   5   7
ATOM      7  C   UNL     1      -1.212   2.389  -2.382  1.00  0.00     0.195 C 
ATOM      8  C   UNL     1      -2.659   2.451  -1.856  1.00  0.00     0.081 C 
ATOM      9  C   UNL     1      -0.471   3.665  -1.914  1.00  0.00     0.096 C 
ATOM     10  C   UNL     1      -3.426   3.718  -2.228  1.00  0.00     0.008 C 
ATOM     11  C   UNL     1      -1.201   4.982  -2.207  1.00  0.00     0.061 C 
ATOM     12  C   UNL     1      -2.681   4.973  -1.796  1.00  0.00     0.015 C 
BRANCH   7  13
ATOM     13  N   UNL     1      -0.981   2.191  -3.835  1.00  0.00    -0.330 N 
ATOM     14  H   UNL     1      -0.139   2.724  -4.051  1.00  0.00     0.347 HD
ATOM     15  H   UNL     1      -1.002   1.172  -3.885  1.00  0.00     0.347 HD
BRANCH  13  16
ATOM     16  C   UNL     1      -1.929   2.521  -4.888  1.00  0.00     0.176 C 
ATOM     17  C   UNL     1      -1.145   2.361  -6.202  1.00  0.00     0.075 C 
ATOM     18  C   UNL     1      -3.153   1.604  -4.979  1.00  0.00     0.075 C 
ENDBRANCH  13  16
ENDBRANCH   7  13
BRANCH  11  19
ATOM     19  S   UNL     1      -0.243   6.356  -1.422  1.00  0.00    -0.081 SA
BRANCH  19  20
ATOM     20  C   UNL     1      -1.000   6.558   0.119  1.00  0.00     0.209 A 
ATOM     21  N   UNL     1      -1.975   7.399   0.379  1.00  0.00    -0.102 NA
ATOM     22  N   UNL     1      -0.735   5.843   1.252  1.00  0.00    -0.224 N 
ATOM     23  N   UNL     1      -2.334   7.171   1.686  1.00  0.00    -0.023 NA
ATOM     24  N   UNL     1      -1.596   6.209   2.222  1.00  0.00    -0.045 NA
ATOM     25  C   UNL     1       0.216   4.804   1.524  1.00  0.00     0.179 C 
ENDBRANCH  19  20
ENDBRANCH  11  19
ENDBRANCH   5   7
ENDBRANCH   4   5
ENDBRANCH   3   4
ENDBRANCH   2   3
ENDBRANCH   1   2
BRANCH   1  26
ATOM     26  C   UNL     1      -2.548  -0.528   0.368  1.00  0.00     0.202 C 
BRANCH  26  27
ATOM     27  C   UNL     1      -3.380  -0.037   1.559  1.00  0.00     0.261 C 
BRANCH  27  28
ATOM     28  O   UNL     1      -2.656   0.887   2.394  1.00  0.00    -0.460 OA
BRANCH  28  29
ATOM     29  C   UNL     1      -2.383   0.430   3.640  1.00  0.00     0.338 C 
ATOM     30  O   UNL     1      -2.734  -0.633   4.135  1.00  0.00    -0.246 OA
BRANCH  29  31
ATOM     31  C   UNL     1      -1.410   1.318   4.298  1.00  0.00     0.060 A 
ATOM     32  C   UNL     1      -0.201   0.753   4.726  1.00  0.00     0.016 A 
ATOM     33  C   UNL     1      -1.696   2.660   4.551  1.00  0.00     0.016 A 
ATOM     34  C   UNL     1       0.720   1.524   5.432  1.00  0.00     0.010 A 
ATOM     35  C   UNL     1      -0.777   3.428   5.274  1.00  0.00     0.010 A 
ATOM     36  C   UNL     1       0.424   2.859   5.735  1.00  0.00    -0.014 A 
BRANCH  36  37
ATOM     37  C   UNL     1       1.337   3.641   6.601  1.00  0.00     0.031 A 
ATOM     38  C   UNL     1       1.029   3.789   8.063  1.00  0.00     0.074 A 
ATOM     39  C   UNL     1       2.434   4.217   6.080  1.00  0.00     0.049 A 
ATOM     40  N   UNL     1       1.659   4.486   8.974  1.00  0.00    -0.248 NA
ATOM     41  C   UNL     1      -0.138   3.048   8.569  1.00  0.00     0.031 C 
ATOM     42  C   UNL     1       2.874   4.098   4.690  1.00  0.00     0.029 A 
ATOM     43  N   UNL     1       3.372   5.032   6.662  1.00  0.00    -0.354 N 
ATOM     44  C   UNL     1       0.964   4.276  10.158  1.00  0.00     0.074 A 
ATOM     45  C   UNL     1      -0.146   3.400   9.847  1.00  0.00     0.031 C 
ATOM     46  C   UNL     1       3.983   4.838   4.520  1.00  0.00     0.029 A 
ATOM     47  C   UNL     1       4.309   5.506   5.779  1.00  0.00     0.049 A 
ATOM     48  H   UNL     1       3.373   5.254   7.621  1.00  0.00     0.167 HD
ATOM     49  C   UNL     1       1.225   4.771  11.391  1.00  0.00     0.031 A 
ATOM     50  C   UNL     1       5.297   6.404   5.955  1.00  0.00     0.031 A 
ATOM     51  C   UNL     1       2.315   5.660  11.695  1.00  0.00     0.049 A 
ATOM     52  C   UNL     1       5.500   7.024   7.310  1.00  0.00     0.074 A 
ATOM     53  C   UNL     1       2.678   6.192  12.920  1.00  0.00     0.029 A 
ATOM     54  N   UNL     1       3.206   6.163  10.760  1.00  0.00    -0.354 N 
ATOM     55  N   UNL     1       4.858   6.791   8.429  1.00  0.00    -0.248 NA
ATOM     56  C   UNL     1       6.562   8.035   7.425  1.00  0.00     0.031 C 
ATOM     57  C   UNL     1       3.750   7.067  12.716  1.00  0.00     0.029 A 
ATOM     58  C   UNL     1       4.091   7.034  11.373  1.00  0.00     0.049 A 
ATOM     59  H   UNL     1       3.210   5.934   9.803  1.00  0.00     0.167 HD
ATOM     60  C   UNL     1       5.447   7.612   9.383  1.00  0.00     0.074 A 
ATOM     61  C   UNL     1       6.510   8.335   8.715  1.00  0.00     0.031 C 
ATOM     62  C   UNL     1       5.134   7.756  10.694  1.00  0.00     0.031 A 
BRANCH  49  63
ATOM     63  C   UNL     1       0.288   4.393  12.503  1.00  0.00    -0.014 A 
ATOM     64  C   UNL     1       0.295   3.104  13.058  1.00  0.00     0.009 A 
ATOM     65  C   UNL     1      -0.581   5.358  13.035  1.00  0.00     0.009 A 
ATOM     66  C   UNL     1      -0.571   2.782  14.106  1.00  0.00     0.001 A 
ATOM     67  C   UNL     1      -1.429   5.041  14.098  1.00  0.00     0.001 A 
ATOM     68  C   UNL     1      -1.428   3.751  14.627  1.00  0.00     0.000 A 
ENDBRANCH  49  63
BRANCH  50  69
ATOM     69  C   UNL     1       6.145   6.808   4.805  1.00  0.00    -0.014 A 
ATOM     70  C   UNL     1       7.496   6.436   4.743  1.00  0.00     0.009 A 
ATOM     71  C   UNL     1       5.606   7.585   3.767  1.00  0.00     0.009 A 
ATOM     72  C   UNL     1       8.294   6.851   3.675  1.00  0.00     0.001 A 
ATOM     73  C   UNL     1       6.399   7.975   2.686  1.00  0.00     0.001 A 
ATOM     74  C   UNL     1       7.745   7.614   2.645  1.00  0.00     0.000 A 
ENDBRANCH  50  69
BRANCH  62  75
ATOM     75  C   UNL     1       5.958   8.723  11.496  1.00  0.00    -0.014 A 
ATOM     76  C   UNL     1       5.803  10.110  11.340  1.00  0.00     0.009 A 
ATOM     77  C   UNL     1       6.867   8.243  12.451  1.00  0.00     0.009 A 
ATOM     78  C   UNL     1       6.562  10.995  12.107  1.00  0.00     0.001 A 
ATOM     79  C   UNL     1       7.605   9.131  13.236  1.00  0.00     0.001 A 
ATOM     80  C   UNL     1       7.458  10.506  13.058  1.00  0.00     0.000 A 
ENDBRANCH  62  75
ENDBRANCH  36  37
ENDBRANCH  29  31
ENDBRANCH  28  29
ENDBRANCH  27  28
ENDBRANCH  26  27
ENDBRANCH   1  26
TORSDOF 18
