REMARK SMILES COC[C@H](C)CNC(=O)N[C@@H]1CCCCC[C@@H]1C(=O)OCCOCCOC(=O)c1ccc(-c2c3nc(c(-c4ccccc4)c4ccc([nH]4)c(-c4ccccc4)c4nc(c(-c5ccccc5)c5ccc2[nH]5)C=C4)C=C3)cc1
REMARK SMILES IDX 21 1 20 2 18 3 19 4 17 5 11 6 10 7 7 8 8 9 9 11 6 13 4 14
REMARK SMILES IDX 5 15 3 16 2 17 1 18 12 19 13 20 14 21 16 23 15 24 22 26
REMARK SMILES IDX 23 27 24 28 25 29 26 30 27 31 28 32 29 33 30 34 76 35 31 36
REMARK SMILES IDX 75 37 32 38 33 39 34 40 69 41 35 42 74 43 68 44 70 45 36 46
REMARK SMILES IDX 73 47 67 48 66 49 37 51 59 52 44 53 58 54 45 55 48 56 57 57
REMARK SMILES IDX 71 58 46 59 47 60 56 62 72 63 49 64 38 65 39 66 43 67 40 68
REMARK SMILES IDX 42 69 41 70 60 71 61 72 65 73 62 74 64 75 63 76 50 77 51 78
REMARK SMILES IDX 55 79 52 80 54 81 53 82
REMARK H PARENT 7 10 10 12 70 50 48 61
REMARK Flexibility Score: 100.00
ROOT
ATOM      1  C   UNL     1       2.462   7.318  -6.119  1.00  0.00     0.261 C 
ENDROOT
BRANCH   1   2
ATOM      2  O   UNL     1       1.740   6.731  -5.021  1.00  0.00    -0.463 OA
BRANCH   2   3
ATOM      3  C   UNL     1       0.484   7.235  -4.838  1.00  0.00     0.311 C 
ATOM      4  O   UNL     1      -0.123   7.898  -5.670  1.00  0.00    -0.252 OA
BRANCH   3   5
ATOM      5  C   UNL     1      -0.030   6.973  -3.428  1.00  0.00     0.121 C 
BRANCH   5   6
ATOM      6  C   UNL     1      -0.497   5.523  -3.158  1.00  0.00     0.098 C 
BRANCH   6   7
ATOM      7  N   UNL     1      -1.080   4.806  -4.288  1.00  0.00    -0.335 N 
ATOM      8  N   UNL     1      -0.587   2.506  -3.894  1.00  0.00    -0.338 N 
ATOM      9  C   UNL     1      -1.251   3.490  -4.521  1.00  0.00     0.315 C 
ATOM     10  H   UNL     1      -0.987   1.626  -4.082  1.00  0.00     0.165 HD
ATOM     11  O   UNL     1      -2.038   3.165  -5.412  1.00  0.00    -0.249 OA
ATOM     12  H   UNL     1      -1.408   5.389  -5.010  1.00  0.00     0.165 HD
BRANCH   8  13
ATOM     13  C   UNL     1       0.570   2.389  -3.007  1.00  0.00     0.123 C 
BRANCH  13  14
ATOM     14  C   UNL     1       0.313   1.367  -1.887  1.00  0.00     0.031 C 
ATOM     15  C   UNL     1       1.109   0.081  -2.138  1.00  0.00     0.012 C 
BRANCH  14  16
ATOM     16  C   UNL     1       0.677   1.955  -0.510  1.00  0.00     0.164 C 
BRANCH  16  17
ATOM     17  O   UNL     1      -0.147   1.405   0.521  1.00  0.00    -0.384 OA
ATOM     18  C   UNL     1      -1.421   2.040   0.594  1.00  0.00     0.194 C 
ENDBRANCH  16  17
ENDBRANCH  14  16
ENDBRANCH  13  14
ENDBRANCH   8  13
ENDBRANCH   6   7
BRANCH   6  19
ATOM     19  C   UNL     1      -1.486   5.330  -1.997  1.00  0.00     0.026 C 
BRANCH  19  20
ATOM     20  C   UNL     1      -1.140   6.036  -0.698  1.00  0.00     0.002 C 
BRANCH  20  21
ATOM     21  C   UNL     1      -1.685   7.457  -0.644  1.00  0.00     0.000 CG0
ATOM     22  G   UNL     1      -0.968   8.440  -1.556  1.00  0.00     0.000 G0
ENDBRANCH  20  21
ENDBRANCH  19  20
ENDBRANCH   6  19
ENDBRANCH   5   6
BRANCH   5  23
ATOM     23  C   UNL     1      -1.022   8.085  -3.042  1.00  0.00     0.017 C 
BRANCH  23  24
ATOM     24  C   UNL     1      -0.968   8.440  -1.556  1.00  0.00     0.001 CG0
ATOM     25  G   UNL     1      -1.685   7.457  -0.644  1.00  0.00     0.000 G0
ENDBRANCH  23  24
ENDBRANCH   5  23
ENDBRANCH   3   5
ENDBRANCH   2   3
ENDBRANCH   1   2
BRANCH   1  26
ATOM     26  C   UNL     1       2.657   6.442  -7.359  1.00  0.00     0.202 C 
BRANCH  26  27
ATOM     27  O   UNL     1       1.546   5.832  -7.990  1.00  0.00    -0.374 OA
BRANCH  27  28
ATOM     28  C   UNL     1       0.701   4.959  -7.259  1.00  0.00     0.202 C 
BRANCH  28  29
ATOM     29  C   UNL     1       1.291   3.851  -6.379  1.00  0.00     0.261 C 
BRANCH  29  30
ATOM     30  O   UNL     1       2.699   3.790  -6.262  1.00  0.00    -0.460 OA
BRANCH  30  31
ATOM     31  C   UNL     1       3.321   2.991  -7.142  1.00  0.00     0.338 C 
ATOM     32  O   UNL     1       2.858   2.331  -8.051  1.00  0.00    -0.246 OA
BRANCH  31  33
ATOM     33  C   UNL     1       4.735   3.124  -6.803  1.00  0.00     0.060 A 
ATOM     34  C   UNL     1       5.555   3.860  -7.658  1.00  0.00     0.016 A 
ATOM     35  C   UNL     1       5.213   2.571  -5.610  1.00  0.00     0.016 A 
ATOM     36  C   UNL     1       6.899   3.991  -7.347  1.00  0.00     0.010 A 
ATOM     37  C   UNL     1       6.558   2.711  -5.296  1.00  0.00     0.010 A 
ATOM     38  C   UNL     1       7.408   3.382  -6.190  1.00  0.00    -0.014 A 
BRANCH  38  39
ATOM     39  C   UNL     1       8.869   3.305  -6.013  1.00  0.00     0.031 A 
ATOM     40  C   UNL     1       9.558   2.018  -6.359  1.00  0.00     0.074 A 
ATOM     41  C   UNL     1       9.553   4.386  -5.606  1.00  0.00     0.049 A 
ATOM     42  N   UNL     1      10.831   1.728  -6.321  1.00  0.00    -0.248 NA
ATOM     43  C   UNL     1       8.698   0.908  -6.806  1.00  0.00     0.031 C 
ATOM     44  C   UNL     1       8.966   5.686  -5.281  1.00  0.00     0.029 A 
ATOM     45  N   UNL     1      10.896   4.562  -5.413  1.00  0.00    -0.354 N 
ATOM     46  C   UNL     1      10.922   0.405  -6.734  1.00  0.00     0.074 A 
ATOM     47  C   UNL     1       9.578  -0.065  -6.977  1.00  0.00     0.031 C 
ATOM     48  C   UNL     1       9.950   6.534  -4.939  1.00  0.00     0.029 A 
ATOM     49  C   UNL     1      11.226   5.825  -4.990  1.00  0.00     0.049 A 
ATOM     50  H   UNL     1      11.561   3.851  -5.562  1.00  0.00     0.167 HD
ATOM     51  C   UNL     1      12.035  -0.345  -6.907  1.00  0.00     0.031 A 
ATOM     52  C   UNL     1      12.427   6.339  -4.670  1.00  0.00     0.031 A 
ATOM     53  C   UNL     1      13.363   0.138  -6.646  1.00  0.00     0.049 A 
ATOM     54  C   UNL     1      13.642   5.462  -4.806  1.00  0.00     0.074 A 
ATOM     55  C   UNL     1      14.567  -0.524  -6.794  1.00  0.00     0.029 A 
ATOM     56  N   UNL     1      13.656   1.409  -6.173  1.00  0.00    -0.354 N 
ATOM     57  N   UNL     1      13.724   4.222  -5.228  1.00  0.00    -0.248 NA
ATOM     58  C   UNL     1      14.930   6.059  -4.434  1.00  0.00     0.031 C 
ATOM     59  C   UNL     1      15.585   0.325  -6.349  1.00  0.00     0.029 A 
ATOM     60  C   UNL     1      15.021   1.542  -5.993  1.00  0.00     0.049 A 
ATOM     61  H   UNL     1      12.992   2.112  -5.992  1.00  0.00     0.167 HD
ATOM     62  C   UNL     1      15.074   3.898  -5.198  1.00  0.00     0.074 A 
ATOM     63  C   UNL     1      15.773   5.081  -4.734  1.00  0.00     0.031 C 
ATOM     64  C   UNL     1      15.685   2.732  -5.524  1.00  0.00     0.031 A 
BRANCH  51  65
ATOM     65  C   UNL     1      11.850  -1.767  -7.358  1.00  0.00    -0.014 A 
ATOM     66  C   UNL     1      11.399  -2.076  -8.652  1.00  0.00     0.009 A 
ATOM     67  C   UNL     1      12.146  -2.818  -6.476  1.00  0.00     0.009 A 
ATOM     68  C   UNL     1      11.214  -3.405  -9.040  1.00  0.00     0.001 A 
ATOM     69  C   UNL     1      11.991  -4.147  -6.877  1.00  0.00     0.001 A 
ATOM     70  C   UNL     1      11.516  -4.439  -8.154  1.00  0.00     0.000 A 
ENDBRANCH  51  65
BRANCH  52  71
ATOM     71  C   UNL     1      12.533   7.739  -4.185  1.00  0.00    -0.014 A 
ATOM     72  C   UNL     1      13.173   8.723  -4.954  1.00  0.00     0.009 A 
ATOM     73  C   UNL     1      11.990   8.100  -2.941  1.00  0.00     0.009 A 
ATOM     74  C   UNL     1      13.290  10.030  -4.475  1.00  0.00     0.001 A 
ATOM     75  C   UNL     1      12.080   9.415  -2.479  1.00  0.00     0.001 A 
ATOM     76  C   UNL     1      12.739  10.376  -3.242  1.00  0.00     0.000 A 
ENDBRANCH  52  71
BRANCH  64  77
ATOM     77  C   UNL     1      17.184   2.696  -5.423  1.00  0.00    -0.014 A 
ATOM     78  C   UNL     1      17.833   2.701  -4.178  1.00  0.00     0.009 A 
ATOM     79  C   UNL     1      17.953   2.613  -6.593  1.00  0.00     0.009 A 
ATOM     80  C   UNL     1      19.227   2.664  -4.112  1.00  0.00     0.001 A 
ATOM     81  C   UNL     1      19.344   2.540  -6.522  1.00  0.00     0.001 A 
ATOM     82  C   UNL     1      19.980   2.578  -5.283  1.00  0.00     0.000 A 
ENDBRANCH  64  77
ENDBRANCH  38  39
ENDBRANCH  31  33
ENDBRANCH  30  31
ENDBRANCH  29  30
ENDBRANCH  28  29
ENDBRANCH  27  28
ENDBRANCH  26  27
ENDBRANCH   1  26
TORSDOF 19
