REMARK SMILES O=C(C[C@@H]1S/C(=[NH+]\c2ccccc2)N(CCO)C1=O)Nc1ccc(C(=O)OCCOCCOC(=O)c2ccc(-c3c4nc(c(-c5ccccc5)c5ccc([nH]5)c(-c5ccccc5)c5nc(c(-c6ccccc6)c6ccc3[nH]6)C=C5)C=C4)cc2)cc1
REMARK SMILES IDX 28 1 27 2 25 3 26 4 24 5 21 6 22 7 85 8 23 9 84 10 20 11
REMARK SMILES IDX 1 12 2 13 3 15 4 16 5 17 18 18 6 19 14 20 19 21 7 22 15 24
REMARK SMILES IDX 16 25 17 26 8 28 9 29 13 30 10 31 12 32 11 33 29 34 30 35
REMARK SMILES IDX 31 36 32 37 33 38 34 39 35 40 36 41 37 42 83 43 38 44 82 45
REMARK SMILES IDX 39 46 40 47 41 48 76 49 42 50 81 51 75 52 77 53 43 54 80 55
REMARK SMILES IDX 74 56 73 57 44 59 66 60 51 61 65 62 52 63 55 64 64 65 78 66
REMARK SMILES IDX 53 67 54 68 63 70 79 71 56 72 45 73 46 74 50 75 47 76 49 77
REMARK SMILES IDX 48 78 67 79 68 80 72 81 69 82 71 83 70 84 57 85 58 86 62 87
REMARK SMILES IDX 59 88 61 89 60 90
REMARK H PARENT 20 14 7 23 17 27 77 58 55 69
REMARK Flexibility Score: inf
ROOT
ATOM      1  C   UNL     1       4.326   4.179  -7.931  1.00  0.00     0.261 C 
ENDROOT
BRANCH   1   2
ATOM      2  O   UNL     1       4.689   3.598  -6.668  1.00  0.00    -0.460 OA
BRANCH   2   3
ATOM      3  C   UNL     1       3.714   2.859  -6.093  1.00  0.00     0.338 C 
ATOM      4  O   UNL     1       2.556   2.746  -6.469  1.00  0.00    -0.246 OA
BRANCH   3   5
ATOM      5  C   UNL     1       4.273   2.033  -5.006  1.00  0.00     0.060 A 
ATOM      6  C   UNL     1       5.043   0.435  -2.858  1.00  0.00     0.041 A 
ATOM      7  C   UNL     1       4.194  -0.076  -3.847  1.00  0.00     0.027 A 
ATOM      8  C   UNL     1       5.588   1.710  -3.001  1.00  0.00     0.027 A 
ATOM      9  C   UNL     1       3.781   0.730  -4.899  1.00  0.00     0.018 A 
ATOM     10  C   UNL     1       5.221   2.507  -4.093  1.00  0.00     0.018 A 
BRANCH   6  11
ATOM     11  N   UNL     1       5.227  -0.382  -1.730  1.00  0.00    -0.326 N 
ATOM     12  O   UNL     1       5.583   1.201  -0.070  1.00  0.00    -0.275 OA
ATOM     13  C   UNL     1       5.417   0.040  -0.430  1.00  0.00     0.226 C 
ATOM     14  H   UNL     1       5.219  -1.354  -1.883  1.00  0.00     0.169 HD
BRANCH  13  15
ATOM     15  C   UNL     1       5.369  -1.096   0.591  1.00  0.00     0.128 C 
BRANCH  15  16
ATOM     16  C   UNL     1       3.961  -1.661   0.813  1.00  0.00     0.183 C 
ATOM     17  S   UNL     1       3.970  -2.842   2.213  1.00  0.00    -0.022 SA
ATOM     18  C   UNL     1       3.528  -2.518  -0.360  1.00  0.00     0.324 C 
ATOM     19  C   UNL     1       3.774  -4.234   1.187  1.00  0.00     0.319 C 
ATOM     20  N   UNL     1       3.594  -3.861  -0.112  1.00  0.00    -0.188 N 
ATOM     21  O   UNL     1       3.237  -2.052  -1.457  1.00  0.00    -0.245 OA
ATOM     22  N   UNL     1       3.787  -5.486   1.492  1.00  0.00    -0.235 N 
ATOM     23  H   UNL     1       3.725  -6.146   0.764  1.00  0.00     0.313 HD
BRANCH  20  24
ATOM     24  C   UNL     1       3.421  -4.830  -1.200  1.00  0.00     0.275 C 
BRANCH  24  25
ATOM     25  C   UNL     1       4.765  -5.443  -1.616  1.00  0.00     0.202 C 
BRANCH  25  26
ATOM     26  O   UNL     1       5.187  -6.484  -0.740  1.00  0.00    -0.392 OA
ATOM     27  H   UNL     1       5.309  -6.125   0.153  1.00  0.00     0.210 HD
ENDBRANCH  25  26
ENDBRANCH  24  25
ENDBRANCH  20  24
BRANCH  22  28
ATOM     28  C   UNL     1       3.884  -5.954   2.806  1.00  0.00     0.125 A 
ATOM     29  C   UNL     1       4.912  -6.844   3.126  1.00  0.00     0.051 A 
ATOM     30  C   UNL     1       2.890  -5.694   3.755  1.00  0.00     0.051 A 
ATOM     31  C   UNL     1       4.960  -7.449   4.383  1.00  0.00     0.004 A 
ATOM     32  C   UNL     1       2.943  -6.286   5.017  1.00  0.00     0.004 A 
ATOM     33  C   UNL     1       3.977  -7.167   5.329  1.00  0.00     0.000 A 
ENDBRANCH  22  28
ENDBRANCH  15  16
ENDBRANCH  13  15
ENDBRANCH   6  11
ENDBRANCH   3   5
ENDBRANCH   2   3
ENDBRANCH   1   2
BRANCH   1  34
ATOM     34  C   UNL     1       5.071   3.501  -9.083  1.00  0.00     0.202 C 
BRANCH  34  35
ATOM     35  O   UNL     1       4.738   2.134  -9.327  1.00  0.00    -0.374 OA
BRANCH  35  36
ATOM     36  C   UNL     1       5.390   1.153  -8.518  1.00  0.00     0.202 C 
BRANCH  36  37
ATOM     37  C   UNL     1       6.818   0.781  -8.934  1.00  0.00     0.261 C 
BRANCH  37  38
ATOM     38  O   UNL     1       7.736   1.867  -8.705  1.00  0.00    -0.460 OA
BRANCH  38  39
ATOM     39  C   UNL     1       8.214   2.455  -9.825  1.00  0.00     0.338 C 
ATOM     40  O   UNL     1       8.034   2.106 -10.984  1.00  0.00    -0.246 OA
BRANCH  39  41
ATOM     41  C   UNL     1       8.866   3.732  -9.481  1.00  0.00     0.060 A 
ATOM     42  C   UNL     1       8.449   4.876 -10.174  1.00  0.00     0.016 A 
ATOM     43  C   UNL     1       9.903   3.806  -8.549  1.00  0.00     0.016 A 
ATOM     44  C   UNL     1       9.101   6.090  -9.973  1.00  0.00     0.010 A 
ATOM     45  C   UNL     1      10.562   5.025  -8.355  1.00  0.00     0.010 A 
ATOM     46  C   UNL     1      10.186   6.163  -9.091  1.00  0.00    -0.014 A 
BRANCH  46  47
ATOM     47  C   UNL     1      11.003   7.399  -9.042  1.00  0.00     0.031 A 
ATOM     48  C   UNL     1      12.297   7.455  -9.807  1.00  0.00     0.074 A 
ATOM     49  C   UNL     1      10.584   8.471  -8.346  1.00  0.00     0.049 A 
ATOM     50  N   UNL     1      13.164   8.432  -9.898  1.00  0.00    -0.248 NA
ATOM     51  C   UNL     1      12.663   6.251 -10.569  1.00  0.00     0.031 C 
ATOM     52  C   UNL     1       9.335   8.555  -7.590  1.00  0.00     0.029 A 
ATOM     53  N   UNL     1      11.173   9.697  -8.163  1.00  0.00    -0.354 N 
ATOM     54  C   UNL     1      14.181   7.957 -10.716  1.00  0.00     0.074 A 
ATOM     55  C   UNL     1      13.837   6.599 -11.077  1.00  0.00     0.031 C 
ATOM     56  C   UNL     1       9.256   9.767  -7.015  1.00  0.00     0.029 A 
ATOM     57  C   UNL     1      10.458  10.532  -7.340  1.00  0.00     0.049 A 
ATOM     58  H   UNL     1      12.026   9.954  -8.582  1.00  0.00     0.167 HD
ATOM     59  C   UNL     1      15.299   8.596 -11.134  1.00  0.00     0.031 A 
ATOM     60  C   UNL     1      10.750  11.765  -6.885  1.00  0.00     0.031 A 
ATOM     61  C   UNL     1      15.646   9.945 -10.774  1.00  0.00     0.049 A 
ATOM     62  C   UNL     1      12.029  12.431  -7.317  1.00  0.00     0.074 A 
ATOM     63  C   UNL     1      16.741  10.690 -11.178  1.00  0.00     0.029 A 
ATOM     64  N   UNL     1      14.910  10.746  -9.916  1.00  0.00    -0.354 N 
ATOM     65  N   UNL     1      12.958  11.990  -8.130  1.00  0.00    -0.248 NA
ATOM     66  C   UNL     1      12.293  13.773  -6.775  1.00  0.00     0.031 C 
ATOM     67  C   UNL     1      16.697  11.923 -10.518  1.00  0.00     0.029 A 
ATOM     68  C   UNL     1      15.545  11.966  -9.750  1.00  0.00     0.049 A 
ATOM     69  H   UNL     1      14.062  10.487  -9.488  1.00  0.00     0.167 HD
ATOM     70  C   UNL     1      13.902  13.006  -8.216  1.00  0.00     0.074 A 
ATOM     71  C   UNL     1      13.425  14.093  -7.386  1.00  0.00     0.031 C 
ATOM     72  C   UNL     1      15.060  13.037  -8.919  1.00  0.00     0.031 A 
BRANCH  59  73
ATOM     73  C   UNL     1      16.254   7.828 -12.004  1.00  0.00    -0.014 A 
ATOM     74  C   UNL     1      15.952   7.542 -13.344  1.00  0.00     0.009 A 
ATOM     75  C   UNL     1      17.494   7.426 -11.484  1.00  0.00     0.009 A 
ATOM     76  C   UNL     1      16.864   6.843 -14.139  1.00  0.00     0.001 A 
ATOM     77  C   UNL     1      18.414   6.750 -12.287  1.00  0.00     0.001 A 
ATOM     78  C   UNL     1      18.095   6.453 -13.611  1.00  0.00     0.000 A 
ENDBRANCH  59  73
BRANCH  60  79
ATOM     79  C   UNL     1       9.827  12.448  -5.941  1.00  0.00    -0.014 A 
ATOM     80  C   UNL     1       9.096  13.577  -6.340  1.00  0.00     0.009 A 
ATOM     81  C   UNL     1       9.694  11.984  -4.623  1.00  0.00     0.009 A 
ATOM     82  C   UNL     1       8.271  14.243  -5.429  1.00  0.00     0.001 A 
ATOM     83  C   UNL     1       8.847  12.634  -3.724  1.00  0.00     0.001 A 
ATOM     84  C   UNL     1       8.144  13.769  -4.124  1.00  0.00     0.000 A 
ENDBRANCH  60  79
BRANCH  72  85
ATOM     85  C   UNL     1      15.877  14.296  -8.846  1.00  0.00    -0.014 A 
ATOM     86  C   UNL     1      16.594  14.634  -7.688  1.00  0.00     0.009 A 
ATOM     87  C   UNL     1      15.962  15.136  -9.968  1.00  0.00     0.009 A 
ATOM     88  C   UNL     1      17.352  15.806  -7.644  1.00  0.00     0.001 A 
ATOM     89  C   UNL     1      16.744  16.291  -9.931  1.00  0.00     0.001 A 
ATOM     90  C   UNL     1      17.430  16.631  -8.767  1.00  0.00     0.000 A 
ENDBRANCH  72  85
ENDBRANCH  46  47
ENDBRANCH  39  41
ENDBRANCH  38  39
ENDBRANCH  37  38
ENDBRANCH  36  37
ENDBRANCH  35  36
ENDBRANCH  34  35
ENDBRANCH   1  34
TORSDOF 21
