REMARK SMILES O=C(OCCOCCOC(=O)c1ccccc1C(=O)N1CCS[C@H]1c1ccccc1)c1ccc(-c2c3nc(c(-c4ccccc4)c4ccc([nH]4)c(-c4ccccc4)c4nc(c(-c5ccccc5)c5ccc2[nH]5)C=C4)C=C3)cc1
REMARK SMILES IDX 7 1 6 2 5 3 4 4 3 5 2 6 1 7 31 8 32 9 78 10 33 11 77 12
REMARK SMILES IDX 34 13 35 14 36 15 71 16 37 17 76 18 70 19 72 20 38 21 75 22
REMARK SMILES IDX 69 23 68 24 39 26 61 27 46 28 60 29 47 30 50 31 59 32 73 33
REMARK SMILES IDX 48 34 49 35 58 37 74 38 51 39 40 40 41 41 45 42 42 43 44 44
REMARK SMILES IDX 43 45 62 46 63 47 67 48 64 49 66 50 65 51 52 52 53 53 57 54
REMARK SMILES IDX 54 55 56 56 55 57 8 58 9 59 10 60 11 61 12 62 13 63 17 64
REMARK SMILES IDX 14 65 16 66 15 67 18 68 19 69 20 70 21 71 24 72 22 73 23 74
REMARK SMILES IDX 25 75 26 76 30 77 27 78 29 79 28 80
REMARK H PARENT 72 25 50 36
REMARK Flexibility Score: inf
ROOT
ATOM      1  C   UNL     1       2.774   0.947   0.885  1.00  0.00     0.202 C 
ENDROOT
BRANCH   1   2
ATOM      2  O   UNL     1       4.150   0.767   0.575  1.00  0.00    -0.374 OA
BRANCH   2   3
ATOM      3  C   UNL     1       4.711   1.696  -0.335  1.00  0.00     0.202 C 
BRANCH   3   4
ATOM      4  C   UNL     1       4.318   1.465  -1.797  1.00  0.00     0.261 C 
BRANCH   4   5
ATOM      5  O   UNL     1       2.894   1.302  -1.958  1.00  0.00    -0.460 OA
BRANCH   5   6
ATOM      6  C   UNL     1       2.233   0.150  -2.240  1.00  0.00     0.338 C 
ATOM      7  O   UNL     1       1.023   0.175  -2.451  1.00  0.00    -0.246 OA
BRANCH   6   8
ATOM      8  C   UNL     1       2.926  -1.165  -2.300  1.00  0.00     0.060 A 
ATOM      9  C   UNL     1       3.893  -1.570  -1.379  1.00  0.00     0.016 A 
ATOM     10  C   UNL     1       2.513  -2.076  -3.280  1.00  0.00     0.016 A 
ATOM     11  C   UNL     1       4.537  -2.788  -1.494  1.00  0.00     0.010 A 
ATOM     12  C   UNL     1       3.122  -3.330  -3.376  1.00  0.00     0.010 A 
ATOM     13  C   UNL     1       4.163  -3.670  -2.501  1.00  0.00    -0.014 A 
BRANCH  13  14
ATOM     14  C   UNL     1       5.002  -4.860  -2.710  1.00  0.00     0.031 A 
ATOM     15  C   UNL     1       5.940  -4.850  -3.877  1.00  0.00     0.074 A 
ATOM     16  C   UNL     1       5.024  -5.842  -1.792  1.00  0.00     0.049 A 
ATOM     17  N   UNL     1       6.683  -5.811  -4.350  1.00  0.00    -0.248 NA
ATOM     18  C   UNL     1       6.066  -3.574  -4.607  1.00  0.00     0.031 C 
ATOM     19  C   UNL     1       4.273  -5.844  -0.533  1.00  0.00     0.029 A 
ATOM     20  N   UNL     1       5.732  -7.013  -1.759  1.00  0.00    -0.354 N 
ATOM     21  C   UNL     1       7.314  -5.276  -5.465  1.00  0.00     0.074 A 
ATOM     22  C   UNL     1       6.893  -3.900  -5.587  1.00  0.00     0.031 C 
ATOM     23  C   UNL     1       4.580  -6.954   0.159  1.00  0.00     0.029 A 
ATOM     24  C   UNL     1       5.470  -7.779  -0.648  1.00  0.00     0.049 A 
ATOM     25  H   UNL     1       6.367  -7.280  -2.462  1.00  0.00     0.167 HD
ATOM     26  C   UNL     1       8.150  -5.902  -6.323  1.00  0.00     0.031 A 
ATOM     27  C   UNL     1       5.865  -9.032  -0.359  1.00  0.00     0.031 A 
ATOM     28  C   UNL     1       8.548  -7.271  -6.160  1.00  0.00     0.049 A 
ATOM     29  C   UNL     1       6.712  -9.743  -1.382  1.00  0.00     0.074 A 
ATOM     30  C   UNL     1       9.318  -8.058  -6.992  1.00  0.00     0.029 A 
ATOM     31  N   UNL     1       8.199  -8.052  -5.065  1.00  0.00    -0.354 N 
ATOM     32  N   UNL     1       7.221  -9.277  -2.500  1.00  0.00    -0.248 NA
ATOM     33  C   UNL     1       7.008 -11.157  -1.127  1.00  0.00     0.031 C 
ATOM     34  C   UNL     1       9.397  -9.334  -6.420  1.00  0.00     0.029 A 
ATOM     35  C   UNL     1       8.719  -9.322  -5.209  1.00  0.00     0.049 A 
ATOM     36  H   UNL     1       7.662  -7.744  -4.300  1.00  0.00     0.167 HD
ATOM     37  C   UNL     1       7.897 -10.339  -3.082  1.00  0.00     0.074 A 
ATOM     38  C   UNL     1       7.761 -11.463  -2.174  1.00  0.00     0.031 C 
ATOM     39  C   UNL     1       8.555 -10.398  -4.266  1.00  0.00     0.031 A 
BRANCH  26  40
ATOM     40  C   UNL     1       8.572  -5.139  -7.543  1.00  0.00    -0.014 A 
ATOM     41  C   UNL     1       9.522  -4.107  -7.485  1.00  0.00     0.009 A 
ATOM     42  C   UNL     1       7.969  -5.438  -8.775  1.00  0.00     0.009 A 
ATOM     43  C   UNL     1       9.833  -3.370  -8.632  1.00  0.00     0.001 A 
ATOM     44  C   UNL     1       8.297  -4.715  -9.922  1.00  0.00     0.001 A 
ATOM     45  C   UNL     1       9.222  -3.676  -9.848  1.00  0.00     0.000 A 
ENDBRANCH  26  40
BRANCH  27  46
ATOM     46  C   UNL     1       5.379  -9.727   0.865  1.00  0.00    -0.014 A 
ATOM     47  C   UNL     1       6.271 -10.169   1.854  1.00  0.00     0.009 A 
ATOM     48  C   UNL     1       4.009  -9.991   1.033  1.00  0.00     0.009 A 
ATOM     49  C   UNL     1       5.805 -10.883   2.964  1.00  0.00     0.001 A 
ATOM     50  C   UNL     1       3.541 -10.672   2.159  1.00  0.00     0.001 A 
ATOM     51  C   UNL     1       4.441 -11.130   3.118  1.00  0.00     0.000 A 
ENDBRANCH  27  46
BRANCH  39  52
ATOM     52  C   UNL     1       9.187 -11.710  -4.616  1.00  0.00    -0.014 A 
ATOM     53  C   UNL     1       8.407 -12.789  -5.059  1.00  0.00     0.009 A 
ATOM     54  C   UNL     1      10.581 -11.845  -4.555  1.00  0.00     0.009 A 
ATOM     55  C   UNL     1       9.015 -13.993  -5.411  1.00  0.00     0.001 A 
ATOM     56  C   UNL     1      11.187 -13.041  -4.934  1.00  0.00     0.001 A 
ATOM     57  C   UNL     1      10.404 -14.115  -5.355  1.00  0.00     0.000 A 
ENDBRANCH  39  52
ENDBRANCH  13  14
ENDBRANCH   6   8
ENDBRANCH   5   6
ENDBRANCH   4   5
ENDBRANCH   3   4
ENDBRANCH   2   3
ENDBRANCH   1   2
BRANCH   1  58
ATOM     58  C   UNL     1       2.518   0.403   2.270  1.00  0.00     0.261 C 
BRANCH  58  59
ATOM     59  O   UNL     1       3.131   1.243   3.244  1.00  0.00    -0.460 OA
BRANCH  59  60
ATOM     60  C   UNL     1       4.416   0.939   3.531  1.00  0.00     0.339 C 
ATOM     61  O   UNL     1       5.178   0.198   2.943  1.00  0.00    -0.246 OA
BRANCH  60  62
ATOM     62  C   UNL     1       4.821   1.801   4.634  1.00  0.00     0.072 A 
ATOM     63  C   UNL     1       5.962   2.590   4.376  1.00  0.00     0.016 A 
ATOM     64  C   UNL     1       4.104   1.919   5.829  1.00  0.00     0.054 A 
ATOM     65  C   UNL     1       6.369   3.557   5.286  1.00  0.00     0.001 A 
ATOM     66  C   UNL     1       4.539   2.912   6.731  1.00  0.00     0.015 A 
ATOM     67  C   UNL     1       5.647   3.728   6.460  1.00  0.00     0.001 A 
BRANCH  64  68
ATOM     68  C   UNL     1       2.871   1.155   6.240  1.00  0.00     0.255 C 
ATOM     69  O   UNL     1       2.221   1.591   7.193  1.00  0.00    -0.269 OA
BRANCH  68  70
ATOM     70  N   UNL     1       2.411   0.025   5.547  1.00  0.00    -0.322 N 
ATOM     71  C   UNL     1       0.962   0.018   5.344  1.00  0.00     0.132 C 
ATOM     72  C   UNL     1       2.874  -1.303   5.958  1.00  0.00     0.174 C 
ATOM     73  C   UNL     1       0.522  -1.268   4.676  1.00  0.00     0.093 C 
ATOM     74  S   UNL     1       1.654  -2.515   5.314  1.00  0.00    -0.130 SA
BRANCH  72  75
ATOM     75  C   UNL     1       4.316  -1.629   5.618  1.00  0.00    -0.015 A 
ATOM     76  C   UNL     1       4.717  -2.327   4.464  1.00  0.00     0.007 A 
ATOM     77  C   UNL     1       5.323  -1.185   6.495  1.00  0.00     0.007 A 
ATOM     78  C   UNL     1       6.072  -2.551   4.191  1.00  0.00     0.000 A 
ATOM     79  C   UNL     1       6.674  -1.392   6.212  1.00  0.00     0.000 A 
ATOM     80  C   UNL     1       7.049  -2.072   5.059  1.00  0.00     0.000 A 
ENDBRANCH  72  75
ENDBRANCH  68  70
ENDBRANCH  64  68
ENDBRANCH  60  62
ENDBRANCH  59  60
ENDBRANCH  58  59
ENDBRANCH   1  58
TORSDOF 17
