REMARK SMILES O=C(CNC(=O)N1CC(OCCOCCOC(=O)c2ccc(-c3c4nc(c(-c5ccccc5)c5ccc([nH]5)c(-c5ccccc5)c5nc(c(-c6ccccc6)c6ccc3[nH]6)C=C5)C=C4)cc2)=Nc2ccccc21)N[C@H](C(=O)[O-])c1ccccc1
REMARK SMILES IDX 12 1 11 2 10 3 9 4 7 5 8 6 73 7 68 8 72 9 67 10 69 11 71 12
REMARK SMILES IDX 70 13 5 14 4 15 6 17 3 18 2 19 1 20 74 21 75 23 79 24 80 25
REMARK SMILES IDX 84 26 81 27 83 28 82 29 76 30 77 31 78 32 13 33 14 34 15 35
REMARK SMILES IDX 16 36 17 37 18 38 19 39 20 40 66 41 21 42 65 43 22 44 23 45
REMARK SMILES IDX 24 46 59 47 25 48 64 49 58 50 60 51 26 52 63 53 57 54 56 55
REMARK SMILES IDX 27 57 49 58 34 59 48 60 35 61 38 62 47 63 61 64 36 65 37 66
REMARK SMILES IDX 46 68 62 69 39 70 28 71 29 72 33 73 30 74 32 75 31 76 50 77
REMARK SMILES IDX 51 78 55 79 52 80 54 81 53 82 40 83 41 84 45 85 42 86 44 87
REMARK SMILES IDX 43 88
REMARK H PARENT 4 16 74 22 60 56 38 67
REMARK Flexibility Score: inf
ROOT
ATOM      1  C   UNL     1       5.267   5.511   0.398  1.00  0.00     0.202 C 
ENDROOT
BRANCH   1   2
ATOM      2  C   UNL     1       5.587   6.851  -0.283  1.00  0.00     0.259 C 
BRANCH   2   3
ATOM      3  O   UNL     1       4.688   7.120  -1.388  1.00  0.00    -0.477 OA
BRANCH   3   4
ATOM      4  C   UNL     1       5.070   6.687  -2.614  1.00  0.00     0.209 C 
ATOM      5  N   UNL     1       4.133   5.531  -4.588  1.00  0.00    -0.283 N 
ATOM      6  C   UNL     1       3.922   6.585  -3.592  1.00  0.00     0.224 C 
ATOM      7  C   UNL     1       5.495   5.270  -4.950  1.00  0.00     0.072 A 
ATOM      8  C   UNL     1       6.527   5.706  -4.090  1.00  0.00     0.091 A 
ATOM      9  C   UNL     1       5.851   4.615  -6.136  1.00  0.00     0.029 A 
ATOM     10  N   UNL     1       6.291   6.354  -2.870  1.00  0.00    -0.214 NA
ATOM     11  C   UNL     1       7.859   5.391  -4.376  1.00  0.00     0.030 A 
ATOM     12  C   UNL     1       7.186   4.301  -6.408  1.00  0.00     0.002 A 
ATOM     13  C   UNL     1       8.190   4.675  -5.521  1.00  0.00     0.002 A 
BRANCH   5  14
ATOM     14  C   UNL     1       3.003   5.068  -5.225  1.00  0.00     0.322 C 
ATOM     15  N   UNL     1       2.931   3.780  -5.642  1.00  0.00    -0.329 N 
ATOM     16  H   UNL     1       2.312   3.607  -6.387  1.00  0.00     0.165 HD
ATOM     17  O   UNL     1       2.004   5.777  -5.369  1.00  0.00    -0.248 OA
BRANCH  15  18
ATOM     18  C   UNL     1       3.647   2.617  -5.134  1.00  0.00     0.218 C 
BRANCH  18  19
ATOM     19  C   UNL     1       2.649   1.488  -4.855  1.00  0.00     0.240 C 
ATOM     20  O   UNL     1       1.754   1.210  -5.649  1.00  0.00    -0.273 OA
ATOM     21  N   UNL     1       2.879   0.843  -3.674  1.00  0.00    -0.342 N 
ATOM     22  H   UNL     1       3.649   1.149  -3.143  1.00  0.00     0.164 HD
BRANCH  21  23
ATOM     23  C   UNL     1       2.084  -0.268  -3.118  1.00  0.00     0.158 C 
BRANCH  23  24
ATOM     24  C   UNL     1       2.548  -1.608  -3.681  1.00  0.00    -0.020 A 
ATOM     25  C   UNL     1       1.725  -2.736  -3.554  1.00  0.00     0.006 A 
ATOM     26  C   UNL     1       3.790  -1.761  -4.324  1.00  0.00     0.006 A 
ATOM     27  C   UNL     1       2.120  -3.969  -4.081  1.00  0.00     0.000 A 
ATOM     28  C   UNL     1       4.178  -2.987  -4.861  1.00  0.00     0.000 A 
ATOM     29  C   UNL     1       3.340  -4.091  -4.744  1.00  0.00     0.000 A 
ENDBRANCH  23  24
BRANCH  23  30
ATOM     30  C   UNL     1       2.196  -0.264  -1.547  1.00  0.00     0.068 C 
ATOM     31  O   UNL     1       3.366  -0.458  -1.096  1.00  0.00    -0.548 OA
ATOM     32  O   UNL     1       1.152   0.088  -0.921  1.00  0.00    -0.548 OA
ENDBRANCH  23  30
ENDBRANCH  21  23
ENDBRANCH  18  19
ENDBRANCH  15  18
ENDBRANCH   5  14
ENDBRANCH   3   4
ENDBRANCH   2   3
ENDBRANCH   1   2
BRANCH   1  33
ATOM     33  O   UNL     1       5.964   4.386  -0.148  1.00  0.00    -0.374 OA
BRANCH  33  34
ATOM     34  C   UNL     1       5.335   3.742  -1.253  1.00  0.00     0.202 C 
BRANCH  34  35
ATOM     35  C   UNL     1       4.256   2.707  -0.950  1.00  0.00     0.261 C 
BRANCH  35  36
ATOM     36  O   UNL     1       3.401   3.085   0.115  1.00  0.00    -0.460 OA
BRANCH  36  37
ATOM     37  C   UNL     1       3.820   2.626   1.315  1.00  0.00     0.338 C 
ATOM     38  O   UNL     1       4.837   2.012   1.582  1.00  0.00    -0.246 OA
BRANCH  37  39
ATOM     39  C   UNL     1       2.952   3.227   2.337  1.00  0.00     0.060 A 
ATOM     40  C   UNL     1       3.576   3.664   3.508  1.00  0.00     0.016 A 
ATOM     41  C   UNL     1       1.574   3.384   2.149  1.00  0.00     0.016 A 
ATOM     42  C   UNL     1       2.816   4.231   4.518  1.00  0.00     0.010 A 
ATOM     43  C   UNL     1       0.812   3.968   3.158  1.00  0.00     0.010 A 
ATOM     44  C   UNL     1       1.430   4.365   4.355  1.00  0.00    -0.014 A 
BRANCH  44  45
ATOM     45  C   UNL     1       0.629   4.806   5.511  1.00  0.00     0.031 A 
ATOM     46  C   UNL     1      -0.062   3.771   6.347  1.00  0.00     0.074 A 
ATOM     47  C   UNL     1       0.598   6.106   5.847  1.00  0.00     0.049 A 
ATOM     48  N   UNL     1      -0.729   3.925   7.462  1.00  0.00    -0.248 NA
ATOM     49  C   UNL     1       0.015   2.380   5.873  1.00  0.00     0.031 C 
ATOM     50  C   UNL     1       1.261   7.186   5.115  1.00  0.00     0.029 A 
ATOM     51  N   UNL     1      -0.005   6.734   6.904  1.00  0.00    -0.354 N 
ATOM     52  C   UNL     1      -1.145   2.651   7.823  1.00  0.00     0.074 A 
ATOM     53  C   UNL     1      -0.688   1.742   6.796  1.00  0.00     0.031 C 
ATOM     54  C   UNL     1       1.040   8.345   5.756  1.00  0.00     0.029 A 
ATOM     55  C   UNL     1       0.205   8.090   6.927  1.00  0.00     0.049 A 
ATOM     56  H   UNL     1      -0.537   6.259   7.582  1.00  0.00     0.167 HD
ATOM     57  C   UNL     1      -1.839   2.273   8.921  1.00  0.00     0.031 A 
ATOM     58  C   UNL     1      -0.232   9.017   7.798  1.00  0.00     0.031 A 
ATOM     59  C   UNL     1      -2.308   3.185   9.928  1.00  0.00     0.049 A 
ATOM     60  C   UNL     1      -1.057   8.578   8.975  1.00  0.00     0.074 A 
ATOM     61  C   UNL     1      -3.014   2.907  11.084  1.00  0.00     0.029 A 
ATOM     62  N   UNL     1      -2.123   4.559   9.887  1.00  0.00    -0.354 N 
ATOM     63  N   UNL     1      -1.412   7.367   9.331  1.00  0.00    -0.248 NA
ATOM     64  C   UNL     1      -1.534   9.635   9.878  1.00  0.00     0.031 C 
ATOM     65  C   UNL     1      -3.295   4.120  11.722  1.00  0.00     0.029 A 
ATOM     66  C   UNL     1      -2.724   5.147  10.986  1.00  0.00     0.049 A 
ATOM     67  H   UNL     1      -1.636   5.043   9.181  1.00  0.00     0.167 HD
ATOM     68  C   UNL     1      -2.137   7.512  10.505  1.00  0.00     0.074 A 
ATOM     69  C   UNL     1      -2.158   8.928  10.811  1.00  0.00     0.031 C 
ATOM     70  C   UNL     1      -2.732   6.559  11.264  1.00  0.00     0.031 A 
BRANCH  57  71
ATOM     71  C   UNL     1      -2.151   0.813   9.063  1.00  0.00    -0.014 A 
ATOM     72  C   UNL     1      -1.153  -0.112   9.409  1.00  0.00     0.009 A 
ATOM     73  C   UNL     1      -3.461   0.357   8.852  1.00  0.00     0.009 A 
ATOM     74  C   UNL     1      -1.456  -1.472   9.510  1.00  0.00     0.001 A 
ATOM     75  C   UNL     1      -3.765  -1.000   8.976  1.00  0.00     0.001 A 
ATOM     76  C   UNL     1      -2.762  -1.913   9.297  1.00  0.00     0.000 A 
ENDBRANCH  57  71
BRANCH  58  77
ATOM     77  C   UNL     1       0.097  10.448   7.586  1.00  0.00    -0.014 A 
ATOM     78  C   UNL     1       1.006  11.108   8.425  1.00  0.00     0.009 A 
ATOM     79  C   UNL     1      -0.505  11.164   6.539  1.00  0.00     0.009 A 
ATOM     80  C   UNL     1       1.290  12.463   8.233  1.00  0.00     0.001 A 
ATOM     81  C   UNL     1      -0.201  12.511   6.334  1.00  0.00     0.001 A 
ATOM     82  C   UNL     1       0.689  13.161   7.186  1.00  0.00     0.000 A 
ENDBRANCH  58  77
BRANCH  70  83
ATOM     83  C   UNL     1      -3.433   7.020  12.508  1.00  0.00    -0.014 A 
ATOM     84  C   UNL     1      -4.679   7.662  12.440  1.00  0.00     0.009 A 
ATOM     85  C   UNL     1      -2.860   6.766  13.763  1.00  0.00     0.009 A 
ATOM     86  C   UNL     1      -5.325   8.066  13.609  1.00  0.00     0.001 A 
ATOM     87  C   UNL     1      -3.520   7.151  14.930  1.00  0.00     0.001 A 
ATOM     88  C   UNL     1      -4.748   7.807  14.852  1.00  0.00     0.000 A 
ENDBRANCH  70  83
ENDBRANCH  44  45
ENDBRANCH  37  39
ENDBRANCH  36  37
ENDBRANCH  35  36
ENDBRANCH  34  35
ENDBRANCH  33  34
ENDBRANCH   1  33
TORSDOF 19
