REMARK SMILES CC[C@H]([NH2+][C@@H](C)c1c(C)noc1C)C(=O)OCCOCCOC(=O)c1ccc(-c2c3nc(c(-c4ccccc4)c4ccc([nH]4)c(-c4ccccc4)c4nc(c(-c5ccccc5)c5ccc2[nH]5)C=C4)C=C3)cc1
REMARK SMILES IDX 18 1 17 2 16 3 14 4 15 5 3 6 2 7 1 8 4 9 5 12 6 13 7 14 8 15
REMARK SMILES IDX 12 16 9 17 10 18 11 19 13 20 19 21 20 22 21 23 22 24 23 25
REMARK SMILES IDX 24 26 25 27 26 28 72 29 27 30 71 31 28 32 29 33 30 34 65 35
REMARK SMILES IDX 31 36 70 37 64 38 66 39 32 40 69 41 63 42 62 43 33 45 55 46
REMARK SMILES IDX 40 47 54 48 41 49 44 50 53 51 67 52 42 53 43 54 52 56 68 57
REMARK SMILES IDX 45 58 34 59 35 60 39 61 36 62 38 63 37 64 56 65 57 66 61 67
REMARK SMILES IDX 58 68 60 69 59 70 46 71 47 72 51 73 48 74 50 75 49 76
REMARK H PARENT 4 10 4 11 66 44 44 55
REMARK Flexibility Score: inf
ROOT
ATOM      1  C   UNL     1      -0.737   3.233  -6.001  1.00  0.00     0.202 C 
ENDROOT
BRANCH   1   2
ATOM      2  C   UNL     1      -1.581   1.851  -5.344  1.00  0.00     0.261 C 
BRANCH   2   3
ATOM      3  O   UNL     1      -1.360   1.227  -3.981  1.00  0.00    -0.459 OA
BRANCH   3   4
ATOM      4  C   UNL     1      -0.720   0.021  -3.830  1.00  0.00     0.364 C 
ATOM      5  O   UNL     1      -0.526  -0.721  -4.796  1.00  0.00    -0.245 OA
BRANCH   4   6
ATOM      6  C   UNL     1      -0.021  -0.326  -2.442  1.00  0.00     0.293 C 
BRANCH   6   7
ATOM      7  C   UNL     1      -0.365  -1.770  -2.025  1.00  0.00     0.074 C 
ATOM      8  C   UNL     1      -1.834  -2.091  -2.229  1.00  0.00     0.011 C 
ENDBRANCH   6   7
BRANCH   6   9
ATOM      9  N   UNL     1      -0.036   0.517  -1.221  1.00  0.00    -0.328 N 
ATOM     10  H   UNL     1       0.944   0.682  -0.993  1.00  0.00     0.347 HD
ATOM     11  H   UNL     1      -0.641  -0.042  -0.619  1.00  0.00     0.347 HD
BRANCH   9  12
ATOM     12  C   UNL     1      -0.677   1.802  -1.112  1.00  0.00     0.216 C 
ATOM     13  C   UNL     1      -1.100   2.025   0.338  1.00  0.00     0.081 C 
BRANCH  12  14
ATOM     14  C   UNL     1       0.192   2.922  -1.691  1.00  0.00     0.074 A 
ATOM     15  C   UNL     1       0.044   3.029  -3.512  1.00  0.00     0.090 A 
ATOM     16  C   UNL     1       0.467   4.452  -1.073  1.00  0.00     0.143 A 
ATOM     17  C   UNL     1       1.134   1.965  -4.228  1.00  0.00     0.071 C 
ATOM     18  N   UNL     1      -0.247   4.688  -4.060  1.00  0.00    -0.085 NA
ATOM     19  O   UNL     1       0.215   5.721  -2.401  1.00  0.00    -0.361 OA
ATOM     20  C   UNL     1       0.365   4.999   0.297  1.00  0.00     0.091 C 
ENDBRANCH  12  14
ENDBRANCH   9  12
ENDBRANCH   6   9
ENDBRANCH   4   6
ENDBRANCH   3   4
ENDBRANCH   2   3
ENDBRANCH   1   2
BRANCH   1  21
ATOM     21  O   UNL     1       0.762   3.533  -5.976  1.00  0.00    -0.374 OA
BRANCH  21  22
ATOM     22  C   UNL     1       1.585   4.473  -4.945  1.00  0.00     0.202 C 
BRANCH  22  23
ATOM     23  C   UNL     1       1.287   4.452  -3.056  1.00  0.00     0.261 C 
BRANCH  23  24
ATOM     24  O   UNL     1      -0.775   4.377  -2.475  1.00  0.00    -0.460 OA
BRANCH  24  25
ATOM     25  C   UNL     1      -1.941   5.222  -2.545  1.00  0.00     0.338 C 
ATOM     26  O   UNL     1      -1.971   6.452  -2.617  1.00  0.00    -0.246 OA
BRANCH  25  27
ATOM     27  C   UNL     1      -3.228   4.540  -2.728  1.00  0.00     0.060 A 
ATOM     28  C   UNL     1      -3.864   4.676  -3.976  1.00  0.00     0.016 A 
ATOM     29  C   UNL     1      -3.968   4.196  -1.601  1.00  0.00     0.016 A 
ATOM     30  C   UNL     1      -5.242   4.484  -4.090  1.00  0.00     0.010 A 
ATOM     31  C   UNL     1      -5.348   3.996  -1.717  1.00  0.00     0.010 A 
ATOM     32  C   UNL     1      -5.999   4.178  -2.951  1.00  0.00    -0.014 A 
BRANCH  32  33
ATOM     33  C   UNL     1      -7.482   4.166  -3.030  1.00  0.00     0.031 A 
ATOM     34  C   UNL     1      -8.273   5.331  -2.497  1.00  0.00     0.074 A 
ATOM     35  C   UNL     1      -8.113   3.127  -3.603  1.00  0.00     0.049 A 
ATOM     36  N   UNL     1      -9.571   5.499  -2.448  1.00  0.00    -0.248 NA
ATOM     37  C   UNL     1      -7.502   6.457  -1.946  1.00  0.00     0.031 C 
ATOM     38  C   UNL     1      -7.451   1.970  -4.205  1.00  0.00     0.029 A 
ATOM     39  N   UNL     1      -9.451   2.877  -3.776  1.00  0.00    -0.354 N 
ATOM     40  C   UNL     1      -9.773   6.739  -1.852  1.00  0.00     0.074 A 
ATOM     41  C   UNL     1      -8.464   7.268  -1.531  1.00  0.00     0.031 C 
ATOM     42  C   UNL     1      -8.386   1.137  -4.690  1.00  0.00     0.029 A 
ATOM     43  C   UNL     1      -9.709   1.676  -4.389  1.00  0.00     0.049 A 
ATOM     44  H   UNL     1     -10.158   3.499  -3.488  1.00  0.00     0.167 HD
ATOM     45  C   UNL     1     -10.941   7.378  -1.597  1.00  0.00     0.031 A 
ATOM     46  C   UNL     1     -10.881   1.068  -4.657  1.00  0.00     0.031 A 
ATOM     47  C   UNL     1     -12.240   6.835  -1.906  1.00  0.00     0.049 A 
ATOM     48  C   UNL     1     -12.164   1.758  -4.279  1.00  0.00     0.074 A 
ATOM     49  C   UNL     1     -13.485   7.406  -1.703  1.00  0.00     0.029 A 
ATOM     50  N   UNL     1     -12.461   5.589  -2.473  1.00  0.00    -0.354 N 
ATOM     51  N   UNL     1     -12.341   2.939  -3.736  1.00  0.00    -0.248 NA
ATOM     52  C   UNL     1     -13.411   1.033  -4.560  1.00  0.00     0.031 C 
ATOM     53  C   UNL     1     -14.459   6.473  -2.072  1.00  0.00     0.029 A 
ATOM     54  C   UNL     1     -13.821   5.355  -2.588  1.00  0.00     0.049 A 
ATOM     55  H   UNL     1     -11.754   4.962  -2.753  1.00  0.00     0.167 HD
ATOM     56  C   UNL     1     -13.716   3.112  -3.643  1.00  0.00     0.074 A 
ATOM     57  C   UNL     1     -14.325   1.923  -4.201  1.00  0.00     0.031 C 
ATOM     58  C   UNL     1     -14.413   4.163  -3.143  1.00  0.00     0.031 A 
BRANCH  45  59
ATOM     59  C   UNL     1     -10.874   8.713  -0.901  1.00  0.00    -0.014 A 
ATOM     60  C   UNL     1     -10.352   9.853  -1.534  1.00  0.00     0.009 A 
ATOM     61  C   UNL     1     -11.382   8.841   0.403  1.00  0.00     0.009 A 
ATOM     62  C   UNL     1     -10.302  11.078  -0.863  1.00  0.00     0.001 A 
ATOM     63  C   UNL     1     -11.362  10.073   1.059  1.00  0.00     0.001 A 
ATOM     64  C   UNL     1     -10.812  11.188   0.431  1.00  0.00     0.000 A 
ENDBRANCH  45  59
BRANCH  46  65
ATOM     65  C   UNL     1     -10.897  -0.275  -5.296  1.00  0.00    -0.014 A 
ATOM     66  C   UNL     1     -11.425  -0.453  -6.584  1.00  0.00     0.009 A 
ATOM     67  C   UNL     1     -10.396  -1.395  -4.611  1.00  0.00     0.009 A 
ATOM     68  C   UNL     1     -11.478  -1.726  -7.158  1.00  0.00     0.001 A 
ATOM     69  C   UNL     1     -10.416  -2.659  -5.202  1.00  0.00     0.001 A 
ATOM     70  C   UNL     1     -10.969  -2.826  -6.470  1.00  0.00     0.000 A 
ENDBRANCH  46  65
BRANCH  58  71
ATOM     71  C   UNL     1     -15.915   4.093  -3.218  1.00  0.00    -0.014 A 
ATOM     72  C   UNL     1     -16.651   3.189  -2.436  1.00  0.00     0.009 A 
ATOM     73  C   UNL     1     -16.606   4.976  -4.062  1.00  0.00     0.009 A 
ATOM     74  C   UNL     1     -18.043   3.143  -2.531  1.00  0.00     0.001 A 
ATOM     75  C   UNL     1     -18.000   4.956  -4.126  1.00  0.00     0.001 A 
ATOM     76  C   UNL     1     -18.716   4.030  -3.370  1.00  0.00     0.000 A 
ENDBRANCH  58  71
ENDBRANCH  32  33
ENDBRANCH  25  27
ENDBRANCH  24  25
ENDBRANCH  23  24
ENDBRANCH  22  23
ENDBRANCH  21  22
ENDBRANCH   1  21
TORSDOF 18
