REMARK SMILES CCOC(=O)c1cccc(Nc2c(-c3ccc(C(=O)OCCOCCOC(=O)c4ccc(-c5c6nc(c(-c7ccccc7)c7ccc([nH]7)c(-c7ccccc7)c7nc(c(-c8ccccc8)c8ccc5[nH]8)C=C7)C=C6)cc4)cc3)nc3cnccn23)c1
REMARK SMILES IDX 21 1 20 2 18 3 19 4 17 5 14 6 15 7 78 8 16 9 77 10 13 11
REMARK SMILES IDX 12 12 85 13 79 14 80 15 84 16 81 17 83 18 82 19 11 20 10 22
REMARK SMILES IDX 6 23 7 24 86 25 8 26 9 27 4 28 5 29 3 30 2 31 1 32 22 33
REMARK SMILES IDX 23 34 24 35 25 36 26 37 27 38 28 39 29 40 30 41 76 42 31 43
REMARK SMILES IDX 75 44 32 45 33 46 34 47 69 48 35 49 74 50 68 51 70 52 36 53
REMARK SMILES IDX 73 54 67 55 66 56 37 58 59 59 44 60 58 61 45 62 48 63 57 64
REMARK SMILES IDX 71 65 46 66 47 67 56 69 72 70 49 71 38 72 39 73 43 74 40 75
REMARK SMILES IDX 42 76 41 77 60 78 61 79 65 80 62 81 64 82 63 83 50 84 51 85
REMARK SMILES IDX 55 86 52 87 54 88 53 89
REMARK H PARENT 11 21 70 57 48 68
REMARK Flexibility Score: inf
ROOT
ATOM      1  C   UNL     1       4.413  -4.766 -12.763  1.00  0.00     0.261 C 
ENDROOT
BRANCH   1   2
ATOM      2  O   UNL     1       4.043  -5.579 -11.635  1.00  0.00    -0.460 OA
BRANCH   2   3
ATOM      3  C   UNL     1       4.933  -5.571 -10.614  1.00  0.00     0.338 C 
ATOM      4  O   UNL     1       6.043  -5.059 -10.617  1.00  0.00    -0.246 OA
BRANCH   3   5
ATOM      5  C   UNL     1       4.334  -6.162  -9.396  1.00  0.00     0.060 A 
ATOM      6  C   UNL     1       3.432  -7.314  -7.004  1.00  0.00     0.004 A 
ATOM      7  C   UNL     1       4.318  -6.231  -6.971  1.00  0.00     0.011 A 
ATOM      8  C   UNL     1       2.960  -7.783  -8.240  1.00  0.00     0.011 A 
ATOM      9  C   UNL     1       4.772  -5.664  -8.162  1.00  0.00     0.016 A 
ATOM     10  C   UNL     1       3.397  -7.200  -9.436  1.00  0.00     0.016 A 
BRANCH   6  11
ATOM     11  C   UNL     1       3.146  -8.053  -5.790  1.00  0.00     0.114 A 
ATOM     12  C   UNL     1       2.738  -7.531  -4.565  1.00  0.00     0.143 A 
ATOM     13  N   UNL     1       2.735  -8.629  -3.720  1.00  0.00    -0.283 N 
ATOM     14  N   UNL     1       3.421  -9.401  -5.708  1.00  0.00    -0.225 NA
ATOM     15  C   UNL     1       3.203  -9.694  -4.450  1.00  0.00     0.157 A 
ATOM     16  C   UNL     1       2.376  -8.823  -2.394  1.00  0.00     0.115 A 
ATOM     17  C   UNL     1       3.390 -10.956  -3.792  1.00  0.00     0.158 A 
ATOM     18  C   UNL     1       2.559 -10.040  -1.851  1.00  0.00     0.129 A 
ATOM     19  N   UNL     1       3.085 -11.127  -2.532  1.00  0.00    -0.259 NA
BRANCH  12  20
ATOM     20  N   UNL     1       2.355  -6.275  -4.197  1.00  0.00    -0.339 N 
ATOM     21  H   UNL     1       1.598  -5.884  -4.689  1.00  0.00     0.168 HD
BRANCH  20  22
ATOM     22  C   UNL     1       2.933  -5.472  -3.181  1.00  0.00     0.040 A 
ATOM     23  C   UNL     1       2.945  -3.368  -1.948  1.00  0.00     0.062 A 
ATOM     24  C   UNL     1       4.057  -3.786  -1.214  1.00  0.00     0.016 A 
ATOM     25  C   UNL     1       2.369  -4.213  -2.908  1.00  0.00     0.041 A 
ATOM     26  C   UNL     1       4.590  -5.050  -1.436  1.00  0.00     0.003 A 
ATOM     27  C   UNL     1       4.037  -5.880  -2.416  1.00  0.00     0.026 A 
BRANCH  23  28
ATOM     28  C   UNL     1       2.472  -1.983  -1.758  1.00  0.00     0.338 C 
ATOM     29  O   UNL     1       3.233  -1.030  -1.679  1.00  0.00    -0.246 OA
BRANCH  28  30
ATOM     30  O   UNL     1       1.124  -1.957  -1.647  1.00  0.00    -0.462 OA
BRANCH  30  31
ATOM     31  C   UNL     1       0.553  -0.650  -1.467  1.00  0.00     0.230 C 
ATOM     32  C   UNL     1       0.754  -0.129  -0.053  1.00  0.00     0.049 C 
ENDBRANCH  30  31
ENDBRANCH  28  30
ENDBRANCH  23  28
ENDBRANCH  20  22
ENDBRANCH  12  20
ENDBRANCH   6  11
ENDBRANCH   3   5
ENDBRANCH   2   3
ENDBRANCH   1   2
BRANCH   1  33
ATOM     33  C   UNL     1       3.514  -3.532 -12.867  1.00  0.00     0.202 C 
BRANCH  33  34
ATOM     34  O   UNL     1       3.623  -2.600 -11.792  1.00  0.00    -0.374 OA
BRANCH  34  35
ATOM     35  C   UNL     1       2.846  -2.870 -10.623  1.00  0.00     0.202 C 
BRANCH  35  36
ATOM     36  C   UNL     1       1.373  -2.455 -10.702  1.00  0.00     0.261 C 
BRANCH  36  37
ATOM     37  O   UNL     1       0.628  -3.337 -11.563  1.00  0.00    -0.460 OA
BRANCH  37  38
ATOM     38  C   UNL     1       0.215  -2.792 -12.729  1.00  0.00     0.338 C 
ATOM     39  O   UNL     1       0.323  -1.625 -13.085  1.00  0.00    -0.246 OA
BRANCH  38  40
ATOM     40  C   UNL     1      -0.254  -3.856 -13.635  1.00  0.00     0.060 A 
ATOM     41  C   UNL     1       0.257  -3.875 -14.941  1.00  0.00     0.016 A 
ATOM     42  C   UNL     1      -1.220  -4.782 -13.238  1.00  0.00     0.016 A 
ATOM     43  C   UNL     1      -0.232  -4.790 -15.870  1.00  0.00     0.010 A 
ATOM     44  C   UNL     1      -1.718  -5.692 -14.174  1.00  0.00     0.010 A 
ATOM     45  C   UNL     1      -1.252  -5.676 -15.502  1.00  0.00    -0.014 A 
BRANCH  45  46
ATOM     46  C   UNL     1      -1.958  -6.473 -16.532  1.00  0.00     0.031 A 
ATOM     47  C   UNL     1      -3.270  -5.965 -17.059  1.00  0.00     0.074 A 
ATOM     48  C   UNL     1      -1.452  -7.636 -16.978  1.00  0.00     0.049 A 
ATOM     49  N   UNL     1      -4.122  -6.548 -17.863  1.00  0.00    -0.248 NA
ATOM     50  C   UNL     1      -3.678  -4.622 -16.616  1.00  0.00     0.031 C 
ATOM     51  C   UNL     1      -0.165  -8.207 -16.588  1.00  0.00     0.029 A 
ATOM     52  N   UNL     1      -1.981  -8.554 -17.849  1.00  0.00    -0.354 N 
ATOM     53  C   UNL     1      -5.175  -5.652 -18.005  1.00  0.00     0.074 A 
ATOM     54  C   UNL     1      -4.862  -4.495 -17.196  1.00  0.00     0.031 C 
ATOM     55  C   UNL     1      -0.012  -9.392 -17.204  1.00  0.00     0.029 A 
ATOM     56  C   UNL     1      -1.207  -9.678 -17.995  1.00  0.00     0.049 A 
ATOM     57  H   UNL     1      -2.833  -8.420 -18.324  1.00  0.00     0.167 HD
ATOM     58  C   UNL     1      -6.302  -5.784 -18.742  1.00  0.00     0.031 A 
ATOM     59  C   UNL     1      -1.452 -10.822 -18.664  1.00  0.00     0.031 A 
ATOM     60  C   UNL     1      -6.618  -6.938 -19.538  1.00  0.00     0.049 A 
ATOM     61  C   UNL     1      -2.750 -10.979 -19.411  1.00  0.00     0.074 A 
ATOM     62  C   UNL     1      -7.732  -7.164 -20.326  1.00  0.00     0.029 A 
ATOM     63  N   UNL     1      -5.817  -8.064 -19.641  1.00  0.00    -0.354 N 
ATOM     64  N   UNL     1      -3.736 -10.125 -19.544  1.00  0.00    -0.248 NA
ATOM     65  C   UNL     1      -2.968 -12.261 -20.100  1.00  0.00     0.031 C 
ATOM     66  C   UNL     1      -7.628  -8.448 -20.870  1.00  0.00     0.029 A 
ATOM     67  C   UNL     1      -6.423  -8.998 -20.462  1.00  0.00     0.049 A 
ATOM     68  H   UNL     1      -4.946  -8.182 -19.197  1.00  0.00     0.167 HD
ATOM     69  C   UNL     1      -4.674 -10.751 -20.356  1.00  0.00     0.074 A 
ATOM     70  C   UNL     1      -4.139 -12.055 -20.688  1.00  0.00     0.031 C 
ATOM     71  C   UNL     1      -5.869 -10.285 -20.792  1.00  0.00     0.031 A 
BRANCH  58  72
ATOM     72  C   UNL     1      -7.298  -4.662 -18.684  1.00  0.00    -0.014 A 
ATOM     73  C   UNL     1      -7.056  -3.437 -19.326  1.00  0.00     0.009 A 
ATOM     74  C   UNL     1      -8.510  -4.844 -17.999  1.00  0.00     0.009 A 
ATOM     75  C   UNL     1      -7.996  -2.406 -19.254  1.00  0.00     0.001 A 
ATOM     76  C   UNL     1      -9.457  -3.821 -17.951  1.00  0.00     0.001 A 
ATOM     77  C   UNL     1      -9.196  -2.600 -18.571  1.00  0.00     0.000 A 
ENDBRANCH  58  72
BRANCH  59  78
ATOM     78  C   UNL     1      -0.461 -11.928 -18.634  1.00  0.00    -0.014 A 
ATOM     79  C   UNL     1       0.274 -12.262 -19.781  1.00  0.00     0.009 A 
ATOM     80  C   UNL     1      -0.257 -12.668 -17.458  1.00  0.00     0.009 A 
ATOM     81  C   UNL     1       1.177 -13.328 -19.758  1.00  0.00     0.001 A 
ATOM     82  C   UNL     1       0.666 -13.715 -17.430  1.00  0.00     0.001 A 
ATOM     83  C   UNL     1       1.375 -14.050 -18.582  1.00  0.00     0.000 A 
ENDBRANCH  59  78
BRANCH  71  84
ATOM     84  C   UNL     1      -6.661 -11.163 -21.719  1.00  0.00    -0.014 A 
ATOM     85  C   UNL     1      -7.358 -12.284 -21.246  1.00  0.00     0.009 A 
ATOM     86  C   UNL     1      -6.764 -10.817 -23.076  1.00  0.00     0.009 A 
ATOM     87  C   UNL     1      -8.129 -13.053 -22.121  1.00  0.00     0.001 A 
ATOM     88  C   UNL     1      -7.554 -11.573 -23.942  1.00  0.00     0.001 A 
ATOM     89  C   UNL     1      -8.231 -12.694 -23.465  1.00  0.00     0.000 A 
ENDBRANCH  71  84
ENDBRANCH  45  46
ENDBRANCH  38  40
ENDBRANCH  37  38
ENDBRANCH  36  37
ENDBRANCH  35  36
ENDBRANCH  34  35
ENDBRANCH  33  34
ENDBRANCH   1  33
TORSDOF 20
