REMARK SMILES CCOc1ccccc1NC(=O)N[C@@](C)(CC)C(=O)OCCOCCOC(=O)c1ccc(-c2c3nc(c(-c4ccccc4)c4ccc([nH]4)c(-c4ccccc4)c4nc(c(-c5ccccc5)c5ccc2[nH]5)C=C4)C=C3)cc1
REMARK SMILES IDX 22 1 21 2 20 3 18 4 19 5 14 6 15 7 13 8 10 9 11 10 12 12
REMARK SMILES IDX 9 14 4 15 5 16 6 17 8 18 7 19 3 20 2 21 1 22 16 23 17 24
REMARK SMILES IDX 23 25 24 26 25 27 26 28 27 29 28 30 29 31 30 32 76 33 31 34
REMARK SMILES IDX 75 35 32 36 33 37 34 38 69 39 35 40 74 41 68 42 70 43 36 44
REMARK SMILES IDX 73 45 67 46 66 47 37 49 59 50 44 51 58 52 45 53 48 54 57 55
REMARK SMILES IDX 71 56 46 57 47 58 56 60 72 61 49 62 38 63 39 64 43 65 40 66
REMARK SMILES IDX 42 67 41 68 60 69 61 70 65 71 62 72 64 73 63 74 50 75 51 76
REMARK SMILES IDX 55 77 52 78 54 79 53 80
REMARK H PARENT 10 11 13 13 70 48 48 59
REMARK Flexibility Score: inf
ROOT
ATOM      1  C   UNL     1       2.091   4.092  -0.718  1.00  0.00     0.202 C 
ENDROOT
BRANCH   1   2
ATOM      2  C   UNL     1       3.470   3.579  -0.308  1.00  0.00     0.261 C 
BRANCH   2   3
ATOM      3  O   UNL     1       4.465   3.211  -1.266  1.00  0.00    -0.462 OA
BRANCH   3   4
ATOM      4  C   UNL     1       4.416   1.875  -1.530  1.00  0.00     0.331 C 
ATOM      5  O   UNL     1       3.414   1.332  -1.989  1.00  0.00    -0.249 OA
BRANCH   4   6
ATOM      6  C   UNL     1       5.745   1.111  -1.309  1.00  0.00     0.136 C 
ATOM      7  C   UNL     1       6.740   1.637  -0.264  1.00  0.00     0.047 C 
BRANCH   6   8
ATOM      8  N   UNL     1       5.358  -0.282  -0.921  1.00  0.00    -0.322 N 
ATOM      9  N   UNL     1       3.681  -0.140   0.766  1.00  0.00    -0.305 N 
ATOM     10  C   UNL     1       4.525  -0.838  -0.013  1.00  0.00     0.320 C 
ATOM     11  H   UNL     1       2.745  -0.402   0.607  1.00  0.00     0.172 HD
ATOM     12  O   UNL     1       4.356  -2.059  -0.114  1.00  0.00    -0.248 OA
ATOM     13  H   UNL     1       5.826  -0.961  -1.460  1.00  0.00     0.166 HD
BRANCH   9  14
ATOM     14  C   UNL     1       3.773   0.863   1.749  1.00  0.00     0.085 A 
ATOM     15  C   UNL     1       2.564   1.499   2.119  1.00  0.00     0.142 A 
ATOM     16  C   UNL     1       2.552   2.620   2.955  1.00  0.00     0.048 A 
ATOM     17  C   UNL     1       3.758   3.104   3.454  1.00  0.00     0.004 A 
ATOM     18  C   UNL     1       4.947   1.286   2.354  1.00  0.00     0.030 A 
ATOM     19  C   UNL     1       4.948   2.429   3.169  1.00  0.00     0.002 A 
BRANCH  15  20
ATOM     20  O   UNL     1       1.456   1.234   1.353  1.00  0.00    -0.492 OA
BRANCH  20  21
ATOM     21  C   UNL     1       0.401   0.577   2.046  1.00  0.00     0.226 C 
ATOM     22  C   UNL     1      -0.140  -0.471   1.087  1.00  0.00     0.049 C 
ENDBRANCH  20  21
ENDBRANCH  15  20
ENDBRANCH   9  14
ENDBRANCH   6   8
BRANCH   6  23
ATOM     23  C   UNL     1       6.525   1.083  -2.675  1.00  0.00     0.037 C 
ATOM     24  C   UNL     1       5.724   1.278  -3.957  1.00  0.00     0.007 C 
ENDBRANCH   6  23
ENDBRANCH   4   6
ENDBRANCH   3   4
ENDBRANCH   2   3
ENDBRANCH   1   2
BRANCH   1  25
ATOM     25  O   UNL     1       1.296   3.220  -1.482  1.00  0.00    -0.374 OA
BRANCH  25  26
ATOM     26  C   UNL     1       1.359   3.188  -2.898  1.00  0.00     0.202 C 
BRANCH  26  27
ATOM     27  C   UNL     1       2.355   3.971  -3.781  1.00  0.00     0.261 C 
BRANCH  27  28
ATOM     28  O   UNL     1       3.152   4.989  -3.171  1.00  0.00    -0.460 OA
BRANCH  28  29
ATOM     29  C   UNL     1       2.583   6.215  -3.106  1.00  0.00     0.338 C 
ATOM     30  O   UNL     1       1.494   6.548  -3.535  1.00  0.00    -0.246 OA
BRANCH  29  31
ATOM     31  C   UNL     1       3.407   7.072  -2.225  1.00  0.00     0.060 A 
ATOM     32  C   UNL     1       2.783   7.660  -1.116  1.00  0.00     0.016 A 
ATOM     33  C   UNL     1       4.740   7.358  -2.525  1.00  0.00     0.016 A 
ATOM     34  C   UNL     1       3.459   8.608  -0.354  1.00  0.00     0.010 A 
ATOM     35  C   UNL     1       5.410   8.335  -1.781  1.00  0.00     0.010 A 
ATOM     36  C   UNL     1       4.745   9.008  -0.739  1.00  0.00    -0.014 A 
BRANCH  36  37
ATOM     37  C   UNL     1       5.231  10.332  -0.279  1.00  0.00     0.031 A 
ATOM     38  C   UNL     1       4.911  11.526  -1.143  1.00  0.00     0.074 A 
ATOM     39  C   UNL     1       5.863  10.497   0.894  1.00  0.00     0.049 A 
ATOM     40  N   UNL     1       5.230  12.783  -0.977  1.00  0.00    -0.248 NA
ATOM     41  C   UNL     1       4.114  11.264  -2.356  1.00  0.00     0.031 C 
ATOM     42  C   UNL     1       6.159   9.443   1.861  1.00  0.00     0.029 A 
ATOM     43  N   UNL     1       6.365  11.637   1.471  1.00  0.00    -0.354 N 
ATOM     44  C   UNL     1       4.676  13.456  -2.060  1.00  0.00     0.074 A 
ATOM     45  C   UNL     1       4.023  12.470  -2.890  1.00  0.00     0.031 C 
ATOM     46  C   UNL     1       6.801   9.986   2.912  1.00  0.00     0.029 A 
ATOM     47  C   UNL     1       6.987  11.417   2.675  1.00  0.00     0.049 A 
ATOM     48  H   UNL     1       6.288  12.528   1.060  1.00  0.00     0.167 HD
ATOM     49  C   UNL     1       4.699  14.779  -2.340  1.00  0.00     0.031 A 
ATOM     50  C   UNL     1       7.645  12.274   3.479  1.00  0.00     0.031 A 
ATOM     51  C   UNL     1       5.357  15.764  -1.531  1.00  0.00     0.049 A 
ATOM     52  C   UNL     1       7.747  13.728   3.092  1.00  0.00     0.074 A 
ATOM     53  C   UNL     1       5.462  17.127  -1.746  1.00  0.00     0.029 A 
ATOM     54  N   UNL     1       6.024  15.489  -0.349  1.00  0.00    -0.354 N 
ATOM     55  N   UNL     1       7.230  14.350   2.060  1.00  0.00    -0.248 NA
ATOM     56  C   UNL     1       8.522  14.599   3.989  1.00  0.00     0.031 C 
ATOM     57  C   UNL     1       6.229  17.672  -0.712  1.00  0.00     0.029 A 
ATOM     58  C   UNL     1       6.556  16.655   0.171  1.00  0.00     0.049 A 
ATOM     59  H   UNL     1       6.106  14.597   0.060  1.00  0.00     0.167 HD
ATOM     60  C   UNL     1       7.587  15.686   2.203  1.00  0.00     0.074 A 
ATOM     61  C   UNL     1       8.355  15.787   3.426  1.00  0.00     0.031 C 
ATOM     62  C   UNL     1       7.303  16.737   1.397  1.00  0.00     0.031 A 
BRANCH  49  63
ATOM     63  C   UNL     1       4.017  15.227  -3.599  1.00  0.00    -0.014 A 
ATOM     64  C   UNL     1       2.617  15.281  -3.687  1.00  0.00     0.009 A 
ATOM     65  C   UNL     1       4.786  15.625  -4.703  1.00  0.00     0.009 A 
ATOM     66  C   UNL     1       2.001  15.704  -4.866  1.00  0.00     0.001 A 
ATOM     67  C   UNL     1       4.167  16.071  -5.872  1.00  0.00     0.001 A 
ATOM     68  C   UNL     1       2.776  16.104  -5.955  1.00  0.00     0.000 A 
ENDBRANCH  49  63
BRANCH  50  69
ATOM     69  C   UNL     1       8.299  11.789   4.723  1.00  0.00    -0.014 A 
ATOM     70  C   UNL     1       7.825  12.181   5.985  1.00  0.00     0.009 A 
ATOM     71  C   UNL     1       9.441  10.975   4.650  1.00  0.00     0.009 A 
ATOM     72  C   UNL     1       8.503  11.798   7.145  1.00  0.00     0.001 A 
ATOM     73  C   UNL     1      10.099  10.570   5.813  1.00  0.00     0.001 A 
ATOM     74  C   UNL     1       9.637  10.992   7.059  1.00  0.00     0.000 A 
ENDBRANCH  50  69
BRANCH  62  75
ATOM     75  C   UNL     1       7.776  18.094   1.835  1.00  0.00    -0.014 A 
ATOM     76  C   UNL     1       9.129  18.457   1.759  1.00  0.00     0.009 A 
ATOM     77  C   UNL     1       6.840  19.039   2.285  1.00  0.00     0.009 A 
ATOM     78  C   UNL     1       9.539  19.732   2.157  1.00  0.00     0.001 A 
ATOM     79  C   UNL     1       7.249  20.320   2.656  1.00  0.00     0.001 A 
ATOM     80  C   UNL     1       8.599  20.662   2.601  1.00  0.00     0.000 A 
ENDBRANCH  62  75
ENDBRANCH  36  37
ENDBRANCH  29  31
ENDBRANCH  28  29
ENDBRANCH  27  28
ENDBRANCH  26  27
ENDBRANCH  25  26
ENDBRANCH   1  25
TORSDOF 19
