REMARK SMILES C[C@H]1Cc2cc(C(=O)[C@H](Br)CC(=O)OCCOCCOC(=O)c3ccc(-c4c5nc(c(-c6ccccc6)c6ccc([nH]6)c(-c6ccccc6)c6nc(c(-c7ccccc7)c7ccc4[nH]7)C=C6)C=C5)cc3)ccc2O1
REMARK SMILES IDX 16 1 15 2 14 3 12 4 13 5 11 6 9 7 10 8 7 9 8 10 6 11 1 12
REMARK SMILES IDX 2 13 3 14 74 15 4 16 73 17 5 18 72 19 71 20 17 21 18 22
REMARK SMILES IDX 19 23 20 24 21 25 22 26 23 27 24 28 70 29 25 30 69 31 26 32
REMARK SMILES IDX 27 33 28 34 63 35 29 36 68 37 62 38 64 39 30 40 67 41 61 42
REMARK SMILES IDX 60 43 31 45 53 46 38 47 52 48 39 49 42 50 51 51 65 52 40 53
REMARK SMILES IDX 41 54 50 56 66 57 43 58 32 59 33 60 37 61 34 62 36 63 35 64
REMARK SMILES IDX 54 65 55 66 59 67 56 68 58 69 57 70 44 71 45 72 49 73 46 74
REMARK SMILES IDX 48 75 47 76
REMARK H PARENT 64 44 42 55
REMARK Flexibility Score: inf
ROOT
ATOM      1  C   UNL     1      -6.679   4.621   0.982  1.00  0.00     0.202 C 
ENDROOT
BRANCH   1   2
ATOM      2  C   UNL     1      -6.550   3.109   1.202  1.00  0.00     0.261 C 
BRANCH   2   3
ATOM      3  O   UNL     1      -6.135   2.451  -0.012  1.00  0.00    -0.463 OA
BRANCH   3   4
ATOM      4  C   UNL     1      -7.053   1.747  -0.719  1.00  0.00     0.307 C 
ATOM      5  O   UNL     1      -8.194   1.518  -0.345  1.00  0.00    -0.252 OA
BRANCH   4   6
ATOM      6  C   UNL     1      -6.480   1.252  -2.037  1.00  0.00     0.146 C 
BRANCH   6   7
ATOM      7  C   UNL     1      -5.950   2.339  -2.976  1.00  0.00     0.140 C 
ATOM      8  Br  UNL     1      -4.383   3.218  -2.264  1.00  0.00    -0.080 Br
BRANCH   7   9
ATOM      9  C   UNL     1      -5.889   1.851  -4.424  1.00  0.00     0.177 C 
ATOM     10  O   UNL     1      -6.981   1.667  -4.986  1.00  0.00    -0.293 OA
BRANCH   9  11
ATOM     11  C   UNL     1      -4.670   1.476  -5.240  1.00  0.00     0.019 A 
ATOM     12  C   UNL     1      -1.719  -1.804  -8.972  1.00  0.00     0.053 C 
ATOM     13  C   UNL     1      -2.344  -0.423  -8.825  1.00  0.00     0.174 C 
ATOM     14  C   UNL     1      -3.843  -0.475  -8.463  1.00  0.00     0.084 C 
ATOM     15  O   UNL     1      -1.613   0.292  -7.799  1.00  0.00    -0.490 OA
ATOM     16  C   UNL     1      -3.845   0.317  -7.211  1.00  0.00    -0.001 A 
ATOM     17  C   UNL     1      -2.562   0.722  -6.923  1.00  0.00     0.123 A 
ATOM     18  C   UNL     1      -4.904   0.674  -6.383  1.00  0.00     0.019 A 
ATOM     19  C   UNL     1      -2.287   1.512  -5.836  1.00  0.00     0.047 A 
ATOM     20  C   UNL     1      -3.349   1.900  -5.011  1.00  0.00     0.015 A 
ENDBRANCH   9  11
ENDBRANCH   7   9
ENDBRANCH   6   7
ENDBRANCH   4   6
ENDBRANCH   3   4
ENDBRANCH   2   3
ENDBRANCH   1   2
BRANCH   1  21
ATOM     21  O   UNL     1      -7.902   5.052   0.385  1.00  0.00    -0.374 OA
BRANCH  21  22
ATOM     22  C   UNL     1      -7.971   4.995  -1.038  1.00  0.00     0.202 C 
BRANCH  22  23
ATOM     23  C   UNL     1      -7.382   6.200  -1.784  1.00  0.00     0.261 C 
BRANCH  23  24
ATOM     24  O   UNL     1      -5.951   6.276  -1.636  1.00  0.00    -0.460 OA
BRANCH  24  25
ATOM     25  C   UNL     1      -5.508   7.212  -0.763  1.00  0.00     0.338 C 
ATOM     26  O   UNL     1      -6.179   8.048  -0.177  1.00  0.00    -0.246 OA
BRANCH  25  27
ATOM     27  C   UNL     1      -4.085   6.967  -0.447  1.00  0.00     0.060 A 
ATOM     28  C   UNL     1      -3.127   6.746  -1.438  1.00  0.00     0.016 A 
ATOM     29  C   UNL     1      -3.709   6.986   0.903  1.00  0.00     0.016 A 
ATOM     30  C   UNL     1      -1.786   6.567  -1.073  1.00  0.00     0.010 A 
ATOM     31  C   UNL     1      -2.372   6.816   1.264  1.00  0.00     0.010 A 
ATOM     32  C   UNL     1      -1.394   6.624   0.279  1.00  0.00    -0.014 A 
BRANCH  32  33
ATOM     33  C   UNL     1       0.045   6.625   0.653  1.00  0.00     0.031 A 
ATOM     34  C   UNL     1       0.684   5.463   1.356  1.00  0.00     0.074 A 
ATOM     35  C   UNL     1       0.775   7.727   0.390  1.00  0.00     0.049 A 
ATOM     36  N   UNL     1       1.939   5.304   1.699  1.00  0.00    -0.248 NA
ATOM     37  C   UNL     1      -0.188   4.341   1.730  1.00  0.00     0.031 C 
ATOM     38  C   UNL     1       0.261   8.936  -0.255  1.00  0.00     0.029 A 
ATOM     39  N   UNL     1       2.099   8.009   0.622  1.00  0.00    -0.354 N 
ATOM     40  C   UNL     1       2.010   4.065   2.321  1.00  0.00     0.074 A 
ATOM     41  C   UNL     1       0.664   3.531   2.347  1.00  0.00     0.031 C 
ATOM     42  C   UNL     1       1.266   9.810  -0.409  1.00  0.00     0.029 A 
ATOM     43  C   UNL     1       2.486   9.247   0.164  1.00  0.00     0.049 A 
ATOM     44  H   UNL     1       2.713   7.385   1.072  1.00  0.00     0.167 HD
ATOM     45  C   UNL     1       3.102   3.429   2.810  1.00  0.00     0.031 A 
ATOM     46  C   UNL     1       3.683   9.864   0.192  1.00  0.00     0.031 A 
ATOM     47  C   UNL     1       4.438   3.972   2.793  1.00  0.00     0.049 A 
ATOM     48  C   UNL     1       4.870   9.153   0.781  1.00  0.00     0.074 A 
ATOM     49  C   UNL     1       5.612   3.365   3.208  1.00  0.00     0.029 A 
ATOM     50  N   UNL     1       4.779   5.244   2.361  1.00  0.00    -0.354 N 
ATOM     51  N   UNL     1       4.940   7.941   1.275  1.00  0.00    -0.248 NA
ATOM     52  C   UNL     1       6.144   9.886   0.805  1.00  0.00     0.031 C 
ATOM     53  C   UNL     1       6.645   4.298   3.112  1.00  0.00     0.029 A 
ATOM     54  C   UNL     1       6.137   5.456   2.546  1.00  0.00     0.049 A 
ATOM     55  H   UNL     1       4.152   5.900   1.980  1.00  0.00     0.167 HD
ATOM     56  C   UNL     1       6.267   7.756   1.642  1.00  0.00     0.074 A 
ATOM     57  C   UNL     1       6.971   8.974   1.300  1.00  0.00     0.031 C 
ATOM     58  C   UNL     1       6.843   6.668   2.211  1.00  0.00     0.031 A 
BRANCH  45  59
ATOM     59  C   UNL     1       2.925   2.058   3.412  1.00  0.00    -0.014 A 
ATOM     60  C   UNL     1       3.206   1.851   4.773  1.00  0.00     0.009 A 
ATOM     61  C   UNL     1       2.620   0.948   2.610  1.00  0.00     0.009 A 
ATOM     62  C   UNL     1       3.208   0.563   5.312  1.00  0.00     0.001 A 
ATOM     63  C   UNL     1       2.589  -0.336   3.159  1.00  0.00     0.001 A 
ATOM     64  C   UNL     1       2.896  -0.529   4.505  1.00  0.00     0.000 A 
ENDBRANCH  45  59
BRANCH  46  65
ATOM     65  C   UNL     1       3.816  11.216  -0.414  1.00  0.00    -0.014 A 
ATOM     66  C   UNL     1       3.164  12.325   0.150  1.00  0.00     0.009 A 
ATOM     67  C   UNL     1       4.541  11.391  -1.602  1.00  0.00     0.009 A 
ATOM     68  C   UNL     1       3.204  13.570  -0.482  1.00  0.00     0.001 A 
ATOM     69  C   UNL     1       4.609  12.646  -2.213  1.00  0.00     0.001 A 
ATOM     70  C   UNL     1       3.929  13.730  -1.661  1.00  0.00     0.000 A 
ENDBRANCH  46  65
BRANCH  58  71
ATOM     71  C   UNL     1       8.320   6.711   2.503  1.00  0.00    -0.014 A 
ATOM     72  C   UNL     1       9.189   5.832   1.832  1.00  0.00     0.009 A 
ATOM     73  C   UNL     1       8.839   7.522   3.524  1.00  0.00     0.009 A 
ATOM     74  C   UNL     1      10.534   5.742   2.196  1.00  0.00     0.001 A 
ATOM     75  C   UNL     1      10.193   7.457   3.861  1.00  0.00     0.001 A 
ATOM     76  C   UNL     1      11.035   6.557   3.208  1.00  0.00     0.000 A 
ENDBRANCH  58  71
ENDBRANCH  32  33
ENDBRANCH  25  27
ENDBRANCH  24  25
ENDBRANCH  23  24
ENDBRANCH  22  23
ENDBRANCH  21  22
ENDBRANCH   1  21
TORSDOF 17
