REMARK SMILES O=C(OCCOCCOC(=O)c1nnn(-c2cccc(C(F)(F)F)c2)c1[C@H]1COc2ccccc2O1)c1ccc(-c2c3nc(c(-c4ccccc4)c4ccc([nH]4)c(-c4ccccc4)c4nc(c(-c5ccccc5)c5ccc2[nH]5)C=C4)C=C3)cc1
REMARK SMILES IDX 6 1 5 2 4 3 3 4 2 5 1 6 37 7 38 8 84 9 39 10 83 11 40 12
REMARK SMILES IDX 41 13 42 14 77 15 43 16 82 17 76 18 78 19 44 20 81 21 75 22
REMARK SMILES IDX 74 23 45 25 67 26 52 27 66 28 53 29 56 30 65 31 79 32 54 33
REMARK SMILES IDX 55 34 64 36 80 37 57 38 46 39 47 40 51 41 48 42 50 43 49 44
REMARK SMILES IDX 68 45 69 46 73 47 70 48 72 49 71 50 58 51 59 52 63 53 60 54
REMARK SMILES IDX 62 55 61 56 7 57 8 58 9 59 10 60 11 61 12 62 13 63 26 64
REMARK SMILES IDX 14 65 15 66 27 67 28 68 36 69 29 70 35 71 30 72 34 73 31 74
REMARK SMILES IDX 33 75 32 76 16 77 17 78 25 79 18 80 20 81 19 82 21 83 22 84
REMARK SMILES IDX 23 85 24 86
REMARK H PARENT 78 24 56 35
REMARK Flexibility Score: inf
ROOT
ATOM      1  O   UNL     1      -2.060   3.868  -2.155  1.00  0.00    -0.374 OA
ENDROOT
BRANCH   1   2
ATOM      2  C   UNL     1      -1.296   3.188  -1.161  1.00  0.00     0.202 C 
BRANCH   2   3
ATOM      3  C   UNL     1      -0.825   1.761  -1.449  1.00  0.00     0.261 C 
BRANCH   3   4
ATOM      4  O   UNL     1       0.119   1.698  -2.531  1.00  0.00    -0.460 OA
BRANCH   4   5
ATOM      5  C   UNL     1      -0.091   1.823  -3.856  1.00  0.00     0.338 C 
ATOM      6  O   UNL     1       0.859   2.138  -4.572  1.00  0.00    -0.246 OA
BRANCH   5   7
ATOM      7  C   UNL     1      -1.399   1.530  -4.518  1.00  0.00     0.060 A 
ATOM      8  C   UNL     1      -2.607   1.263  -3.875  1.00  0.00     0.016 A 
ATOM      9  C   UNL     1      -1.370   1.475  -5.924  1.00  0.00     0.016 A 
ATOM     10  C   UNL     1      -3.664   0.702  -4.566  1.00  0.00     0.010 A 
ATOM     11  C   UNL     1      -2.454   0.985  -6.636  1.00  0.00     0.010 A 
ATOM     12  C   UNL     1      -3.549   0.492  -5.934  1.00  0.00    -0.014 A 
BRANCH  12  13
ATOM     13  C   UNL     1      -4.603  -0.284  -6.570  1.00  0.00     0.031 A 
ATOM     14  C   UNL     1      -5.981   0.270  -6.484  1.00  0.00     0.074 A 
ATOM     15  C   UNL     1      -4.318  -1.418  -7.238  1.00  0.00     0.049 A 
ATOM     16  N   UNL     1      -7.060  -0.311  -6.065  1.00  0.00    -0.248 NA
ATOM     17  C   UNL     1      -6.160   1.684  -6.851  1.00  0.00     0.031 C 
ATOM     18  C   UNL     1      -2.994  -1.941  -7.594  1.00  0.00     0.029 A 
ATOM     19  N   UNL     1      -5.170  -2.276  -7.863  1.00  0.00    -0.354 N 
ATOM     20  C   UNL     1      -8.089   0.608  -6.263  1.00  0.00     0.074 A 
ATOM     21  C   UNL     1      -7.465   1.850  -6.645  1.00  0.00     0.031 C 
ATOM     22  C   UNL     1      -3.133  -2.845  -8.586  1.00  0.00     0.029 A 
ATOM     23  C   UNL     1      -4.549  -3.058  -8.824  1.00  0.00     0.049 A 
ATOM     24  H   UNL     1      -6.130  -2.334  -7.654  1.00  0.00     0.167 HD
ATOM     25  C   UNL     1      -9.399   0.241  -6.307  1.00  0.00     0.031 A 
ATOM     26  C   UNL     1      -5.153  -3.749  -9.816  1.00  0.00     0.031 A 
ATOM     27  C   UNL     1      -9.645  -1.008  -5.643  1.00  0.00     0.049 A 
ATOM     28  C   UNL     1      -6.576  -3.925  -9.456  1.00  0.00     0.074 A 
ATOM     29  C   UNL     1      -9.502  -1.472  -4.351  1.00  0.00     0.029 A 
ATOM     30  N   UNL     1      -9.839  -2.123  -6.419  1.00  0.00    -0.354 N 
ATOM     31  N   UNL     1      -6.986  -4.682  -8.479  1.00  0.00    -0.248 NA
ATOM     32  C   UNL     1      -7.538  -2.940  -9.925  1.00  0.00     0.031 C 
ATOM     33  C   UNL     1      -9.140  -2.844  -4.488  1.00  0.00     0.029 A 
ATOM     34  C   UNL     1      -9.111  -3.136  -5.853  1.00  0.00     0.049 A 
ATOM     35  H   UNL     1     -10.395  -2.184  -7.229  1.00  0.00     0.167 HD
ATOM     36  C   UNL     1      -8.068  -4.006  -7.934  1.00  0.00     0.074 A 
ATOM     37  C   UNL     1      -8.434  -3.010  -8.937  1.00  0.00     0.031 C 
ATOM     38  C   UNL     1      -8.383  -4.128  -6.611  1.00  0.00     0.031 A 
BRANCH  25  39
ATOM     39  C   UNL     1     -10.370   0.831  -7.302  1.00  0.00    -0.014 A 
ATOM     40  C   UNL     1     -11.710   0.402  -7.286  1.00  0.00     0.009 A 
ATOM     41  C   UNL     1      -9.956   1.563  -8.433  1.00  0.00     0.009 A 
ATOM     42  C   UNL     1     -12.557   0.620  -8.380  1.00  0.00     0.001 A 
ATOM     43  C   UNL     1     -10.811   1.820  -9.506  1.00  0.00     0.001 A 
ATOM     44  C   UNL     1     -12.104   1.320  -9.493  1.00  0.00     0.000 A 
ENDBRANCH  25  39
BRANCH  26  45
ATOM     45  C   UNL     1      -4.627  -3.978 -11.177  1.00  0.00    -0.014 A 
ATOM     46  C   UNL     1      -5.147  -4.991 -11.992  1.00  0.00     0.009 A 
ATOM     47  C   UNL     1      -3.756  -3.040 -11.768  1.00  0.00     0.009 A 
ATOM     48  C   UNL     1      -4.821  -5.051 -13.353  1.00  0.00     0.001 A 
ATOM     49  C   UNL     1      -3.423  -3.105 -13.122  1.00  0.00     0.001 A 
ATOM     50  C   UNL     1      -3.966  -4.106 -13.918  1.00  0.00     0.000 A 
ENDBRANCH  26  45
BRANCH  38  51
ATOM     51  C   UNL     1      -7.668  -5.188  -5.810  1.00  0.00    -0.014 A 
ATOM     52  C   UNL     1      -6.274  -5.178  -5.628  1.00  0.00     0.009 A 
ATOM     53  C   UNL     1      -8.427  -6.121  -5.090  1.00  0.00     0.009 A 
ATOM     54  C   UNL     1      -5.654  -6.098  -4.777  1.00  0.00     0.001 A 
ATOM     55  C   UNL     1      -7.810  -7.027  -4.223  1.00  0.00     0.001 A 
ATOM     56  C   UNL     1      -6.425  -7.020  -4.071  1.00  0.00     0.000 A 
ENDBRANCH  38  51
ENDBRANCH  12  13
ENDBRANCH   5   7
ENDBRANCH   4   5
ENDBRANCH   3   4
ENDBRANCH   2   3
ENDBRANCH   1   2
BRANCH   1  57
ATOM     57  C   UNL     1      -1.387   4.665  -3.135  1.00  0.00     0.202 C 
BRANCH  57  58
ATOM     58  C   UNL     1      -0.616   5.909  -2.685  1.00  0.00     0.261 C 
BRANCH  58  59
ATOM     59  O   UNL     1       0.551   5.556  -1.931  1.00  0.00    -0.458 OA
BRANCH  59  60
ATOM     60  C   UNL     1       0.501   5.837  -0.593  1.00  0.00     0.361 C 
ATOM     61  O   UNL     1      -0.416   6.414  -0.034  1.00  0.00    -0.244 OA
BRANCH  60  62
ATOM     62  C   UNL     1       1.607   5.220   0.122  1.00  0.00     0.198 A 
ATOM     63  N   UNL     1       1.410   4.261   1.089  1.00  0.00    -0.122 NA
ATOM     64  C   UNL     1       2.965   5.394  -0.068  1.00  0.00     0.123 A 
ATOM     65  N   UNL     1       2.600   3.849   1.508  1.00  0.00    -0.061 NA
ATOM     66  N   UNL     1       3.519   4.678   0.974  1.00  0.00    -0.213 N 
BRANCH  64  67
ATOM     67  C   UNL     1       3.759   6.098  -1.118  1.00  0.00     0.262 C 
ATOM     68  C   UNL     1       4.328   5.102  -2.138  1.00  0.00     0.281 C 
ATOM     69  O   UNL     1       2.869   7.049  -1.709  1.00  0.00    -0.477 OA
ATOM     70  O   UNL     1       5.014   5.794  -3.187  1.00  0.00    -0.485 OA
ATOM     71  C   UNL     1       3.131   7.314  -3.023  1.00  0.00     0.162 A 
ATOM     72  C   UNL     1       4.176   6.726  -3.739  1.00  0.00     0.161 A 
ATOM     73  C   UNL     1       2.266   8.204  -3.653  1.00  0.00     0.050 A 
ATOM     74  C   UNL     1       4.389   7.069  -5.070  1.00  0.00     0.050 A 
ATOM     75  C   UNL     1       2.450   8.515  -4.999  1.00  0.00     0.004 A 
ATOM     76  C   UNL     1       3.518   7.956  -5.704  1.00  0.00     0.004 A 
ENDBRANCH  64  67
BRANCH  66  77
ATOM     77  C   UNL     1       4.787   4.846   1.559  1.00  0.00     0.067 A 
ATOM     78  C   UNL     1       5.533   3.746   1.979  1.00  0.00     0.028 A 
ATOM     79  C   UNL     1       5.271   6.148   1.731  1.00  0.00     0.041 A 
ATOM     80  C   UNL     1       6.819   3.959   2.479  1.00  0.00     0.003 A 
ATOM     81  C   UNL     1       6.546   6.370   2.256  1.00  0.00     0.058 A 
ATOM     82  C   UNL     1       7.326   5.259   2.605  1.00  0.00     0.013 A 
BRANCH  81  83
ATOM     83  C   UNL     1       7.062   7.778   2.420  1.00  0.00     0.416 C 
ATOM     84  F   UNL     1       7.519   8.031   3.675  1.00  0.00    -0.166 F 
ATOM     85  F   UNL     1       8.091   8.052   1.574  1.00  0.00    -0.166 F 
ATOM     86  F   UNL     1       6.114   8.727   2.170  1.00  0.00    -0.166 F 
ENDBRANCH  81  83
ENDBRANCH  66  77
ENDBRANCH  60  62
ENDBRANCH  59  60
ENDBRANCH  58  59
ENDBRANCH  57  58
ENDBRANCH   1  57
TORSDOF 17
