REMARK SMILES CC(C)OC(=O)c1c(NC(=O)[C@H]2[C@@H](C(=O)OCCOCCOC(=O)c3ccc(-c4c5nc(c(-c6ccccc6)c6ccc([nH]6)c(-c6ccccc6)c6nc(c(-c7ccccc7)c7ccc4[nH]7)C=C6)C=C5)cc3)[C@@H]3C=C[C@H]2CC3)sc2c1CCC2
REMARK SMILES IDX 17 1 16 2 14 3 15 4 13 5 12 6 76 7 73 8 75 9 77 10 74 11
REMARK SMILES IDX 78 12 10 13 9 14 11 16 8 17 7 18 81 19 79 20 80 21 82 22
REMARK SMILES IDX 84 23 83 24 5 25 6 26 4 27 2 28 1 29 3 30 18 31 19 32 20 33
REMARK SMILES IDX 21 34 22 35 23 36 24 37 25 38 26 39 72 40 27 41 71 42 28 43
REMARK SMILES IDX 29 44 30 45 65 46 31 47 70 48 64 49 66 50 32 51 69 52 63 53
REMARK SMILES IDX 62 54 33 56 55 57 40 58 54 59 41 60 44 61 53 62 67 63 42 64
REMARK SMILES IDX 43 65 52 67 68 68 45 69 34 70 35 71 39 72 36 73 38 74 37 75
REMARK SMILES IDX 56 76 57 77 61 78 58 79 60 80 59 81 46 82 47 83 51 84 48 85
REMARK SMILES IDX 50 86 49 87
REMARK H PARENT 9 15 66 55 44 66
REMARK Flexibility Score: inf
ROOT
ATOM      1  C   UNL     1      -8.894   0.759  -3.916  1.00  0.00     0.261 C 
ENDROOT
BRANCH   1   2
ATOM      2  O   UNL     1      -8.013   0.465  -2.827  1.00  0.00    -0.463 OA
BRANCH   2   3
ATOM      3  C   UNL     1      -8.055  -0.835  -2.423  1.00  0.00     0.310 C 
ATOM      4  O   UNL     1      -8.921  -1.639  -2.744  1.00  0.00    -0.252 OA
BRANCH   3   5
ATOM      5  C   UNL     1      -6.907  -1.140  -1.470  1.00  0.00     0.119 C 
ATOM      6  C   UNL     1      -6.420  -2.635  -1.553  1.00  0.00     0.100 C 
ATOM      7  C   UNL     1      -7.045  -3.366  -0.319  1.00  0.00     0.025 C 
ATOM      8  C   UNL     1      -7.368  -0.812  -0.018  1.00  0.00     0.026 C 
ATOM      9  C   UNL     1      -6.279  -2.772   0.861  1.00  0.00    -0.027 C 
ATOM     10  C   UNL     1      -8.539  -3.026  -0.099  1.00  0.00     0.009 C 
ATOM     11  C   UNL     1      -6.394  -1.436   0.972  1.00  0.00    -0.027 C 
ATOM     12  C   UNL     1      -8.708  -1.533   0.255  1.00  0.00     0.009 C 
BRANCH   6  13
ATOM     13  C   UNL     1      -6.489  -3.270  -2.956  1.00  0.00     0.229 C 
ATOM     14  N   UNL     1      -6.320  -4.588  -3.227  1.00  0.00    -0.317 N 
ATOM     15  H   UNL     1      -6.576  -4.849  -4.141  1.00  0.00     0.170 HD
ATOM     16  O   UNL     1      -6.614  -2.560  -3.959  1.00  0.00    -0.274 OA
BRANCH  14  17
ATOM     17  C   UNL     1      -5.856  -5.621  -2.455  1.00  0.00     0.110 A 
ATOM     18  C   UNL     1      -6.157  -6.974  -2.606  1.00  0.00     0.098 A 
ATOM     19  C   UNL     1      -5.740  -7.644  -1.420  1.00  0.00    -0.017 A 
ATOM     20  S   UNL     1      -4.667  -5.342  -1.255  1.00  0.00    -0.122 S 
ATOM     21  C   UNL     1      -5.028  -6.822  -0.587  1.00  0.00     0.011 A 
ATOM     22  C   UNL     1      -5.864  -8.994  -0.817  1.00  0.00     0.038 C 
ATOM     23  C   UNL     1      -4.670  -7.399   0.721  1.00  0.00     0.047 C 
ATOM     24  C   UNL     1      -5.475  -8.731   0.678  1.00  0.00     0.010 C 
BRANCH  18  25
ATOM     25  C   UNL     1      -6.870  -7.471  -3.781  1.00  0.00     0.341 C 
ATOM     26  O   UNL     1      -6.837  -6.871  -4.847  1.00  0.00    -0.246 OA
BRANCH  25  27
ATOM     27  O   UNL     1      -7.551  -8.632  -3.569  1.00  0.00    -0.459 OA
BRANCH  27  28
ATOM     28  C   UNL     1      -8.194  -9.284  -4.693  1.00  0.00     0.170 C 
ATOM     29  C   UNL     1      -9.185  -8.412  -5.469  1.00  0.00     0.052 C 
ATOM     30  C   UNL     1      -7.152  -9.930  -5.600  1.00  0.00     0.052 C 
ENDBRANCH  27  28
ENDBRANCH  25  27
ENDBRANCH  18  25
ENDBRANCH  14  17
ENDBRANCH   6  13
ENDBRANCH   3   5
ENDBRANCH   2   3
ENDBRANCH   1   2
BRANCH   1  31
ATOM     31  C   UNL     1      -8.156   1.308  -5.139  1.00  0.00     0.202 C 
BRANCH  31  32
ATOM     32  O   UNL     1      -7.068   0.584  -5.712  1.00  0.00    -0.374 OA
BRANCH  32  33
ATOM     33  C   UNL     1      -5.956   0.175  -4.924  1.00  0.00     0.202 C 
BRANCH  33  34
ATOM     34  C   UNL     1      -4.965   1.216  -4.431  1.00  0.00     0.261 C 
BRANCH  34  35
ATOM     35  O   UNL     1      -5.608   2.201  -3.642  1.00  0.00    -0.460 OA
BRANCH  35  36
ATOM     36  C   UNL     1      -5.928   3.305  -4.348  1.00  0.00     0.338 C 
ATOM     37  O   UNL     1      -5.832   3.473  -5.550  1.00  0.00    -0.246 OA
BRANCH  36  38
ATOM     38  C   UNL     1      -6.278   4.378  -3.413  1.00  0.00     0.060 A 
ATOM     39  C   UNL     1      -6.497   5.612  -4.023  1.00  0.00     0.016 A 
ATOM     40  C   UNL     1      -5.893   4.249  -2.072  1.00  0.00     0.016 A 
ATOM     41  C   UNL     1      -5.983   6.717  -3.399  1.00  0.00     0.010 A 
ATOM     42  C   UNL     1      -5.367   5.352  -1.456  1.00  0.00     0.010 A 
ATOM     43  C   UNL     1      -5.318   6.539  -2.182  1.00  0.00    -0.014 A 
BRANCH  43  44
ATOM     44  C   UNL     1      -4.650   7.684  -1.620  1.00  0.00     0.031 A 
ATOM     45  C   UNL     1      -5.620   8.632  -1.043  1.00  0.00     0.074 A 
ATOM     46  C   UNL     1      -3.312   7.800  -1.578  1.00  0.00     0.049 A 
ATOM     47  N   UNL     1      -5.985   9.766  -1.535  1.00  0.00    -0.248 NA
ATOM     48  C   UNL     1      -6.457   8.149   0.069  1.00  0.00     0.031 C 
ATOM     49  C   UNL     1      -2.292   6.795  -1.884  1.00  0.00     0.029 A 
ATOM     50  N   UNL     1      -2.578   8.848  -1.131  1.00  0.00    -0.354 N 
ATOM     51  C   UNL     1      -6.949  10.244  -0.659  1.00  0.00     0.074 A 
ATOM     52  C   UNL     1      -7.364   9.121   0.140  1.00  0.00     0.031 C 
ATOM     53  C   UNL     1      -1.106   7.198  -1.365  1.00  0.00     0.029 A 
ATOM     54  C   UNL     1      -1.264   8.535  -0.815  1.00  0.00     0.049 A 
ATOM     55  H   UNL     1      -2.946   9.756  -1.038  1.00  0.00     0.167 HD
ATOM     56  C   UNL     1      -7.076  11.578  -0.432  1.00  0.00     0.031 A 
ATOM     57  C   UNL     1      -0.421   9.301  -0.076  1.00  0.00     0.031 A 
ATOM     58  C   UNL     1      -6.429  12.351  -1.464  1.00  0.00     0.049 A 
ATOM     59  C   UNL     1      -0.977  10.678  -0.051  1.00  0.00     0.074 A 
ATOM     60  C   UNL     1      -6.580  12.471  -2.831  1.00  0.00     0.029 A 
ATOM     61  N   UNL     1      -5.180  12.847  -1.170  1.00  0.00    -0.354 N 
ATOM     62  N   UNL     1      -1.032  11.444  -1.102  1.00  0.00    -0.248 NA
ATOM     63  C   UNL     1      -1.911  11.016   1.014  1.00  0.00     0.031 C 
ATOM     64  C   UNL     1      -5.254  12.611  -3.338  1.00  0.00     0.029 A 
ATOM     65  C   UNL     1      -4.372  12.640  -2.256  1.00  0.00     0.049 A 
ATOM     66  H   UNL     1      -4.914  13.277  -0.326  1.00  0.00     0.167 HD
ATOM     67  C   UNL     1      -2.278  12.053  -1.032  1.00  0.00     0.074 A 
ATOM     68  C   UNL     1      -2.735  11.825   0.339  1.00  0.00     0.031 C 
ATOM     69  C   UNL     1      -2.946  12.417  -2.167  1.00  0.00     0.031 A 
BRANCH  56  70
ATOM     70  C   UNL     1      -7.323  12.136   0.950  1.00  0.00    -0.014 A 
ATOM     71  C   UNL     1      -7.373  13.532   1.097  1.00  0.00     0.009 A 
ATOM     72  C   UNL     1      -7.204  11.381   2.134  1.00  0.00     0.009 A 
ATOM     73  C   UNL     1      -7.202  14.136   2.347  1.00  0.00     0.001 A 
ATOM     74  C   UNL     1      -7.076  11.979   3.389  1.00  0.00     0.001 A 
ATOM     75  C   UNL     1      -7.040  13.359   3.490  1.00  0.00     0.000 A 
ENDBRANCH  56  70
BRANCH  57  76
ATOM     76  C   UNL     1       0.623   8.862   0.878  1.00  0.00    -0.014 A 
ATOM     77  C   UNL     1       1.593   9.762   1.351  1.00  0.00     0.009 A 
ATOM     78  C   UNL     1       0.503   7.627   1.543  1.00  0.00     0.009 A 
ATOM     79  C   UNL     1       2.385   9.450   2.466  1.00  0.00     0.001 A 
ATOM     80  C   UNL     1       1.295   7.315   2.654  1.00  0.00     0.001 A 
ATOM     81  C   UNL     1       2.226   8.234   3.125  1.00  0.00     0.000 A 
ENDBRANCH  57  76
BRANCH  69  82
ATOM     82  C   UNL     1      -2.198  12.356  -3.476  1.00  0.00    -0.014 A 
ATOM     83  C   UNL     1      -1.693  11.163  -4.024  1.00  0.00     0.009 A 
ATOM     84  C   UNL     1      -2.145  13.521  -4.255  1.00  0.00     0.009 A 
ATOM     85  C   UNL     1      -1.129  11.147  -5.305  1.00  0.00     0.001 A 
ATOM     86  C   UNL     1      -1.601  13.500  -5.540  1.00  0.00     0.001 A 
ATOM     87  C   UNL     1      -1.089  12.315  -6.064  1.00  0.00     0.000 A 
ENDBRANCH  69  82
ENDBRANCH  43  44
ENDBRANCH  36  38
ENDBRANCH  35  36
ENDBRANCH  34  35
ENDBRANCH  33  34
ENDBRANCH  32  33
ENDBRANCH  31  32
ENDBRANCH   1  31
TORSDOF 19
