REMARK SMILES CC[C@@](C)(NS(=O)(=O)Cc1ccccc1)C(=O)OCCOCCOC(=O)c1ccc(-c2c3nc(c(-c4ccccc4)c4ccc([nH]4)c(-c4ccccc4)c4nc(c(-c5ccccc5)c5ccc2[nH]5)C=C4)C=C3)cc1
REMARK SMILES IDX 20 1 19 2 18 3 16 4 17 5 3 6 4 7 2 8 1 9 5 10 6 12 7 13 8 14
REMARK SMILES IDX 9 15 10 16 11 17 15 18 12 19 14 20 13 21 21 22 22 23 23 24
REMARK SMILES IDX 24 25 25 26 26 27 27 28 28 29 74 30 29 31 73 32 30 33 31 34
REMARK SMILES IDX 32 35 67 36 33 37 72 38 66 39 68 40 34 41 71 42 65 43 64 44
REMARK SMILES IDX 35 46 57 47 42 48 56 49 43 50 46 51 55 52 69 53 44 54 45 55
REMARK SMILES IDX 54 57 70 58 47 59 36 60 37 61 41 62 38 63 40 64 39 65 58 66
REMARK SMILES IDX 59 67 63 68 60 69 62 70 61 71 48 72 49 73 53 74 50 75 52 76
REMARK SMILES IDX 51 77
REMARK H PARENT 5 11 68 45 46 56
REMARK Flexibility Score: inf
ROOT
ATOM      1  C   UNL     1       5.779  -0.654   1.858  1.00  0.00     0.202 C 
ENDROOT
BRANCH   1   2
ATOM      2  C   UNL     1       4.639  -0.230   2.808  1.00  0.00     0.261 C 
BRANCH   2   3
ATOM      3  O   UNL     1       3.417  -0.999   2.703  1.00  0.00    -0.462 OA
BRANCH   3   4
ATOM      4  C   UNL     1       2.306  -0.290   2.349  1.00  0.00     0.327 C 
ATOM      5  O   UNL     1       2.321   0.927   2.174  1.00  0.00    -0.250 OA
BRANCH   4   6
ATOM      6  C   UNL     1       1.026  -1.135   2.140  1.00  0.00     0.127 C 
ATOM      7  C   UNL     1      -0.055  -0.456   3.003  1.00  0.00     0.042 C 
BRANCH   6   8
ATOM      8  C   UNL     1       0.563  -1.069   0.639  1.00  0.00     0.032 C 
ATOM      9  C   UNL     1       0.698   0.246  -0.116  1.00  0.00     0.006 C 
ENDBRANCH   6   8
BRANCH   6  10
ATOM     10  N   UNL     1       1.152  -2.643   2.391  1.00  0.00    -0.198 NA
ATOM     11  H   UNL     1       2.106  -2.895   2.133  1.00  0.00     0.142 HD
BRANCH  10  12
ATOM     12  S   UNL     1       0.878  -3.332   3.901  1.00  0.00     0.216 S 
ATOM     13  O   UNL     1       1.116  -2.329   4.905  1.00  0.00    -0.212 OA
ATOM     14  O   UNL     1      -0.410  -3.997   3.791  1.00  0.00    -0.212 OA
BRANCH  12  15
ATOM     15  C   UNL     1       2.162  -4.550   4.090  1.00  0.00     0.189 C 
BRANCH  15  16
ATOM     16  C   UNL     1       2.130  -5.837   3.284  1.00  0.00    -0.032 A 
ATOM     17  C   UNL     1       1.442  -6.972   3.723  1.00  0.00     0.005 A 
ATOM     18  C   UNL     1       3.059  -6.040   2.253  1.00  0.00     0.005 A 
ATOM     19  C   UNL     1       1.735  -8.242   3.188  1.00  0.00     0.000 A 
ATOM     20  C   UNL     1       3.362  -7.291   1.716  1.00  0.00     0.000 A 
ATOM     21  C   UNL     1       2.706  -8.405   2.200  1.00  0.00     0.000 A 
ENDBRANCH  15  16
ENDBRANCH  12  15
ENDBRANCH  10  12
ENDBRANCH   6  10
ENDBRANCH   4   6
ENDBRANCH   3   4
ENDBRANCH   2   3
ENDBRANCH   1   2
BRANCH   1  22
ATOM     22  O   UNL     1       5.468  -0.910   0.496  1.00  0.00    -0.374 OA
BRANCH  22  23
ATOM     23  C   UNL     1       4.465  -1.872   0.238  1.00  0.00     0.202 C 
BRANCH  23  24
ATOM     24  C   UNL     1       4.554  -3.241   0.921  1.00  0.00     0.261 C 
BRANCH  24  25
ATOM     25  O   UNL     1       4.904  -3.285   2.334  1.00  0.00    -0.460 OA
BRANCH  25  26
ATOM     26  C   UNL     1       5.942  -4.098   2.685  1.00  0.00     0.338 C 
ATOM     27  O   UNL     1       6.661  -4.718   1.920  1.00  0.00    -0.246 OA
BRANCH  26  28
ATOM     28  C   UNL     1       6.099  -4.210   4.159  1.00  0.00     0.060 A 
ATOM     29  C   UNL     1       7.125  -3.522   4.804  1.00  0.00     0.016 A 
ATOM     30  C   UNL     1       5.355  -5.146   4.887  1.00  0.00     0.016 A 
ATOM     31  C   UNL     1       7.397  -3.782   6.159  1.00  0.00     0.010 A 
ATOM     32  C   UNL     1       5.567  -5.338   6.261  1.00  0.00     0.010 A 
ATOM     33  C   UNL     1       6.621  -4.690   6.910  1.00  0.00    -0.014 A 
BRANCH  33  34
ATOM     34  C   UNL     1       6.938  -4.951   8.349  1.00  0.00     0.031 A 
ATOM     35  C   UNL     1       7.393  -6.310   8.834  1.00  0.00     0.074 A 
ATOM     36  C   UNL     1       6.843  -3.940   9.237  1.00  0.00     0.049 A 
ATOM     37  N   UNL     1       7.853  -6.655  10.015  1.00  0.00    -0.248 NA
ATOM     38  C   UNL     1       7.307  -7.430   7.885  1.00  0.00     0.031 C 
ATOM     39  C   UNL     1       6.348  -2.597   8.929  1.00  0.00     0.029 A 
ATOM     40  N   UNL     1       7.178  -3.873  10.568  1.00  0.00    -0.354 N 
ATOM     41  C   UNL     1       8.119  -8.019   9.944  1.00  0.00     0.074 A 
ATOM     42  C   UNL     1       7.713  -8.453   8.625  1.00  0.00     0.031 C 
ATOM     43  C   UNL     1       6.475  -1.823  10.018  1.00  0.00     0.029 A 
ATOM     44  C   UNL     1       7.024  -2.619  11.111  1.00  0.00     0.049 A 
ATOM     45  H   UNL     1       7.498  -4.649  11.084  1.00  0.00     0.167 HD
ATOM     46  C   UNL     1       8.670  -8.836  10.878  1.00  0.00     0.031 A 
ATOM     47  C   UNL     1       7.306  -2.150  12.342  1.00  0.00     0.031 A 
ATOM     48  C   UNL     1       9.060  -8.414  12.200  1.00  0.00     0.049 A 
ATOM     49  C   UNL     1       7.918  -3.071  13.360  1.00  0.00     0.074 A 
ATOM     50  C   UNL     1       9.669  -9.154  13.201  1.00  0.00     0.029 A 
ATOM     51  N   UNL     1       8.870  -7.139  12.710  1.00  0.00    -0.354 N 
ATOM     52  N   UNL     1       8.254  -4.332  13.237  1.00  0.00    -0.248 NA
ATOM     53  C   UNL     1       8.204  -2.498  14.683  1.00  0.00     0.031 C 
ATOM     54  C   UNL     1       9.795  -8.343  14.334  1.00  0.00     0.029 A 
ATOM     55  C   UNL     1       9.325  -7.079  14.018  1.00  0.00     0.049 A 
ATOM     56  H   UNL     1       8.470  -6.387  12.216  1.00  0.00     0.167 HD
ATOM     57  C   UNL     1       8.811  -4.696  14.456  1.00  0.00     0.074 A 
ATOM     58  C   UNL     1       8.792  -3.516  15.295  1.00  0.00     0.031 C 
ATOM     59  C   UNL     1       9.292  -5.902  14.847  1.00  0.00     0.031 A 
BRANCH  46  60
ATOM     60  C   UNL     1       8.890 -10.282  10.506  1.00  0.00    -0.014 A 
ATOM     61  C   UNL     1       9.856 -10.649   9.554  1.00  0.00     0.009 A 
ATOM     62  C   UNL     1       8.167 -11.297  11.155  1.00  0.00     0.009 A 
ATOM     63  C   UNL     1      10.065 -11.993   9.232  1.00  0.00     0.001 A 
ATOM     64  C   UNL     1       8.399 -12.642  10.853  1.00  0.00     0.001 A 
ATOM     65  C   UNL     1       9.340 -12.988   9.885  1.00  0.00     0.000 A 
ENDBRANCH  46  60
BRANCH  47  66
ATOM     66  C   UNL     1       7.037  -0.724  12.673  1.00  0.00    -0.014 A 
ATOM     67  C   UNL     1       8.093   0.174  12.900  1.00  0.00     0.009 A 
ATOM     68  C   UNL     1       5.718  -0.251  12.761  1.00  0.00     0.009 A 
ATOM     69  C   UNL     1       7.832   1.506  13.233  1.00  0.00     0.001 A 
ATOM     70  C   UNL     1       5.461   1.088  13.060  1.00  0.00     0.001 A 
ATOM     71  C   UNL     1       6.517   1.963  13.306  1.00  0.00     0.000 A 
ENDBRANCH  47  66
BRANCH  59  72
ATOM     72  C   UNL     1       9.861  -5.994  16.237  1.00  0.00    -0.014 A 
ATOM     73  C   UNL     1       9.035  -5.936  17.370  1.00  0.00     0.009 A 
ATOM     74  C   UNL     1      11.244  -6.162  16.412  1.00  0.00     0.009 A 
ATOM     75  C   UNL     1       9.588  -6.002  18.651  1.00  0.00     0.001 A 
ATOM     76  C   UNL     1      11.790  -6.259  17.693  1.00  0.00     0.001 A 
ATOM     77  C   UNL     1      10.963  -6.167  18.812  1.00  0.00     0.000 A 
ENDBRANCH  59  72
ENDBRANCH  33  34
ENDBRANCH  26  28
ENDBRANCH  25  26
ENDBRANCH  24  25
ENDBRANCH  23  24
ENDBRANCH  22  23
ENDBRANCH   1  22
TORSDOF 19
