REMARK SMILES CC[N@@H+](C)Cc1cc2c(cc1Cl)C=C(C(=O)OCCOCCOC(=O)c1ccc(-c3c4nc(c(-c5ccccc5)c5ccc([nH]5)c(-c5ccccc5)c5nc(c(-c6ccccc6)c6ccc3[nH]6)C=C5)C=C4)cc1)[C@@H](C(F)(F)F)O2
REMARK SMILES IDX 19 1 18 2 17 3 15 4 16 5 14 6 6 7 7 8 11 9 8 10 10 11 12 12
REMARK SMILES IDX 9 13 79 14 13 15 74 16 5 17 3 18 4 19 2 21 1 22 75 23 76 24
REMARK SMILES IDX 77 25 78 26 20 27 21 28 22 29 23 30 24 31 25 32 26 33 27 34
REMARK SMILES IDX 73 35 28 36 72 37 29 38 30 39 31 40 66 41 32 42 71 43 65 44
REMARK SMILES IDX 67 45 33 46 70 47 64 48 63 49 34 51 56 52 41 53 55 54 42 55
REMARK SMILES IDX 45 56 54 57 68 58 43 59 44 60 53 62 69 63 46 64 35 65 36 66
REMARK SMILES IDX 40 67 37 68 39 69 38 70 57 71 58 72 62 73 59 74 61 75 60 76
REMARK SMILES IDX 47 77 48 78 52 79 49 80 51 81 50 82
REMARK H PARENT 3 20 67 50 45 61
REMARK Flexibility Score: inf
ROOT
ATOM      1  C   UNL     1       6.454  -1.132  -9.810  1.00  0.00     0.202 C 
ENDROOT
BRANCH   1   2
ATOM      2  C   UNL     1       5.013  -0.661  -9.595  1.00  0.00     0.261 C 
BRANCH   2   3
ATOM      3  O   UNL     1       4.703  -0.486  -8.206  1.00  0.00    -0.460 OA
BRANCH   3   4
ATOM      4  C   UNL     1       3.844  -1.409  -7.711  1.00  0.00     0.338 C 
ATOM      5  O   UNL     1       3.235  -2.258  -8.340  1.00  0.00    -0.246 OA
BRANCH   4   6
ATOM      6  C   UNL     1       3.843  -1.340  -6.239  1.00  0.00     0.087 C 
ATOM      7  C   UNL     1       3.031  -2.525  -1.452  1.00  0.00     0.029 A 
ATOM      8  C   UNL     1       3.263  -1.318  -2.143  1.00  0.00     0.058 A 
ATOM      9  C   UNL     1       3.309  -3.729  -2.118  1.00  0.00     0.050 A 
ATOM     10  C   UNL     1       3.596  -1.314  -3.495  1.00  0.00     0.128 A 
ATOM     11  C   UNL     1       3.658  -3.725  -3.471  1.00  0.00     0.033 A 
ATOM     12  Cl  UNL     1       3.212  -5.270  -1.343  1.00  0.00    -0.084 Cl
ATOM     13  C   UNL     1       3.743  -2.520  -4.171  1.00  0.00     0.019 A 
ATOM     14  O   UNL     1       3.723  -0.090  -4.084  1.00  0.00    -0.475 OA
ATOM     15  C   UNL     1       3.889  -2.522  -5.612  1.00  0.00     0.027 C 
ATOM     16  C   UNL     1       3.772  -0.013  -5.537  1.00  0.00     0.316 C 
BRANCH   7  17
ATOM     17  C   UNL     1       2.413  -2.466  -0.068  1.00  0.00     0.300 C 
BRANCH  17  18
ATOM     18  N   UNL     1       0.937  -2.365  -0.017  1.00  0.00    -0.334 N 
ATOM     19  C   UNL     1       0.273  -3.554  -0.553  1.00  0.00     0.333 C 
ATOM     20  H   UNL     1       0.753  -2.299   0.985  1.00  0.00     0.348 HD
BRANCH  18  21
ATOM     21  C   UNL     1       0.355  -1.150  -0.599  1.00  0.00     0.258 C 
ATOM     22  C   UNL     1       0.730   0.122   0.152  1.00  0.00     0.071 C 
ENDBRANCH  18  21
ENDBRANCH  17  18
ENDBRANCH   7  17
BRANCH  16  23
ATOM     23  C   UNL     1       2.595   0.851  -6.013  1.00  0.00     0.430 C 
ATOM     24  F   UNL     1       2.530   2.015  -5.323  1.00  0.00    -0.167 F 
ATOM     25  F   UNL     1       2.712   1.185  -7.320  1.00  0.00    -0.167 F 
ATOM     26  F   UNL     1       1.409   0.222  -5.860  1.00  0.00    -0.167 F 
ENDBRANCH  16  23
ENDBRANCH   4   6
ENDBRANCH   3   4
ENDBRANCH   2   3
ENDBRANCH   1   2
BRANCH   1  27
ATOM     27  O   UNL     1       6.884  -2.305  -9.126  1.00  0.00    -0.374 OA
BRANCH  27  28
ATOM     28  C   UNL     1       7.156  -2.223  -7.728  1.00  0.00     0.202 C 
BRANCH  28  29
ATOM     29  C   UNL     1       8.374  -1.415  -7.259  1.00  0.00     0.261 C 
BRANCH  29  30
ATOM     30  O   UNL     1       8.250  -0.009  -7.532  1.00  0.00    -0.460 OA
BRANCH  30  31
ATOM     31  C   UNL     1       9.102   0.468  -8.474  1.00  0.00     0.338 C 
ATOM     32  O   UNL     1       9.963  -0.150  -9.079  1.00  0.00    -0.246 OA
BRANCH  31  33
ATOM     33  C   UNL     1       8.700   1.839  -8.831  1.00  0.00     0.060 A 
ATOM     34  C   UNL     1       8.687   2.855  -7.876  1.00  0.00     0.016 A 
ATOM     35  C   UNL     1       8.371   2.107 -10.166  1.00  0.00     0.016 A 
ATOM     36  C   UNL     1       8.361   4.155  -8.269  1.00  0.00     0.010 A 
ATOM     37  C   UNL     1       8.040   3.404 -10.555  1.00  0.00     0.010 A 
ATOM     38  C   UNL     1       8.053   4.441  -9.613  1.00  0.00    -0.014 A 
BRANCH  38  39
ATOM     39  C   UNL     1       7.887   5.845 -10.059  1.00  0.00     0.031 A 
ATOM     40  C   UNL     1       6.542   6.405 -10.408  1.00  0.00     0.074 A 
ATOM     41  C   UNL     1       8.989   6.611 -10.172  1.00  0.00     0.049 A 
ATOM     42  N   UNL     1       6.232   7.627 -10.758  1.00  0.00    -0.248 NA
ATOM     43  C   UNL     1       5.398   5.482 -10.362  1.00  0.00     0.031 C 
ATOM     44  C   UNL     1      10.351   6.159  -9.884  1.00  0.00     0.029 A 
ATOM     45  N   UNL     1       9.142   7.922 -10.546  1.00  0.00    -0.354 N 
ATOM     46  C   UNL     1       4.859   7.629 -10.957  1.00  0.00     0.074 A 
ATOM     47  C   UNL     1       4.399   6.274 -10.735  1.00  0.00     0.031 C 
ATOM     48  C   UNL     1      11.197   7.186 -10.056  1.00  0.00     0.029 A 
ATOM     49  C   UNL     1      10.445   8.354 -10.507  1.00  0.00     0.049 A 
ATOM     50  H   UNL     1       8.390   8.497 -10.815  1.00  0.00     0.167 HD
ATOM     51  C   UNL     1       4.059   8.673 -11.278  1.00  0.00     0.031 A 
ATOM     52  C   UNL     1      10.983   9.555 -10.800  1.00  0.00     0.031 A 
ATOM     53  C   UNL     1       4.535  10.013 -11.518  1.00  0.00     0.049 A 
ATOM     54  C   UNL     1      10.078  10.682 -11.211  1.00  0.00     0.074 A 
ATOM     55  C   UNL     1       3.790  11.144 -11.807  1.00  0.00     0.029 A 
ATOM     56  N   UNL     1       5.866  10.401 -11.512  1.00  0.00    -0.354 N 
ATOM     57  N   UNL     1       8.771  10.691 -11.312  1.00  0.00    -0.248 NA
ATOM     58  C   UNL     1      10.714  11.968 -11.534  1.00  0.00     0.031 C 
ATOM     59  C   UNL     1       4.673  12.194 -12.062  1.00  0.00     0.029 A 
ATOM     60  C   UNL     1       5.964  11.745 -11.837  1.00  0.00     0.049 A 
ATOM     61  H   UNL     1       6.627   9.811 -11.309  1.00  0.00     0.167 HD
ATOM     62  C   UNL     1       8.426  11.984 -11.683  1.00  0.00     0.074 A 
ATOM     63  C   UNL     1       9.659  12.737 -11.775  1.00  0.00     0.031 C 
ATOM     64  C   UNL     1       7.194  12.494 -11.924  1.00  0.00     0.031 A 
BRANCH  51  65
ATOM     65  C   UNL     1       2.577   8.435 -11.387  1.00  0.00    -0.014 A 
ATOM     66  C   UNL     1       1.927   8.614 -12.621  1.00  0.00     0.009 A 
ATOM     67  C   UNL     1       1.801   8.175 -10.247  1.00  0.00     0.009 A 
ATOM     68  C   UNL     1       0.534   8.563 -12.705  1.00  0.00     0.001 A 
ATOM     69  C   UNL     1       0.410   8.092 -10.340  1.00  0.00     0.001 A 
ATOM     70  C   UNL     1      -0.223   8.300 -11.565  1.00  0.00     0.000 A 
ENDBRANCH  51  65
BRANCH  52  71
ATOM     71  C   UNL     1      12.453   9.742 -10.669  1.00  0.00    -0.014 A 
ATOM     72  C   UNL     1      13.340   9.046 -11.509  1.00  0.00     0.009 A 
ATOM     73  C   UNL     1      12.982  10.557  -9.658  1.00  0.00     0.009 A 
ATOM     74  C   UNL     1      14.720   9.134 -11.316  1.00  0.00     0.001 A 
ATOM     75  C   UNL     1      14.364  10.672  -9.490  1.00  0.00     0.001 A 
ATOM     76  C   UNL     1      15.231   9.950 -10.309  1.00  0.00     0.000 A 
ENDBRANCH  52  71
BRANCH  64  77
ATOM     77  C   UNL     1       7.082  13.948 -12.302  1.00  0.00    -0.014 A 
ATOM     78  C   UNL     1       6.419  14.840 -11.441  1.00  0.00     0.009 A 
ATOM     79  C   UNL     1       7.497  14.405 -13.561  1.00  0.00     0.009 A 
ATOM     80  C   UNL     1       6.142  16.146 -11.846  1.00  0.00     0.001 A 
ATOM     81  C   UNL     1       7.250  15.724 -13.950  1.00  0.00     0.001 A 
ATOM     82  C   UNL     1       6.559  16.588 -13.100  1.00  0.00     0.000 A 
ENDBRANCH  64  77
ENDBRANCH  38  39
ENDBRANCH  31  33
ENDBRANCH  30  31
ENDBRANCH  29  30
ENDBRANCH  28  29
ENDBRANCH  27  28
ENDBRANCH   1  27
TORSDOF 18
