REMARK SMILES O=C(C[C@H](C(=O)OCCOCCOC(=O)c1ccc(-c2c3nc(c(-c4ccccc4)c4ccc([nH]4)c(-c4ccccc4)c4nc(c(-c5ccccc5)c5ccc2[nH]5)C=C4)C=C3)cc1)c1ccccc1)Nc1ccc(Cl)cc1Cl
REMARK SMILES IDX 9 1 8 2 7 3 5 4 6 5 4 6 3 7 2 8 1 9 70 10 71 12 72 13 77 14
REMARK SMILES IDX 73 15 76 16 78 17 74 18 75 19 64 20 65 21 69 22 66 23 68 24
REMARK SMILES IDX 67 25 10 26 11 27 12 28 13 29 14 30 15 31 16 32 17 33 63 34
REMARK SMILES IDX 18 35 62 36 19 37 20 38 21 39 56 40 22 41 61 42 55 43 57 44
REMARK SMILES IDX 23 45 60 46 54 47 53 48 24 50 46 51 31 52 45 53 32 54 35 55
REMARK SMILES IDX 44 56 58 57 33 58 34 59 43 61 59 62 36 63 25 64 26 65 30 66
REMARK SMILES IDX 27 67 29 68 28 69 47 70 48 71 52 72 49 73 51 74 50 75 37 76
REMARK SMILES IDX 38 77 42 78 39 79 41 80 40 81
REMARK H PARENT 70 11 57 49 35 60
REMARK Flexibility Score: inf
ROOT
ATOM      1  C   UNL     1       0.398   1.046   1.982  1.00  0.00     0.202 C 
ENDROOT
BRANCH   1   2
ATOM      2  C   UNL     1       1.353   1.095   0.786  1.00  0.00     0.261 C 
BRANCH   2   3
ATOM      3  O   UNL     1       2.177  -0.087   0.751  1.00  0.00    -0.463 OA
BRANCH   3   4
ATOM      4  C   UNL     1       3.525   0.125   0.819  1.00  0.00     0.314 C 
ATOM      5  O   UNL     1       4.064   1.222   0.802  1.00  0.00    -0.252 OA
BRANCH   4   6
ATOM      6  C   UNL     1       4.254  -1.213   0.963  1.00  0.00     0.138 C 
BRANCH   6   7
ATOM      7  C   UNL     1       5.226  -1.436  -0.200  1.00  0.00     0.120 C 
BRANCH   7   8
ATOM      8  C   UNL     1       4.696  -0.870  -1.507  1.00  0.00     0.225 C 
ATOM      9  O   UNL     1       5.212   0.123  -2.005  1.00  0.00    -0.275 OA
ATOM     10  N   UNL     1       3.549  -1.501  -1.964  1.00  0.00    -0.325 N 
ATOM     11  H   UNL     1       3.232  -2.289  -1.466  1.00  0.00     0.169 HD
BRANCH  10  12
ATOM     12  C   UNL     1       2.800  -1.091  -3.095  1.00  0.00     0.060 A 
ATOM     13  C   UNL     1       1.403  -1.169  -2.955  1.00  0.00     0.029 A 
ATOM     14  C   UNL     1       3.330  -0.624  -4.312  1.00  0.00     0.066 A 
ATOM     15  C   UNL     1       0.556  -0.709  -3.966  1.00  0.00     0.023 A 
ATOM     16  C   UNL     1       2.477  -0.155  -5.319  1.00  0.00     0.043 A 
ATOM     17  Cl  UNL     1       4.995  -0.796  -4.754  1.00  0.00    -0.082 Cl
ATOM     18  C   UNL     1       1.098  -0.187  -5.136  1.00  0.00     0.042 A 
ATOM     19  Cl  UNL     1       0.055   0.384  -6.378  1.00  0.00    -0.084 Cl
ENDBRANCH  10  12
ENDBRANCH   7   8
ENDBRANCH   6   7
BRANCH   6  20
ATOM     20  C   UNL     1       4.907  -1.405   2.330  1.00  0.00    -0.033 A 
ATOM     21  C   UNL     1       4.911  -2.675   2.930  1.00  0.00     0.004 A 
ATOM     22  C   UNL     1       5.497  -0.341   3.033  1.00  0.00     0.004 A 
ATOM     23  C   UNL     1       5.447  -2.861   4.209  1.00  0.00     0.000 A 
ATOM     24  C   UNL     1       6.016  -0.525   4.316  1.00  0.00     0.000 A 
ATOM     25  C   UNL     1       5.986  -1.784   4.907  1.00  0.00     0.000 A 
ENDBRANCH   6  20
ENDBRANCH   4   6
ENDBRANCH   3   4
ENDBRANCH   2   3
ENDBRANCH   1   2
BRANCH   1  26
ATOM     26  O   UNL     1       0.957   1.353   3.259  1.00  0.00    -0.374 OA
BRANCH  26  27
ATOM     27  C   UNL     1       1.894   0.435   3.817  1.00  0.00     0.202 C 
BRANCH  27  28
ATOM     28  C   UNL     1       1.315  -0.806   4.502  1.00  0.00     0.261 C 
BRANCH  28  29
ATOM     29  O   UNL     1       0.526  -1.614   3.611  1.00  0.00    -0.460 OA
BRANCH  29  30
ATOM     30  C   UNL     1      -0.806  -1.564   3.846  1.00  0.00     0.338 C 
ATOM     31  O   UNL     1      -1.385  -0.967   4.745  1.00  0.00    -0.246 OA
BRANCH  30  32
ATOM     32  C   UNL     1      -1.539  -2.227   2.756  1.00  0.00     0.060 A 
ATOM     33  C   UNL     1      -2.535  -1.488   2.105  1.00  0.00     0.016 A 
ATOM     34  C   UNL     1      -1.332  -3.572   2.445  1.00  0.00     0.016 A 
ATOM     35  C   UNL     1      -3.363  -2.105   1.172  1.00  0.00     0.010 A 
ATOM     36  C   UNL     1      -2.173  -4.195   1.516  1.00  0.00     0.010 A 
ATOM     37  C   UNL     1      -3.214  -3.472   0.905  1.00  0.00    -0.014 A 
BRANCH  37  38
ATOM     38  C   UNL     1      -4.249  -4.170   0.107  1.00  0.00     0.031 A 
ATOM     39  C   UNL     1      -5.351  -4.902   0.824  1.00  0.00     0.074 A 
ATOM     40  C   UNL     1      -4.236  -4.114  -1.236  1.00  0.00     0.049 A 
ATOM     41  N   UNL     1      -6.358  -5.574   0.327  1.00  0.00    -0.248 NA
ATOM     42  C   UNL     1      -5.315  -4.867   2.295  1.00  0.00     0.031 C 
ATOM     43  C   UNL     1      -3.253  -3.393  -2.044  1.00  0.00     0.029 A 
ATOM     44  N   UNL     1      -5.085  -4.674  -2.155  1.00  0.00    -0.354 N 
ATOM     45  C   UNL     1      -7.075  -6.040   1.422  1.00  0.00     0.074 A 
ATOM     46  C   UNL     1      -6.372  -5.601   2.608  1.00  0.00     0.031 C 
ATOM     47  C   UNL     1      -3.557  -3.555  -3.343  1.00  0.00     0.029 A 
ATOM     48  C   UNL     1      -4.736  -4.412  -3.456  1.00  0.00     0.049 A 
ATOM     49  H   UNL     1      -5.871  -5.212  -1.905  1.00  0.00     0.167 HD
ATOM     50  C   UNL     1      -8.220  -6.762   1.440  1.00  0.00     0.031 A 
ATOM     51  C   UNL     1      -5.297  -4.829  -4.607  1.00  0.00     0.031 A 
ATOM     52  C   UNL     1      -8.912  -7.215   0.264  1.00  0.00     0.049 A 
ATOM     53  C   UNL     1      -6.520  -5.704  -4.561  1.00  0.00     0.074 A 
ATOM     54  C   UNL     1     -10.079  -7.954   0.179  1.00  0.00     0.029 A 
ATOM     55  N   UNL     1      -8.493  -6.977  -1.035  1.00  0.00    -0.354 N 
ATOM     56  N   UNL     1      -7.193  -6.129  -3.519  1.00  0.00    -0.248 NA
ATOM     57  C   UNL     1      -7.062  -6.153  -5.852  1.00  0.00     0.031 C 
ATOM     58  C   UNL     1     -10.341  -8.203  -1.172  1.00  0.00     0.029 A 
ATOM     59  C   UNL     1      -9.365  -7.574  -1.929  1.00  0.00     0.049 A 
ATOM     60  H   UNL     1      -7.694  -6.459  -1.286  1.00  0.00     0.167 HD
ATOM     61  C   UNL     1      -8.251  -6.872  -4.029  1.00  0.00     0.074 A 
ATOM     62  C   UNL     1      -8.136  -6.831  -5.472  1.00  0.00     0.031 C 
ATOM     63  C   UNL     1      -9.233  -7.527  -3.362  1.00  0.00     0.031 A 
BRANCH  50  64
ATOM     64  C   UNL     1      -8.777  -7.134   2.785  1.00  0.00    -0.014 A 
ATOM     65  C   UNL     1      -9.400  -6.179   3.603  1.00  0.00     0.009 A 
ATOM     66  C   UNL     1      -8.700  -8.463   3.228  1.00  0.00     0.009 A 
ATOM     67  C   UNL     1      -9.907  -6.542   4.853  1.00  0.00     0.001 A 
ATOM     68  C   UNL     1      -9.229  -8.828   4.467  1.00  0.00     0.001 A 
ATOM     69  C   UNL     1      -9.824  -7.866   5.282  1.00  0.00     0.000 A 
ENDBRANCH  50  64
BRANCH  51  70
ATOM     70  C   UNL     1      -4.700  -4.433  -5.908  1.00  0.00    -0.014 A 
ATOM     71  C   UNL     1      -5.355  -3.520  -6.748  1.00  0.00     0.009 A 
ATOM     72  C   UNL     1      -3.474  -4.979  -6.321  1.00  0.00     0.009 A 
ATOM     73  C   UNL     1      -4.802  -3.175  -7.984  1.00  0.00     0.001 A 
ATOM     74  C   UNL     1      -2.912  -4.613  -7.545  1.00  0.00     0.001 A 
ATOM     75  C   UNL     1      -3.580  -3.718  -8.379  1.00  0.00     0.000 A 
ENDBRANCH  51  70
BRANCH  63  76
ATOM     76  C   UNL     1     -10.276  -8.226  -4.185  1.00  0.00    -0.014 A 
ATOM     77  C   UNL     1      -9.992  -9.428  -4.852  1.00  0.00     0.009 A 
ATOM     78  C   UNL     1     -11.575  -7.697  -4.257  1.00  0.00     0.009 A 
ATOM     79  C   UNL     1     -10.982 -10.070  -5.600  1.00  0.00     0.001 A 
ATOM     80  C   UNL     1     -12.568  -8.355  -4.984  1.00  0.00     0.001 A 
ATOM     81  C   UNL     1     -12.268  -9.536  -5.661  1.00  0.00     0.000 A 
ENDBRANCH  63  76
ENDBRANCH  37  38
ENDBRANCH  30  32
ENDBRANCH  29  30
ENDBRANCH  28  29
ENDBRANCH  27  28
ENDBRANCH  26  27
ENDBRANCH   1  26
TORSDOF 18
