REMARK SMILES O=C(Cc1ccn(C(F)F)c(=O)c1)OCCOCCOC(=O)c1ccc(-c2c3nc(c(-c4ccccc4)c4ccc([nH]4)c(-c4ccccc4)c4nc(c(-c5ccccc5)c5ccc2[nH]5)C=C4)C=C3)cc1
REMARK SMILES IDX 17 1 16 2 15 3 14 4 2 5 1 6 3 7 4 8 5 9 13 10 6 11 11 12
REMARK SMILES IDX 7 13 12 14 8 15 9 16 10 17 18 18 19 19 20 20 21 21 22 22
REMARK SMILES IDX 23 23 24 24 70 25 25 26 69 27 26 28 27 29 28 30 63 31 29 32
REMARK SMILES IDX 68 33 62 34 64 35 30 36 67 37 61 38 60 39 31 41 53 42 38 43
REMARK SMILES IDX 52 44 39 45 42 46 51 47 65 48 40 49 41 50 50 52 66 53 43 54
REMARK SMILES IDX 32 55 33 56 37 57 34 58 36 59 35 60 54 61 55 62 59 63 56 64
REMARK SMILES IDX 58 65 57 66 44 67 45 68 49 69 46 70 48 71 47 72
REMARK H PARENT 64 40 42 51
REMARK Flexibility Score: inf
ROOT
ATOM      1  O   UNL     1       4.155  -1.139   1.490  1.00  0.00    -0.374 OA
ENDROOT
BRANCH   1   2
ATOM      2  C   UNL     1       4.878  -0.006   1.035  1.00  0.00     0.202 C 
BRANCH   2   3
ATOM      3  C   UNL     1       4.354   0.723  -0.199  1.00  0.00     0.261 C 
BRANCH   3   4
ATOM      4  O   UNL     1       2.932   0.896  -0.262  1.00  0.00    -0.463 OA
BRANCH   4   5
ATOM      5  C   UNL     1       2.082   0.056  -0.901  1.00  0.00     0.310 C 
ATOM      6  O   UNL     1       0.912   0.395  -1.076  1.00  0.00    -0.252 OA
BRANCH   5   7
ATOM      7  C   UNL     1       2.565  -1.317  -1.343  1.00  0.00     0.158 C 
BRANCH   7   8
ATOM      8  C   UNL     1       3.523  -1.404  -2.499  1.00  0.00    -0.030 A 
ATOM      9  C   UNL     1       3.724  -0.279  -3.391  1.00  0.00     0.023 A 
ATOM     10  C   UNL     1       4.243  -2.524  -2.692  1.00  0.00     0.076 A 
ATOM     11  C   UNL     1       4.662  -0.334  -4.343  1.00  0.00     0.095 A 
ATOM     12  C   UNL     1       5.218  -2.634  -3.811  1.00  0.00     0.255 A 
ATOM     13  N   UNL     1       5.413  -1.477  -4.547  1.00  0.00    -0.258 N 
ATOM     14  O   UNL     1       5.778  -3.710  -3.992  1.00  0.00    -0.269 OA
BRANCH  13  15
ATOM     15  C   UNL     1       6.319  -1.550  -5.664  1.00  0.00     0.451 C 
ATOM     16  F   UNL     1       7.478  -2.173  -5.344  1.00  0.00    -0.185 F 
ATOM     17  F   UNL     1       5.746  -2.225  -6.689  1.00  0.00    -0.185 F 
ENDBRANCH  13  15
ENDBRANCH   7   8
ENDBRANCH   5   7
ENDBRANCH   4   5
ENDBRANCH   3   4
ENDBRANCH   2   3
ENDBRANCH   1   2
BRANCH   1  18
ATOM     18  C   UNL     1       2.947  -0.914   2.224  1.00  0.00     0.202 C 
BRANCH  18  19
ATOM     19  C   UNL     1       3.073  -0.304   3.624  1.00  0.00     0.261 C 
BRANCH  19  20
ATOM     20  O   UNL     1       3.364   1.103   3.557  1.00  0.00    -0.460 OA
BRANCH  20  21
ATOM     21  C   UNL     1       4.589   1.475   3.999  1.00  0.00     0.338 C 
ATOM     22  O   UNL     1       5.450   0.764   4.489  1.00  0.00    -0.246 OA
BRANCH  21  23
ATOM     23  C   UNL     1       4.831   2.864   3.566  1.00  0.00     0.060 A 
ATOM     24  C   UNL     1       3.903   3.869   3.838  1.00  0.00     0.016 A 
ATOM     25  C   UNL     1       6.022   3.154   2.884  1.00  0.00     0.016 A 
ATOM     26  C   UNL     1       4.188   5.179   3.457  1.00  0.00     0.010 A 
ATOM     27  C   UNL     1       6.304   4.464   2.502  1.00  0.00     0.010 A 
ATOM     28  C   UNL     1       5.400   5.488   2.812  1.00  0.00    -0.014 A 
BRANCH  28  29
ATOM     29  C   UNL     1       5.789   6.905   2.632  1.00  0.00     0.031 A 
ATOM     30  C   UNL     1       5.730   7.577   1.298  1.00  0.00     0.074 A 
ATOM     31  C   UNL     1       6.202   7.580   3.722  1.00  0.00     0.049 A 
ATOM     32  N   UNL     1       5.940   8.836   1.010  1.00  0.00    -0.248 NA
ATOM     33  C   UNL     1       5.399   6.738   0.137  1.00  0.00     0.031 C 
ATOM     34  C   UNL     1       6.321   7.004   5.064  1.00  0.00     0.029 A 
ATOM     35  N   UNL     1       6.575   8.889   3.885  1.00  0.00    -0.354 N 
ATOM     36  C   UNL     1       5.747   8.949  -0.359  1.00  0.00     0.074 A 
ATOM     37  C   UNL     1       5.452   7.620  -0.854  1.00  0.00     0.031 C 
ATOM     38  C   UNL     1       6.693   7.966   5.920  1.00  0.00     0.029 A 
ATOM     39  C   UNL     1       6.878   9.213   5.185  1.00  0.00     0.049 A 
ATOM     40  H   UNL     1       6.622   9.534   3.142  1.00  0.00     0.167 HD
ATOM     41  C   UNL     1       5.794  10.068  -1.120  1.00  0.00     0.031 A 
ATOM     42  C   UNL     1       7.253  10.385   5.732  1.00  0.00     0.031 A 
ATOM     43  C   UNL     1       6.112  11.378  -0.610  1.00  0.00     0.049 A 
ATOM     44  C   UNL     1       7.342  11.600   4.853  1.00  0.00     0.074 A 
ATOM     45  C   UNL     1       6.148  12.579  -1.299  1.00  0.00     0.029 A 
ATOM     46  N   UNL     1       6.461  11.660   0.703  1.00  0.00    -0.354 N 
ATOM     47  N   UNL     1       7.074  11.711   3.575  1.00  0.00    -0.248 NA
ATOM     48  C   UNL     1       7.768  12.853   5.490  1.00  0.00     0.031 C 
ATOM     49  C   UNL     1       6.596  13.570  -0.424  1.00  0.00     0.029 A 
ATOM     50  C   UNL     1       6.753  13.008   0.833  1.00  0.00     0.049 A 
ATOM     51  H   UNL     1       6.496  11.001   1.433  1.00  0.00     0.167 HD
ATOM     52  C   UNL     1       7.276  13.047   3.257  1.00  0.00     0.074 A 
ATOM     53  C   UNL     1       7.669  13.712   4.483  1.00  0.00     0.031 C 
ATOM     54  C   UNL     1       7.148  13.662   2.057  1.00  0.00     0.031 A 
BRANCH  41  55
ATOM     55  C   UNL     1       5.489   9.946  -2.590  1.00  0.00    -0.014 A 
ATOM     56  C   UNL     1       6.485  10.233  -3.538  1.00  0.00     0.009 A 
ATOM     57  C   UNL     1       4.187   9.676  -3.037  1.00  0.00     0.009 A 
ATOM     58  C   UNL     1       6.178  10.275  -4.900  1.00  0.00     0.001 A 
ATOM     59  C   UNL     1       3.889   9.688  -4.402  1.00  0.00     0.001 A 
ATOM     60  C   UNL     1       4.881  10.000  -5.331  1.00  0.00     0.000 A 
ENDBRANCH  41  55
BRANCH  42  61
ATOM     61  C   UNL     1       7.523  10.451   7.193  1.00  0.00    -0.014 A 
ATOM     62  C   UNL     1       8.604   9.749   7.752  1.00  0.00     0.009 A 
ATOM     63  C   UNL     1       6.662  11.155   8.047  1.00  0.00     0.009 A 
ATOM     64  C   UNL     1       8.798   9.722   9.134  1.00  0.00     0.001 A 
ATOM     65  C   UNL     1       6.879  11.156   9.428  1.00  0.00     0.001 A 
ATOM     66  C   UNL     1       7.938  10.430   9.971  1.00  0.00     0.000 A 
ENDBRANCH  42  61
BRANCH  54  67
ATOM     67  C   UNL     1       7.428  15.140   1.986  1.00  0.00    -0.014 A 
ATOM     68  C   UNL     1       6.388  16.032   1.672  1.00  0.00     0.009 A 
ATOM     69  C   UNL     1       8.733  15.639   2.110  1.00  0.00     0.009 A 
ATOM     70  C   UNL     1       6.654  17.385   1.455  1.00  0.00     0.001 A 
ATOM     71  C   UNL     1       8.990  17.000   1.928  1.00  0.00     0.001 A 
ATOM     72  C   UNL     1       7.954  17.868   1.587  1.00  0.00     0.000 A 
ENDBRANCH  54  67
ENDBRANCH  28  29
ENDBRANCH  21  23
ENDBRANCH  20  21
ENDBRANCH  19  20
ENDBRANCH  18  19
ENDBRANCH   1  18
TORSDOF 16
