REMARK SMILES Cc1ccc(C(C)(C)C)c(OCC(=O)c2nc(C)c(C(=O)OCCOCCOC(=O)c3ccc(-c4c5nc(c(-c6ccccc6)c6ccc([nH]6)c(-c6ccccc6)c6nc(c(-c7ccccc7)c7ccc4[nH]7)C=C6)C=C5)cc3)s2)c1
REMARK SMILES IDX 23 1 22 2 20 3 21 4 19 5 15 6 16 7 79 8 17 9 18 10 13 11
REMARK SMILES IDX 14 12 12 13 11 14 10 15 1 16 2 17 3 18 80 19 4 20 5 21 6 22
REMARK SMILES IDX 7 23 8 24 9 25 24 26 25 27 26 28 27 29 28 30 29 31 30 32
REMARK SMILES IDX 31 33 32 34 78 35 33 36 77 37 34 38 35 39 36 40 71 41 37 42
REMARK SMILES IDX 76 43 70 44 72 45 38 46 75 47 69 48 68 49 39 51 61 52 46 53
REMARK SMILES IDX 60 54 47 55 50 56 59 57 73 58 48 59 49 60 58 62 74 63 51 64
REMARK SMILES IDX 40 65 41 66 45 67 42 68 44 69 43 70 62 71 63 72 67 73 64 74
REMARK SMILES IDX 66 75 65 76 52 77 53 78 57 79 54 80 56 81 55 82
REMARK H PARENT 72 50 50 61
REMARK Flexibility Score: inf
ROOT
ATOM      1  C   UNL     1      -3.838   3.898   6.453  1.00  0.00     0.261 C 
ENDROOT
BRANCH   1   2
ATOM      2  O   UNL     1      -2.544   3.927   5.865  1.00  0.00    -0.459 OA
BRANCH   2   3
ATOM      3  C   UNL     1      -2.280   2.951   4.947  1.00  0.00     0.350 C 
ATOM      4  O   UNL     1      -2.850   1.885   4.872  1.00  0.00    -0.245 OA
BRANCH   3   5
ATOM      5  C   UNL     1      -1.339   3.500   3.999  1.00  0.00     0.136 A 
ATOM      6  C   UNL     1      -0.243   3.967   1.904  1.00  0.00     0.164 A 
ATOM      7  N   UNL     1      -0.006   4.947   2.752  1.00  0.00    -0.237 NA
ATOM      8  S   UNL     1      -1.062   2.628   2.559  1.00  0.00    -0.103 S 
ATOM      9  C   UNL     1      -0.639   4.696   3.963  1.00  0.00     0.064 A 
ATOM     10  C   UNL     1      -0.520   5.756   5.005  1.00  0.00     0.068 C 
BRANCH   6  11
ATOM     11  C   UNL     1       0.204   4.013   0.523  1.00  0.00     0.228 C 
ATOM     12  O   UNL     1       1.299   4.479   0.185  1.00  0.00    -0.288 OA
BRANCH  11  13
ATOM     13  C   UNL     1      -0.799   3.603  -0.578  1.00  0.00     0.313 C 
BRANCH  13  14
ATOM     14  O   UNL     1      -1.560   2.413  -0.546  1.00  0.00    -0.485 OA
BRANCH  14  15
ATOM     15  C   UNL     1      -0.939   1.200  -0.435  1.00  0.00     0.123 A 
ATOM     16  C   UNL     1       2.594  -0.223  -0.156  1.00  0.00     0.044 C 
ATOM     17  C   UNL     1       1.099  -0.137  -0.209  1.00  0.00    -0.047 A 
ATOM     18  C   UNL     1       0.319  -1.266   0.004  1.00  0.00     0.004 A 
ATOM     19  C   UNL     1       0.462   1.075  -0.483  1.00  0.00     0.050 A 
ATOM     20  C   UNL     1      -1.074  -1.168  -0.012  1.00  0.00     0.008 A 
ATOM     21  C   UNL     1      -1.748   0.063  -0.200  1.00  0.00    -0.000 A 
BRANCH  21  22
ATOM     22  C   UNL     1      -3.300   0.043  -0.142  1.00  0.00    -0.010 C 
ATOM     23  C   UNL     1      -3.822  -0.739  -1.369  1.00  0.00     0.016 C 
ATOM     24  C   UNL     1      -3.783  -0.672   1.148  1.00  0.00     0.016 C 
ATOM     25  C   UNL     1      -4.019   1.411  -0.148  1.00  0.00     0.016 C 
ENDBRANCH  21  22
ENDBRANCH  14  15
ENDBRANCH  13  14
ENDBRANCH  11  13
ENDBRANCH   6  11
ENDBRANCH   3   5
ENDBRANCH   2   3
ENDBRANCH   1   2
BRANCH   1  26
ATOM     26  C   UNL     1      -4.821   4.652   5.612  1.00  0.00     0.202 C 
BRANCH  26  27
ATOM     27  O   UNL     1      -5.451   3.691   4.781  1.00  0.00    -0.374 OA
BRANCH  27  28
ATOM     28  C   UNL     1      -6.601   4.167   4.096  1.00  0.00     0.202 C 
BRANCH  28  29
ATOM     29  C   UNL     1      -7.698   4.720   5.025  1.00  0.00     0.261 C 
BRANCH  29  30
ATOM     30  O   UNL     1      -8.066   3.706   5.984  1.00  0.00    -0.460 OA
BRANCH  30  31
ATOM     31  C   UNL     1      -7.741   3.939   7.286  1.00  0.00     0.338 C 
ATOM     32  O   UNL     1      -7.805   5.015   7.856  1.00  0.00    -0.246 OA
BRANCH  31  33
ATOM     33  C   UNL     1      -6.985   2.765   7.818  1.00  0.00     0.060 A 
ATOM     34  C   UNL     1      -6.252   2.889   9.015  1.00  0.00     0.016 A 
ATOM     35  C   UNL     1      -6.731   1.695   6.963  1.00  0.00     0.016 A 
ATOM     36  C   UNL     1      -5.157   2.043   9.266  1.00  0.00     0.010 A 
ATOM     37  C   UNL     1      -5.604   0.923   7.175  1.00  0.00     0.010 A 
ATOM     38  C   UNL     1      -4.781   1.111   8.299  1.00  0.00    -0.014 A 
BRANCH  38  39
ATOM     39  C   UNL     1      -3.484   0.418   8.235  1.00  0.00     0.031 A 
ATOM     40  C   UNL     1      -3.443  -1.059   8.178  1.00  0.00     0.074 A 
ATOM     41  C   UNL     1      -2.326   1.085   8.001  1.00  0.00     0.049 A 
ATOM     42  N   UNL     1      -2.394  -1.754   8.467  1.00  0.00    -0.248 NA
ATOM     43  C   UNL     1      -4.593  -1.889   7.836  1.00  0.00     0.031 C 
ATOM     44  C   UNL     1      -1.094   0.574   7.397  1.00  0.00     0.029 A 
ATOM     45  N   UNL     1      -2.001   2.394   8.302  1.00  0.00    -0.354 N 
ATOM     46  C   UNL     1      -2.615  -3.033   8.017  1.00  0.00     0.074 A 
ATOM     47  C   UNL     1      -4.030  -3.095   7.742  1.00  0.00     0.031 C 
ATOM     48  C   UNL     1      -0.111   1.485   7.522  1.00  0.00     0.029 A 
ATOM     49  C   UNL     1      -0.621   2.583   8.321  1.00  0.00     0.049 A 
ATOM     50  H   UNL     1      -2.661   3.103   8.480  1.00  0.00     0.167 HD
ATOM     51  C   UNL     1      -1.551  -3.847   7.771  1.00  0.00     0.031 A 
ATOM     52  C   UNL     1      -0.034   3.200   9.384  1.00  0.00     0.031 A 
ATOM     53  C   UNL     1      -0.276  -3.165   8.043  1.00  0.00     0.049 A 
ATOM     54  C   UNL     1       0.774   2.171  10.119  1.00  0.00     0.074 A 
ATOM     55  C   UNL     1       0.676  -2.607   7.204  1.00  0.00     0.029 A 
ATOM     56  N   UNL     1       0.005  -2.686   9.323  1.00  0.00    -0.354 N 
ATOM     57  N   UNL     1       0.582   0.895   9.930  1.00  0.00    -0.248 NA
ATOM     58  C   UNL     1       1.861   2.439  11.055  1.00  0.00     0.031 C 
ATOM     59  C   UNL     1       1.486  -1.733   7.980  1.00  0.00     0.029 A 
ATOM     60  C   UNL     1       1.058  -1.788   9.297  1.00  0.00     0.049 A 
ATOM     61  H   UNL     1      -0.481  -2.951  10.137  1.00  0.00     0.167 HD
ATOM     62  C   UNL     1       1.508   0.186  10.613  1.00  0.00     0.074 A 
ATOM     63  C   UNL     1       2.264   1.187  11.347  1.00  0.00     0.031 C 
ATOM     64  C   UNL     1       1.562  -1.169  10.521  1.00  0.00     0.031 A 
BRANCH  51  65
ATOM     65  C   UNL     1      -1.655  -5.154   7.009  1.00  0.00    -0.014 A 
ATOM     66  C   UNL     1      -0.509  -5.707   6.410  1.00  0.00     0.009 A 
ATOM     67  C   UNL     1      -2.844  -5.882   6.823  1.00  0.00     0.009 A 
ATOM     68  C   UNL     1      -0.565  -6.864   5.617  1.00  0.00     0.001 A 
ATOM     69  C   UNL     1      -2.919  -7.015   6.000  1.00  0.00     0.001 A 
ATOM     70  C   UNL     1      -1.776  -7.505   5.391  1.00  0.00     0.000 A 
ENDBRANCH  51  65
BRANCH  52  71
ATOM     71  C   UNL     1      -0.911   4.275   9.953  1.00  0.00    -0.014 A 
ATOM     72  C   UNL     1      -1.051   5.450   9.178  1.00  0.00     0.009 A 
ATOM     73  C   UNL     1      -1.928   3.968  10.872  1.00  0.00     0.009 A 
ATOM     74  C   UNL     1      -2.233   6.201   9.209  1.00  0.00     0.001 A 
ATOM     75  C   UNL     1      -3.110   4.726  10.899  1.00  0.00     0.001 A 
ATOM     76  C   UNL     1      -3.279   5.814  10.041  1.00  0.00     0.000 A 
ENDBRANCH  52  71
BRANCH  64  77
ATOM     77  C   UNL     1       2.176  -2.010  11.588  1.00  0.00    -0.014 A 
ATOM     78  C   UNL     1       2.239  -1.590  12.925  1.00  0.00     0.009 A 
ATOM     79  C   UNL     1       2.534  -3.338  11.301  1.00  0.00     0.009 A 
ATOM     80  C   UNL     1       2.699  -2.443  13.927  1.00  0.00     0.001 A 
ATOM     81  C   UNL     1       2.946  -4.208  12.308  1.00  0.00     0.001 A 
ATOM     82  C   UNL     1       3.044  -3.755  13.618  1.00  0.00     0.000 A 
ENDBRANCH  64  77
ENDBRANCH  38  39
ENDBRANCH  31  33
ENDBRANCH  30  31
ENDBRANCH  29  30
ENDBRANCH  28  29
ENDBRANCH  27  28
ENDBRANCH  26  27
ENDBRANCH   1  26
TORSDOF 19
