REMARK SMILES CC[C@@H](C)C(=O)Nc1cccc(C(=O)OCCOCCOC(=O)c2ccc(-c3c4nc(c(-c5ccccc5)c5ccc([nH]5)c(-c5ccccc5)c5nc(c(-c6ccccc6)c6ccc3[nH]6)C=C5)C=C4)cc2)c1
REMARK SMILES IDX 17 1 16 2 15 3 13 4 14 5 12 6 8 7 9 8 72 9 10 10 11 11 7 12
REMARK SMILES IDX 5 13 6 14 3 16 4 17 2 18 1 19 18 20 19 21 20 22 21 23 22 24
REMARK SMILES IDX 23 25 24 26 25 27 71 28 26 29 70 30 27 31 28 32 29 33 64 34
REMARK SMILES IDX 30 35 69 36 63 37 65 38 31 39 68 40 62 41 61 42 32 44 54 45
REMARK SMILES IDX 39 46 53 47 40 48 43 49 52 50 66 51 41 52 42 53 51 55 67 56
REMARK SMILES IDX 44 57 33 58 34 59 38 60 35 61 37 62 36 63 55 64 56 65 60 66
REMARK SMILES IDX 57 67 59 68 58 69 45 70 46 71 50 72 47 73 49 74 48 75
REMARK H PARENT 7 15 65 43 43 54
REMARK Flexibility Score: inf
ROOT
ATOM      1  C   UNL     1      -2.262  -2.340   2.674  1.00  0.00     0.202 C 
ENDROOT
BRANCH   1   2
ATOM      2  C   UNL     1      -1.650  -2.228   1.274  1.00  0.00     0.261 C 
BRANCH   2   3
ATOM      3  O   UNL     1      -1.785  -0.901   0.742  1.00  0.00    -0.460 OA
BRANCH   3   4
ATOM      4  C   UNL     1      -2.598  -0.772  -0.338  1.00  0.00     0.338 C 
ATOM      5  O   UNL     1      -3.156  -1.674  -0.937  1.00  0.00    -0.246 OA
BRANCH   4   6
ATOM      6  C   UNL     1      -2.775   0.661  -0.690  1.00  0.00     0.062 A 
ATOM      7  C   UNL     1      -1.925   2.924  -0.740  1.00  0.00     0.042 A 
ATOM      8  C   UNL     1      -2.979   3.305  -1.570  1.00  0.00     0.026 A 
ATOM      9  C   UNL     1      -1.921   1.647  -0.197  1.00  0.00     0.041 A 
ATOM     10  C   UNL     1      -3.915   2.353  -1.985  1.00  0.00     0.003 A 
ATOM     11  C   UNL     1      -3.784   1.022  -1.585  1.00  0.00     0.016 A 
BRANCH   7  12
ATOM     12  N   UNL     1      -0.896   3.833  -0.476  1.00  0.00    -0.326 N 
ATOM     13  C   UNL     1       0.456   3.643  -0.360  1.00  0.00     0.227 C 
ATOM     14  O   UNL     1       1.115   4.590   0.089  1.00  0.00    -0.274 OA
ATOM     15  H   UNL     1      -1.192   4.763  -0.352  1.00  0.00     0.169 HD
BRANCH  13  16
ATOM     16  C   UNL     1       1.202   2.382  -0.857  1.00  0.00     0.075 C 
ATOM     17  C   UNL     1       0.745   1.897  -2.233  1.00  0.00     0.018 C 
BRANCH  16  18
ATOM     18  C   UNL     1       1.371   1.278   0.198  1.00  0.00     0.010 C 
ATOM     19  C   UNL     1       2.370   0.194  -0.180  1.00  0.00     0.005 C 
ENDBRANCH  16  18
ENDBRANCH  13  16
ENDBRANCH   7  12
ENDBRANCH   4   6
ENDBRANCH   3   4
ENDBRANCH   2   3
ENDBRANCH   1   2
BRANCH   1  20
ATOM     20  O   UNL     1      -3.675  -2.175   2.775  1.00  0.00    -0.374 OA
BRANCH  20  21
ATOM     21  C   UNL     1      -4.208  -0.861   2.626  1.00  0.00     0.202 C 
BRANCH  21  22
ATOM     22  C   UNL     1      -4.081   0.093   3.820  1.00  0.00     0.261 C 
BRANCH  22  23
ATOM     23  O   UNL     1      -2.726   0.284   4.257  1.00  0.00    -0.460 OA
BRANCH  23  24
ATOM     24  C   UNL     1      -2.432  -0.337   5.426  1.00  0.00     0.338 C 
ATOM     25  O   UNL     1      -3.186  -0.981   6.134  1.00  0.00    -0.246 OA
BRANCH  24  26
ATOM     26  C   UNL     1      -0.986  -0.253   5.702  1.00  0.00     0.060 A 
ATOM     27  C   UNL     1      -0.312  -1.450   5.973  1.00  0.00     0.016 A 
ATOM     28  C   UNL     1      -0.328   0.974   5.807  1.00  0.00     0.016 A 
ATOM     29  C   UNL     1       1.011  -1.422   6.406  1.00  0.00     0.010 A 
ATOM     30  C   UNL     1       0.999   1.001   6.249  1.00  0.00     0.010 A 
ATOM     31  C   UNL     1       1.661  -0.194   6.586  1.00  0.00    -0.014 A 
BRANCH  31  32
ATOM     32  C   UNL     1       2.981  -0.159   7.258  1.00  0.00     0.031 A 
ATOM     33  C   UNL     1       3.050   0.157   8.727  1.00  0.00     0.074 A 
ATOM     34  C   UNL     1       4.105  -0.441   6.577  1.00  0.00     0.049 A 
ATOM     35  N   UNL     1       4.097   0.241   9.508  1.00  0.00    -0.248 NA
ATOM     36  C   UNL     1       1.769   0.411   9.405  1.00  0.00     0.031 C 
ATOM     37  C   UNL     1       4.168  -0.805   5.162  1.00  0.00     0.029 A 
ATOM     38  N   UNL     1       5.412  -0.464   6.992  1.00  0.00    -0.354 N 
ATOM     39  C   UNL     1       3.603   0.561  10.767  1.00  0.00     0.074 A 
ATOM     40  C   UNL     1       2.167   0.683  10.640  1.00  0.00     0.031 C 
ATOM     41  C   UNL     1       5.452  -1.014   4.825  1.00  0.00     0.029 A 
ATOM     42  C   UNL     1       6.299  -0.769   5.990  1.00  0.00     0.049 A 
ATOM     43  H   UNL     1       5.687  -0.279   7.918  1.00  0.00     0.167 HD
ATOM     44  C   UNL     1       4.282   0.732  11.926  1.00  0.00     0.031 A 
ATOM     45  C   UNL     1       7.644  -0.829   6.008  1.00  0.00     0.031 A 
ATOM     46  C   UNL     1       5.711   0.628  12.054  1.00  0.00     0.049 A 
ATOM     47  C   UNL     1       8.383  -0.554   7.290  1.00  0.00     0.074 A 
ATOM     48  C   UNL     1       6.489   0.771  13.190  1.00  0.00     0.029 A 
ATOM     49  N   UNL     1       6.578   0.366  11.005  1.00  0.00    -0.354 N 
ATOM     50  N   UNL     1       7.902  -0.279   8.478  1.00  0.00    -0.248 NA
ATOM     51  C   UNL     1       9.851  -0.605   7.231  1.00  0.00     0.031 C 
ATOM     52  C   UNL     1       7.832   0.645  12.818  1.00  0.00     0.029 A 
ATOM     53  C   UNL     1       7.886   0.371  11.461  1.00  0.00     0.049 A 
ATOM     54  H   UNL     1       6.305   0.201  10.074  1.00  0.00     0.167 HD
ATOM     55  C   UNL     1       9.006  -0.149   9.312  1.00  0.00     0.074 A 
ATOM     56  C   UNL     1      10.179  -0.387   8.497  1.00  0.00     0.031 C 
ATOM     57  C   UNL     1       9.043   0.138  10.637  1.00  0.00     0.031 A 
BRANCH  44  58
ATOM     58  C   UNL     1       3.480   1.088  13.146  1.00  0.00    -0.014 A 
ATOM     59  C   UNL     1       2.663   0.140  13.783  1.00  0.00     0.009 A 
ATOM     60  C   UNL     1       3.558   2.385  13.677  1.00  0.00     0.009 A 
ATOM     61  C   UNL     1       1.915   0.495  14.908  1.00  0.00     0.001 A 
ATOM     62  C   UNL     1       2.828   2.729  14.816  1.00  0.00     0.001 A 
ATOM     63  C   UNL     1       2.000   1.788  15.424  1.00  0.00     0.000 A 
ENDBRANCH  44  58
BRANCH  45  64
ATOM     64  C   UNL     1       8.387  -1.152   4.763  1.00  0.00    -0.014 A 
ATOM     65  C   UNL     1       9.037  -2.386   4.618  1.00  0.00     0.009 A 
ATOM     66  C   UNL     1       8.454  -0.220   3.715  1.00  0.00     0.009 A 
ATOM     67  C   UNL     1       9.755  -2.674   3.455  1.00  0.00     0.001 A 
ATOM     68  C   UNL     1       9.152  -0.520   2.544  1.00  0.00     0.001 A 
ATOM     69  C   UNL     1       9.809  -1.743   2.418  1.00  0.00     0.000 A 
ENDBRANCH  45  64
BRANCH  57  70
ATOM     70  C   UNL     1      10.394   0.179  11.294  1.00  0.00    -0.014 A 
ATOM     71  C   UNL     1      11.277   1.248  11.077  1.00  0.00     0.009 A 
ATOM     72  C   UNL     1      10.770  -0.847  12.175  1.00  0.00     0.009 A 
ATOM     73  C   UNL     1      12.524   1.271  11.707  1.00  0.00     0.001 A 
ATOM     74  C   UNL     1      12.005  -0.807  12.823  1.00  0.00     0.001 A 
ATOM     75  C   UNL     1      12.884   0.247  12.582  1.00  0.00     0.000 A 
ENDBRANCH  57  70
ENDBRANCH  31  32
ENDBRANCH  24  26
ENDBRANCH  23  24
ENDBRANCH  22  23
ENDBRANCH  21  22
ENDBRANCH  20  21
ENDBRANCH   1  20
TORSDOF 17
