REMARK SMILES CC[NH2+][C@]1(C(=O)OCCOCCOC(=O)c2ccc(-c3c4nc(c(-c5ccccc5)c5ccc([nH]5)c(-c5ccccc5)c5nc(c(-c6ccccc6)c6ccc3[nH]6)C=C5)C=C4)cc2)CCC[C@@H]1CCSc1ccc(C)cc1
REMARK SMILES IDX 9 1 8 2 7 3 5 4 6 5 4 6 64 7 67 8 65 9 66 10 3 11 2 14 1 15
REMARK SMILES IDX 68 16 69 17 70 18 71 19 72 20 77 21 73 22 76 23 74 24 75 25
REMARK SMILES IDX 10 26 11 27 12 28 13 29 14 30 15 31 16 32 17 33 63 34 18 35
REMARK SMILES IDX 62 36 19 37 20 38 21 39 56 40 22 41 61 42 55 43 57 44 23 45
REMARK SMILES IDX 60 46 54 47 53 48 24 50 46 51 31 52 45 53 32 54 35 55 44 56
REMARK SMILES IDX 58 57 33 58 34 59 43 61 59 62 36 63 25 64 26 65 30 66 27 67
REMARK SMILES IDX 29 68 28 69 47 70 48 71 52 72 49 73 51 74 50 75 37 76 38 77
REMARK SMILES IDX 42 78 39 79 41 80 40 81
REMARK H PARENT 3 12 3 13 57 49 35 60
REMARK Flexibility Score: inf
ROOT
ATOM      1  C   UNL     1       2.273  -1.024  -0.016  1.00  0.00     0.202 C 
ENDROOT
BRANCH   1   2
ATOM      2  C   UNL     1       1.677  -1.696  -1.266  1.00  0.00     0.261 C 
BRANCH   2   3
ATOM      3  O   UNL     1       1.367  -0.785  -2.341  1.00  0.00    -0.459 OA
BRANCH   3   4
ATOM      4  C   UNL     1       0.035  -0.589  -2.517  1.00  0.00     0.368 C 
ATOM      5  O   UNL     1      -0.820  -1.267  -1.944  1.00  0.00    -0.245 OA
BRANCH   4   6
ATOM      6  C   UNL     1      -0.364   0.573  -3.482  1.00  0.00     0.197 C 
ATOM      7  C   UNL     1      -0.002   2.002  -2.988  1.00  0.00     0.081 C 
ATOM      8  C   UNL     1       0.362   0.696  -4.865  1.00  0.00     0.063 C 
ATOM      9  C   UNL     1      -0.339   2.921  -4.163  1.00  0.00     0.008 C 
ATOM     10  C   UNL     1      -0.296   1.996  -5.377  1.00  0.00     0.011 C 
BRANCH   6  11
ATOM     11  N   UNL     1      -1.860   0.449  -3.688  1.00  0.00    -0.332 N 
ATOM     12  H   UNL     1      -2.107   0.911  -4.563  1.00  0.00     0.347 HD
ATOM     13  H   UNL     1      -2.082  -0.547  -3.705  1.00  0.00     0.347 HD
BRANCH  11  14
ATOM     14  C   UNL     1      -2.645   1.054  -2.599  1.00  0.00     0.257 C 
ATOM     15  C   UNL     1      -4.117   0.723  -2.751  1.00  0.00     0.071 C 
ENDBRANCH  11  14
ENDBRANCH   6  11
BRANCH   8  16
ATOM     16  C   UNL     1       0.365  -0.461  -5.865  1.00  0.00     0.022 C 
BRANCH  16  17
ATOM     17  C   UNL     1       0.523  -0.068  -7.356  1.00  0.00     0.075 C 
BRANCH  17  18
ATOM     18  S   UNL     1       2.184   0.469  -7.976  1.00  0.00    -0.126 SA
BRANCH  18  19
ATOM     19  C   UNL     1       2.334   2.163  -7.427  1.00  0.00     0.007 A 
ATOM     20  C   UNL     1       3.112   2.415  -6.294  1.00  0.00     0.015 A 
ATOM     21  C   UNL     1       1.689   3.239  -8.054  1.00  0.00     0.015 A 
ATOM     22  C   UNL     1       3.152   3.689  -5.720  1.00  0.00     0.004 A 
ATOM     23  C   UNL     1       1.731   4.522  -7.479  1.00  0.00     0.004 A 
ATOM     24  C   UNL     1       2.443   4.750  -6.293  1.00  0.00    -0.051 A 
ATOM     25  C   UNL     1       2.366   6.073  -5.586  1.00  0.00     0.044 C 
ENDBRANCH  18  19
ENDBRANCH  17  18
ENDBRANCH  16  17
ENDBRANCH   8  16
ENDBRANCH   4   6
ENDBRANCH   3   4
ENDBRANCH   2   3
ENDBRANCH   1   2
BRANCH   1  26
ATOM     26  O   UNL     1       1.776   0.243   0.398  1.00  0.00    -0.374 OA
BRANCH  26  27
ATOM     27  C   UNL     1       2.096   1.356  -0.431  1.00  0.00     0.202 C 
BRANCH  27  28
ATOM     28  C   UNL     1       3.525   1.903  -0.442  1.00  0.00     0.261 C 
BRANCH  28  29
ATOM     29  O   UNL     1       4.444   0.972  -1.041  1.00  0.00    -0.460 OA
BRANCH  29  30
ATOM     30  C   UNL     1       5.337   0.423  -0.187  1.00  0.00     0.338 C 
ATOM     31  O   UNL     1       5.498   0.695   0.996  1.00  0.00    -0.246 OA
BRANCH  30  32
ATOM     32  C   UNL     1       5.962  -0.746  -0.825  1.00  0.00     0.060 A 
ATOM     33  C   UNL     1       5.799  -1.994  -0.205  1.00  0.00     0.016 A 
ATOM     34  C   UNL     1       6.721  -0.622  -1.988  1.00  0.00     0.016 A 
ATOM     35  C   UNL     1       6.409  -3.124  -0.737  1.00  0.00     0.010 A 
ATOM     36  C   UNL     1       7.356  -1.754  -2.506  1.00  0.00     0.010 A 
ATOM     37  C   UNL     1       7.218  -3.003  -1.872  1.00  0.00    -0.014 A 
BRANCH  37  38
ATOM     38  C   UNL     1       8.019  -4.157  -2.334  1.00  0.00     0.031 A 
ATOM     39  C   UNL     1       9.470  -4.230  -1.957  1.00  0.00     0.074 A 
ATOM     40  C   UNL     1       7.455  -5.117  -3.088  1.00  0.00     0.049 A 
ATOM     41  N   UNL     1      10.381  -5.086  -2.340  1.00  0.00    -0.248 NA
ATOM     42  C   UNL     1       9.963  -3.200  -1.025  1.00  0.00     0.031 C 
ATOM     43  C   UNL     1       6.043  -5.180  -3.464  1.00  0.00     0.029 A 
ATOM     44  N   UNL     1       8.014  -6.216  -3.689  1.00  0.00    -0.354 N 
ATOM     45  C   UNL     1      11.557  -4.685  -1.720  1.00  0.00     0.074 A 
ATOM     46  C   UNL     1      11.249  -3.507  -0.939  1.00  0.00     0.031 C 
ATOM     47  C   UNL     1       5.850  -6.253  -4.251  1.00  0.00     0.029 A 
ATOM     48  C   UNL     1       7.131  -6.920  -4.472  1.00  0.00     0.049 A 
ATOM     49  H   UNL     1       8.956  -6.476  -3.571  1.00  0.00     0.167 HD
ATOM     50  C   UNL     1      12.784  -5.249  -1.804  1.00  0.00     0.031 A 
ATOM     51  C   UNL     1       7.346  -7.956  -5.305  1.00  0.00     0.031 A 
ATOM     52  C   UNL     1      13.080  -6.420  -2.584  1.00  0.00     0.049 A 
ATOM     53  C   UNL     1       8.744  -8.497  -5.454  1.00  0.00     0.074 A 
ATOM     54  C   UNL     1      14.283  -7.094  -2.699  1.00  0.00     0.029 A 
ATOM     55  N   UNL     1      12.170  -7.078  -3.394  1.00  0.00    -0.354 N 
ATOM     56  N   UNL     1       9.840  -8.144  -4.825  1.00  0.00    -0.248 NA
ATOM     57  C   UNL     1       8.937  -9.575  -6.434  1.00  0.00     0.031 C 
ATOM     58  C   UNL     1      14.119  -8.116  -3.637  1.00  0.00     0.029 A 
ATOM     59  C   UNL     1      12.797  -8.120  -4.053  1.00  0.00     0.049 A 
ATOM     60  H   UNL     1      11.219  -6.841  -3.486  1.00  0.00     0.167 HD
ATOM     61  C   UNL     1      10.842  -8.973  -5.314  1.00  0.00     0.074 A 
ATOM     62  C   UNL     1      10.221  -9.860  -6.274  1.00  0.00     0.031 C 
ATOM     63  C   UNL     1      12.160  -8.996  -5.001  1.00  0.00     0.031 A 
BRANCH  50  64
ATOM     64  C   UNL     1      13.919  -4.586  -1.075  1.00  0.00    -0.014 A 
ATOM     65  C   UNL     1      14.038  -4.656   0.321  1.00  0.00     0.009 A 
ATOM     66  C   UNL     1      14.930  -3.950  -1.813  1.00  0.00     0.009 A 
ATOM     67  C   UNL     1      15.141  -4.089   0.963  1.00  0.00     0.001 A 
ATOM     68  C   UNL     1      16.044  -3.408  -1.172  1.00  0.00     0.001 A 
ATOM     69  C   UNL     1      16.147  -3.474   0.216  1.00  0.00     0.000 A 
ENDBRANCH  50  64
BRANCH  51  70
ATOM     70  C   UNL     1       6.233  -8.521  -6.115  1.00  0.00    -0.014 A 
ATOM     71  C   UNL     1       5.800  -9.841  -5.916  1.00  0.00     0.009 A 
ATOM     72  C   UNL     1       5.635  -7.760  -7.133  1.00  0.00     0.009 A 
ATOM     73  C   UNL     1       4.822 -10.398  -6.743  1.00  0.00     0.001 A 
ATOM     74  C   UNL     1       4.633  -8.309  -7.936  1.00  0.00     0.001 A 
ATOM     75  C   UNL     1       4.237  -9.632  -7.750  1.00  0.00     0.000 A 
ENDBRANCH  51  70
BRANCH  63  76
ATOM     76  C   UNL     1      13.015 -10.030  -5.678  1.00  0.00    -0.014 A 
ATOM     77  C   UNL     1      13.357  -9.914  -7.034  1.00  0.00     0.009 A 
ATOM     78  C   UNL     1      13.536 -11.099  -4.933  1.00  0.00     0.009 A 
ATOM     79  C   UNL     1      14.185 -10.863  -7.636  1.00  0.00     0.001 A 
ATOM     80  C   UNL     1      14.389 -12.028  -5.529  1.00  0.00     0.001 A 
ATOM     81  C   UNL     1      14.706 -11.914  -6.881  1.00  0.00     0.000 A 
ENDBRANCH  63  76
ENDBRANCH  37  38
ENDBRANCH  30  32
ENDBRANCH  29  30
ENDBRANCH  28  29
ENDBRANCH  27  28
ENDBRANCH  26  27
ENDBRANCH   1  26
TORSDOF 20
