REMARK SMILES CO[C@@H]1C[NH2+][C@@H](O[C@@H]2C[C@@H](C(=O)OCCOCCOC(=O)c3ccc(-c4c5nc(c(-c6ccccc6)c6ccc([nH]6)c(-c6ccccc6)c6nc(c(-c7ccccc7)c7ccc4[nH]7)C=C6)C=C5)cc3)N(C(=O)OC(C)(C)C)C2)c2cc(Cl)ccc21
REMARK SMILES IDX 15 1 14 2 13 3 11 4 12 5 10 6 8 7 9 8 78 9 70 10 7 11 6 12
REMARK SMILES IDX 3 13 4 14 85 15 5 16 79 17 84 18 80 21 83 22 81 23 82 24
REMARK SMILES IDX 2 25 1 26 71 27 72 28 73 29 74 30 75 31 76 32 77 33 16 34
REMARK SMILES IDX 17 35 18 36 19 37 20 38 21 39 22 40 23 41 69 42 24 43 68 44
REMARK SMILES IDX 25 45 26 46 27 47 62 48 28 49 67 50 61 51 63 52 29 53 66 54
REMARK SMILES IDX 60 55 59 56 30 58 52 59 37 60 51 61 38 62 41 63 50 64 64 65
REMARK SMILES IDX 39 66 40 67 49 69 65 70 42 71 31 72 32 73 36 74 33 75 35 76
REMARK SMILES IDX 34 77 53 78 54 79 58 80 55 81 57 82 56 83 43 84 44 85 48 86
REMARK SMILES IDX 45 87 47 88 46 89
REMARK H PARENT 5 19 5 20 63 57 41 68
REMARK Flexibility Score: inf
ROOT
ATOM      1  C   UNL     1       0.136   4.430   5.887  1.00  0.00     0.202 C 
ENDROOT
BRANCH   1   2
ATOM      2  C   UNL     1       0.607   3.163   6.616  1.00  0.00     0.261 C 
BRANCH   2   3
ATOM      3  O   UNL     1       1.454   2.291   5.827  1.00  0.00    -0.462 OA
BRANCH   3   4
ATOM      4  C   UNL     1       0.804   1.217   5.333  1.00  0.00     0.329 C 
ATOM      5  O   UNL     1      -0.343   0.932   5.677  1.00  0.00    -0.250 OA
BRANCH   4   6
ATOM      6  C   UNL     1       1.558   0.299   4.335  1.00  0.00     0.201 C 
ATOM      7  C   UNL     1       2.236  -2.044   4.329  1.00  0.00     0.147 C 
ATOM      8  C   UNL     1       1.526  -1.021   5.160  1.00  0.00     0.071 C 
ATOM      9  C   UNL     1       3.337  -1.210   3.678  1.00  0.00     0.156 C 
ATOM     10  N   UNL     1       2.863   0.186   3.610  1.00  0.00    -0.292 N 
BRANCH   7  11
ATOM     11  O   UNL     1       1.451  -2.927   3.546  1.00  0.00    -0.320 OA
BRANCH  11  12
ATOM     12  C   UNL     1       0.346  -2.680   2.684  1.00  0.00     0.354 C 
ATOM     13  C   UNL     1      -0.030  -0.239   1.024  1.00  0.00     0.203 C 
ATOM     14  C   UNL     1       1.108  -1.284   0.866  1.00  0.00     0.300 C 
ATOM     15  C   UNL     1      -0.927  -0.515   2.223  1.00  0.00    -0.002 A 
ATOM     16  N   UNL     1       0.780  -2.635   1.297  1.00  0.00    -0.315 N 
ATOM     17  C   UNL     1      -0.738  -1.670   3.018  1.00  0.00     0.046 A 
ATOM     18  C   UNL     1      -1.912   0.425   2.585  1.00  0.00     0.009 A 
ATOM     19  H   UNL     1       1.608  -3.223   1.193  1.00  0.00     0.349 HD
ATOM     20  H   UNL     1       0.011  -2.971   0.718  1.00  0.00     0.349 HD
ATOM     21  C   UNL     1      -1.602  -1.892   4.108  1.00  0.00     0.033 A 
ATOM     22  C   UNL     1      -2.729   0.210   3.695  1.00  0.00     0.021 A 
ATOM     23  C   UNL     1      -2.582  -0.955   4.443  1.00  0.00     0.041 A 
ATOM     24  Cl  UNL     1      -3.596  -1.228   5.807  1.00  0.00    -0.084 Cl
BRANCH  13  25
ATOM     25  O   UNL     1      -0.867  -0.122  -0.130  1.00  0.00    -0.371 OA
ATOM     26  C   UNL     1      -0.164   0.268  -1.300  1.00  0.00     0.196 C 
ENDBRANCH  13  25
ENDBRANCH  11  12
ENDBRANCH   7  11
BRANCH  10  27
ATOM     27  C   UNL     1       3.483   0.900   2.571  1.00  0.00     0.411 C 
ATOM     28  O   UNL     1       4.570   0.518   2.139  1.00  0.00    -0.224 OA
BRANCH  27  29
ATOM     29  O   UNL     1       2.826   1.972   2.012  1.00  0.00    -0.444 OA
BRANCH  29  30
ATOM     30  C   UNL     1       3.526   2.733   0.932  1.00  0.00     0.106 C 
ATOM     31  C   UNL     1       4.907   3.238   1.400  1.00  0.00     0.056 C 
ATOM     32  C   UNL     1       3.672   1.909  -0.359  1.00  0.00     0.056 C 
ATOM     33  C   UNL     1       2.670   3.958   0.512  1.00  0.00     0.056 C 
ENDBRANCH  29  30
ENDBRANCH  27  29
ENDBRANCH  10  27
ENDBRANCH   4   6
ENDBRANCH   3   4
ENDBRANCH   2   3
ENDBRANCH   1   2
BRANCH   1  34
ATOM     34  O   UNL     1      -0.194   4.297   4.515  1.00  0.00    -0.374 OA
BRANCH  34  35
ATOM     35  C   UNL     1       0.810   3.954   3.567  1.00  0.00     0.202 C 
BRANCH  35  36
ATOM     36  C   UNL     1       2.301   4.077   3.895  1.00  0.00     0.261 C 
BRANCH  36  37
ATOM     37  O   UNL     1       2.612   4.981   4.931  1.00  0.00    -0.460 OA
BRANCH  37  38
ATOM     38  C   UNL     1       3.784   5.630   4.777  1.00  0.00     0.338 C 
ATOM     39  O   UNL     1       4.380   5.910   3.767  1.00  0.00    -0.246 OA
BRANCH  38  40
ATOM     40  C   UNL     1       4.339   5.575   6.127  1.00  0.00     0.060 A 
ATOM     41  C   UNL     1       5.314   4.605   6.367  1.00  0.00     0.016 A 
ATOM     42  C   UNL     1       3.784   6.349   7.146  1.00  0.00     0.016 A 
ATOM     43  C   UNL     1       5.761   4.419   7.662  1.00  0.00     0.010 A 
ATOM     44  C   UNL     1       4.272   6.197   8.434  1.00  0.00     0.010 A 
ATOM     45  C   UNL     1       5.270   5.243   8.688  1.00  0.00    -0.014 A 
BRANCH  45  46
ATOM     46  C   UNL     1       5.921   5.209  10.007  1.00  0.00     0.031 A 
ATOM     47  C   UNL     1       5.235   4.615  11.189  1.00  0.00     0.074 A 
ATOM     48  C   UNL     1       7.151   5.748  10.086  1.00  0.00     0.049 A 
ATOM     49  N   UNL     1       5.685   4.477  12.406  1.00  0.00    -0.248 NA
ATOM     50  C   UNL     1       3.865   4.117  10.987  1.00  0.00     0.031 C 
ATOM     51  C   UNL     1       7.870   6.354   8.959  1.00  0.00     0.029 A 
ATOM     52  N   UNL     1       8.020   5.856  11.134  1.00  0.00    -0.354 N 
ATOM     53  C   UNL     1       4.661   3.869  13.117  1.00  0.00     0.074 A 
ATOM     54  C   UNL     1       3.548   3.706  12.208  1.00  0.00     0.031 C 
ATOM     55  C   UNL     1       9.094   6.713   9.364  1.00  0.00     0.029 A 
ATOM     56  C   UNL     1       9.224   6.414  10.784  1.00  0.00     0.049 A 
ATOM     57  H   UNL     1       7.805   5.562  12.048  1.00  0.00     0.167 HD
ATOM     58  C   UNL     1       4.671   3.474  14.412  1.00  0.00     0.031 A 
ATOM     59  C   UNL     1      10.319   6.647  11.528  1.00  0.00     0.031 A 
ATOM     60  C   UNL     1       5.790   3.691  15.294  1.00  0.00     0.049 A 
ATOM     61  C   UNL     1      10.290   6.230  12.967  1.00  0.00     0.074 A 
ATOM     62  C   UNL     1       5.910   3.363  16.631  1.00  0.00     0.029 A 
ATOM     63  N   UNL     1       6.984   4.295  14.918  1.00  0.00    -0.354 N 
ATOM     64  N   UNL     1       9.321   5.644  13.631  1.00  0.00    -0.248 NA
ATOM     65  C   UNL     1      11.498   6.488  13.756  1.00  0.00     0.031 C 
ATOM     66  C   UNL     1       7.154   3.817  17.078  1.00  0.00     0.029 A 
ATOM     67  C   UNL     1       7.843   4.358  16.002  1.00  0.00     0.049 A 
ATOM     68  H   UNL     1       7.189   4.628  14.015  1.00  0.00     0.167 HD
ATOM     69  C   UNL     1       9.808   5.439  14.912  1.00  0.00     0.074 A 
ATOM     70  C   UNL     1      11.167   5.950  14.924  1.00  0.00     0.031 C 
ATOM     71  C   UNL     1       9.190   4.878  15.980  1.00  0.00     0.031 A 
BRANCH  58  72
ATOM     72  C   UNL     1       3.445   2.785  14.946  1.00  0.00    -0.014 A 
ATOM     73  C   UNL     1       2.671   3.394  15.946  1.00  0.00     0.009 A 
ATOM     74  C   UNL     1       3.083   1.503  14.500  1.00  0.00     0.009 A 
ATOM     75  C   UNL     1       1.567   2.735  16.492  1.00  0.00     0.001 A 
ATOM     76  C   UNL     1       1.960   0.858  15.025  1.00  0.00     0.001 A 
ATOM     77  C   UNL     1       1.208   1.471  16.027  1.00  0.00     0.000 A 
ENDBRANCH  58  72
BRANCH  59  78
ATOM     78  C   UNL     1      11.523   7.228  10.880  1.00  0.00    -0.014 A 
ATOM     79  C   UNL     1      11.507   8.541  10.379  1.00  0.00     0.009 A 
ATOM     80  C   UNL     1      12.655   6.432  10.652  1.00  0.00     0.009 A 
ATOM     81  C   UNL     1      12.582   9.031   9.634  1.00  0.00     0.001 A 
ATOM     82  C   UNL     1      13.742   6.936   9.934  1.00  0.00     0.001 A 
ATOM     83  C   UNL     1      13.700   8.228   9.414  1.00  0.00     0.000 A 
ENDBRANCH  59  78
BRANCH  71  84
ATOM     84  C   UNL     1       9.981   4.766  17.253  1.00  0.00    -0.014 A 
ATOM     85  C   UNL     1      10.346   3.497  17.730  1.00  0.00     0.009 A 
ATOM     86  C   UNL     1      10.278   5.898  18.026  1.00  0.00     0.009 A 
ATOM     87  C   UNL     1      10.979   3.361  18.964  1.00  0.00     0.001 A 
ATOM     88  C   UNL     1      10.944   5.761  19.245  1.00  0.00     0.001 A 
ATOM     89  C   UNL     1      11.283   4.493  19.718  1.00  0.00     0.000 A 
ENDBRANCH  71  84
ENDBRANCH  45  46
ENDBRANCH  38  40
ENDBRANCH  37  38
ENDBRANCH  36  37
ENDBRANCH  35  36
ENDBRANCH  34  35
ENDBRANCH   1  34
TORSDOF 20
