REMARK SMILES Cc1ccc2oc(C(=O)N[C@@H]3C=C[C@H](C(=O)OCCOCCOC(=O)c4ccc(-c5c6nc(c(-c7ccccc7)c7ccc([nH]7)c(-c7ccccc7)c7nc(c(-c8ccccc8)c8ccc5[nH]8)C=C7)C=C6)cc4)C3)cc2c1
REMARK SMILES IDX 20 1 19 2 18 3 17 4 15 5 16 6 14 7 11 8 12 9 74 10 13 11
REMARK SMILES IDX 10 12 8 13 9 14 7 16 1 17 2 18 3 19 77 20 4 21 76 22 5 23
REMARK SMILES IDX 75 24 6 25 21 26 22 27 23 28 24 29 25 30 26 31 27 32 73 33
REMARK SMILES IDX 28 34 72 35 29 36 30 37 31 38 66 39 32 40 71 41 65 42 67 43
REMARK SMILES IDX 33 44 70 45 64 46 63 47 34 49 56 50 41 51 55 52 42 53 45 54
REMARK SMILES IDX 54 55 68 56 43 57 44 58 53 60 69 61 46 62 35 63 36 64 40 65
REMARK SMILES IDX 37 66 39 67 38 68 57 69 58 70 62 71 59 72 61 73 60 74 47 75
REMARK SMILES IDX 48 76 52 77 49 78 51 79 50 80
REMARK H PARENT 10 15 67 48 45 59
REMARK Flexibility Score: inf
ROOT
ATOM      1  O   UNL     1      -1.358  -3.940   2.510  1.00  0.00    -0.374 OA
ENDROOT
BRANCH   1   2
ATOM      2  C   UNL     1      -1.492  -5.281   2.058  1.00  0.00     0.202 C 
BRANCH   2   3
ATOM      3  C   UNL     1      -0.375  -5.978   1.262  1.00  0.00     0.261 C 
BRANCH   3   4
ATOM      4  O   UNL     1       0.956  -5.604   1.637  1.00  0.00    -0.463 OA
BRANCH   4   5
ATOM      5  C   UNL     1       1.457  -4.609   0.851  1.00  0.00     0.312 C 
ATOM      6  O   UNL     1       0.872  -4.139  -0.117  1.00  0.00    -0.252 OA
BRANCH   5   7
ATOM      7  C   UNL     1       2.754  -4.033   1.421  1.00  0.00     0.124 C 
ATOM      8  C   UNL     1       3.950  -2.979  -0.420  1.00  0.00     0.106 C 
ATOM      9  C   UNL     1       4.703  -4.138   0.113  1.00  0.00    -0.006 C 
ATOM     10  C   UNL     1       3.004  -2.672   0.749  1.00  0.00     0.048 C 
ATOM     11  C   UNL     1       4.032  -4.745   1.105  1.00  0.00    -0.014 C 
BRANCH   8  12
ATOM     12  N   UNL     1       3.324  -3.200  -1.724  1.00  0.00    -0.343 N 
ATOM     13  C   UNL     1       2.666  -4.181  -2.443  1.00  0.00     0.287 C 
ATOM     14  O   UNL     1       2.072  -3.750  -3.439  1.00  0.00    -0.266 OA
ATOM     15  H   UNL     1       3.394  -2.382  -2.267  1.00  0.00     0.164 HD
BRANCH  13  16
ATOM     16  C   UNL     1       2.666  -5.598  -2.112  1.00  0.00     0.192 A 
ATOM     17  C   UNL     1       2.398 -11.099   0.310  1.00  0.00     0.044 C 
ATOM     18  C   UNL     1       2.225  -9.920  -0.605  1.00  0.00    -0.050 A 
ATOM     19  C   UNL     1       1.181  -9.874  -1.543  1.00  0.00     0.007 A 
ATOM     20  C   UNL     1       3.085  -8.819  -0.466  1.00  0.00     0.015 A 
ATOM     21  C   UNL     1       0.921  -8.721  -2.304  1.00  0.00     0.048 A 
ATOM     22  C   UNL     1       2.853  -7.673  -1.241  1.00  0.00     0.021 A 
ATOM     23  C   UNL     1       1.755  -7.629  -2.080  1.00  0.00     0.135 A 
ATOM     24  C   UNL     1       3.518  -6.444  -1.431  1.00  0.00     0.065 A 
ATOM     25  O   UNL     1       1.631  -6.378  -2.611  1.00  0.00    -0.451 OA
ENDBRANCH  13  16
ENDBRANCH   8  12
ENDBRANCH   5   7
ENDBRANCH   4   5
ENDBRANCH   3   4
ENDBRANCH   2   3
ENDBRANCH   1   2
BRANCH   1  26
ATOM     26  C   UNL     1      -0.316  -3.580   3.403  1.00  0.00     0.202 C 
BRANCH  26  27
ATOM     27  C   UNL     1      -0.138  -4.279   4.758  1.00  0.00     0.261 C 
BRANCH  27  28
ATOM     28  O   UNL     1      -0.264  -5.704   4.725  1.00  0.00    -0.460 OA
BRANCH  28  29
ATOM     29  C   UNL     1      -1.397  -6.166   5.304  1.00  0.00     0.338 C 
ATOM     30  O   UNL     1      -2.276  -5.508   5.851  1.00  0.00    -0.246 OA
BRANCH  29  31
ATOM     31  C   UNL     1      -1.543  -7.606   5.059  1.00  0.00     0.060 A 
ATOM     32  C   UNL     1      -2.705  -8.040   4.409  1.00  0.00     0.016 A 
ATOM     33  C   UNL     1      -0.612  -8.522   5.552  1.00  0.00     0.016 A 
ATOM     34  C   UNL     1      -2.966  -9.400   4.289  1.00  0.00     0.010 A 
ATOM     35  C   UNL     1      -0.882  -9.887   5.442  1.00  0.00     0.010 A 
ATOM     36  C   UNL     1      -2.078 -10.328   4.846  1.00  0.00    -0.014 A 
BRANCH  36  37
ATOM     37  C   UNL     1      -2.482 -11.748   4.941  1.00  0.00     0.031 A 
ATOM     38  C   UNL     1      -3.055 -12.255   6.235  1.00  0.00     0.074 A 
ATOM     39  C   UNL     1      -2.373 -12.563   3.879  1.00  0.00     0.049 A 
ATOM     40  N   UNL     1      -3.474 -13.456   6.541  1.00  0.00    -0.248 NA
ATOM     41  C   UNL     1      -3.172 -11.277   7.329  1.00  0.00     0.031 C 
ATOM     42  C   UNL     1      -1.886 -12.171   2.558  1.00  0.00     0.029 A 
ATOM     43  N   UNL     1      -2.677 -13.893   3.750  1.00  0.00    -0.354 N 
ATOM     44  C   UNL     1      -3.891 -13.382   7.865  1.00  0.00     0.074 A 
ATOM     45  C   UNL     1      -3.651 -12.026   8.310  1.00  0.00     0.031 C 
ATOM     46  C   UNL     1      -1.932 -13.241   1.745  1.00  0.00     0.029 A 
ATOM     47  C   UNL     1      -2.418 -14.395   2.499  1.00  0.00     0.049 A 
ATOM     48  H   UNL     1      -3.045 -14.437   4.484  1.00  0.00     0.167 HD
ATOM     49  C   UNL     1      -4.427 -14.354   8.640  1.00  0.00     0.031 A 
ATOM     50  C   UNL     1      -2.550 -15.647   2.024  1.00  0.00     0.031 A 
ATOM     51  C   UNL     1      -4.656 -15.704   8.198  1.00  0.00     0.049 A 
ATOM     52  C   UNL     1      -3.066 -16.731   2.931  1.00  0.00     0.074 A 
ATOM     53  C   UNL     1      -5.221 -16.756   8.897  1.00  0.00     0.029 A 
ATOM     54  N   UNL     1      -4.317 -16.190   6.945  1.00  0.00    -0.354 N 
ATOM     55  N   UNL     1      -3.483 -16.644   4.171  1.00  0.00    -0.248 NA
ATOM     56  C   UNL     1      -3.130 -18.087   2.367  1.00  0.00     0.031 C 
ATOM     57  C   UNL     1      -5.168 -17.895   8.085  1.00  0.00     0.029 A 
ATOM     58  C   UNL     1      -4.626 -17.537   6.861  1.00  0.00     0.049 A 
ATOM     59  H   UNL     1      -3.917 -15.656   6.221  1.00  0.00     0.167 HD
ATOM     60  C   UNL     1      -3.887 -17.925   4.526  1.00  0.00     0.074 A 
ATOM     61  C   UNL     1      -3.672 -18.768   3.367  1.00  0.00     0.031 C 
ATOM     62  C   UNL     1      -4.398 -18.363   5.703  1.00  0.00     0.031 A 
BRANCH  49  63
ATOM     63  C   UNL     1      -4.754 -13.997  10.063  1.00  0.00    -0.014 A 
ATOM     64  C   UNL     1      -5.823 -13.145  10.381  1.00  0.00     0.009 A 
ATOM     65  C   UNL     1      -3.978 -14.530  11.104  1.00  0.00     0.009 A 
ATOM     66  C   UNL     1      -6.082 -12.801  11.710  1.00  0.00     0.001 A 
ATOM     67  C   UNL     1      -4.257 -14.208  12.434  1.00  0.00     0.001 A 
ATOM     68  C   UNL     1      -5.301 -13.334  12.734  1.00  0.00     0.000 A 
ENDBRANCH  49  63
BRANCH  50  69
ATOM     69  C   UNL     1      -2.186 -15.946   0.616  1.00  0.00    -0.014 A 
ATOM     70  C   UNL     1      -3.181 -16.245  -0.327  1.00  0.00     0.009 A 
ATOM     71  C   UNL     1      -0.843 -15.938   0.207  1.00  0.00     0.009 A 
ATOM     72  C   UNL     1      -2.837 -16.547  -1.646  1.00  0.00     0.001 A 
ATOM     73  C   UNL     1      -0.504 -16.214  -1.119  1.00  0.00     0.001 A 
ATOM     74  C   UNL     1      -1.500 -16.526  -2.042  1.00  0.00     0.000 A 
ENDBRANCH  50  69
BRANCH  62  75
ATOM     75  C   UNL     1      -4.790 -19.811   5.786  1.00  0.00    -0.014 A 
ATOM     76  C   UNL     1      -3.824 -20.827   5.854  1.00  0.00     0.009 A 
ATOM     77  C   UNL     1      -6.149 -20.160   5.836  1.00  0.00     0.009 A 
ATOM     78  C   UNL     1      -4.213 -22.166   5.938  1.00  0.00     0.001 A 
ATOM     79  C   UNL     1      -6.534 -21.497   5.949  1.00  0.00     0.001 A 
ATOM     80  C   UNL     1      -5.566 -22.499   5.990  1.00  0.00     0.000 A 
ENDBRANCH  62  75
ENDBRANCH  36  37
ENDBRANCH  29  31
ENDBRANCH  28  29
ENDBRANCH  27  28
ENDBRANCH  26  27
ENDBRANCH   1  26
TORSDOF 16
