REMARK SMILES O=C(C[C@H]1C(=O)N[NH+]=C2c3ccc(F)cc3N=CN21)OCCOCCOC(=O)c1ccc(-c2c3nc(c(-c4ccccc4)c4ccc([nH]4)c(-c4ccccc4)c4nc(c(-c5ccccc5)c5ccc2[nH]5)C=C4)C=C3)cc1
REMARK SMILES IDX 24 1 23 2 22 3 21 4 20 5 2 6 1 7 3 8 4 9 5 10 19 11 6 12
REMARK SMILES IDX 7 13 9 14 18 15 8 16 10 18 17 19 11 21 16 22 12 23 15 24
REMARK SMILES IDX 13 25 14 26 25 27 26 28 27 29 28 30 29 31 30 32 76 33 31 34
REMARK SMILES IDX 75 35 32 36 33 37 34 38 69 39 35 40 74 41 68 42 70 43 36 44
REMARK SMILES IDX 73 45 67 46 66 47 37 49 59 50 44 51 58 52 45 53 48 54 57 55
REMARK SMILES IDX 71 56 46 57 47 58 56 60 72 61 49 62 38 63 39 64 43 65 40 66
REMARK SMILES IDX 42 67 41 68 60 69 61 70 65 71 62 72 64 73 63 74 50 75 51 76
REMARK SMILES IDX 55 77 52 78 54 79 53 80
REMARK H PARENT 7 17 8 20 70 48 48 59
REMARK Flexibility Score: inf
ROOT
ATOM      1  C   UNL     1       0.652   2.429  -2.576  1.00  0.00     0.202 C 
ENDROOT
BRANCH   1   2
ATOM      2  O   UNL     1       1.011   1.057  -2.414  1.00  0.00    -0.374 OA
BRANCH   2   3
ATOM      3  C   UNL     1       0.546   0.438  -1.220  1.00  0.00     0.202 C 
BRANCH   3   4
ATOM      4  C   UNL     1       1.618   0.126  -0.182  1.00  0.00     0.261 C 
BRANCH   4   5
ATOM      5  O   UNL     1       2.493   1.222   0.094  1.00  0.00    -0.463 OA
BRANCH   5   6
ATOM      6  C   UNL     1       3.438   1.750  -0.697  1.00  0.00     0.310 C 
ATOM      7  O   UNL     1       3.928   2.827  -0.347  1.00  0.00    -0.252 OA
BRANCH   6   8
ATOM      8  C   UNL     1       3.907   1.133  -2.002  1.00  0.00     0.183 C 
BRANCH   8   9
ATOM      9  C   UNL     1       4.532  -0.256  -1.984  1.00  0.00     0.286 C 
ATOM     10  C   UNL     1       3.500  -1.387  -2.124  1.00  0.00     0.300 C 
ATOM     11  N   UNL     1       5.476  -0.560  -3.097  1.00  0.00    -0.202 N 
ATOM     12  O   UNL     1       2.342  -1.310  -2.504  1.00  0.00    -0.267 OA
ATOM     13  N   UNL     1       4.084  -2.615  -1.888  1.00  0.00    -0.193 N 
ATOM     14  C   UNL     1       5.689  -1.930  -3.325  1.00  0.00     0.309 C 
ATOM     15  C   UNL     1       6.038   0.379  -3.930  1.00  0.00     0.317 C 
ATOM     16  N   UNL     1       5.185  -2.922  -2.638  1.00  0.00    -0.169 N 
ATOM     17  H   UNL     1       3.726  -3.238  -1.215  1.00  0.00     0.216 HD
ATOM     18  C   UNL     1       6.363  -2.279  -4.600  1.00  0.00     0.092 A 
ATOM     19  N   UNL     1       6.652   0.139  -5.045  1.00  0.00    -0.216 NA
ATOM     20  H   UNL     1       5.572  -3.827  -2.659  1.00  0.00     0.340 HD
ATOM     21  C   UNL     1       6.327  -3.603  -5.061  1.00  0.00     0.022 A 
ATOM     22  C   UNL     1       6.701  -1.212  -5.449  1.00  0.00     0.085 A 
ATOM     23  C   UNL     1       6.596  -3.862  -6.399  1.00  0.00     0.040 A 
ATOM     24  C   UNL     1       6.995  -1.496  -6.781  1.00  0.00     0.068 A 
ATOM     25  C   UNL     1       6.920  -2.807  -7.245  1.00  0.00     0.125 A 
ATOM     26  F   UNL     1       7.120  -3.055  -8.546  1.00  0.00    -0.207 F 
ENDBRANCH   8   9
ENDBRANCH   6   8
ENDBRANCH   5   6
ENDBRANCH   4   5
ENDBRANCH   3   4
ENDBRANCH   2   3
ENDBRANCH   1   2
BRANCH   1  27
ATOM     27  C   UNL     1      -0.755   2.639  -3.146  1.00  0.00     0.261 C 
BRANCH  27  28
ATOM     28  O   UNL     1      -1.749   2.129  -2.244  1.00  0.00    -0.460 OA
BRANCH  28  29
ATOM     29  C   UNL     1      -2.223   0.889  -2.523  1.00  0.00     0.338 C 
ATOM     30  O   UNL     1      -2.070   0.251  -3.552  1.00  0.00    -0.246 OA
BRANCH  29  31
ATOM     31  C   UNL     1      -2.778   0.315  -1.273  1.00  0.00     0.060 A 
ATOM     32  C   UNL     1      -3.391   1.127  -0.316  1.00  0.00     0.016 A 
ATOM     33  C   UNL     1      -2.603  -1.055  -1.026  1.00  0.00     0.016 A 
ATOM     34  C   UNL     1      -3.856   0.562   0.869  1.00  0.00     0.010 A 
ATOM     35  C   UNL     1      -3.077  -1.624   0.159  1.00  0.00     0.010 A 
ATOM     36  C   UNL     1      -3.735  -0.821   1.099  1.00  0.00    -0.014 A 
BRANCH  36  37
ATOM     37  C   UNL     1      -4.504  -1.424   2.212  1.00  0.00     0.031 A 
ATOM     38  C   UNL     1      -3.859  -1.886   3.478  1.00  0.00     0.074 A 
ATOM     39  C   UNL     1      -5.840  -1.499   2.055  1.00  0.00     0.049 A 
ATOM     40  N   UNL     1      -4.434  -2.243   4.598  1.00  0.00    -0.248 NA
ATOM     41  C   UNL     1      -2.391  -1.967   3.500  1.00  0.00     0.031 C 
ATOM     42  C   UNL     1      -6.557  -1.104   0.839  1.00  0.00     0.029 A 
ATOM     43  N   UNL     1      -6.833  -1.882   2.918  1.00  0.00    -0.354 N 
ATOM     44  C   UNL     1      -3.404  -2.574   5.467  1.00  0.00     0.074 A 
ATOM     45  C   UNL     1      -2.167  -2.419   4.730  1.00  0.00     0.031 C 
ATOM     46  C   UNL     1      -7.875  -1.191   1.060  1.00  0.00     0.029 A 
ATOM     47  C   UNL     1      -8.097  -1.688   2.414  1.00  0.00     0.049 A 
ATOM     48  H   UNL     1      -6.658  -2.260   3.811  1.00  0.00     0.167 HD
ATOM     49  C   UNL     1      -3.495  -2.955   6.763  1.00  0.00     0.031 A 
ATOM     50  C   UNL     1      -9.304  -1.862   2.982  1.00  0.00     0.031 A 
ATOM     51  C   UNL     1      -4.742  -3.119   7.470  1.00  0.00     0.049 A 
ATOM     52  C   UNL     1      -9.371  -2.305   4.415  1.00  0.00     0.074 A 
ATOM     53  C   UNL     1      -4.934  -3.458   8.798  1.00  0.00     0.029 A 
ATOM     54  N   UNL     1      -6.002  -2.971   6.910  1.00  0.00    -0.354 N 
ATOM     55  N   UNL     1      -8.387  -2.521   5.256  1.00  0.00    -0.248 NA
ATOM     56  C   UNL     1     -10.708  -2.509   4.987  1.00  0.00     0.031 C 
ATOM     57  C   UNL     1      -6.304  -3.598   9.020  1.00  0.00     0.029 A 
ATOM     58  C   UNL     1      -6.974  -3.249   7.857  1.00  0.00     0.049 A 
ATOM     59  H   UNL     1      -6.180  -2.707   5.978  1.00  0.00     0.167 HD
ATOM     60  C   UNL     1      -8.986  -2.855   6.463  1.00  0.00     0.074 A 
ATOM     61  C   UNL     1     -10.418  -2.794   6.250  1.00  0.00     0.031 C 
ATOM     62  C   UNL     1      -8.398  -3.181   7.639  1.00  0.00     0.031 A 
BRANCH  49  63
ATOM     63  C   UNL     1      -2.226  -3.220   7.529  1.00  0.00    -0.014 A 
ATOM     64  C   UNL     1      -1.960  -4.510   8.018  1.00  0.00     0.009 A 
ATOM     65  C   UNL     1      -1.371  -2.169   7.897  1.00  0.00     0.009 A 
ATOM     66  C   UNL     1      -0.885  -4.737   8.881  1.00  0.00     0.001 A 
ATOM     67  C   UNL     1      -0.278  -2.405   8.735  1.00  0.00     0.001 A 
ATOM     68  C   UNL     1      -0.044  -3.685   9.237  1.00  0.00     0.000 A 
ENDBRANCH  49  63
BRANCH  50  69
ATOM     69  C   UNL     1     -10.532  -1.546   2.203  1.00  0.00    -0.014 A 
ATOM     70  C   UNL     1     -10.866  -2.290   1.059  1.00  0.00     0.009 A 
ATOM     71  C   UNL     1     -11.346  -0.461   2.562  1.00  0.00     0.009 A 
ATOM     72  C   UNL     1     -11.968  -1.939   0.278  1.00  0.00     0.001 A 
ATOM     73  C   UNL     1     -12.471  -0.136   1.801  1.00  0.00     0.001 A 
ATOM     74  C   UNL     1     -12.774  -0.867   0.653  1.00  0.00     0.000 A 
ENDBRANCH  50  69
BRANCH  62  75
ATOM     75  C   UNL     1      -9.289  -3.480   8.817  1.00  0.00    -0.014 A 
ATOM     76  C   UNL     1      -9.251  -2.641   9.944  1.00  0.00     0.009 A 
ATOM     77  C   UNL     1     -10.074  -4.641   8.864  1.00  0.00     0.009 A 
ATOM     78  C   UNL     1      -9.959  -2.972  11.101  1.00  0.00     0.001 A 
ATOM     79  C   UNL     1     -10.813  -4.949  10.009  1.00  0.00     0.001 A 
ATOM     80  C   UNL     1     -10.743  -4.122  11.130  1.00  0.00     0.000 A 
ENDBRANCH  62  75
ENDBRANCH  36  37
ENDBRANCH  29  31
ENDBRANCH  28  29
ENDBRANCH  27  28
ENDBRANCH   1  27
TORSDOF 15
