REMARK SMILES O=C(N[C@@H](Cc1ccc(O)cc1)C(=O)N[C@@H](Cc1c[nH]c2ccccc12)C(=O)N[C@@H](CO)C(=O)OCCOCCOC(=O)c1ccc(-c2c3nc(c(-c4ccccc4)c4ccc([nH]4)c(-c4ccccc4)c4nc(c(-c5ccccc5)c5ccc2[nH]5)C=C4)C=C3)cc1)c1ccc(F)cc1
REMARK SMILES IDX 36 1 35 2 33 3 34 4 30 5 29 6 27 7 28 8 16 10 15 11 13 12
REMARK SMILES IDX 14 13 4 15 3 16 1 17 2 18 92 20 93 21 98 22 94 23 97 24
REMARK SMILES IDX 95 25 96 26 5 27 6 28 7 29 12 30 8 31 11 32 9 33 10 34 17 36
REMARK SMILES IDX 18 37 19 38 26 39 20 40 21 41 25 42 22 44 24 45 23 46 31 47
REMARK SMILES IDX 32 48 37 50 38 51 39 52 40 53 41 54 42 55 43 56 44 57 45 58
REMARK SMILES IDX 91 59 46 60 90 61 47 62 48 63 49 64 84 65 50 66 89 67 83 68
REMARK SMILES IDX 85 69 51 70 88 71 82 72 81 73 52 75 74 76 59 77 73 78 60 79
REMARK SMILES IDX 63 80 72 81 86 82 61 83 62 84 71 86 87 87 64 88 53 89 54 90
REMARK SMILES IDX 58 91 55 92 57 93 56 94 75 95 76 96 80 97 77 98 79 99 78 100
REMARK SMILES IDX 65 101 66 102 70 103 67 104 69 105 68 106
REMARK H PARENT 29 9 15 14 3 19 10 35 20 43 32 49 85 74 63 85
REMARK Flexibility Score: inf
ROOT
ATOM      1  C   UNL     1       4.314 -10.044   0.236  1.00  0.00     0.261 C 
ENDROOT
BRANCH   1   2
ATOM      2  O   UNL     1       4.768  -8.688   0.363  1.00  0.00    -0.462 OA
BRANCH   2   3
ATOM      3  C   UNL     1       5.011  -8.025  -0.802  1.00  0.00     0.331 C 
ATOM      4  O   UNL     1       5.023  -8.540  -1.915  1.00  0.00    -0.250 OA
BRANCH   3   5
ATOM      5  C   UNL     1       5.381  -6.555  -0.525  1.00  0.00     0.218 C 
BRANCH   5   6
ATOM      6  N   UNL     1       4.883  -6.115   0.790  1.00  0.00    -0.339 N 
ATOM      7  C   UNL     1       3.829  -5.317   1.113  1.00  0.00     0.243 C 
ATOM      8  O   UNL     1       3.194  -5.618   2.129  1.00  0.00    -0.273 OA
ATOM      9  H   UNL     1       5.396  -6.453   1.560  1.00  0.00     0.164 HD
BRANCH   7  10
ATOM     10  C   UNL     1       3.350  -4.113   0.285  1.00  0.00     0.175 C 
BRANCH  10  11
ATOM     11  N   UNL     1       4.370  -3.463  -0.533  1.00  0.00    -0.342 N 
ATOM     12  C   UNL     1       5.035  -2.293  -0.319  1.00  0.00     0.243 C 
ATOM     13  O   UNL     1       6.128  -2.178  -0.887  1.00  0.00    -0.273 OA
ATOM     14  H   UNL     1       4.612  -3.940  -1.359  1.00  0.00     0.164 HD
BRANCH  12  15
ATOM     15  C   UNL     1       4.532  -1.170   0.628  1.00  0.00     0.176 C 
BRANCH  15  16
ATOM     16  N   UNL     1       3.080  -0.956   0.606  1.00  0.00    -0.340 N 
ATOM     17  O   UNL     1       1.117   0.043   0.192  1.00  0.00    -0.269 OA
ATOM     18  C   UNL     1       2.341   0.084   0.102  1.00  0.00     0.251 C 
ATOM     19  H   UNL     1       2.550  -1.675   1.019  1.00  0.00     0.164 HD
BRANCH  18  20
ATOM     20  C   UNL     1       2.988   1.296  -0.445  1.00  0.00     0.040 A 
ATOM     21  C   UNL     1       3.941   1.247  -1.469  1.00  0.00     0.017 A 
ATOM     22  C   UNL     1       2.601   2.531   0.097  1.00  0.00     0.017 A 
ATOM     23  C   UNL     1       4.567   2.425  -1.886  1.00  0.00     0.040 A 
ATOM     24  C   UNL     1       3.216   3.706  -0.336  1.00  0.00     0.040 A 
ATOM     25  C   UNL     1       4.205   3.640  -1.311  1.00  0.00     0.123 A 
ATOM     26  F   UNL     1       4.816   4.764  -1.705  1.00  0.00    -0.207 F 
ENDBRANCH  18  20
ENDBRANCH  15  16
BRANCH  15  27
ATOM     27  C   UNL     1       5.149  -1.167   2.037  1.00  0.00     0.070 C 
BRANCH  27  28
ATOM     28  C   UNL     1       4.923  -2.355   2.935  1.00  0.00    -0.045 A 
ATOM     29  C   UNL     1       3.756  -2.471   3.704  1.00  0.00     0.007 A 
ATOM     30  C   UNL     1       5.923  -3.332   3.067  1.00  0.00     0.007 A 
ATOM     31  C   UNL     1       3.583  -3.556   4.571  1.00  0.00     0.046 A 
ATOM     32  C   UNL     1       5.757  -4.404   3.944  1.00  0.00     0.046 A 
ATOM     33  C   UNL     1       4.584  -4.516   4.678  1.00  0.00     0.115 A 
BRANCH  33  34
ATOM     34  O   UNL     1       4.441  -5.609   5.482  1.00  0.00    -0.508 OA
ATOM     35  H   UNL     1       3.662  -5.717   5.991  1.00  0.00     0.293 HD
ENDBRANCH  33  34
ENDBRANCH  27  28
ENDBRANCH  15  27
ENDBRANCH  12  15
ENDBRANCH  10  11
BRANCH  10  36
ATOM     36  C   UNL     1       2.006  -4.349  -0.428  1.00  0.00     0.072 C 
BRANCH  36  37
ATOM     37  C   UNL     1       1.884  -5.643  -1.169  1.00  0.00    -0.020 A 
ATOM     38  C   UNL     1       2.467  -5.968  -2.377  1.00  0.00     0.087 A 
ATOM     39  C   UNL     1       1.110  -6.784  -0.766  1.00  0.00     0.003 A 
ATOM     40  N   UNL     1       2.177  -7.278  -2.657  1.00  0.00    -0.361 N 
ATOM     41  C   UNL     1       1.363  -7.803  -1.683  1.00  0.00     0.046 A 
ATOM     42  C   UNL     1       0.242  -7.059   0.314  1.00  0.00     0.010 A 
ATOM     43  H   UNL     1       2.505  -7.772  -3.443  1.00  0.00     0.166 HD
ATOM     44  C   UNL     1       0.839  -9.095  -1.548  1.00  0.00     0.026 A 
ATOM     45  C   UNL     1      -0.301  -8.342   0.457  1.00  0.00     0.001 A 
ATOM     46  C   UNL     1       0.009  -9.348  -0.452  1.00  0.00     0.002 A 
ENDBRANCH  36  37
ENDBRANCH  10  36
ENDBRANCH   7  10
ENDBRANCH   5   6
BRANCH   5  47
ATOM     47  C   UNL     1       6.906  -6.443  -0.601  1.00  0.00     0.193 C 
BRANCH  47  48
ATOM     48  O   UNL     1       7.541  -7.179   0.448  1.00  0.00    -0.394 OA
ATOM     49  H   UNL     1       7.263  -6.823   1.306  1.00  0.00     0.210 HD
ENDBRANCH  47  48
ENDBRANCH   5  47
ENDBRANCH   3   5
ENDBRANCH   2   3
ENDBRANCH   1   2
BRANCH   1  50
ATOM     50  C   UNL     1       3.796 -10.532   1.593  1.00  0.00     0.202 C 
BRANCH  50  51
ATOM     51  O   UNL     1       2.614  -9.865   2.051  1.00  0.00    -0.374 OA
BRANCH  51  52
ATOM     52  C   UNL     1       2.818  -8.481   2.368  1.00  0.00     0.202 C 
BRANCH  52  53
ATOM     53  C   UNL     1       1.873  -8.015   3.477  1.00  0.00     0.261 C 
BRANCH  53  54
ATOM     54  O   UNL     1       2.276  -8.677   4.683  1.00  0.00    -0.460 OA
BRANCH  54  55
ATOM     55  C   UNL     1       1.675  -9.883   4.815  1.00  0.00     0.338 C 
ATOM     56  O   UNL     1       0.514 -10.144   4.577  1.00  0.00    -0.246 OA
BRANCH  55  57
ATOM     57  C   UNL     1       2.712 -10.895   5.121  1.00  0.00     0.060 A 
ATOM     58  C   UNL     1       2.448 -12.206   4.715  1.00  0.00     0.016 A 
ATOM     59  C   UNL     1       3.921 -10.575   5.754  1.00  0.00     0.016 A 
ATOM     60  C   UNL     1       3.347 -13.217   5.022  1.00  0.00     0.010 A 
ATOM     61  C   UNL     1       4.831 -11.589   6.052  1.00  0.00     0.010 A 
ATOM     62  C   UNL     1       4.515 -12.918   5.736  1.00  0.00    -0.014 A 
BRANCH  62  63
ATOM     63  C   UNL     1       5.279 -14.038   6.317  1.00  0.00     0.031 A 
ATOM     64  C   UNL     1       4.986 -14.434   7.736  1.00  0.00     0.074 A 
ATOM     65  C   UNL     1       6.131 -14.746   5.558  1.00  0.00     0.049 A 
ATOM     66  N   UNL     1       5.401 -15.476   8.407  1.00  0.00    -0.248 NA
ATOM     67  C   UNL     1       4.098 -13.539   8.498  1.00  0.00     0.031 C 
ATOM     68  C   UNL     1       6.465 -14.454   4.164  1.00  0.00     0.029 A 
ATOM     69  N   UNL     1       6.849 -15.874   5.851  1.00  0.00    -0.354 N 
ATOM     70  C   UNL     1       4.812 -15.369   9.661  1.00  0.00     0.074 A 
ATOM     71  C   UNL     1       4.051 -14.141   9.676  1.00  0.00     0.031 C 
ATOM     72  C   UNL     1       7.309 -15.399   3.714  1.00  0.00     0.029 A 
ATOM     73  C   UNL     1       7.577 -16.350   4.790  1.00  0.00     0.049 A 
ATOM     74  H   UNL     1       6.843 -16.303   6.738  1.00  0.00     0.167 HD
ATOM     75  C   UNL     1       4.885 -16.229  10.703  1.00  0.00     0.031 A 
ATOM     76  C   UNL     1       8.359 -17.442   4.701  1.00  0.00     0.031 A 
ATOM     77  C   UNL     1       5.669 -17.433  10.690  1.00  0.00     0.049 A 
ATOM     78  C   UNL     1       8.467 -18.355   5.891  1.00  0.00     0.074 A 
ATOM     79  C   UNL     1       5.826 -18.376  11.688  1.00  0.00     0.029 A 
ATOM     80  N   UNL     1       6.439 -17.851   9.615  1.00  0.00    -0.354 N 
ATOM     81  N   UNL     1       7.873 -18.267   7.057  1.00  0.00    -0.248 NA
ATOM     82  C   UNL     1       9.339 -19.528   5.743  1.00  0.00     0.031 C 
ATOM     83  C   UNL     1       6.731 -19.342  11.233  1.00  0.00     0.029 A 
ATOM     84  C   UNL     1       7.096 -19.026   9.933  1.00  0.00     0.049 A 
ATOM     85  H   UNL     1       6.509 -17.380   8.752  1.00  0.00     0.167 HD
ATOM     86  C   UNL     1       8.287 -19.379   7.779  1.00  0.00     0.074 A 
ATOM     87  C   UNL     1       9.162 -20.138   6.907  1.00  0.00     0.031 C 
ATOM     88  C   UNL     1       7.976 -19.744   9.048  1.00  0.00     0.031 A 
BRANCH  75  89
ATOM     89  C   UNL     1       4.122 -15.862  11.944  1.00  0.00    -0.014 A 
ATOM     90  C   UNL     1       2.720 -15.928  11.982  1.00  0.00     0.009 A 
ATOM     91  C   UNL     1       4.813 -15.431  13.086  1.00  0.00     0.009 A 
ATOM     92  C   UNL     1       2.023 -15.533  13.127  1.00  0.00     0.001 A 
ATOM     93  C   UNL     1       4.115 -15.060  14.238  1.00  0.00     0.001 A 
ATOM     94  C   UNL     1       2.722 -15.101  14.254  1.00  0.00     0.000 A 
ENDBRANCH  75  89
BRANCH  76  95
ATOM     95  C   UNL     1       9.081 -17.735   3.437  1.00  0.00    -0.014 A 
ATOM     96  C   UNL     1       8.700 -18.814   2.624  1.00  0.00     0.009 A 
ATOM     97  C   UNL     1      10.158 -16.929   3.033  1.00  0.00     0.009 A 
ATOM     98  C   UNL     1       9.394 -19.090   1.443  1.00  0.00     0.001 A 
ATOM     99  C   UNL     1      10.834 -17.192   1.840  1.00  0.00     0.001 A 
ATOM    100  C   UNL     1      10.456 -18.276   1.050  1.00  0.00     0.000 A 
ENDBRANCH  76  95
BRANCH  88 101
ATOM    101  C   UNL     1       8.588 -21.019   9.553  1.00  0.00    -0.014 A 
ATOM    102  C   UNL     1       9.951 -21.087   9.879  1.00  0.00     0.009 A 
ATOM    103  C   UNL     1       7.786 -22.157   9.724  1.00  0.00     0.009 A 
ATOM    104  C   UNL     1      10.508 -22.285  10.330  1.00  0.00     0.001 A 
ATOM    105  C   UNL     1       8.339 -23.345  10.201  1.00  0.00     0.001 A 
ATOM    106  C   UNL     1       9.701 -23.411  10.493  1.00  0.00     0.000 A 
ENDBRANCH  88 101
ENDBRANCH  62  63
ENDBRANCH  55  57
ENDBRANCH  54  55
ENDBRANCH  53  54
ENDBRANCH  52  53
ENDBRANCH  51  52
ENDBRANCH  50  51
ENDBRANCH   1  50
TORSDOF 27
