REMARK SMILES Cn1ccc(C(=O)N[C@H]2CCCCC[C@H]2C(=O)OCCOCCOC(=O)c2ccc(-c3c4nc(c(-c5ccccc5)c5ccc([nH]5)c(-c5ccccc5)c5nc(c(-c6ccccc6)c6ccc3[nH]6)C=C5)C=C4)cc2)cc1=O
REMARK SMILES IDX 20 1 19 2 18 3 16 4 17 5 15 6 9 7 8 8 6 9 7 10 5 12 1 13
REMARK SMILES IDX 2 14 3 15 76 16 4 17 75 18 77 19 10 20 11 21 14 23 13 24
REMARK SMILES IDX 12 25 21 27 22 28 23 29 24 30 25 31 26 32 27 33 28 34 74 35
REMARK SMILES IDX 29 36 73 37 30 38 31 39 32 40 67 41 33 42 72 43 66 44 68 45
REMARK SMILES IDX 34 46 71 47 65 48 64 49 35 51 57 52 42 53 56 54 43 55 46 56
REMARK SMILES IDX 55 57 69 58 44 59 45 60 54 62 70 63 47 64 36 65 37 66 41 67
REMARK SMILES IDX 38 68 40 69 39 70 58 71 59 72 63 73 60 74 62 75 61 76 48 77
REMARK SMILES IDX 49 78 53 79 50 80 52 81 51 82
REMARK H PARENT 8 11 68 50 46 61
REMARK Flexibility Score: 90.00
ROOT
ATOM      1  C   UNL     1      -3.169   3.377  -1.849  1.00  0.00     0.202 C 
ENDROOT
BRANCH   1   2
ATOM      2  C   UNL     1      -2.721   3.117  -0.411  1.00  0.00     0.261 C 
BRANCH   2   3
ATOM      3  O   UNL     1      -1.347   3.471  -0.151  1.00  0.00    -0.463 OA
BRANCH   3   4
ATOM      4  C   UNL     1      -0.547   2.448   0.238  1.00  0.00     0.311 C 
ATOM      5  O   UNL     1      -0.846   1.262   0.137  1.00  0.00    -0.252 OA
BRANCH   4   6
ATOM      6  C   UNL     1       0.731   2.882   0.939  1.00  0.00     0.121 C 
BRANCH   6   7
ATOM      7  C   UNL     1       1.368   4.264   0.669  1.00  0.00     0.096 C 
BRANCH   7   8
ATOM      8  N   UNL     1       1.475   4.603  -0.762  1.00  0.00    -0.348 N 
ATOM      9  C   UNL     1       2.239   5.534  -1.421  1.00  0.00     0.251 C 
ATOM     10  O   UNL     1       2.248   5.549  -2.650  1.00  0.00    -0.269 OA
ATOM     11  H   UNL     1       0.896   4.065  -1.349  1.00  0.00     0.164 HD
BRANCH   9  12
ATOM     12  C   UNL     1       2.906   6.621  -0.651  1.00  0.00     0.046 A 
ATOM     13  C   UNL     1       3.671   9.656   2.161  1.00  0.00     0.153 C 
ATOM     14  N   UNL     1       3.507   8.637   1.136  1.00  0.00    -0.319 N 
ATOM     15  C   UNL     1       2.750   8.931   0.019  1.00  0.00     0.089 A 
ATOM     16  C   UNL     1       4.149   7.409   1.295  1.00  0.00     0.251 A 
ATOM     17  C   UNL     1       2.476   7.984  -0.883  1.00  0.00     0.032 A 
ATOM     18  C   UNL     1       3.809   6.353   0.301  1.00  0.00     0.085 A 
ATOM     19  O   UNL     1       4.901   7.127   2.223  1.00  0.00    -0.269 OA
ENDBRANCH   9  12
ENDBRANCH   7   8
BRANCH   7  20
ATOM     20  C   UNL     1       0.935   5.432   1.577  1.00  0.00     0.026 C 
BRANCH  20  21
ATOM     21  C   UNL     1      -0.495   5.487   2.082  1.00  0.00     0.002 CG0
ATOM     22  G   UNL     1      -0.734   4.625   3.312  1.00  0.00     0.000 G0
ENDBRANCH  20  21
ENDBRANCH   7  20
ENDBRANCH   6   7
BRANCH   6  23
ATOM     23  C   UNL     1       0.585   2.569   2.440  1.00  0.00     0.017 C 
BRANCH  23  24
ATOM     24  C   UNL     1      -0.680   3.117   3.108  1.00  0.00     0.001 C 
BRANCH  24  25
ATOM     25  C   UNL     1      -0.734   4.625   3.312  1.00  0.00     0.000 CG0
ATOM     26  G   UNL     1      -0.495   5.487   2.082  1.00  0.00     0.000 G0
ENDBRANCH  24  25
ENDBRANCH  23  24
ENDBRANCH   6  23
ENDBRANCH   4   6
ENDBRANCH   3   4
ENDBRANCH   2   3
ENDBRANCH   1   2
BRANCH   1  27
ATOM     27  O   UNL     1      -2.593   2.540  -2.847  1.00  0.00    -0.374 OA
BRANCH  27  28
ATOM     28  C   UNL     1      -1.209   2.717  -3.143  1.00  0.00     0.202 C 
BRANCH  28  29
ATOM     29  C   UNL     1      -0.843   4.028  -3.845  1.00  0.00     0.261 C 
BRANCH  29  30
ATOM     30  O   UNL     1      -1.098   5.174  -3.010  1.00  0.00    -0.460 OA
BRANCH  30  31
ATOM     31  C   UNL     1      -1.702   6.201  -3.656  1.00  0.00     0.338 C 
ATOM     32  O   UNL     1      -1.953   6.288  -4.846  1.00  0.00    -0.246 OA
BRANCH  31  33
ATOM     33  C   UNL     1      -2.175   7.216  -2.699  1.00  0.00     0.060 A 
ATOM     34  C   UNL     1      -3.553   7.347  -2.506  1.00  0.00     0.016 A 
ATOM     35  C   UNL     1      -1.293   8.155  -2.164  1.00  0.00     0.016 A 
ATOM     36  C   UNL     1      -4.056   8.455  -1.822  1.00  0.00     0.010 A 
ATOM     37  C   UNL     1      -1.798   9.262  -1.469  1.00  0.00     0.010 A 
ATOM     38  C   UNL     1      -3.186   9.444  -1.336  1.00  0.00    -0.014 A 
BRANCH  38  39
ATOM     39  C   UNL     1      -3.753  10.716  -0.815  1.00  0.00     0.031 A 
ATOM     40  C   UNL     1      -3.767  11.945  -1.688  1.00  0.00     0.074 A 
ATOM     41  C   UNL     1      -4.316  10.765   0.407  1.00  0.00     0.049 A 
ATOM     42  N   UNL     1      -4.290  13.123  -1.450  1.00  0.00    -0.248 NA
ATOM     43  C   UNL     1      -3.108  11.836  -3.000  1.00  0.00     0.031 C 
ATOM     44  C   UNL     1      -4.387   9.651   1.352  1.00  0.00     0.029 A 
ATOM     45  N   UNL     1      -4.947  11.798   1.056  1.00  0.00    -0.354 N 
ATOM     46  C   UNL     1      -4.025  13.891  -2.577  1.00  0.00     0.074 A 
ATOM     47  C   UNL     1      -3.267  13.059  -3.486  1.00  0.00     0.031 C 
ATOM     48  C   UNL     1      -5.038  10.057   2.455  1.00  0.00     0.029 A 
ATOM     49  C   UNL     1      -5.413  11.462   2.303  1.00  0.00     0.049 A 
ATOM     50  H   UNL     1      -5.054  12.694   0.664  1.00  0.00     0.167 HD
ATOM     51  C   UNL     1      -4.390  15.169  -2.842  1.00  0.00     0.031 A 
ATOM     52  C   UNL     1      -6.068  12.200   3.220  1.00  0.00     0.031 A 
ATOM     53  C   UNL     1      -5.152  16.005  -1.954  1.00  0.00     0.049 A 
ATOM     54  C   UNL     1      -6.425  13.630   2.915  1.00  0.00     0.074 A 
ATOM     55  C   UNL     1      -5.604  17.298  -2.164  1.00  0.00     0.029 A 
ATOM     56  N   UNL     1      -5.571  15.637  -0.687  1.00  0.00    -0.354 N 
ATOM     57  N   UNL     1      -6.217  14.319   1.821  1.00  0.00    -0.248 NA
ATOM     58  C   UNL     1      -7.119  14.378   3.975  1.00  0.00     0.031 C 
ATOM     59  C   UNL     1      -6.255  17.729  -1.004  1.00  0.00     0.029 A 
ATOM     60  C   UNL     1      -6.248  16.688  -0.091  1.00  0.00     0.049 A 
ATOM     61  H   UNL     1      -5.412  14.758  -0.272  1.00  0.00     0.167 HD
ATOM     62  C   UNL     1      -6.774  15.571   2.051  1.00  0.00     0.074 A 
ATOM     63  C   UNL     1      -7.345  15.541   3.381  1.00  0.00     0.031 C 
ATOM     64  C   UNL     1      -6.809  16.650   1.233  1.00  0.00     0.031 A 
BRANCH  51  65
ATOM     65  C   UNL     1      -3.958  15.761  -4.153  1.00  0.00    -0.014 A 
ATOM     66  C   UNL     1      -4.599  15.414  -5.352  1.00  0.00     0.009 A 
ATOM     67  C   UNL     1      -2.947  16.734  -4.177  1.00  0.00     0.009 A 
ATOM     68  C   UNL     1      -4.223  16.019  -6.553  1.00  0.00     0.001 A 
ATOM     69  C   UNL     1      -2.587  17.352  -5.376  1.00  0.00     0.001 A 
ATOM     70  C   UNL     1      -3.222  16.991  -6.563  1.00  0.00     0.000 A 
ENDBRANCH  51  65
BRANCH  52  71
ATOM     71  C   UNL     1      -6.430  11.608   4.534  1.00  0.00    -0.014 A 
ATOM     72  C   UNL     1      -7.769  11.342   4.858  1.00  0.00     0.009 A 
ATOM     73  C   UNL     1      -5.434  11.348   5.488  1.00  0.00     0.009 A 
ATOM     74  C   UNL     1      -8.106  10.857   6.124  1.00  0.00     0.001 A 
ATOM     75  C   UNL     1      -5.772  10.838   6.743  1.00  0.00     0.001 A 
ATOM     76  C   UNL     1      -7.107  10.604   7.063  1.00  0.00     0.000 A 
ENDBRANCH  52  71
BRANCH  64  77
ATOM     77  C   UNL     1      -7.504  17.880   1.745  1.00  0.00    -0.014 A 
ATOM     78  C   UNL     1      -6.917  18.687   2.732  1.00  0.00     0.009 A 
ATOM     79  C   UNL     1      -8.749  18.251   1.213  1.00  0.00     0.009 A 
ATOM     80  C   UNL     1      -7.581  19.822   3.201  1.00  0.00     0.001 A 
ATOM     81  C   UNL     1      -9.398  19.400   1.667  1.00  0.00     0.001 A 
ATOM     82  C   UNL     1      -8.818  20.179   2.667  1.00  0.00     0.000 A 
ENDBRANCH  64  77
ENDBRANCH  38  39
ENDBRANCH  31  33
ENDBRANCH  30  31
ENDBRANCH  29  30
ENDBRANCH  28  29
ENDBRANCH  27  28
ENDBRANCH   1  27
TORSDOF 16
