REMARK SMILES CC[C@@H](C)S(=O)(=O)c1cc(C(=O)OCCOCCOC(=O)c2ccc(-c3c4nc(c(-c5ccccc5)c5ccc([nH]5)c(-c5ccccc5)c5nc(c(-c6ccccc6)c6ccc3[nH]6)C=C5)C=C4)cc2)c(C)cc1C
REMARK SMILES IDX 15 1 14 2 13 3 11 4 12 5 10 6 8 7 9 8 73 9 72 10 74 11 70 12
REMARK SMILES IDX 71 13 5 14 6 15 7 16 3 17 4 18 2 19 1 20 16 21 17 22 18 23
REMARK SMILES IDX 19 24 20 25 21 26 22 27 23 28 69 29 24 30 68 31 25 32 26 33
REMARK SMILES IDX 27 34 62 35 28 36 67 37 61 38 63 39 29 40 66 41 60 42 59 43
REMARK SMILES IDX 30 45 52 46 37 47 51 48 38 49 41 50 50 51 64 52 39 53 40 54
REMARK SMILES IDX 49 56 65 57 42 58 31 59 32 60 36 61 33 62 35 63 34 64 53 65
REMARK SMILES IDX 54 66 58 67 55 68 57 69 56 70 43 71 44 72 48 73 45 74 47 75
REMARK SMILES IDX 46 76
REMARK H PARENT 63 44 41 55
REMARK Flexibility Score: inf
ROOT
ATOM      1  C   UNL     1      -5.613   4.883   4.574  1.00  0.00     0.202 C 
ENDROOT
BRANCH   1   2
ATOM      2  C   UNL     1      -5.489   4.204   3.211  1.00  0.00     0.261 C 
BRANCH   2   3
ATOM      3  O   UNL     1      -5.150   2.819   3.396  1.00  0.00    -0.460 OA
BRANCH   3   4
ATOM      4  C   UNL     1      -4.088   2.393   2.684  1.00  0.00     0.338 C 
ATOM      5  O   UNL     1      -3.525   2.994   1.780  1.00  0.00    -0.246 OA
BRANCH   4   6
ATOM      6  C   UNL     1      -3.517   1.152   3.256  1.00  0.00     0.064 A 
ATOM      7  C   UNL     1      -1.397   0.034   3.731  1.00  0.00     0.071 A 
ATOM      8  C   UNL     1      -2.128   1.189   3.434  1.00  0.00     0.036 A 
ATOM      9  C   UNL     1      -2.065  -1.191   3.866  1.00  0.00    -0.032 A 
ATOM     10  C   UNL     1      -3.478  -1.181   3.827  1.00  0.00     0.009 A 
ATOM     11  C   UNL     1      -1.396  -2.522   4.071  1.00  0.00     0.046 C 
ATOM     12  C   UNL     1      -4.223  -0.018   3.548  1.00  0.00    -0.036 A 
ATOM     13  C   UNL     1      -5.721  -0.122   3.510  1.00  0.00     0.045 C 
BRANCH   7  14
ATOM     14  S   UNL     1       0.366   0.272   3.939  1.00  0.00     0.181 S 
ATOM     15  O   UNL     1       0.960  -0.976   4.379  1.00  0.00    -0.223 OA
ATOM     16  O   UNL     1       0.507   1.450   4.776  1.00  0.00    -0.223 OA
BRANCH  14  17
ATOM     17  C   UNL     1       1.017   0.643   2.292  1.00  0.00     0.110 C 
ATOM     18  C   UNL     1       0.729   2.080   1.858  1.00  0.00     0.025 C 
BRANCH  17  19
ATOM     19  C   UNL     1       0.553  -0.396   1.259  1.00  0.00     0.016 C 
ATOM     20  C   UNL     1       1.125  -0.172  -0.133  1.00  0.00     0.005 C 
ENDBRANCH  17  19
ENDBRANCH  14  17
ENDBRANCH   7  14
ENDBRANCH   4   6
ENDBRANCH   3   4
ENDBRANCH   2   3
ENDBRANCH   1   2
BRANCH   1  21
ATOM     21  O   UNL     1      -4.384   5.061   5.282  1.00  0.00    -0.374 OA
BRANCH  21  22
ATOM     22  C   UNL     1      -3.817   3.914   5.917  1.00  0.00     0.202 C 
BRANCH  22  23
ATOM     23  C   UNL     1      -4.417   3.529   7.274  1.00  0.00     0.261 C 
BRANCH  23  24
ATOM     24  O   UNL     1      -5.789   3.108   7.163  1.00  0.00    -0.460 OA
BRANCH  24  25
ATOM     25  C   UNL     1      -6.694   3.991   7.645  1.00  0.00     0.338 C 
ATOM     26  O   UNL     1      -6.468   5.052   8.213  1.00  0.00    -0.246 OA
BRANCH  25  27
ATOM     27  C   UNL     1      -8.054   3.592   7.243  1.00  0.00     0.060 A 
ATOM     28  C   UNL     1      -8.855   4.559   6.621  1.00  0.00     0.016 A 
ATOM     29  C   UNL     1      -8.567   2.326   7.533  1.00  0.00     0.016 A 
ATOM     30  C   UNL     1     -10.188   4.281   6.331  1.00  0.00     0.010 A 
ATOM     31  C   UNL     1      -9.909   2.051   7.248  1.00  0.00     0.010 A 
ATOM     32  C   UNL     1     -10.733   3.038   6.679  1.00  0.00    -0.014 A 
BRANCH  32  33
ATOM     33  C   UNL     1     -12.197   2.828   6.575  1.00  0.00     0.031 A 
ATOM     34  C   UNL     1     -13.045   2.972   7.809  1.00  0.00     0.074 A 
ATOM     35  C   UNL     1     -12.769   2.544   5.393  1.00  0.00     0.049 A 
ATOM     36  N   UNL     1     -14.338   2.825   7.946  1.00  0.00    -0.248 NA
ATOM     37  C   UNL     1     -12.342   3.329   9.051  1.00  0.00     0.031 C 
ATOM     38  C   UNL     1     -12.064   2.423   4.118  1.00  0.00     0.029 A 
ATOM     39  N   UNL     1     -14.083   2.305   5.078  1.00  0.00    -0.354 N 
ATOM     40  C   UNL     1     -14.603   3.062   9.289  1.00  0.00     0.074 A 
ATOM     41  C   UNL     1     -13.334   3.336   9.929  1.00  0.00     0.031 C 
ATOM     42  C   UNL     1     -12.956   2.131   3.155  1.00  0.00     0.029 A 
ATOM     43  C   UNL     1     -14.285   2.014   3.752  1.00  0.00     0.049 A 
ATOM     44  H   UNL     1     -14.811   2.339   5.740  1.00  0.00     0.167 HD
ATOM     45  C   UNL     1     -15.795   3.058   9.933  1.00  0.00     0.031 A 
ATOM     46  C   UNL     1     -15.412   1.677   3.097  1.00  0.00     0.031 A 
ATOM     47  C   UNL     1     -17.056   2.774   9.303  1.00  0.00     0.049 A 
ATOM     48  C   UNL     1     -16.713   1.601   3.849  1.00  0.00     0.074 A 
ATOM     49  C   UNL     1     -18.320   2.769   9.866  1.00  0.00     0.029 A 
ATOM     50  N   UNL     1     -17.211   2.436   7.968  1.00  0.00    -0.354 N 
ATOM     51  N   UNL     1     -16.954   1.856   5.112  1.00  0.00    -0.248 NA
ATOM     52  C   UNL     1     -17.899   1.195   3.080  1.00  0.00     0.031 C 
ATOM     53  C   UNL     1     -19.235   2.372   8.884  1.00  0.00     0.029 A 
ATOM     54  C   UNL     1     -18.546   2.187   7.696  1.00  0.00     0.049 A 
ATOM     55  H   UNL     1     -16.481   2.380   7.310  1.00  0.00     0.167 HD
ATOM     56  C   UNL     1     -18.320   1.669   5.284  1.00  0.00     0.074 A 
ATOM     57  C   UNL     1     -18.856   1.289   3.993  1.00  0.00     0.031 C 
ATOM     58  C   UNL     1     -19.065   1.804   6.408  1.00  0.00     0.031 A 
BRANCH  45  59
ATOM     59  C   UNL     1     -15.779   3.332  11.410  1.00  0.00    -0.014 A 
ATOM     60  C   UNL     1     -15.524   4.618  11.912  1.00  0.00     0.009 A 
ATOM     61  C   UNL     1     -16.046   2.290  12.312  1.00  0.00     0.009 A 
ATOM     62  C   UNL     1     -15.499   4.845  13.290  1.00  0.00     0.001 A 
ATOM     63  C   UNL     1     -16.046   2.526  13.688  1.00  0.00     0.001 A 
ATOM     64  C   UNL     1     -15.763   3.801  14.176  1.00  0.00     0.000 A 
ENDBRANCH  45  59
BRANCH  46  65
ATOM     65  C   UNL     1     -15.362   1.372   1.644  1.00  0.00    -0.014 A 
ATOM     66  C   UNL     1     -15.929   2.251   0.709  1.00  0.00     0.009 A 
ATOM     67  C   UNL     1     -14.754   0.193   1.186  1.00  0.00     0.009 A 
ATOM     68  C   UNL     1     -15.904   1.946  -0.653  1.00  0.00     0.001 A 
ATOM     69  C   UNL     1     -14.709  -0.098  -0.178  1.00  0.00     0.001 A 
ATOM     70  C   UNL     1     -15.290   0.775  -1.096  1.00  0.00     0.000 A 
ENDBRANCH  46  65
BRANCH  58  71
ATOM     71  C   UNL     1     -20.544   1.570   6.288  1.00  0.00    -0.014 A 
ATOM     72  C   UNL     1     -21.069   0.278   6.134  1.00  0.00     0.009 A 
ATOM     73  C   UNL     1     -21.428   2.658   6.371  1.00  0.00     0.009 A 
ATOM     74  C   UNL     1     -22.448   0.083   6.035  1.00  0.00     0.001 A 
ATOM     75  C   UNL     1     -22.808   2.457   6.300  1.00  0.00     0.001 A 
ATOM     76  C   UNL     1     -23.316   1.172   6.123  1.00  0.00     0.000 A 
ENDBRANCH  58  71
ENDBRANCH  32  33
ENDBRANCH  25  27
ENDBRANCH  24  25
ENDBRANCH  23  24
ENDBRANCH  22  23
ENDBRANCH  21  22
ENDBRANCH   1  21
TORSDOF 17
