REMARK SMILES CCC(CC)NC(=O)NC[C@H]1CC[C@H](C(=O)OCCOCCOC(=O)c2ccc(-c3c4nc(c(-c5ccccc5)c5ccc([nH]5)c(-c5ccccc5)c5nc(c(-c6ccccc6)c6ccc3[nH]6)C=C5)C=C4)cc2)O1
REMARK SMILES IDX 19 1 18 2 17 3 15 4 16 5 14 6 11 7 12 8 74 9 13 10 10 11
REMARK SMILES IDX 9 12 6 13 7 14 8 16 3 18 2 19 1 20 4 21 5 22 20 23 21 24
REMARK SMILES IDX 22 25 23 26 24 27 25 28 26 29 27 30 73 31 28 32 72 33 29 34
REMARK SMILES IDX 30 35 31 36 66 37 32 38 71 39 65 40 67 41 33 42 70 43 64 44
REMARK SMILES IDX 63 45 34 47 56 48 41 49 55 50 42 51 45 52 54 53 68 54 43 55
REMARK SMILES IDX 44 56 53 58 69 59 46 60 35 61 36 62 40 63 37 64 39 65 38 66
REMARK SMILES IDX 57 67 58 68 62 69 59 70 61 71 60 72 47 73 48 74 52 75 49 76
REMARK SMILES IDX 51 77 50 78
REMARK H PARENT 6 15 9 17 67 46 45 57
REMARK Flexibility Score: inf
ROOT
ATOM      1  C   UNL     1       0.067  -4.189  -4.565  1.00  0.00     0.202 C 
ENDROOT
BRANCH   1   2
ATOM      2  C   UNL     1       0.544  -3.361  -3.369  1.00  0.00     0.261 C 
BRANCH   2   3
ATOM      3  O   UNL     1       1.739  -2.628  -3.693  1.00  0.00    -0.461 OA
BRANCH   3   4
ATOM      4  C   UNL     1       2.841  -2.935  -2.955  1.00  0.00     0.335 C 
ATOM      5  O   UNL     1       2.854  -3.705  -2.001  1.00  0.00    -0.249 OA
BRANCH   4   6
ATOM      6  C   UNL     1       4.094  -2.217  -3.459  1.00  0.00     0.228 C 
ATOM      7  C   UNL     1       4.655   0.025  -3.756  1.00  0.00     0.138 C 
ATOM      8  C   UNL     1       4.004  -0.440  -5.043  1.00  0.00     0.037 C 
ATOM      9  O   UNL     1       4.276  -0.963  -2.781  1.00  0.00    -0.361 OA
ATOM     10  C   UNL     1       4.157  -1.936  -4.960  1.00  0.00     0.047 C 
BRANCH   7  11
ATOM     11  C   UNL     1       6.196   0.093  -3.798  1.00  0.00     0.149 C 
BRANCH  11  12
ATOM     12  N   UNL     1       6.733   0.846  -4.911  1.00  0.00    -0.336 N 
ATOM     13  N   UNL     1       6.548   3.129  -4.338  1.00  0.00    -0.335 N 
ATOM     14  C   UNL     1       6.890   2.145  -5.173  1.00  0.00     0.315 C 
ATOM     15  H   UNL     1       6.679   4.021  -4.733  1.00  0.00     0.165 HD
ATOM     16  O   UNL     1       7.374   2.453  -6.264  1.00  0.00    -0.249 OA
ATOM     17  H   UNL     1       7.057   0.269  -5.640  1.00  0.00     0.165 HD
BRANCH  13  18
ATOM     18  C   UNL     1       6.025   3.194  -2.977  1.00  0.00     0.083 C 
BRANCH  18  19
ATOM     19  C   UNL     1       7.165   3.453  -1.983  1.00  0.00     0.021 C 
ATOM     20  C   UNL     1       6.738   3.247  -0.537  1.00  0.00     0.006 C 
ENDBRANCH  18  19
BRANCH  18  21
ATOM     21  C   UNL     1       4.845   4.180  -2.908  1.00  0.00     0.021 C 
ATOM     22  C   UNL     1       5.207   5.643  -3.115  1.00  0.00     0.006 C 
ENDBRANCH  18  21
ENDBRANCH  13  18
ENDBRANCH  11  12
ENDBRANCH   7  11
ENDBRANCH   4   6
ENDBRANCH   3   4
ENDBRANCH   2   3
ENDBRANCH   1   2
BRANCH   1  23
ATOM     23  O   UNL     1       0.870  -5.315  -4.918  1.00  0.00    -0.374 OA
BRANCH  23  24
ATOM     24  C   UNL     1       2.088  -5.066  -5.616  1.00  0.00     0.202 C 
BRANCH  24  25
ATOM     25  C   UNL     1       1.966  -4.712  -7.105  1.00  0.00     0.261 C 
BRANCH  25  26
ATOM     26  O   UNL     1       1.252  -3.481  -7.329  1.00  0.00    -0.460 OA
BRANCH  26  27
ATOM     27  C   UNL     1       0.074  -3.623  -7.984  1.00  0.00     0.338 C 
ATOM     28  O   UNL     1      -0.387  -4.649  -8.468  1.00  0.00    -0.246 OA
BRANCH  27  29
ATOM     29  C   UNL     1      -0.717  -2.382  -7.906  1.00  0.00     0.060 A 
ATOM     30  C   UNL     1      -1.993  -2.467  -7.334  1.00  0.00     0.016 A 
ATOM     31  C   UNL     1      -0.271  -1.184  -8.469  1.00  0.00     0.016 A 
ATOM     32  C   UNL     1      -2.847  -1.366  -7.363  1.00  0.00     0.010 A 
ATOM     33  C   UNL     1      -1.136  -0.082  -8.506  1.00  0.00     0.010 A 
ATOM     34  C   UNL     1      -2.439  -0.178  -7.984  1.00  0.00    -0.014 A 
BRANCH  34  35
ATOM     35  C   UNL     1      -3.428   0.908  -8.196  1.00  0.00     0.031 A 
ATOM     36  C   UNL     1      -4.110   1.033  -9.532  1.00  0.00     0.074 A 
ATOM     37  C   UNL     1      -3.754   1.748  -7.196  1.00  0.00     0.049 A 
ATOM     38  N   UNL     1      -5.008   1.902  -9.925  1.00  0.00    -0.248 NA
ATOM     39  C   UNL     1      -3.736   0.048 -10.559  1.00  0.00     0.031 C 
ATOM     40  C   UNL     1      -3.206   1.706  -5.842  1.00  0.00     0.029 A 
ATOM     41  N   UNL     1      -4.634   2.801  -7.172  1.00  0.00    -0.354 N 
ATOM     42  C   UNL     1      -5.300   1.572 -11.243  1.00  0.00     0.074 A 
ATOM     43  C   UNL     1      -4.470   0.439 -11.591  1.00  0.00     0.031 C 
ATOM     44  C   UNL     1      -3.761   2.693  -5.117  1.00  0.00     0.029 A 
ATOM     45  C   UNL     1      -4.679   3.453  -5.963  1.00  0.00     0.049 A 
ATOM     46  H   UNL     1      -5.181   3.065  -7.947  1.00  0.00     0.167 HD
ATOM     47  C   UNL     1      -6.184   2.155 -12.088  1.00  0.00     0.031 A 
ATOM     48  C   UNL     1      -5.369   4.547  -5.588  1.00  0.00     0.031 A 
ATOM     49  C   UNL     1      -7.010   3.284 -11.752  1.00  0.00     0.049 A 
ATOM     50  C   UNL     1      -6.283   5.225  -6.574  1.00  0.00     0.074 A 
ATOM     51  C   UNL     1      -7.952   3.925 -12.537  1.00  0.00     0.029 A 
ATOM     52  N   UNL     1      -6.987   3.943 -10.534  1.00  0.00    -0.354 N 
ATOM     53  N   UNL     1      -6.574   4.880  -7.804  1.00  0.00    -0.248 NA
ATOM     54  C   UNL     1      -6.969   6.442  -6.112  1.00  0.00     0.031 C 
ATOM     55  C   UNL     1      -8.462   5.007 -11.813  1.00  0.00     0.029 A 
ATOM     56  C   UNL     1      -7.875   5.005 -10.558  1.00  0.00     0.049 A 
ATOM     57  H   UNL     1      -6.423   3.695  -9.767  1.00  0.00     0.167 HD
ATOM     58  C   UNL     1      -7.495   5.820  -8.253  1.00  0.00     0.074 A 
ATOM     59  C   UNL     1      -7.725   6.740  -7.159  1.00  0.00     0.031 C 
ATOM     60  C   UNL     1      -8.098   5.911  -9.463  1.00  0.00     0.031 A 
BRANCH  47  61
ATOM     61  C   UNL     1      -6.286   1.600 -13.479  1.00  0.00    -0.014 A 
ATOM     62  C   UNL     1      -6.940   0.385 -13.733  1.00  0.00     0.009 A 
ATOM     63  C   UNL     1      -5.772   2.336 -14.559  1.00  0.00     0.009 A 
ATOM     64  C   UNL     1      -7.058  -0.093 -15.040  1.00  0.00     0.001 A 
ATOM     65  C   UNL     1      -5.911   1.867 -15.866  1.00  0.00     0.001 A 
ATOM     66  C   UNL     1      -6.549   0.651 -16.105  1.00  0.00     0.000 A 
ENDBRANCH  47  61
BRANCH  48  67
ATOM     67  C   UNL     1      -5.206   5.102  -4.219  1.00  0.00    -0.014 A 
ATOM     68  C   UNL     1      -6.259   5.048  -3.293  1.00  0.00     0.009 A 
ATOM     69  C   UNL     1      -4.008   5.731  -3.847  1.00  0.00     0.009 A 
ATOM     70  C   UNL     1      -6.125   5.638  -2.034  1.00  0.00     0.001 A 
ATOM     71  C   UNL     1      -3.866   6.296  -2.578  1.00  0.00     0.001 A 
ATOM     72  C   UNL     1      -4.929   6.259  -1.677  1.00  0.00     0.000 A 
ENDBRANCH  48  67
BRANCH  60  73
ATOM     73  C   UNL     1      -9.090   7.023  -9.658  1.00  0.00    -0.014 A 
ATOM     74  C   UNL     1      -8.672   8.354  -9.804  1.00  0.00     0.009 A 
ATOM     75  C   UNL     1     -10.460   6.726  -9.737  1.00  0.00     0.009 A 
ATOM     76  C   UNL     1      -9.611   9.371  -9.994  1.00  0.00     0.001 A 
ATOM     77  C   UNL     1     -11.393   7.740  -9.954  1.00  0.00     0.001 A 
ATOM     78  C   UNL     1     -10.969   9.062 -10.074  1.00  0.00     0.000 A 
ENDBRANCH  60  73
ENDBRANCH  34  35
ENDBRANCH  27  29
ENDBRANCH  26  27
ENDBRANCH  25  26
ENDBRANCH  24  25
ENDBRANCH  23  24
ENDBRANCH   1  23
TORSDOF 19
