REMARK SMILES Cc1cc(F)c([C@@H](C)[N@@H+]2C[C@H](C)[C@H](C(=O)OCCOCCOC(=O)c3ccc(-c4c5nc(c(-c6ccccc6)c6ccc([nH]6)c(-c6ccccc6)c6nc(c(-c7ccccc7)c7ccc4[nH]7)C=C6)C=C5)cc3)C2)cc1F
REMARK SMILES IDX 19 1 18 2 17 3 16 4 14 5 15 6 13 7 9 8 10 9 73 10 11 12
REMARK SMILES IDX 12 13 7 14 8 15 6 16 1 17 2 18 3 19 75 20 4 21 74 22 76 23
REMARK SMILES IDX 5 24 20 25 21 26 22 27 23 28 24 29 25 30 26 31 72 32 27 33
REMARK SMILES IDX 71 34 28 35 29 36 30 37 65 38 31 39 70 40 64 41 66 42 32 43
REMARK SMILES IDX 69 44 63 45 62 46 33 48 55 49 40 50 54 51 41 52 44 53 53 54
REMARK SMILES IDX 67 55 42 56 43 57 52 59 68 60 45 61 34 62 35 63 39 64 36 65
REMARK SMILES IDX 38 66 37 67 56 68 57 69 61 70 58 71 60 72 59 73 46 74 47 75
REMARK SMILES IDX 51 76 48 77 50 78 49 79
REMARK H PARENT 9 11 66 47 44 58
REMARK Flexibility Score: inf
ROOT
ATOM      1  O   UNL     1      -6.396   1.219  -2.911  1.00  0.00    -0.374 OA
ENDROOT
BRANCH   1   2
ATOM      2  C   UNL     1      -5.238   0.470  -3.273  1.00  0.00     0.202 C 
BRANCH   2   3
ATOM      3  C   UNL     1      -4.174   1.192  -4.100  1.00  0.00     0.261 C 
BRANCH   3   4
ATOM      4  O   UNL     1      -3.595   2.280  -3.362  1.00  0.00    -0.463 OA
BRANCH   4   5
ATOM      5  C   UNL     1      -3.982   3.519  -3.749  1.00  0.00     0.315 C 
ATOM      6  O   UNL     1      -4.676   3.756  -4.732  1.00  0.00    -0.252 OA
BRANCH   5   7
ATOM      7  C   UNL     1      -3.423   4.625  -2.885  1.00  0.00     0.162 C 
ATOM      8  N   UNL     1      -1.321   5.599  -2.330  1.00  0.00    -0.328 N 
ATOM      9  C   UNL     1      -2.135   5.553  -1.120  1.00  0.00     0.267 C 
ATOM     10  C   UNL     1      -2.077   5.049  -3.449  1.00  0.00     0.278 C 
ATOM     11  H   UNL     1      -1.156   6.585  -2.533  1.00  0.00     0.348 HD
ATOM     12  C   UNL     1      -3.220   4.498  -1.368  1.00  0.00     0.061 C 
ATOM     13  C   UNL     1      -2.804   3.153  -0.787  1.00  0.00     0.015 C 
BRANCH   8  14
ATOM     14  C   UNL     1       0.106   5.260  -2.228  1.00  0.00     0.215 C 
ATOM     15  C   UNL     1       0.854   5.545  -3.539  1.00  0.00     0.081 C 
BRANCH  14  16
ATOM     16  C   UNL     1       0.429   3.884  -1.659  1.00  0.00     0.048 A 
ATOM     17  C   UNL     1       1.217   0.037   0.189  1.00  0.00     0.047 C 
ATOM     18  C   UNL     1       0.938   1.357  -0.459  1.00  0.00    -0.012 A 
ATOM     19  C   UNL     1       0.593   1.446  -1.810  1.00  0.00     0.046 A 
ATOM     20  C   UNL     1       1.059   2.537   0.272  1.00  0.00     0.126 A 
ATOM     21  C   UNL     1       0.355   2.694  -2.397  1.00  0.00     0.132 A 
ATOM     22  C   UNL     1       0.807   3.780  -0.307  1.00  0.00     0.052 A 
ATOM     23  F   UNL     1       1.411   2.487   1.564  1.00  0.00    -0.207 F 
ATOM     24  F   UNL     1       0.009   2.704  -3.690  1.00  0.00    -0.206 F 
ENDBRANCH  14  16
ENDBRANCH   8  14
ENDBRANCH   5   7
ENDBRANCH   4   5
ENDBRANCH   3   4
ENDBRANCH   2   3
ENDBRANCH   1   2
BRANCH   1  25
ATOM     25  C   UNL     1      -6.294   2.090  -1.785  1.00  0.00     0.202 C 
BRANCH  25  26
ATOM     26  C   UNL     1      -6.323   1.437  -0.392  1.00  0.00     0.261 C 
BRANCH  26  27
ATOM     27  O   UNL     1      -5.162   0.622  -0.135  1.00  0.00    -0.460 OA
BRANCH  27  28
ATOM     28  C   UNL     1      -5.364  -0.717  -0.173  1.00  0.00     0.338 C 
ATOM     29  O   UNL     1      -6.431  -1.296  -0.301  1.00  0.00    -0.246 OA
BRANCH  28  30
ATOM     30  C   UNL     1      -4.059  -1.410  -0.259  1.00  0.00     0.060 A 
ATOM     31  C   UNL     1      -3.002  -1.113   0.602  1.00  0.00     0.016 A 
ATOM     32  C   UNL     1      -3.911  -2.408  -1.234  1.00  0.00     0.016 A 
ATOM     33  C   UNL     1      -1.817  -1.853   0.511  1.00  0.00     0.010 A 
ATOM     34  C   UNL     1      -2.723  -3.136  -1.328  1.00  0.00     0.010 A 
ATOM     35  C   UNL     1      -1.670  -2.882  -0.441  1.00  0.00    -0.014 A 
BRANCH  35  36
ATOM     36  C   UNL     1      -0.488  -3.787  -0.404  1.00  0.00     0.031 A 
ATOM     37  C   UNL     1       0.556  -3.792  -1.486  1.00  0.00     0.074 A 
ATOM     38  C   UNL     1      -0.382  -4.656   0.622  1.00  0.00     0.049 A 
ATOM     39  N   UNL     1       1.657  -4.498  -1.556  1.00  0.00    -0.248 NA
ATOM     40  C   UNL     1       0.347  -2.895  -2.634  1.00  0.00     0.031 C 
ATOM     41  C   UNL     1      -1.348  -4.779   1.716  1.00  0.00     0.029 A 
ATOM     42  N   UNL     1       0.576  -5.595   0.918  1.00  0.00    -0.354 N 
ATOM     43  C   UNL     1       2.280  -4.126  -2.741  1.00  0.00     0.074 A 
ATOM     44  C   UNL     1       1.416  -3.154  -3.379  1.00  0.00     0.031 C 
ATOM     45  C   UNL     1      -0.919  -5.713   2.576  1.00  0.00     0.029 A 
ATOM     46  C   UNL     1       0.325  -6.292   2.077  1.00  0.00     0.049 A 
ATOM     47  H   UNL     1       1.368  -5.754   0.354  1.00  0.00     0.167 HD
ATOM     48  C   UNL     1       3.466  -4.549  -3.239  1.00  0.00     0.031 A 
ATOM     49  C   UNL     1       1.005  -7.290   2.675  1.00  0.00     0.031 A 
ATOM     50  C   UNL     1       4.315  -5.532  -2.611  1.00  0.00     0.049 A 
ATOM     51  C   UNL     1       2.297  -7.768   2.074  1.00  0.00     0.074 A 
ATOM     52  C   UNL     1       5.558  -5.978  -3.030  1.00  0.00     0.029 A 
ATOM     53  N   UNL     1       4.012  -6.229  -1.453  1.00  0.00    -0.354 N 
ATOM     54  N   UNL     1       2.916  -7.335   1.003  1.00  0.00    -0.248 NA
ATOM     55  C   UNL     1       2.996  -8.860   2.768  1.00  0.00     0.031 C 
ATOM     56  C   UNL     1       5.968  -7.002  -2.176  1.00  0.00     0.029 A 
ATOM     57  C   UNL     1       5.027  -7.130  -1.168  1.00  0.00     0.049 A 
ATOM     58  H   UNL     1       3.198  -6.105  -0.913  1.00  0.00     0.167 HD
ATOM     59  C   UNL     1       4.086  -8.079   0.911  1.00  0.00     0.074 A 
ATOM     60  C   UNL     1       4.103  -8.977   2.046  1.00  0.00     0.031 C 
ATOM     61  C   UNL     1       5.053  -8.020  -0.035  1.00  0.00     0.031 A 
BRANCH  48  62
ATOM     62  C   UNL     1       3.965  -3.954  -4.530  1.00  0.00    -0.014 A 
ATOM     63  C   UNL     1       4.116  -4.770  -5.665  1.00  0.00     0.009 A 
ATOM     64  C   UNL     1       4.459  -2.642  -4.571  1.00  0.00     0.009 A 
ATOM     65  C   UNL     1       4.782  -4.297  -6.797  1.00  0.00     0.001 A 
ATOM     66  C   UNL     1       5.099  -2.161  -5.716  1.00  0.00     0.001 A 
ATOM     67  C   UNL     1       5.274  -2.994  -6.821  1.00  0.00     0.000 A 
ENDBRANCH  48  62
BRANCH  49  68
ATOM     68  C   UNL     1       0.474  -7.886   3.932  1.00  0.00    -0.014 A 
ATOM     69  C   UNL     1      -0.739  -8.597   3.928  1.00  0.00     0.009 A 
ATOM     70  C   UNL     1       1.151  -7.717   5.149  1.00  0.00     0.009 A 
ATOM     71  C   UNL     1      -1.274  -9.100   5.115  1.00  0.00     0.001 A 
ATOM     72  C   UNL     1       0.634  -8.257   6.329  1.00  0.00     0.001 A 
ATOM     73  C   UNL     1      -0.583  -8.937   6.313  1.00  0.00     0.000 A 
ENDBRANCH  49  68
BRANCH  61  74
ATOM     74  C   UNL     1       6.244  -8.933   0.099  1.00  0.00    -0.014 A 
ATOM     75  C   UNL     1       7.522  -8.384   0.304  1.00  0.00     0.009 A 
ATOM     76  C   UNL     1       6.128 -10.316  -0.103  1.00  0.00     0.009 A 
ATOM     77  C   UNL     1       8.658  -9.194   0.276  1.00  0.00     0.001 A 
ATOM     78  C   UNL     1       7.264 -11.130  -0.094  1.00  0.00     0.001 A 
ATOM     79  C   UNL     1       8.528 -10.568   0.081  1.00  0.00     0.000 A 
ENDBRANCH  61  74
ENDBRANCH  35  36
ENDBRANCH  28  30
ENDBRANCH  27  28
ENDBRANCH  26  27
ENDBRANCH  25  26
ENDBRANCH   1  25
TORSDOF 16
