REMARK SMILES Cc1ccc(N2C(=O)N=C(OCCOCCOC(=O)c3ccc(-c4c5nc(c(-c6ccccc6)c6ccc([nH]6)c(-c6ccccc6)c6nc(c(-c7ccccc7)c7ccc4[nH]7)C=C6)C=C5)cc3)/C(=C\c3ccccc3OCc3cccc(C(=O)[O-])c3)C2=O)cc1
REMARK SMILES IDX 13 1 12 2 11 3 10 4 6 5 7 6 87 7 8 8 9 9 68 10 88 11 69 12
REMARK SMILES IDX 5 13 1 14 2 15 3 16 90 17 4 18 89 19 70 20 71 21 75 22 72 23
REMARK SMILES IDX 74 24 73 25 76 26 77 27 78 28 79 29 86 30 80 31 82 32 81 33
REMARK SMILES IDX 83 34 84 35 85 36 14 37 15 38 16 39 17 40 18 41 19 42 20 43
REMARK SMILES IDX 21 44 67 45 22 46 66 47 23 48 24 49 25 50 60 51 26 52 65 53
REMARK SMILES IDX 59 54 61 55 27 56 64 57 58 58 57 59 28 61 50 62 35 63 49 64
REMARK SMILES IDX 36 65 39 66 48 67 62 68 37 69 38 70 47 72 63 73 40 74 29 75
REMARK SMILES IDX 30 76 34 77 31 78 33 79 32 80 51 81 52 82 56 83 53 84 55 85
REMARK SMILES IDX 54 86 41 87 42 88 46 89 43 90 45 91 44 92
REMARK H PARENT 61 60 39 71
REMARK Flexibility Score: inf
ROOT
ATOM      1  C   UNL     1      -7.125   3.729   2.373  1.00  0.00     0.202 C 
ENDROOT
BRANCH   1   2
ATOM      2  C   UNL     1      -7.380   2.219   2.633  1.00  0.00     0.260 C 
BRANCH   2   3
ATOM      3  O   UNL     1      -6.195   1.426   2.917  1.00  0.00    -0.475 OA
BRANCH   3   4
ATOM      4  C   UNL     1      -5.143   1.054   2.160  1.00  0.00     0.231 C 
ATOM      5  N   UNL     1      -2.603   0.644   1.148  1.00  0.00    -0.226 N 
ATOM      6  C   UNL     1      -3.164  -0.165   2.163  1.00  0.00     0.358 C 
ATOM      7  C   UNL     1      -3.399   1.509   0.409  1.00  0.00     0.272 C 
ATOM      8  O   UNL     1      -2.643  -1.173   2.588  1.00  0.00    -0.245 OA
ATOM      9  N   UNL     1      -4.345   0.240   2.743  1.00  0.00    -0.156 NA
ATOM     10  C   UNL     1      -4.823   1.595   0.847  1.00  0.00     0.103 C 
ATOM     11  O   UNL     1      -3.058   2.033  -0.659  1.00  0.00    -0.268 OA
ATOM     12  C   UNL     1      -5.618   1.980  -0.161  1.00  0.00     0.031 C 
BRANCH   5  13
ATOM     13  C   UNL     1      -1.216   0.474   0.739  1.00  0.00     0.054 A 
ATOM     14  C   UNL     1       3.009   0.143  -0.206  1.00  0.00     0.044 C 
ATOM     15  C   UNL     1       1.539   0.252   0.052  1.00  0.00    -0.051 A 
ATOM     16  C   UNL     1       0.831  -0.855   0.508  1.00  0.00     0.005 A 
ATOM     17  C   UNL     1       0.855   1.451  -0.136  1.00  0.00     0.005 A 
ATOM     18  C   UNL     1      -0.510  -0.728   0.881  1.00  0.00     0.027 A 
ATOM     19  C   UNL     1      -0.502   1.554   0.190  1.00  0.00     0.027 A 
ENDBRANCH   5  13
BRANCH  12  20
ATOM     20  C   UNL     1      -7.040   1.815  -0.318  1.00  0.00     0.018 A 
ATOM     21  C   UNL     1      -7.978   2.908  -0.428  1.00  0.00     0.012 A 
ATOM     22  C   UNL     1      -7.504   0.552  -0.425  1.00  0.00     0.127 A 
ATOM     23  C   UNL     1      -9.333   2.842  -0.763  1.00  0.00     0.001 A 
ATOM     24  C   UNL     1      -8.932   0.554  -0.746  1.00  0.00     0.047 A 
ATOM     25  C   UNL     1      -9.803   1.615  -1.025  1.00  0.00     0.004 A 
BRANCH  22  26
ATOM     26  O   UNL     1      -6.721  -0.648  -0.141  1.00  0.00    -0.488 OA
BRANCH  26  27
ATOM     27  C   UNL     1      -5.378  -1.154  -0.796  1.00  0.00     0.265 C 
BRANCH  27  28
ATOM     28  C   UNL     1      -4.602  -2.532  -0.385  1.00  0.00    -0.010 A 
ATOM     29  C   UNL     1      -3.216  -2.550  -0.192  1.00  0.00     0.007 A 
ATOM     30  C   UNL     1      -5.066  -3.861  -0.433  1.00  0.00     0.017 A 
ATOM     31  C   UNL     1      -2.475  -3.715   0.196  1.00  0.00     0.001 A 
ATOM     32  C   UNL     1      -4.400  -5.049  -0.010  1.00  0.00    -0.002 A 
ATOM     33  C   UNL     1      -3.082  -4.953   0.363  1.00  0.00     0.010 A 
BRANCH  32  34
ATOM     34  C   UNL     1      -5.031  -6.412  -0.040  1.00  0.00     0.071 C 
ATOM     35  O   UNL     1      -4.497  -7.458   0.272  1.00  0.00    -0.545 OA
ATOM     36  O   UNL     1      -6.313  -6.404  -0.455  1.00  0.00    -0.545 OA
ENDBRANCH  32  34
ENDBRANCH  27  28
ENDBRANCH  26  27
ENDBRANCH  22  26
ENDBRANCH  12  20
ENDBRANCH   3   4
ENDBRANCH   2   3
ENDBRANCH   1   2
BRANCH   1  37
ATOM     37  O   UNL     1      -6.078   3.860   1.433  1.00  0.00    -0.374 OA
BRANCH  37  38
ATOM     38  C   UNL     1      -5.499   5.075   1.003  1.00  0.00     0.202 C 
BRANCH  38  39
ATOM     39  C   UNL     1      -6.202   5.845  -0.153  1.00  0.00     0.261 C 
BRANCH  39  40
ATOM     40  O   UNL     1      -6.103   5.127  -1.435  1.00  0.00    -0.460 OA
BRANCH  40  41
ATOM     41  C   UNL     1      -7.168   5.137  -2.315  1.00  0.00     0.338 C 
ATOM     42  O   UNL     1      -8.139   5.872  -2.220  1.00  0.00    -0.246 OA
BRANCH  41  43
ATOM     43  C   UNL     1      -7.140   3.890  -3.194  1.00  0.00     0.060 A 
ATOM     44  C   UNL     1      -8.336   3.306  -3.666  1.00  0.00     0.016 A 
ATOM     45  C   UNL     1      -5.997   3.106  -3.224  1.00  0.00     0.016 A 
ATOM     46  C   UNL     1      -8.437   1.900  -3.890  1.00  0.00     0.010 A 
ATOM     47  C   UNL     1      -6.123   1.710  -3.360  1.00  0.00     0.010 A 
ATOM     48  C   UNL     1      -7.360   1.060  -3.602  1.00  0.00    -0.014 A 
BRANCH  48  49
ATOM     49  C   UNL     1      -7.317  -0.435  -3.777  1.00  0.00     0.031 A 
ATOM     50  C   UNL     1      -6.608  -0.826  -5.017  1.00  0.00     0.074 A 
ATOM     51  C   UNL     1      -7.636  -1.472  -2.932  1.00  0.00     0.049 A 
ATOM     52  N   UNL     1      -6.567  -2.019  -5.498  1.00  0.00    -0.248 NA
ATOM     53  C   UNL     1      -5.900   0.139  -5.865  1.00  0.00     0.031 C 
ATOM     54  C   UNL     1      -7.055  -2.800  -2.878  1.00  0.00     0.029 A 
ATOM     55  N   UNL     1      -8.360  -1.570  -1.767  1.00  0.00    -0.354 N 
ATOM     56  C   UNL     1      -5.452  -2.041  -6.291  1.00  0.00     0.074 A 
ATOM     57  C   UNL     1      -5.298  -0.680  -6.724  1.00  0.00     0.031 C 
ATOM     58  C   UNL     1      -7.655  -3.569  -1.948  1.00  0.00     0.029 A 
ATOM     59  C   UNL     1      -8.635  -2.802  -1.263  1.00  0.00     0.049 A 
ATOM     60  H   UNL     1      -8.675  -0.759  -1.305  1.00  0.00     0.167 HD
ATOM     61  C   UNL     1      -4.620  -3.121  -6.229  1.00  0.00     0.031 A 
ATOM     62  C   UNL     1      -9.745  -3.199  -0.610  1.00  0.00     0.031 A 
ATOM     63  C   UNL     1      -5.193  -4.239  -5.394  1.00  0.00     0.049 A 
ATOM     64  C   UNL     1     -10.189  -4.247  -1.618  1.00  0.00     0.074 A 
ATOM     65  C   UNL     1      -4.686  -5.071  -4.408  1.00  0.00     0.029 A 
ATOM     66  N   UNL     1      -6.604  -4.476  -5.356  1.00  0.00    -0.354 N 
ATOM     67  N   UNL     1      -9.852  -4.172  -2.904  1.00  0.00    -0.248 NA
ATOM     68  C   UNL     1     -10.481  -5.607  -1.195  1.00  0.00     0.031 C 
ATOM     69  C   UNL     1      -5.784  -5.747  -3.768  1.00  0.00     0.029 A 
ATOM     70  C   UNL     1      -7.004  -5.309  -4.299  1.00  0.00     0.049 A 
ATOM     71  H   UNL     1      -7.233  -4.091  -6.008  1.00  0.00     0.167 HD
ATOM     72  C   UNL     1      -9.428  -5.429  -3.301  1.00  0.00     0.074 A 
ATOM     73  C   UNL     1      -9.971  -6.296  -2.232  1.00  0.00     0.031 C 
ATOM     74  C   UNL     1      -8.405  -5.824  -4.155  1.00  0.00     0.031 A 
BRANCH  61  75
ATOM     75  C   UNL     1      -3.164  -3.027  -6.749  1.00  0.00    -0.014 A 
ATOM     76  C   UNL     1      -2.300  -4.128  -6.665  1.00  0.00     0.009 A 
ATOM     77  C   UNL     1      -2.564  -1.875  -7.321  1.00  0.00     0.009 A 
ATOM     78  C   UNL     1      -0.967  -4.086  -7.136  1.00  0.00     0.001 A 
ATOM     79  C   UNL     1      -1.251  -1.828  -7.824  1.00  0.00     0.001 A 
ATOM     80  C   UNL     1      -0.447  -2.943  -7.732  1.00  0.00     0.000 A 
ENDBRANCH  61  75
BRANCH  62  81
ATOM     81  C   UNL     1     -10.374  -2.262   0.411  1.00  0.00    -0.014 A 
ATOM     82  C   UNL     1      -9.654  -2.011   1.624  1.00  0.00     0.009 A 
ATOM     83  C   UNL     1     -11.411  -1.349   0.150  1.00  0.00     0.009 A 
ATOM     84  C   UNL     1      -9.876  -0.877   2.448  1.00  0.00     0.001 A 
ATOM     85  C   UNL     1     -11.625  -0.200   0.972  1.00  0.00     0.001 A 
ATOM     86  C   UNL     1     -10.838   0.056   2.096  1.00  0.00     0.000 A 
ENDBRANCH  62  81
BRANCH  74  87
ATOM     87  C   UNL     1      -8.751  -6.940  -5.086  1.00  0.00    -0.014 A 
ATOM     88  C   UNL     1     -10.019  -7.524  -5.133  1.00  0.00     0.009 A 
ATOM     89  C   UNL     1      -7.817  -7.310  -6.074  1.00  0.00     0.009 A 
ATOM     90  C   UNL     1     -10.325  -8.468  -6.103  1.00  0.00     0.001 A 
ATOM     91  C   UNL     1      -8.136  -8.208  -7.075  1.00  0.00     0.001 A 
ATOM     92  C   UNL     1      -9.389  -8.798  -7.078  1.00  0.00     0.000 A 
ENDBRANCH  74  87
ENDBRANCH  48  49
ENDBRANCH  41  43
ENDBRANCH  40  41
ENDBRANCH  39  40
ENDBRANCH  38  39
ENDBRANCH  37  38
ENDBRANCH   1  37
TORSDOF 19
