REMARK SMILES O=C(N[C@@H](CS)C(=O)N[C@@H](CO)C(=O)OCCOCCOC(=O)c1ccc(-c2c3nc(c(-c4ccccc4)c4ccc([nH]4)c(-c4ccccc4)c4nc(c(-c5ccccc5)c5ccc2[nH]5)C=C4)C=C3)cc1)c1ccc(F)cc1
REMARK SMILES IDX 17 1 16 2 15 3 13 4 14 5 10 6 9 7 7 8 8 9 4 11 3 12 1 13
REMARK SMILES IDX 2 14 72 16 73 17 78 18 74 19 77 20 75 21 76 22 5 23 6 24
REMARK SMILES IDX 11 26 12 27 18 29 19 30 20 31 21 32 22 33 23 34 24 35 25 36
REMARK SMILES IDX 71 37 26 38 70 39 27 40 28 41 29 42 64 43 30 44 69 45 63 46
REMARK SMILES IDX 65 47 31 48 68 49 62 50 61 51 32 53 54 54 39 55 53 56 40 57
REMARK SMILES IDX 43 58 52 59 66 60 41 61 42 62 51 64 67 65 44 66 33 67 34 68
REMARK SMILES IDX 38 69 35 70 37 71 36 72 55 73 56 74 60 75 57 76 59 77 58 78
REMARK SMILES IDX 45 79 46 80 50 81 47 82 49 83 48 84
REMARK H PARENT 9 10 3 15 6 25 12 28 65 52 43 63
REMARK Flexibility Score: inf
ROOT
ATOM      1  C   UNL     1       6.491   3.738  -6.243  1.00  0.00     0.202 C 
ENDROOT
BRANCH   1   2
ATOM      2  C   UNL     1       5.016   4.107  -6.069  1.00  0.00     0.261 C 
BRANCH   2   3
ATOM      3  O   UNL     1       4.614   3.972  -4.696  1.00  0.00    -0.462 OA
BRANCH   3   4
ATOM      4  C   UNL     1       3.349   3.502  -4.503  1.00  0.00     0.331 C 
ATOM      5  O   UNL     1       2.512   3.362  -5.388  1.00  0.00    -0.250 OA
BRANCH   4   6
ATOM      6  C   UNL     1       3.067   3.185  -3.025  1.00  0.00     0.218 C 
BRANCH   6   7
ATOM      7  N   UNL     1       4.262   3.217  -2.167  1.00  0.00    -0.339 N 
ATOM      8  C   UNL     1       4.878   2.291  -1.393  1.00  0.00     0.244 C 
ATOM      9  O   UNL     1       5.992   2.605  -0.954  1.00  0.00    -0.273 OA
ATOM     10  H   UNL     1       4.707   4.096  -2.151  1.00  0.00     0.164 HD
BRANCH   8  11
ATOM     11  C   UNL     1       4.348   0.866  -1.121  1.00  0.00     0.181 C 
BRANCH  11  12
ATOM     12  N   UNL     1       2.939   0.782  -0.732  1.00  0.00    -0.339 N 
ATOM     13  O   UNL     1       1.116  -0.046   0.276  1.00  0.00    -0.269 OA
ATOM     14  C   UNL     1       2.342  -0.002   0.224  1.00  0.00     0.251 C 
ATOM     15  H   UNL     1       2.331   1.374  -1.230  1.00  0.00     0.164 HD
BRANCH  14  16
ATOM     16  C   UNL     1       3.143  -0.828   1.155  1.00  0.00     0.040 A 
ATOM     17  C   UNL     1       4.171  -0.280   1.933  1.00  0.00     0.017 A 
ATOM     18  C   UNL     1       2.811  -2.183   1.289  1.00  0.00     0.017 A 
ATOM     19  C   UNL     1       4.923  -1.105   2.772  1.00  0.00     0.040 A 
ATOM     20  C   UNL     1       3.553  -3.000   2.145  1.00  0.00     0.040 A 
ATOM     21  C   UNL     1       4.612  -2.457   2.865  1.00  0.00     0.123 A 
ATOM     22  F   UNL     1       5.337  -3.246   3.667  1.00  0.00    -0.207 F 
ENDBRANCH  14  16
ENDBRANCH  11  12
BRANCH  11  23
ATOM     23  C   UNL     1       4.778  -0.161  -2.184  1.00  0.00     0.101 C 
BRANCH  23  24
ATOM     24  S   UNL     1       3.762  -0.243  -3.690  1.00  0.00    -0.177 SA
ATOM     25  H   UNL     1       2.504  -0.646  -3.366  1.00  0.00     0.102 HD
ENDBRANCH  23  24
ENDBRANCH  11  23
ENDBRANCH   8  11
ENDBRANCH   6   7
BRANCH   6  26
ATOM     26  C   UNL     1       2.015   4.176  -2.523  1.00  0.00     0.193 C 
BRANCH  26  27
ATOM     27  O   UNL     1       2.575   5.479  -2.354  1.00  0.00    -0.394 OA
ATOM     28  H   UNL     1       3.289   5.441  -1.698  1.00  0.00     0.210 HD
ENDBRANCH  26  27
ENDBRANCH   6  26
ENDBRANCH   4   6
ENDBRANCH   3   4
ENDBRANCH   2   3
ENDBRANCH   1   2
BRANCH   1  29
ATOM     29  O   UNL     1       6.837   2.380  -5.973  1.00  0.00    -0.374 OA
BRANCH  29  30
ATOM     30  C   UNL     1       6.815   1.953  -4.612  1.00  0.00     0.202 C 
BRANCH  30  31
ATOM     31  C   UNL     1       7.989   2.399  -3.731  1.00  0.00     0.261 C 
BRANCH  31  32
ATOM     32  O   UNL     1       8.078   3.828  -3.612  1.00  0.00    -0.460 OA
BRANCH  32  33
ATOM     33  C   UNL     1       9.191   4.367  -4.158  1.00  0.00     0.338 C 
ATOM     34  O   UNL     1      10.142   3.773  -4.656  1.00  0.00    -0.246 OA
BRANCH  33  35
ATOM     35  C   UNL     1       9.058   5.827  -4.247  1.00  0.00     0.060 A 
ATOM     36  C   UNL     1       9.149   6.406  -5.519  1.00  0.00     0.016 A 
ATOM     37  C   UNL     1       8.945   6.624  -3.106  1.00  0.00     0.016 A 
ATOM     38  C   UNL     1       9.177   7.791  -5.653  1.00  0.00     0.010 A 
ATOM     39  C   UNL     1       8.986   8.016  -3.241  1.00  0.00     0.010 A 
ATOM     40  C   UNL     1       9.138   8.602  -4.511  1.00  0.00    -0.014 A 
BRANCH  40  41
ATOM     41  C   UNL     1       9.415  10.051  -4.647  1.00  0.00     0.031 A 
ATOM     42  C   UNL     1      10.806  10.555  -4.380  1.00  0.00     0.074 A 
ATOM     43  C   UNL     1       8.453  10.899  -5.049  1.00  0.00     0.049 A 
ATOM     44  N   UNL     1      11.271  11.776  -4.443  1.00  0.00    -0.248 NA
ATOM     45  C   UNL     1      11.807   9.546  -3.995  1.00  0.00     0.031 C 
ATOM     46  C   UNL     1       7.080  10.523  -5.386  1.00  0.00     0.029 A 
ATOM     47  N   UNL     1       8.490  12.256  -5.243  1.00  0.00    -0.354 N 
ATOM     48  C   UNL     1      12.615  11.684  -4.102  1.00  0.00     0.074 A 
ATOM     49  C   UNL     1      12.885  10.294  -3.807  1.00  0.00     0.031 C 
ATOM     50  C   UNL     1       6.403  11.628  -5.744  1.00  0.00     0.029 A 
ATOM     51  C   UNL     1       7.286  12.787  -5.632  1.00  0.00     0.049 A 
ATOM     52  H   UNL     1       9.303  12.797  -5.116  1.00  0.00     0.167 HD
ATOM     53  C   UNL     1      13.544  12.668  -4.046  1.00  0.00     0.031 A 
ATOM     54  C   UNL     1       6.933  14.068  -5.855  1.00  0.00     0.031 A 
ATOM     55  C   UNL     1      13.273  14.053  -4.323  1.00  0.00     0.049 A 
ATOM     56  C   UNL     1       7.963  15.154  -5.704  1.00  0.00     0.074 A 
ATOM     57  C   UNL     1      14.149  15.125  -4.303  1.00  0.00     0.029 A 
ATOM     58  N   UNL     1      12.028  14.558  -4.663  1.00  0.00    -0.354 N 
ATOM     59  N   UNL     1       9.235  15.052  -5.404  1.00  0.00    -0.248 NA
ATOM     60  C   UNL     1       7.507  16.534  -5.928  1.00  0.00     0.031 C 
ATOM     61  C   UNL     1      13.421  16.287  -4.579  1.00  0.00     0.029 A 
ATOM     62  C   UNL     1      12.105  15.931  -4.826  1.00  0.00     0.049 A 
ATOM     63  H   UNL     1      11.211  14.021  -4.773  1.00  0.00     0.167 HD
ATOM     64  C   UNL     1       9.736  16.348  -5.428  1.00  0.00     0.074 A 
ATOM     65  C   UNL     1       8.634  17.217  -5.786  1.00  0.00     0.031 C 
ATOM     66  C   UNL     1      10.996  16.780  -5.177  1.00  0.00     0.031 A 
BRANCH  53  67
ATOM     67  C   UNL     1      14.935  12.280  -3.630  1.00  0.00    -0.014 A 
ATOM     68  C   UNL     1      15.777  11.556  -4.489  1.00  0.00     0.009 A 
ATOM     69  C   UNL     1      15.417  12.665  -2.370  1.00  0.00     0.009 A 
ATOM     70  C   UNL     1      17.064  11.197  -4.079  1.00  0.00     0.001 A 
ATOM     71  C   UNL     1      16.712  12.328  -1.974  1.00  0.00     0.001 A 
ATOM     72  C   UNL     1      17.531  11.587  -2.824  1.00  0.00     0.000 A 
ENDBRANCH  53  67
BRANCH  54  73
ATOM     73  C   UNL     1       5.533  14.399  -6.226  1.00  0.00    -0.014 A 
ATOM     74  C   UNL     1       5.221  14.858  -7.514  1.00  0.00     0.009 A 
ATOM     75  C   UNL     1       4.501  14.273  -5.282  1.00  0.00     0.009 A 
ATOM     76  C   UNL     1       3.908  15.206  -7.843  1.00  0.00     0.001 A 
ATOM     77  C   UNL     1       3.186  14.595  -5.622  1.00  0.00     0.001 A 
ATOM     78  C   UNL     1       2.892  15.070  -6.899  1.00  0.00     0.000 A 
ENDBRANCH  54  73
BRANCH  66  79
ATOM     79  C   UNL     1      11.256  18.254  -5.310  1.00  0.00    -0.014 A 
ATOM     80  C   UNL     1      10.783  19.166  -4.353  1.00  0.00     0.009 A 
ATOM     81  C   UNL     1      12.021  18.731  -6.386  1.00  0.00     0.009 A 
ATOM     82  C   UNL     1      11.045  20.531  -4.491  1.00  0.00     0.001 A 
ATOM     83  C   UNL     1      12.304  20.092  -6.505  1.00  0.00     0.001 A 
ATOM     84  C   UNL     1      11.809  20.992  -5.563  1.00  0.00     0.000 A 
ENDBRANCH  66  79
ENDBRANCH  40  41
ENDBRANCH  33  35
ENDBRANCH  32  33
ENDBRANCH  31  32
ENDBRANCH  30  31
ENDBRANCH  29  30
ENDBRANCH   1  29
TORSDOF 22
