REMARK SMILES O=C(OCCOCCOC(=O)[C@@H]1CCCN1S(=O)(=O)c1ccc2c3c(cccc13)C(=O)N2)c1ccc(-c2c3nc(c(-c4ccccc4)c4ccc([nH]4)c(-c4ccccc4)c4nc(c(-c5ccccc5)c5ccc2[nH]5)C=C4)C=C3)cc1
REMARK SMILES IDX 6 1 5 2 4 3 3 4 2 5 1 6 33 7 34 8 80 9 35 10 79 11 36 12
REMARK SMILES IDX 37 13 38 14 73 15 39 16 78 17 72 18 74 19 40 20 77 21 71 22
REMARK SMILES IDX 70 23 41 25 63 26 48 27 62 28 49 29 52 30 61 31 75 32 50 33
REMARK SMILES IDX 51 34 60 36 76 37 53 38 42 39 43 40 47 41 44 42 46 43 45 44
REMARK SMILES IDX 64 45 65 46 69 47 66 48 68 49 67 50 54 51 55 52 59 53 56 54
REMARK SMILES IDX 58 55 57 56 7 57 8 58 9 59 10 60 11 61 12 62 13 63 16 64
REMARK SMILES IDX 14 65 15 66 17 67 18 68 19 69 20 70 21 71 29 72 22 73 24 74
REMARK SMILES IDX 28 75 23 76 25 77 27 78 32 79 26 80 30 81 31 83
REMARK H PARENT 74 24 52 35 32 82
REMARK Flexibility Score: inf
ROOT
ATOM      1  O   UNL     1       4.201  -0.727   1.841  1.00  0.00    -0.374 OA
ENDROOT
BRANCH   1   2
ATOM      2  C   UNL     1       5.560  -0.299   1.880  1.00  0.00     0.202 C 
BRANCH   2   3
ATOM      3  C   UNL     1       5.835   0.843   0.881  1.00  0.00     0.261 C 
BRANCH   3   4
ATOM      4  O   UNL     1       4.830   0.988  -0.135  1.00  0.00    -0.460 OA
BRANCH   4   5
ATOM      5  C   UNL     1       5.094   0.535  -1.382  1.00  0.00     0.338 C 
ATOM      6  O   UNL     1       5.159   1.242  -2.375  1.00  0.00    -0.246 OA
BRANCH   5   7
ATOM      7  C   UNL     1       4.976  -0.930  -1.468  1.00  0.00     0.060 A 
ATOM      8  C   UNL     1       5.893  -1.753  -0.824  1.00  0.00     0.016 A 
ATOM      9  C   UNL     1       3.975  -1.486  -2.267  1.00  0.00     0.016 A 
ATOM     10  C   UNL     1       5.755  -3.126  -0.879  1.00  0.00     0.010 A 
ATOM     11  C   UNL     1       3.841  -2.869  -2.367  1.00  0.00     0.010 A 
ATOM     12  C   UNL     1       4.772  -3.679  -1.708  1.00  0.00    -0.014 A 
BRANCH  12  13
ATOM     13  C   UNL     1       5.091  -5.021  -2.220  1.00  0.00     0.031 A 
ATOM     14  C   UNL     1       5.998  -5.059  -3.418  1.00  0.00     0.074 A 
ATOM     15  C   UNL     1       4.788  -6.112  -1.502  1.00  0.00     0.049 A 
ATOM     16  N   UNL     1       6.639  -6.067  -3.940  1.00  0.00    -0.248 NA
ATOM     17  C   UNL     1       6.256  -3.770  -4.095  1.00  0.00     0.031 C 
ATOM     18  C   UNL     1       3.998  -6.124  -0.272  1.00  0.00     0.029 A 
ATOM     19  N   UNL     1       5.169  -7.413  -1.678  1.00  0.00    -0.354 N 
ATOM     20  C   UNL     1       7.382  -5.526  -4.982  1.00  0.00     0.074 A 
ATOM     21  C   UNL     1       7.090  -4.119  -5.055  1.00  0.00     0.031 C 
ATOM     22  C   UNL     1       3.979  -7.375   0.218  1.00  0.00     0.029 A 
ATOM     23  C   UNL     1       4.751  -8.243  -0.669  1.00  0.00     0.049 A 
ATOM     24  H   UNL     1       5.691  -7.724  -2.453  1.00  0.00     0.167 HD
ATOM     25  C   UNL     1       8.261  -6.149  -5.795  1.00  0.00     0.031 A 
ATOM     26  C   UNL     1       4.992  -9.554  -0.484  1.00  0.00     0.031 A 
ATOM     27  C   UNL     1       8.517  -7.553  -5.723  1.00  0.00     0.049 A 
ATOM     28  C   UNL     1       5.888 -10.258  -1.466  1.00  0.00     0.074 A 
ATOM     29  C   UNL     1       9.312  -8.330  -6.537  1.00  0.00     0.029 A 
ATOM     30  N   UNL     1       7.967  -8.387  -4.759  1.00  0.00    -0.354 N 
ATOM     31  N   UNL     1       6.543  -9.752  -2.486  1.00  0.00    -0.248 NA
ATOM     32  C   UNL     1       6.088 -11.699  -1.274  1.00  0.00     0.031 C 
ATOM     33  C   UNL     1       9.221  -9.648  -6.081  1.00  0.00     0.029 A 
ATOM     34  C   UNL     1       8.406  -9.678  -4.955  1.00  0.00     0.049 A 
ATOM     35  H   UNL     1       7.354  -8.100  -4.044  1.00  0.00     0.167 HD
ATOM     36  C   UNL     1       7.244 -10.807  -3.053  1.00  0.00     0.074 A 
ATOM     37  C   UNL     1       6.938 -11.981  -2.256  1.00  0.00     0.031 C 
ATOM     38  C   UNL     1       8.069 -10.809  -4.129  1.00  0.00     0.031 A 
BRANCH  25  39
ATOM     39  C   UNL     1       8.947  -5.303  -6.824  1.00  0.00    -0.014 A 
ATOM     40  C   UNL     1       9.956  -4.396  -6.457  1.00  0.00     0.009 A 
ATOM     41  C   UNL     1       8.542  -5.364  -8.165  1.00  0.00     0.009 A 
ATOM     42  C   UNL     1      10.522  -3.544  -7.407  1.00  0.00     0.001 A 
ATOM     43  C   UNL     1       9.127  -4.528  -9.118  1.00  0.00     0.001 A 
ATOM     44  C   UNL     1      10.108  -3.613  -8.737  1.00  0.00     0.000 A 
ENDBRANCH  25  39
BRANCH  26  45
ATOM     45  C   UNL     1       4.399 -10.239   0.692  1.00  0.00    -0.014 A 
ATOM     46  C   UNL     1       5.180 -10.545   1.815  1.00  0.00     0.009 A 
ATOM     47  C   UNL     1       3.018 -10.496   0.737  1.00  0.00     0.009 A 
ATOM     48  C   UNL     1       4.588 -11.081   2.964  1.00  0.00     0.001 A 
ATOM     49  C   UNL     1       2.428 -11.017   1.891  1.00  0.00     0.001 A 
ATOM     50  C   UNL     1       3.213 -11.306   3.005  1.00  0.00     0.000 A 
ENDBRANCH  26  45
BRANCH  38  51
ATOM     51  C   UNL     1       8.715 -12.106  -4.509  1.00  0.00    -0.014 A 
ATOM     52  C   UNL     1       8.007 -13.065  -5.245  1.00  0.00     0.009 A 
ATOM     53  C   UNL     1      10.087 -12.286  -4.274  1.00  0.00     0.009 A 
ATOM     54  C   UNL     1       8.668 -14.187  -5.746  1.00  0.00     0.001 A 
ATOM     55  C   UNL     1      10.748 -13.397  -4.794  1.00  0.00     0.001 A 
ATOM     56  C   UNL     1      10.038 -14.346  -5.529  1.00  0.00     0.000 A 
ENDBRANCH  38  51
ENDBRANCH  12  13
ENDBRANCH   5   7
ENDBRANCH   4   5
ENDBRANCH   3   4
ENDBRANCH   2   3
ENDBRANCH   1   2
BRANCH   1  57
ATOM     57  C   UNL     1       3.892  -1.744   2.800  1.00  0.00     0.202 C 
BRANCH  57  58
ATOM     58  C   UNL     1       2.844  -1.253   3.815  1.00  0.00     0.261 C 
BRANCH  58  59
ATOM     59  O   UNL     1       2.713   0.178   3.774  1.00  0.00    -0.462 OA
BRANCH  59  60
ATOM     60  C   UNL     1       3.749   0.842   4.301  1.00  0.00     0.324 C 
ATOM     61  O   UNL     1       4.524   0.336   5.115  1.00  0.00    -0.250 OA
BRANCH  60  62
ATOM     62  C   UNL     1       3.978   2.211   3.748  1.00  0.00     0.183 C 
ATOM     63  C   UNL     1       3.772   3.236   4.857  1.00  0.00     0.034 C 
ATOM     64  N   UNL     1       3.590   2.949   2.493  1.00  0.00    -0.184 NA
ATOM     65  C   UNL     1       4.408   4.465   4.250  1.00  0.00     0.019 C 
ATOM     66  C   UNL     1       4.103   4.361   2.753  1.00  0.00     0.103 C 
BRANCH  64  67
ATOM     67  S   UNL     1       1.972   2.940   1.892  1.00  0.00     0.244 S 
ATOM     68  O   UNL     1       1.111   2.679   3.029  1.00  0.00    -0.207 OA
ATOM     69  O   UNL     1       1.792   4.169   1.145  1.00  0.00    -0.207 OA
BRANCH  67  70
ATOM     70  C   UNL     1       1.730   1.607   0.701  1.00  0.00     0.090 A 
ATOM     71  C   UNL     1       1.279   0.373   1.232  1.00  0.00     0.024 A 
ATOM     72  C   UNL     1       1.682   1.812  -0.729  1.00  0.00     0.005 A 
ATOM     73  C   UNL     1       0.946  -0.738   0.441  1.00  0.00     0.028 A 
ATOM     74  C   UNL     1       1.267   0.717  -1.447  1.00  0.00     0.019 A 
ATOM     75  C   UNL     1       1.945   2.938  -1.565  1.00  0.00     0.010 A 
ATOM     76  C   UNL     1       0.941  -0.510  -0.913  1.00  0.00     0.050 A 
ATOM     77  C   UNL     1       1.083   0.629  -2.824  1.00  0.00     0.050 A 
ATOM     78  C   UNL     1       1.760   2.893  -2.971  1.00  0.00     0.002 A 
ATOM     79  N   UNL     1       0.596  -1.353  -1.951  1.00  0.00    -0.321 N 
ATOM     80  C   UNL     1       1.326   1.734  -3.628  1.00  0.00     0.014 A 
ATOM     81  C   UNL     1       0.659  -0.710  -3.188  1.00  0.00     0.256 C 
ATOM     82  H   UNL     1       0.336  -2.296  -1.833  1.00  0.00     0.170 HD
ATOM     83  O   UNL     1       0.433  -1.252  -4.263  1.00  0.00    -0.269 OA
ENDBRANCH  67  70
ENDBRANCH  64  67
ENDBRANCH  60  62
ENDBRANCH  59  60
ENDBRANCH  58  59
ENDBRANCH  57  58
ENDBRANCH   1  57
TORSDOF 16
