REMARK SMILES O=C(OCCOCCOC(=O)[C@@H]1c2[nH]cnc2CCN1C(=O)CCCc1c[nH]c2ccccc12)c1ccc(-c2c3nc(c(-c4ccccc4)c4ccc([nH]4)c(-c4ccccc4)c4nc(c(-c5ccccc5)c5ccc2[nH]5)C=C4)C=C3)cc1
REMARK SMILES IDX 7 1 6 2 5 3 4 4 3 5 2 6 1 7 35 8 36 9 82 10 37 11 81 12
REMARK SMILES IDX 38 13 39 14 40 15 75 16 41 17 80 18 74 19 76 20 42 21 79 22
REMARK SMILES IDX 73 23 72 24 43 26 65 27 50 28 64 29 51 30 54 31 63 32 77 33
REMARK SMILES IDX 52 34 53 35 62 37 78 38 55 39 44 40 45 41 49 42 46 43 48 44
REMARK SMILES IDX 47 45 66 46 67 47 71 48 68 49 70 50 69 51 56 52 57 53 61 54
REMARK SMILES IDX 58 55 60 56 59 57 8 58 9 59 10 60 11 61 12 62 13 63 20 64
REMARK SMILES IDX 14 65 17 66 19 67 15 68 16 70 18 71 21 72 22 73 23 74 24 75
REMARK SMILES IDX 25 76 26 77 27 78 34 79 28 80 29 81 33 82 30 84 32 85 31 86
REMARK H PARENT 76 25 54 36 14 69 28 83
REMARK Flexibility Score: inf
ROOT
ATOM      1  C   UNL     1       6.481  -0.661  -7.276  1.00  0.00     0.202 C 
ENDROOT
BRANCH   1   2
ATOM      2  O   UNL     1       7.215  -1.853  -6.969  1.00  0.00    -0.374 OA
BRANCH   2   3
ATOM      3  C   UNL     1       7.197  -2.423  -5.667  1.00  0.00     0.202 C 
BRANCH   3   4
ATOM      4  C   UNL     1       8.341  -2.086  -4.705  1.00  0.00     0.261 C 
BRANCH   4   5
ATOM      5  O   UNL     1       8.484  -0.689  -4.394  1.00  0.00    -0.460 OA
BRANCH   5   6
ATOM      6  C   UNL     1       8.624   0.310  -5.292  1.00  0.00     0.338 C 
ATOM      7  O   UNL     1       8.046   1.372  -5.110  1.00  0.00    -0.246 OA
BRANCH   6   8
ATOM      8  C   UNL     1       9.646   0.188  -6.373  1.00  0.00     0.060 A 
ATOM      9  C   UNL     1      10.175  -1.015  -6.836  1.00  0.00     0.016 A 
ATOM     10  C   UNL     1      10.108   1.388  -6.937  1.00  0.00     0.016 A 
ATOM     11  C   UNL     1      11.281  -1.033  -7.653  1.00  0.00     0.010 A 
ATOM     12  C   UNL     1      11.178   1.378  -7.821  1.00  0.00     0.010 A 
ATOM     13  C   UNL     1      11.813   0.169  -8.097  1.00  0.00    -0.014 A 
BRANCH  13  14
ATOM     14  C   UNL     1      13.047   0.063  -8.854  1.00  0.00     0.031 A 
ATOM     15  C   UNL     1      12.986  -0.750 -10.096  1.00  0.00     0.074 A 
ATOM     16  C   UNL     1      14.174   0.672  -8.446  1.00  0.00     0.049 A 
ATOM     17  N   UNL     1      13.701  -1.780 -10.414  1.00  0.00    -0.248 NA
ATOM     18  C   UNL     1      11.930  -0.420 -11.065  1.00  0.00     0.031 C 
ATOM     19  C   UNL     1      14.312   1.664  -7.377  1.00  0.00     0.029 A 
ATOM     20  N   UNL     1      15.417   0.625  -8.999  1.00  0.00    -0.354 N 
ATOM     21  C   UNL     1      13.314  -2.123 -11.707  1.00  0.00     0.074 A 
ATOM     22  C   UNL     1      12.142  -1.339 -12.007  1.00  0.00     0.031 C 
ATOM     23  C   UNL     1      15.481   2.315  -7.539  1.00  0.00     0.029 A 
ATOM     24  C   UNL     1      16.211   1.698  -8.633  1.00  0.00     0.049 A 
ATOM     25  H   UNL     1      15.719  -0.096  -9.597  1.00  0.00     0.167 HD
ATOM     26  C   UNL     1      14.130  -2.829 -12.535  1.00  0.00     0.031 A 
ATOM     27  C   UNL     1      17.336   2.120  -9.254  1.00  0.00     0.031 A 
ATOM     28  C   UNL     1      15.105  -3.608 -11.818  1.00  0.00     0.049 A 
ATOM     29  C   UNL     1      17.856   1.011 -10.083  1.00  0.00     0.074 A 
ATOM     30  C   UNL     1      15.056  -4.597 -10.855  1.00  0.00     0.029 A 
ATOM     31  N   UNL     1      16.412  -3.188 -11.850  1.00  0.00    -0.354 N 
ATOM     32  N   UNL     1      18.402  -0.066  -9.595  1.00  0.00    -0.248 NA
ATOM     33  C   UNL     1      17.430   0.917 -11.471  1.00  0.00     0.031 C 
ATOM     34  C   UNL     1      16.213  -4.392 -10.048  1.00  0.00     0.029 A 
ATOM     35  C   UNL     1      16.909  -3.307 -10.582  1.00  0.00     0.049 A 
ATOM     36  H   UNL     1      16.900  -2.862 -12.640  1.00  0.00     0.167 HD
ATOM     37  C   UNL     1      18.001  -1.084 -10.448  1.00  0.00     0.074 A 
ATOM     38  C   UNL     1      17.526  -0.403 -11.649  1.00  0.00     0.031 C 
ATOM     39  C   UNL     1      17.825  -2.359  -9.989  1.00  0.00     0.031 A 
BRANCH  26  40
ATOM     40  C   UNL     1      14.329  -2.426 -13.982  1.00  0.00    -0.014 A 
ATOM     41  C   UNL     1      15.224  -3.168 -14.774  1.00  0.00     0.009 A 
ATOM     42  C   UNL     1      13.929  -1.174 -14.489  1.00  0.00     0.009 A 
ATOM     43  C   UNL     1      15.778  -2.630 -15.943  1.00  0.00     0.001 A 
ATOM     44  C   UNL     1      14.441  -0.655 -15.679  1.00  0.00     0.001 A 
ATOM     45  C   UNL     1      15.397  -1.367 -16.386  1.00  0.00     0.000 A 
ENDBRANCH  26  40
BRANCH  27  46
ATOM     46  C   UNL     1      17.828   3.507  -9.361  1.00  0.00    -0.014 A 
ATOM     47  C   UNL     1      19.150   3.771  -9.742  1.00  0.00     0.009 A 
ATOM     48  C   UNL     1      16.931   4.592  -9.306  1.00  0.00     0.009 A 
ATOM     49  C   UNL     1      19.553   5.071 -10.072  1.00  0.00     0.001 A 
ATOM     50  C   UNL     1      17.335   5.891  -9.621  1.00  0.00     0.001 A 
ATOM     51  C   UNL     1      18.645   6.128 -10.018  1.00  0.00     0.000 A 
ENDBRANCH  27  46
BRANCH  39  52
ATOM     52  C   UNL     1      18.361  -2.701  -8.623  1.00  0.00    -0.014 A 
ATOM     53  C   UNL     1      17.947  -2.035  -7.457  1.00  0.00     0.009 A 
ATOM     54  C   UNL     1      19.205  -3.814  -8.491  1.00  0.00     0.009 A 
ATOM     55  C   UNL     1      18.403  -2.440  -6.200  1.00  0.00     0.001 A 
ATOM     56  C   UNL     1      19.642  -4.233  -7.232  1.00  0.00     0.001 A 
ATOM     57  C   UNL     1      19.250  -3.540  -6.089  1.00  0.00     0.000 A 
ENDBRANCH  39  52
ENDBRANCH  13  14
ENDBRANCH   6   8
ENDBRANCH   5   6
ENDBRANCH   4   5
ENDBRANCH   3   4
ENDBRANCH   2   3
ENDBRANCH   1   2
BRANCH   1  58
ATOM     58  C   UNL     1       5.177  -0.275  -6.566  1.00  0.00     0.261 C 
BRANCH  58  59
ATOM     59  O   UNL     1       5.277  -0.303  -5.137  1.00  0.00    -0.461 OA
BRANCH  59  60
ATOM     60  C   UNL     1       4.071  -0.552  -4.553  1.00  0.00     0.335 C 
ATOM     61  O   UNL     1       2.994  -0.218  -5.045  1.00  0.00    -0.249 OA
BRANCH  60  62
ATOM     62  C   UNL     1       4.166  -1.434  -3.305  1.00  0.00     0.244 C 
ATOM     63  C   UNL     1       5.442  -1.520  -2.526  1.00  0.00     0.072 A 
ATOM     64  N   UNL     1       3.614  -2.824  -3.407  1.00  0.00    -0.323 N 
ATOM     65  N   UNL     1       6.447  -0.607  -2.372  1.00  0.00    -0.346 N 
ATOM     66  C   UNL     1       5.758  -2.544  -1.655  1.00  0.00     0.066 A 
ATOM     67  C   UNL     1       3.514  -3.465  -2.086  1.00  0.00     0.127 C 
ATOM     68  C   UNL     1       7.316  -1.125  -1.441  1.00  0.00     0.197 A 
ATOM     69  H   UNL     1       6.532   0.256  -2.838  1.00  0.00     0.167 HD
ATOM     70  N   UNL     1       6.924  -2.300  -0.995  1.00  0.00    -0.242 NA
ATOM     71  C   UNL     1       4.904  -3.744  -1.468  1.00  0.00     0.080 C 
BRANCH  64  72
ATOM     72  C   UNL     1       3.686  -3.511  -4.613  1.00  0.00     0.223 C 
ATOM     73  O   UNL     1       4.327  -3.045  -5.560  1.00  0.00    -0.275 OA
BRANCH  72  74
ATOM     74  C   UNL     1       2.844  -4.746  -4.948  1.00  0.00     0.100 C 
BRANCH  74  75
ATOM     75  C   UNL     1       3.200  -6.140  -4.483  1.00  0.00     0.015 C 
BRANCH  75  76
ATOM     76  C   UNL     1       2.866  -6.603  -3.077  1.00  0.00     0.038 C 
BRANCH  76  77
ATOM     77  C   UNL     1       1.487  -6.467  -2.461  1.00  0.00    -0.023 A 
ATOM     78  C   UNL     1       0.969  -7.511  -1.707  1.00  0.00     0.087 A 
ATOM     79  C   UNL     1       0.548  -5.362  -2.288  1.00  0.00     0.003 A 
ATOM     80  N   UNL     1      -0.132  -7.079  -1.030  1.00  0.00    -0.361 N 
ATOM     81  C   UNL     1      -0.387  -5.766  -1.327  1.00  0.00     0.046 A 
ATOM     82  C   UNL     1       0.397  -4.028  -2.749  1.00  0.00     0.010 A 
ATOM     83  H   UNL     1      -0.667  -7.631  -0.416  1.00  0.00     0.166 HD
ATOM     84  C   UNL     1      -1.366  -4.915  -0.787  1.00  0.00     0.026 A 
ATOM     85  C   UNL     1      -0.600  -3.176  -2.260  1.00  0.00     0.001 A 
ATOM     86  C   UNL     1      -1.458  -3.611  -1.270  1.00  0.00     0.002 A 
ENDBRANCH  76  77
ENDBRANCH  75  76
ENDBRANCH  74  75
ENDBRANCH  72  74
ENDBRANCH  64  72
ENDBRANCH  60  62
ENDBRANCH  59  60
ENDBRANCH  58  59
ENDBRANCH   1  58
TORSDOF 19
