REMARK SMILES O=C(N[C@H](C(=O)OCCOCCOC(=O)c1ccc(-c2c3nc(c(-c4ccccc4)c4ccc([nH]4)c(-c4ccccc4)c4nc(c(-c5ccccc5)c5ccc2[nH]5)C=C4)C=C3)cc1)c1ccccc1F)c1ccc(C[NH+]2CCCCC2)cc1
REMARK SMILES IDX 9 1 8 2 7 3 5 4 6 5 4 6 3 7 1 8 2 9 71 11 72 12 83 13 73 14
REMARK SMILES IDX 82 15 74 16 75 17 76 18 77 19 81 20 78 22 80 23 79 24 64 25
REMARK SMILES IDX 65 26 69 27 66 28 68 29 70 30 67 31 10 32 11 33 12 34 13 35
REMARK SMILES IDX 14 36 15 37 16 38 17 39 63 40 18 41 62 42 19 43 20 44 21 45
REMARK SMILES IDX 56 46 22 47 61 48 55 49 57 50 23 51 60 52 54 53 53 54 24 56
REMARK SMILES IDX 46 57 31 58 45 59 32 60 35 61 44 62 58 63 33 64 34 65 43 67
REMARK SMILES IDX 59 68 36 69 25 70 26 71 30 72 27 73 29 74 28 75 47 76 48 77
REMARK SMILES IDX 52 78 49 79 51 80 50 81 37 82 38 83 42 84 39 85 41 86 40 87
REMARK H PARENT 3 10 76 21 57 55 35 66
REMARK Flexibility Score: inf
ROOT
ATOM      1  C   UNL     1       0.320  -0.239   0.196  1.00  0.00     0.202 C 
ENDROOT
BRANCH   1   2
ATOM      2  C   UNL     1       0.952  -1.629   0.149  1.00  0.00     0.261 C 
BRANCH   2   3
ATOM      3  O   UNL     1       2.362  -1.688   0.390  1.00  0.00    -0.461 OA
BRANCH   3   4
ATOM      4  C   UNL     1       3.117  -1.727  -0.757  1.00  0.00     0.333 C 
ATOM      5  O   UNL     1       2.659  -1.547  -1.879  1.00  0.00    -0.249 OA
BRANCH   4   6
ATOM      6  C   UNL     1       4.622  -1.917  -0.426  1.00  0.00     0.226 C 
BRANCH   6   7
ATOM      7  N   UNL     1       4.876  -3.008   0.535  1.00  0.00    -0.335 N 
ATOM      8  O   UNL     1       4.814  -5.106   1.384  1.00  0.00    -0.269 OA
ATOM      9  C   UNL     1       4.449  -4.318   0.519  1.00  0.00     0.252 C 
ATOM     10  H   UNL     1       5.436  -2.762   1.306  1.00  0.00     0.165 HD
BRANCH   9  11
ATOM     11  C   UNL     1       3.487  -4.754  -0.511  1.00  0.00     0.039 A 
ATOM     12  C   UNL     1       3.921  -5.034  -1.803  1.00  0.00     0.014 A 
ATOM     13  C   UNL     1       2.127  -4.802  -0.200  1.00  0.00     0.014 A 
ATOM     14  C   UNL     1       2.988  -5.192  -2.825  1.00  0.00     0.010 A 
ATOM     15  C   UNL     1       1.192  -4.974  -1.226  1.00  0.00     0.010 A 
ATOM     16  C   UNL     1       1.613  -5.109  -2.558  1.00  0.00     0.006 A 
BRANCH  16  17
ATOM     17  C   UNL     1       0.619  -5.144  -3.705  1.00  0.00     0.299 C 
BRANCH  17  18
ATOM     18  N   UNL     1       0.260  -3.855  -4.328  1.00  0.00    -0.331 N 
ATOM     19  C   UNL     1      -0.546  -2.999  -3.455  1.00  0.00     0.262 C 
ATOM     20  C   UNL     1       1.411  -3.125  -4.876  1.00  0.00     0.262 C 
ATOM     21  H   UNL     1      -0.327  -4.112  -5.122  1.00  0.00     0.348 HD
ATOM     22  C   UNL     1      -1.051  -1.753  -4.184  1.00  0.00     0.062 C 
ATOM     23  C   UNL     1       0.967  -1.883  -5.655  1.00  0.00     0.062 C 
ATOM     24  C   UNL     1       0.101  -0.967  -4.799  1.00  0.00     0.012 C 
ENDBRANCH  17  18
ENDBRANCH  16  17
ENDBRANCH   9  11
ENDBRANCH   6   7
BRANCH   6  25
ATOM     25  C   UNL     1       5.520  -1.880  -1.653  1.00  0.00     0.021 A 
ATOM     26  C   UNL     1       6.428  -2.888  -1.998  1.00  0.00     0.009 A 
ATOM     27  C   UNL     1       5.421  -0.778  -2.518  1.00  0.00     0.129 A 
ATOM     28  C   UNL     1       7.077  -2.868  -3.239  1.00  0.00     0.001 A 
ATOM     29  C   UNL     1       6.071  -0.743  -3.748  1.00  0.00     0.039 A 
ATOM     30  F   UNL     1       4.682   0.282  -2.158  1.00  0.00    -0.207 F 
ATOM     31  C   UNL     1       6.878  -1.810  -4.125  1.00  0.00     0.003 A 
ENDBRANCH   6  25
ENDBRANCH   4   6
ENDBRANCH   3   4
ENDBRANCH   2   3
ENDBRANCH   1   2
BRANCH   1  32
ATOM     32  O   UNL     1       0.947   0.809  -0.525  1.00  0.00    -0.374 OA
BRANCH  32  33
ATOM     33  C   UNL     1       2.161   1.352  -0.008  1.00  0.00     0.202 C 
BRANCH  33  34
ATOM     34  C   UNL     1       2.076   2.106   1.323  1.00  0.00     0.261 C 
BRANCH  34  35
ATOM     35  O   UNL     1       1.793   1.227   2.431  1.00  0.00    -0.460 OA
BRANCH  35  36
ATOM     36  C   UNL     1       0.649   1.506   3.097  1.00  0.00     0.338 C 
ATOM     37  O   UNL     1      -0.115   2.445   2.896  1.00  0.00    -0.246 OA
BRANCH  36  38
ATOM     38  C   UNL     1       0.302   0.416   4.025  1.00  0.00     0.060 A 
ATOM     39  C   UNL     1      -0.973  -0.153   3.906  1.00  0.00     0.016 A 
ATOM     40  C   UNL     1       1.148   0.051   5.073  1.00  0.00     0.016 A 
ATOM     41  C   UNL     1      -1.435  -1.038   4.877  1.00  0.00     0.010 A 
ATOM     42  C   UNL     1       0.677  -0.831   6.054  1.00  0.00     0.010 A 
ATOM     43  C   UNL     1      -0.632  -1.339   5.984  1.00  0.00    -0.014 A 
BRANCH  43  44
ATOM     44  C   UNL     1      -1.240  -2.038   7.142  1.00  0.00     0.031 A 
ATOM     45  C   UNL     1      -1.753  -1.222   8.299  1.00  0.00     0.074 A 
ATOM     46  C   UNL     1      -1.391  -3.373   7.141  1.00  0.00     0.049 A 
ATOM     47  N   UNL     1      -2.356  -1.620   9.391  1.00  0.00    -0.248 NA
ATOM     48  C   UNL     1      -1.565   0.235   8.211  1.00  0.00     0.031 C 
ATOM     49  C   UNL     1      -0.975  -4.272   6.066  1.00  0.00     0.029 A 
ATOM     50  N   UNL     1      -1.946  -4.204   8.082  1.00  0.00    -0.354 N 
ATOM     51  C   UNL     1      -2.619  -0.465  10.117  1.00  0.00     0.074 A 
ATOM     52  C   UNL     1      -2.084   0.645   9.359  1.00  0.00     0.031 C 
ATOM     53  C   UNL     1      -1.293  -5.533   6.407  1.00  0.00     0.029 A 
ATOM     54  C   UNL     1      -1.912  -5.530   7.731  1.00  0.00     0.049 A 
ATOM     55  H   UNL     1      -2.332  -3.879   8.927  1.00  0.00     0.167 HD
ATOM     56  C   UNL     1      -3.256  -0.336  11.306  1.00  0.00     0.031 A 
ATOM     57  C   UNL     1      -2.326  -6.619   8.407  1.00  0.00     0.031 A 
ATOM     58  C   UNL     1      -3.777  -1.435  12.072  1.00  0.00     0.049 A 
ATOM     59  C   UNL     1      -2.969  -6.455   9.758  1.00  0.00     0.074 A 
ATOM     60  C   UNL     1      -4.446  -1.402  13.283  1.00  0.00     0.029 A 
ATOM     61  N   UNL     1      -3.679  -2.767  11.704  1.00  0.00    -0.354 N 
ATOM     62  N   UNL     1      -3.236  -5.355  10.420  1.00  0.00    -0.248 NA
ATOM     63  C   UNL     1      -3.376  -7.688  10.449  1.00  0.00     0.031 C 
ATOM     64  C   UNL     1      -4.713  -2.720  13.671  1.00  0.00     0.029 A 
ATOM     65  C   UNL     1      -4.254  -3.568  12.675  1.00  0.00     0.049 A 
ATOM     66  H   UNL     1      -3.263  -3.095  10.874  1.00  0.00     0.167 HD
ATOM     67  C   UNL     1      -3.863  -5.761  11.591  1.00  0.00     0.074 A 
ATOM     68  C   UNL     1      -3.950  -7.206  11.543  1.00  0.00     0.031 C 
ATOM     69  C   UNL     1      -4.329  -5.004  12.615  1.00  0.00     0.031 A 
BRANCH  56  70
ATOM     70  C   UNL     1      -3.396   1.052  11.863  1.00  0.00    -0.014 A 
ATOM     71  C   UNL     1      -4.305   1.969  11.312  1.00  0.00     0.009 A 
ATOM     72  C   UNL     1      -2.625   1.440  12.970  1.00  0.00     0.009 A 
ATOM     73  C   UNL     1      -4.417   3.257  11.841  1.00  0.00     0.001 A 
ATOM     74  C   UNL     1      -2.757   2.720  13.511  1.00  0.00     0.001 A 
ATOM     75  C   UNL     1      -3.646   3.630  12.941  1.00  0.00     0.000 A 
ENDBRANCH  56  70
BRANCH  57  76
ATOM     76  C   UNL     1      -2.141  -7.971   7.821  1.00  0.00    -0.014 A 
ATOM     77  C   UNL     1      -3.241  -8.711   7.364  1.00  0.00     0.009 A 
ATOM     78  C   UNL     1      -0.858  -8.534   7.732  1.00  0.00     0.009 A 
ATOM     79  C   UNL     1      -3.063  -9.998   6.851  1.00  0.00     0.001 A 
ATOM     80  C   UNL     1      -0.681  -9.810   7.196  1.00  0.00     0.001 A 
ATOM     81  C   UNL     1      -1.784 -10.544   6.763  1.00  0.00     0.000 A 
ENDBRANCH  57  76
BRANCH  69  82
ATOM     82  C   UNL     1      -5.000  -5.723  13.750  1.00  0.00    -0.014 A 
ATOM     83  C   UNL     1      -4.258  -6.465  14.682  1.00  0.00     0.009 A 
ATOM     84  C   UNL     1      -6.392  -5.630  13.907  1.00  0.00     0.009 A 
ATOM     85  C   UNL     1      -4.901  -7.127  15.730  1.00  0.00     0.001 A 
ATOM     86  C   UNL     1      -7.029  -6.272  14.970  1.00  0.00     0.001 A 
ATOM     87  C   UNL     1      -6.285  -7.027  15.874  1.00  0.00     0.000 A 
ENDBRANCH  69  82
ENDBRANCH  43  44
ENDBRANCH  36  38
ENDBRANCH  35  36
ENDBRANCH  34  35
ENDBRANCH  33  34
ENDBRANCH  32  33
ENDBRANCH   1  32
TORSDOF 19
