REMARK SMILES O=C(OCCOCCOC(=O)c1nn(Cc2ccc(F)cc2)c2c1CN(C(=O)[C@H]1CC1(F)F)CC2)c1ccc(-c2c3nc(c(-c4ccccc4)c4ccc([nH]4)c(-c4ccccc4)c4nc(c(-c5ccccc5)c5ccc2[nH]5)C=C4)C=C3)cc1
REMARK SMILES IDX 6 1 5 2 4 3 3 4 2 5 1 6 36 7 37 8 83 9 38 10 82 11 39 12
REMARK SMILES IDX 40 13 41 14 76 15 42 16 81 17 75 18 77 19 43 20 80 21 74 22
REMARK SMILES IDX 73 23 44 25 66 26 51 27 65 28 52 29 55 30 64 31 78 32 53 33
REMARK SMILES IDX 54 34 63 36 79 37 56 38 45 39 46 40 50 41 47 42 49 43 48 44
REMARK SMILES IDX 67 45 68 46 72 47 69 48 71 49 70 50 57 51 58 52 62 53 59 54
REMARK SMILES IDX 61 55 60 56 7 57 8 58 9 59 10 60 11 61 12 62 13 63 24 64
REMARK SMILES IDX 14 65 23 66 25 67 35 68 26 69 34 70 15 71 16 72 17 73 22 74
REMARK SMILES IDX 18 75 21 76 19 77 20 78 27 79 28 80 29 81 30 82 31 83 32 84
REMARK SMILES IDX 33 85
REMARK H PARENT 77 24 55 35
REMARK Flexibility Score: inf
ROOT
ATOM      1  O   UNL     1      15.510  -2.533   2.054  1.00  0.00    -0.374 OA
ENDROOT
BRANCH   1   2
ATOM      2  C   UNL     1      14.624  -1.895   1.142  1.00  0.00     0.202 C 
BRANCH   2   3
ATOM      3  C   UNL     1      13.499  -1.022   1.704  1.00  0.00     0.261 C 
BRANCH   3   4
ATOM      4  O   UNL     1      13.990   0.143   2.386  1.00  0.00    -0.460 OA
BRANCH   4   5
ATOM      5  C   UNL     1      14.853   0.109   3.426  1.00  0.00     0.338 C 
ATOM      6  O   UNL     1      15.736   0.956   3.528  1.00  0.00    -0.246 OA
BRANCH   5   7
ATOM      7  C   UNL     1      14.551  -0.778   4.577  1.00  0.00     0.060 A 
ATOM      8  C   UNL     1      13.750  -1.919   4.519  1.00  0.00     0.016 A 
ATOM      9  C   UNL     1      14.976  -0.301   5.823  1.00  0.00     0.016 A 
ATOM     10  C   UNL     1      13.070  -2.329   5.639  1.00  0.00     0.010 A 
ATOM     11  C   UNL     1      14.381  -0.779   6.969  1.00  0.00     0.010 A 
ATOM     12  C   UNL     1      13.325  -1.677   6.836  1.00  0.00    -0.014 A 
BRANCH  12  13
ATOM     13  C   UNL     1      12.432  -1.964   7.938  1.00  0.00     0.031 A 
ATOM     14  C   UNL     1      12.437  -3.373   8.399  1.00  0.00     0.074 A 
ATOM     15  C   UNL     1      11.732  -0.967   8.508  1.00  0.00     0.049 A 
ATOM     16  N   UNL     1      11.434  -4.173   8.566  1.00  0.00    -0.248 NA
ATOM     17  C   UNL     1      13.755  -4.003   8.593  1.00  0.00     0.031 C 
ATOM     18  C   UNL     1      11.846   0.474   8.255  1.00  0.00     0.029 A 
ATOM     19  N   UNL     1      10.884  -1.027   9.566  1.00  0.00    -0.354 N 
ATOM     20  C   UNL     1      11.981  -5.360   9.046  1.00  0.00     0.074 A 
ATOM     21  C   UNL     1      13.411  -5.247   8.911  1.00  0.00     0.031 C 
ATOM     22  C   UNL     1      11.344   1.144   9.313  1.00  0.00     0.029 A 
ATOM     23  C   UNL     1      10.760   0.182  10.231  1.00  0.00     0.049 A 
ATOM     24  H   UNL     1      10.406  -1.845   9.833  1.00  0.00     0.167 HD
ATOM     25  C   UNL     1      11.250  -6.268   9.745  1.00  0.00     0.031 A 
ATOM     26  C   UNL     1      10.330   0.354  11.503  1.00  0.00     0.031 A 
ATOM     27  C   UNL     1       9.840  -6.139   9.514  1.00  0.00     0.049 A 
ATOM     28  C   UNL     1       9.602  -0.875  11.902  1.00  0.00     0.074 A 
ATOM     29  C   UNL     1       9.022  -6.267   8.410  1.00  0.00     0.029 A 
ATOM     30  N   UNL     1       9.094  -5.479  10.460  1.00  0.00    -0.354 N 
ATOM     31  N   UNL     1       8.473  -1.244  11.368  1.00  0.00    -0.248 NA
ATOM     32  C   UNL     1      10.349  -1.933  12.568  1.00  0.00     0.031 C 
ATOM     33  C   UNL     1       8.022  -5.265   8.575  1.00  0.00     0.029 A 
ATOM     34  C   UNL     1       8.266  -4.617   9.787  1.00  0.00     0.049 A 
ATOM     35  H   UNL     1       9.143  -5.602  11.435  1.00  0.00     0.167 HD
ATOM     36  C   UNL     1       8.565  -2.624  11.254  1.00  0.00     0.074 A 
ATOM     37  C   UNL     1       9.690  -3.001  12.107  1.00  0.00     0.031 C 
ATOM     38  C   UNL     1       7.910  -3.298  10.261  1.00  0.00     0.031 A 
BRANCH  25  39
ATOM     39  C   UNL     1      11.818  -6.991  10.937  1.00  0.00    -0.014 A 
ATOM     40  C   UNL     1      11.064  -8.001  11.554  1.00  0.00     0.009 A 
ATOM     41  C   UNL     1      12.946  -6.518  11.640  1.00  0.00     0.009 A 
ATOM     42  C   UNL     1      11.397  -8.472  12.831  1.00  0.00     0.001 A 
ATOM     43  C   UNL     1      13.305  -7.014  12.893  1.00  0.00     0.001 A 
ATOM     44  C   UNL     1      12.512  -7.975  13.501  1.00  0.00     0.000 A 
ENDBRANCH  25  39
BRANCH  26  45
ATOM     45  C   UNL     1      10.835   1.352  12.469  1.00  0.00    -0.014 A 
ATOM     46  C   UNL     1      10.102   1.684  13.614  1.00  0.00     0.009 A 
ATOM     47  C   UNL     1      12.161   1.822  12.379  1.00  0.00     0.009 A 
ATOM     48  C   UNL     1      10.682   2.446  14.639  1.00  0.00     0.001 A 
ATOM     49  C   UNL     1      12.737   2.588  13.395  1.00  0.00     0.001 A 
ATOM     50  C   UNL     1      11.999   2.890  14.532  1.00  0.00     0.000 A 
ENDBRANCH  26  45
BRANCH  38  51
ATOM     51  C   UNL     1       6.952  -2.513   9.397  1.00  0.00    -0.014 A 
ATOM     52  C   UNL     1       7.378  -1.458   8.569  1.00  0.00     0.009 A 
ATOM     53  C   UNL     1       5.625  -2.948   9.284  1.00  0.00     0.009 A 
ATOM     54  C   UNL     1       6.496  -0.837   7.680  1.00  0.00     0.001 A 
ATOM     55  C   UNL     1       4.747  -2.341   8.382  1.00  0.00     0.001 A 
ATOM     56  C   UNL     1       5.181  -1.282   7.585  1.00  0.00     0.000 A 
ENDBRANCH  38  51
ENDBRANCH  12  13
ENDBRANCH   5   7
ENDBRANCH   4   5
ENDBRANCH   3   4
ENDBRANCH   2   3
ENDBRANCH   1   2
BRANCH   1  57
ATOM     57  C   UNL     1      16.829  -1.981   2.179  1.00  0.00     0.202 C 
BRANCH  57  58
ATOM     58  C   UNL     1      17.797  -2.081   0.988  1.00  0.00     0.261 C 
BRANCH  58  59
ATOM     59  O   UNL     1      17.426  -1.244  -0.122  1.00  0.00    -0.458 OA
BRANCH  59  60
ATOM     60  C   UNL     1      16.723  -1.853  -1.132  1.00  0.00     0.359 C 
ATOM     61  O   UNL     1      16.459  -3.043  -1.166  1.00  0.00    -0.244 OA
BRANCH  60  62
ATOM     62  C   UNL     1      16.116  -0.874  -2.051  1.00  0.00     0.175 A 
ATOM     63  N   UNL     1      16.812   0.155  -2.572  1.00  0.00    -0.165 NA
ATOM     64  C   UNL     1      14.758  -0.835  -2.487  1.00  0.00     0.028 A 
ATOM     65  N   UNL     1      15.923   0.829  -3.337  1.00  0.00    -0.264 N 
ATOM     66  C   UNL     1      14.673   0.290  -3.280  1.00  0.00     0.046 A 
ATOM     67  C   UNL     1      13.594  -1.713  -2.170  1.00  0.00     0.159 C 
ATOM     68  C   UNL     1      13.434   0.755  -3.954  1.00  0.00     0.078 C 
ATOM     69  N   UNL     1      12.441  -1.334  -3.003  1.00  0.00    -0.337 N 
ATOM     70  C   UNL     1      12.228   0.110  -3.242  1.00  0.00     0.126 C 
BRANCH  65  71
ATOM     71  C   UNL     1      16.392   1.892  -4.217  1.00  0.00     0.180 C 
BRANCH  71  72
ATOM     72  C   UNL     1      16.671   3.182  -3.486  1.00  0.00    -0.026 A 
ATOM     73  C   UNL     1      17.785   3.287  -2.634  1.00  0.00     0.008 A 
ATOM     74  C   UNL     1      15.853   4.307  -3.678  1.00  0.00     0.008 A 
ATOM     75  C   UNL     1      18.083   4.493  -2.001  1.00  0.00     0.039 A 
ATOM     76  C   UNL     1      16.157   5.514  -3.045  1.00  0.00     0.039 A 
ATOM     77  C   UNL     1      17.270   5.597  -2.217  1.00  0.00     0.123 A 
ATOM     78  F   UNL     1      17.565   6.761  -1.623  1.00  0.00    -0.207 F 
ENDBRANCH  71  72
ENDBRANCH  65  71
BRANCH  69  79
ATOM     79  C   UNL     1      11.548  -2.334  -3.360  1.00  0.00     0.232 C 
ATOM     80  O   UNL     1      11.614  -3.479  -2.933  1.00  0.00    -0.274 OA
BRANCH  79  81
ATOM     81  C   UNL     1      10.459  -1.962  -4.282  1.00  0.00     0.154 C 
ATOM     82  C   UNL     1      10.781  -1.613  -5.728  1.00  0.00     0.097 C 
ATOM     83  C   UNL     1      10.077  -2.872  -5.388  1.00  0.00     0.260 C 
ATOM     84  F   UNL     1      10.704  -4.069  -5.633  1.00  0.00    -0.206 F 
ATOM     85  F   UNL     1       8.759  -3.014  -5.759  1.00  0.00    -0.206 F 
ENDBRANCH  79  81
ENDBRANCH  69  79
ENDBRANCH  60  62
ENDBRANCH  59  60
ENDBRANCH  58  59
ENDBRANCH  57  58
ENDBRANCH   1  57
TORSDOF 18
