REMARK SMILES COc1ccc(/C=C/c2ncc(C(=O)OCCOCCOC(=O)c3ccc(-c4c5nc(c(-c6ccccc6)c6ccc([nH]6)c(-c6ccccc6)c6nc(c(-c7ccccc7)c7ccc4[nH]7)C=C6)C=C5)cc3)s2)cc1O
REMARK SMILES IDX 17 1 16 2 15 3 13 4 14 5 12 6 9 7 10 8 72 9 11 10 8 11 7 12
REMARK SMILES IDX 6 13 3 14 4 15 74 16 5 17 73 18 2 19 1 20 75 21 18 23 19 24
REMARK SMILES IDX 20 25 21 26 22 27 23 28 24 29 25 30 71 31 26 32 70 33 27 34
REMARK SMILES IDX 28 35 29 36 64 37 30 38 69 39 63 40 65 41 31 42 68 43 62 44
REMARK SMILES IDX 61 45 32 47 54 48 39 49 53 50 40 51 43 52 52 53 66 54 41 55
REMARK SMILES IDX 42 56 51 58 67 59 44 60 33 61 34 62 38 63 35 64 37 65 36 66
REMARK SMILES IDX 55 67 56 68 60 69 57 70 59 71 58 72 45 73 46 74 50 75 47 76
REMARK SMILES IDX 49 77 48 78
REMARK H PARENT 75 22 65 46 43 57
REMARK Flexibility Score: inf
ROOT
ATOM      1  C   UNL     1      -2.934  -8.947 -11.715  1.00  0.00     0.202 C 
ENDROOT
BRANCH   1   2
ATOM      2  C   UNL     1      -1.779  -9.527 -10.895  1.00  0.00     0.261 C 
BRANCH   2   3
ATOM      3  O   UNL     1      -1.779  -8.954  -9.575  1.00  0.00    -0.459 OA
BRANCH   3   4
ATOM      4  C   UNL     1      -0.746  -8.104  -9.306  1.00  0.00     0.350 C 
ATOM      5  O   UNL     1       0.255  -7.987 -10.002  1.00  0.00    -0.245 OA
BRANCH   4   6
ATOM      6  C   UNL     1      -1.060  -7.310  -8.145  1.00  0.00     0.132 A 
ATOM      7  C   UNL     1      -1.173  -5.530  -6.474  1.00  0.00     0.116 A 
ATOM      8  N   UNL     1      -2.029  -6.491  -6.178  1.00  0.00    -0.244 NA
ATOM      9  S   UNL     1      -0.262  -5.816  -7.915  1.00  0.00    -0.107 S 
ATOM     10  C   UNL     1      -1.981  -7.492  -7.136  1.00  0.00     0.139 A 
BRANCH   7  11
ATOM     11  C   UNL     1      -0.907  -4.335  -5.748  1.00  0.00     0.040 C 
ATOM     12  C   UNL     1      -1.011  -4.291  -4.410  1.00  0.00     0.011 C 
BRANCH  12  13
ATOM     13  C   UNL     1      -0.590  -3.132  -3.603  1.00  0.00    -0.022 A 
ATOM     14  C   UNL     1       0.370  -0.990  -2.020  1.00  0.00     0.160 A 
ATOM     15  C   UNL     1      -0.165  -0.757  -3.290  1.00  0.00     0.051 A 
ATOM     16  C   UNL     1       0.422  -2.304  -1.553  1.00  0.00     0.158 A 
ATOM     17  C   UNL     1      -0.646  -1.814  -4.072  1.00  0.00     0.012 A 
ATOM     18  C   UNL     1      -0.080  -3.360  -2.319  1.00  0.00     0.058 A 
BRANCH  14  19
ATOM     19  O   UNL     1       0.852   0.125  -1.393  1.00  0.00    -0.493 OA
ATOM     20  C   UNL     1       0.736   0.175   0.025  1.00  0.00     0.278 C 
ENDBRANCH  14  19
BRANCH  16  21
ATOM     21  O   UNL     1       1.030  -2.655  -0.381  1.00  0.00    -0.504 OA
ATOM     22  H   UNL     1       1.387  -1.993   0.178  1.00  0.00     0.293 HD
ENDBRANCH  16  21
ENDBRANCH  12  13
ENDBRANCH   7  11
ENDBRANCH   4   6
ENDBRANCH   3   4
ENDBRANCH   2   3
ENDBRANCH   1   2
BRANCH   1  23
ATOM     23  O   UNL     1      -2.776  -7.564 -12.036  1.00  0.00    -0.374 OA
BRANCH  23  24
ATOM     24  C   UNL     1      -3.306  -6.633 -11.088  1.00  0.00     0.202 C 
BRANCH  24  25
ATOM     25  C   UNL     1      -4.798  -6.331 -11.261  1.00  0.00     0.261 C 
BRANCH  25  26
ATOM     26  O   UNL     1      -5.594  -7.457 -10.845  1.00  0.00    -0.460 OA
BRANCH  26  27
ATOM     27  C   UNL     1      -6.214  -8.123 -11.847  1.00  0.00     0.338 C 
ATOM     28  O   UNL     1      -6.264  -7.809 -13.024  1.00  0.00    -0.246 OA
BRANCH  27  29
ATOM     29  C   UNL     1      -6.706  -9.426 -11.350  1.00  0.00     0.060 A 
ATOM     30  C   UNL     1      -6.483 -10.546 -12.161  1.00  0.00     0.016 A 
ATOM     31  C   UNL     1      -7.409  -9.552 -10.149  1.00  0.00     0.016 A 
ATOM     32  C   UNL     1      -7.010 -11.784 -11.803  1.00  0.00     0.010 A 
ATOM     33  C   UNL     1      -7.944 -10.795  -9.794  1.00  0.00     0.010 A 
ATOM     34  C   UNL     1      -7.778 -11.908 -10.638  1.00  0.00    -0.014 A 
BRANCH  34  35
ATOM     35  C   UNL     1      -8.533 -13.159 -10.393  1.00  0.00     0.031 A 
ATOM     36  C   UNL     1      -9.982 -13.225 -10.792  1.00  0.00     0.074 A 
ATOM     37  C   UNL     1      -7.931 -14.239  -9.865  1.00  0.00     0.049 A 
ATOM     38  N   UNL     1     -10.831 -14.214 -10.674  1.00  0.00    -0.248 NA
ATOM     39  C   UNL     1     -10.549 -12.014 -11.408  1.00  0.00     0.031 C 
ATOM     40  C   UNL     1      -6.523 -14.323  -9.480  1.00  0.00     0.029 A 
ATOM     41  N   UNL     1      -8.438 -15.479  -9.565  1.00  0.00    -0.354 N 
ATOM     42  C   UNL     1     -12.028 -13.747 -11.200  1.00  0.00     0.074 A 
ATOM     43  C   UNL     1     -11.807 -12.377 -11.611  1.00  0.00     0.031 C 
ATOM     44  C   UNL     1      -6.279 -15.552  -8.991  1.00  0.00     0.029 A 
ATOM     45  C   UNL     1      -7.517 -16.328  -9.005  1.00  0.00     0.049 A 
ATOM     46  H   UNL     1      -9.374 -15.734  -9.734  1.00  0.00     0.167 HD
ATOM     47  C   UNL     1     -13.207 -14.399 -11.338  1.00  0.00     0.031 A 
ATOM     48  C   UNL     1      -7.661 -17.586  -8.543  1.00  0.00     0.031 A 
ATOM     49  C   UNL     1     -13.440 -15.754 -10.918  1.00  0.00     0.049 A 
ATOM     50  C   UNL     1      -9.003 -18.261  -8.631  1.00  0.00     0.074 A 
ATOM     51  C   UNL     1     -14.601 -16.501 -11.019  1.00  0.00     0.029 A 
ATOM     52  N   UNL     1     -12.493 -16.563 -10.312  1.00  0.00    -0.354 N 
ATOM     53  N   UNL     1     -10.122 -17.813  -9.148  1.00  0.00    -0.248 NA
ATOM     54  C   UNL     1      -9.098 -19.619  -8.076  1.00  0.00     0.031 C 
ATOM     55  C   UNL     1     -14.368 -17.750 -10.432  1.00  0.00     0.029 A 
ATOM     56  C   UNL     1     -13.049 -17.795 -10.012  1.00  0.00     0.049 A 
ATOM     57  H   UNL     1     -11.563 -16.302 -10.123  1.00  0.00     0.167 HD
ATOM     58  C   UNL     1     -11.044 -18.843  -9.005  1.00  0.00     0.074 A 
ATOM     59  C   UNL     1     -10.351 -19.942  -8.364  1.00  0.00     0.031 C 
ATOM     60  C   UNL     1     -12.347 -18.878  -9.377  1.00  0.00     0.031 A 
BRANCH  47  61
ATOM     61  C   UNL     1     -14.346 -13.636 -11.948  1.00  0.00    -0.014 A 
ATOM     62  C   UNL     1     -14.382 -13.363 -13.325  1.00  0.00     0.009 A 
ATOM     63  C   UNL     1     -15.411 -13.208 -11.141  1.00  0.00     0.009 A 
ATOM     64  C   UNL     1     -15.449 -12.650 -13.875  1.00  0.00     0.001 A 
ATOM     65  C   UNL     1     -16.487 -12.516 -11.698  1.00  0.00     0.001 A 
ATOM     66  C   UNL     1     -16.502 -12.231 -13.062  1.00  0.00     0.000 A 
ENDBRANCH  47  61
BRANCH  48  67
ATOM     67  C   UNL     1      -6.505 -18.294  -7.937  1.00  0.00    -0.014 A 
ATOM     68  C   UNL     1      -5.900 -19.373  -8.599  1.00  0.00     0.009 A 
ATOM     69  C   UNL     1      -6.020 -17.912  -6.676  1.00  0.00     0.009 A 
ATOM     70  C   UNL     1      -4.848 -20.070  -8.000  1.00  0.00     0.001 A 
ATOM     71  C   UNL     1      -4.953 -18.595  -6.091  1.00  0.00     0.001 A 
ATOM     72  C   UNL     1      -4.374 -19.679  -6.748  1.00  0.00     0.000 A 
ENDBRANCH  48  67
BRANCH  60  73
ATOM     73  C   UNL     1     -13.099 -20.155  -9.133  1.00  0.00    -0.014 A 
ATOM     74  C   UNL     1     -13.512 -20.522  -7.843  1.00  0.00     0.009 A 
ATOM     75  C   UNL     1     -13.434 -20.980 -10.218  1.00  0.00     0.009 A 
ATOM     76  C   UNL     1     -14.223 -21.707  -7.642  1.00  0.00     0.001 A 
ATOM     77  C   UNL     1     -14.166 -22.151 -10.017  1.00  0.00     0.001 A 
ATOM     78  C   UNL     1     -14.553 -22.518  -8.729  1.00  0.00     0.000 A 
ENDBRANCH  60  73
ENDBRANCH  34  35
ENDBRANCH  27  29
ENDBRANCH  26  27
ENDBRANCH  25  26
ENDBRANCH  24  25
ENDBRANCH  23  24
ENDBRANCH   1  23
TORSDOF 18
