REMARK SMILES CCc1ccc(C(=O)OCCOCCOC(=O)c2ccc(-c3c4nc(c(-c5ccccc5)c5ccc([nH]5)c(-c5ccccc5)c5nc(c(-c6ccccc6)c6ccc3[nH]6)C=C5)C=C4)cc2)cc1S(=O)(=O)Nc1ccc(F)c(F)c1F
REMARK SMILES IDX 11 1 10 2 9 3 7 4 8 5 6 6 3 7 4 8 67 9 5 10 66 11 2 12 1 13
REMARK SMILES IDX 68 14 69 15 70 16 71 17 72 19 73 20 79 21 74 22 77 23 80 24
REMARK SMILES IDX 75 25 78 26 76 27 12 28 13 29 14 30 15 31 16 32 17 33 18 34
REMARK SMILES IDX 19 35 65 36 20 37 64 38 21 39 22 40 23 41 58 42 24 43 63 44
REMARK SMILES IDX 57 45 59 46 25 47 62 48 56 49 55 50 26 52 48 53 33 54 47 55
REMARK SMILES IDX 34 56 37 57 46 58 60 59 35 60 36 61 45 63 61 64 38 65 27 66
REMARK SMILES IDX 28 67 32 68 29 69 31 70 30 71 49 72 50 73 54 74 51 75 53 76
REMARK SMILES IDX 52 77 39 78 40 79 44 80 41 81 43 82 42 83
REMARK H PARENT 71 18 59 51 37 62
REMARK Flexibility Score: inf
ROOT
ATOM      1  C   UNL     1       1.782  -6.673   6.258  1.00  0.00     0.202 C 
ENDROOT
BRANCH   1   2
ATOM      2  C   UNL     1       3.035  -5.899   5.823  1.00  0.00     0.261 C 
BRANCH   2   3
ATOM      3  O   UNL     1       2.746  -4.850   4.884  1.00  0.00    -0.460 OA
BRANCH   3   4
ATOM      4  C   UNL     1       3.425  -4.930   3.710  1.00  0.00     0.338 C 
ATOM      5  O   UNL     1       4.342  -5.678   3.427  1.00  0.00    -0.246 OA
BRANCH   4   6
ATOM      6  C   UNL     1       2.695  -4.144   2.700  1.00  0.00     0.061 A 
ATOM      7  C   UNL     1       0.967  -2.789   0.959  1.00  0.00    -0.028 A 
ATOM      8  C   UNL     1       1.098  -4.196   0.922  1.00  0.00     0.006 A 
ATOM      9  C   UNL     1       1.897  -2.052   1.716  1.00  0.00     0.091 A 
ATOM     10  C   UNL     1       1.965  -4.869   1.768  1.00  0.00     0.016 A 
ATOM     11  C   UNL     1       2.705  -2.748   2.654  1.00  0.00     0.038 A 
BRANCH   7  12
ATOM     12  C   UNL     1      -0.259  -2.279   0.255  1.00  0.00     0.033 C 
ATOM     13  C   UNL     1      -1.164  -1.435   1.139  1.00  0.00     0.009 C 
ENDBRANCH   7  12
BRANCH   9  14
ATOM     14  S   UNL     1       2.308  -0.300   1.606  1.00  0.00     0.262 S 
ATOM     15  O   UNL     1       1.955   0.249   2.900  1.00  0.00    -0.201 OA
ATOM     16  O   UNL     1       3.677  -0.250   1.136  1.00  0.00    -0.201 OA
BRANCH  14  17
ATOM     17  N   UNL     1       1.377   0.564   0.530  1.00  0.00    -0.277 N 
ATOM     18  H   UNL     1       0.882   1.328   0.905  1.00  0.00     0.180 HD
BRANCH  17  19
ATOM     19  C   UNL     1       1.208   0.335  -0.862  1.00  0.00     0.088 A 
ATOM     20  C   UNL     1       2.190  -0.193  -1.698  1.00  0.00     0.033 A 
ATOM     21  C   UNL     1      -0.081   0.569  -1.376  1.00  0.00     0.185 A 
ATOM     22  C   UNL     1       1.835  -0.625  -2.985  1.00  0.00     0.045 A 
ATOM     23  C   UNL     1      -0.442   0.092  -2.627  1.00  0.00     0.196 A 
ATOM     24  F   UNL     1      -1.018   1.106  -0.577  1.00  0.00    -0.201 F 
ATOM     25  C   UNL     1       0.512  -0.525  -3.418  1.00  0.00     0.162 A 
ATOM     26  F   UNL     1      -1.725   0.133  -3.013  1.00  0.00    -0.200 F 
ATOM     27  F   UNL     1       0.161  -1.069  -4.591  1.00  0.00    -0.204 F 
ENDBRANCH  17  19
ENDBRANCH  14  17
ENDBRANCH   9  14
ENDBRANCH   4   6
ENDBRANCH   3   4
ENDBRANCH   2   3
ENDBRANCH   1   2
BRANCH   1  28
ATOM     28  O   UNL     1       0.936  -7.189   5.234  1.00  0.00    -0.374 OA
BRANCH  28  29
ATOM     29  C   UNL     1       0.071  -6.268   4.567  1.00  0.00     0.202 C 
BRANCH  29  30
ATOM     30  C   UNL     1      -1.127  -5.718   5.353  1.00  0.00     0.261 C 
BRANCH  30  31
ATOM     31  O   UNL     1      -0.724  -4.862   6.436  1.00  0.00    -0.460 OA
BRANCH  31  32
ATOM     32  C   UNL     1      -1.030  -5.333   7.670  1.00  0.00     0.338 C 
ATOM     33  O   UNL     1      -1.662  -6.336   7.944  1.00  0.00    -0.246 OA
BRANCH  32  34
ATOM     34  C   UNL     1      -0.319  -4.552   8.699  1.00  0.00     0.060 A 
ATOM     35  C   UNL     1       0.514  -5.257   9.577  1.00  0.00     0.016 A 
ATOM     36  C   UNL     1      -0.547  -3.186   8.874  1.00  0.00     0.016 A 
ATOM     37  C   UNL     1       1.067  -4.613  10.678  1.00  0.00     0.010 A 
ATOM     38  C   UNL     1       0.006  -2.541   9.985  1.00  0.00     0.010 A 
ATOM     39  C   UNL     1       0.772  -3.264  10.918  1.00  0.00    -0.014 A 
BRANCH  39  40
ATOM     40  C   UNL     1       1.126  -2.681  12.236  1.00  0.00     0.031 A 
ATOM     41  C   UNL     1       0.054  -2.545  13.284  1.00  0.00     0.074 A 
ATOM     42  C   UNL     1       2.397  -2.350  12.522  1.00  0.00     0.049 A 
ATOM     43  N   UNL     1       0.148  -2.114  14.517  1.00  0.00    -0.248 NA
ATOM     44  C   UNL     1      -1.306  -2.952  12.893  1.00  0.00     0.031 C 
ATOM     45  C   UNL     1       3.531  -2.476  11.608  1.00  0.00     0.029 A 
ATOM     46  N   UNL     1       2.946  -1.850  13.676  1.00  0.00    -0.354 N 
ATOM     47  C   UNL     1      -1.136  -2.192  15.043  1.00  0.00     0.074 A 
ATOM     48  C   UNL     1      -1.998  -2.674  13.987  1.00  0.00     0.031 C 
ATOM     49  C   UNL     1       4.646  -2.072  12.241  1.00  0.00     0.029 A 
ATOM     50  C   UNL     1       4.298  -1.632  13.591  1.00  0.00     0.049 A 
ATOM     51  H   UNL     1       2.420  -1.665  14.488  1.00  0.00     0.167 HD
ATOM     52  C   UNL     1      -1.560  -1.899  16.296  1.00  0.00     0.031 A 
ATOM     53  C   UNL     1       5.157  -1.127  14.497  1.00  0.00     0.031 A 
ATOM     54  C   UNL     1      -0.706  -1.407  17.344  1.00  0.00     0.049 A 
ATOM     55  C   UNL     1       4.648  -0.745  15.861  1.00  0.00     0.074 A 
ATOM     56  C   UNL     1      -1.036  -1.092  18.651  1.00  0.00     0.029 A 
ATOM     57  N   UNL     1       0.650  -1.153  17.202  1.00  0.00    -0.354 N 
ATOM     58  N   UNL     1       3.437  -0.850  16.354  1.00  0.00    -0.248 NA
ATOM     59  C   UNL     1       5.633  -0.189  16.799  1.00  0.00     0.031 C 
ATOM     60  C   UNL     1       0.107  -0.589  19.281  1.00  0.00     0.029 A 
ATOM     61  C   UNL     1       1.165  -0.659  18.389  1.00  0.00     0.049 A 
ATOM     62  H   UNL     1       1.169  -1.302  16.379  1.00  0.00     0.167 HD
ATOM     63  C   UNL     1       3.523  -0.404  17.668  1.00  0.00     0.074 A 
ATOM     64  C   UNL     1       4.908  -0.048  17.899  1.00  0.00     0.031 C 
ATOM     65  C   UNL     1       2.544  -0.302  18.602  1.00  0.00     0.031 A 
BRANCH  52  66
ATOM     66  C   UNL     1      -3.027  -2.068  16.587  1.00  0.00    -0.014 A 
ATOM     67  C   UNL     1      -3.619  -3.340  16.659  1.00  0.00     0.009 A 
ATOM     68  C   UNL     1      -3.824  -0.936  16.818  1.00  0.00     0.009 A 
ATOM     69  C   UNL     1      -4.985  -3.471  16.920  1.00  0.00     0.001 A 
ATOM     70  C   UNL     1      -5.183  -1.072  17.110  1.00  0.00     0.001 A 
ATOM     71  C   UNL     1      -5.764  -2.337  17.150  1.00  0.00     0.000 A 
ENDBRANCH  52  66
BRANCH  53  72
ATOM     72  C   UNL     1       6.590  -0.945  14.145  1.00  0.00    -0.014 A 
ATOM     73  C   UNL     1       7.586  -1.716  14.763  1.00  0.00     0.009 A 
ATOM     74  C   UNL     1       6.971   0.024  13.203  1.00  0.00     0.009 A 
ATOM     75  C   UNL     1       8.935  -1.500  14.467  1.00  0.00     0.001 A 
ATOM     76  C   UNL     1       8.316   0.215  12.884  1.00  0.00     0.001 A 
ATOM     77  C   UNL     1       9.298  -0.538  13.525  1.00  0.00     0.000 A 
ENDBRANCH  53  72
BRANCH  65  78
ATOM     78  C   UNL     1       2.950   0.174  19.971  1.00  0.00    -0.014 A 
ATOM     79  C   UNL     1       3.354   1.499  20.200  1.00  0.00     0.009 A 
ATOM     80  C   UNL     1       2.911  -0.719  21.054  1.00  0.00     0.009 A 
ATOM     81  C   UNL     1       3.760   1.905  21.473  1.00  0.00     0.001 A 
ATOM     82  C   UNL     1       3.282  -0.301  22.333  1.00  0.00     0.001 A 
ATOM     83  C   UNL     1       3.720   1.006  22.539  1.00  0.00     0.000 A 
ENDBRANCH  65  78
ENDBRANCH  39  40
ENDBRANCH  32  34
ENDBRANCH  31  32
ENDBRANCH  30  31
ENDBRANCH  29  30
ENDBRANCH  28  29
ENDBRANCH   1  28
TORSDOF 18
