REMARK SMILES CCCN(CCC)c1cc(C(=O)OCCOCCOC(=O)c2ccc(-c3c4nc(c(-c5ccccc5)c5ccc([nH]5)c(-c5ccccc5)c5nc(c(-c6ccccc6)c6ccc3[nH]6)C=C5)C=C4)cc2)cc(C(F)(F)F)c1
REMARK SMILES IDX 15 1 14 2 13 3 11 4 12 5 10 6 8 7 9 8 76 9 71 10 70 11 4 12
REMARK SMILES IDX 3 13 2 14 1 15 5 16 6 17 7 18 72 19 73 20 74 21 75 22 16 23
REMARK SMILES IDX 17 24 18 25 19 26 20 27 21 28 22 29 23 30 69 31 24 32 68 33
REMARK SMILES IDX 25 34 26 35 27 36 62 37 28 38 67 39 61 40 63 41 29 42 66 43
REMARK SMILES IDX 60 44 59 45 30 47 52 48 37 49 51 50 38 51 41 52 50 53 64 54
REMARK SMILES IDX 39 55 40 56 49 58 65 59 42 60 31 61 32 62 36 63 33 64 35 65
REMARK SMILES IDX 34 66 53 67 54 68 58 69 55 70 57 71 56 72 43 73 44 74 48 75
REMARK SMILES IDX 45 76 47 77 46 78
REMARK H PARENT 63 46 41 57
REMARK Flexibility Score: inf
ROOT
ATOM      1  C   UNL     1      -0.036  -2.314   8.387  1.00  0.00     0.202 C 
ENDROOT
BRANCH   1   2
ATOM      2  C   UNL     1       1.405  -1.947   8.014  1.00  0.00     0.261 C 
BRANCH   2   3
ATOM      3  O   UNL     1       1.437  -1.217   6.773  1.00  0.00    -0.460 OA
BRANCH   3   4
ATOM      4  C   UNL     1       2.167  -1.776   5.771  1.00  0.00     0.338 C 
ATOM      5  O   UNL     1       2.889  -2.747   5.848  1.00  0.00    -0.246 OA
BRANCH   4   6
ATOM      6  C   UNL     1       1.773  -1.135   4.490  1.00  0.00     0.062 A 
ATOM      7  C   UNL     1       1.124  -1.491   2.159  1.00  0.00     0.038 A 
ATOM      8  C   UNL     1       1.663  -1.961   3.358  1.00  0.00     0.041 A 
ATOM      9  C   UNL     1       0.816  -0.131   2.102  1.00  0.00     0.039 A 
ATOM     10  C   UNL     1       0.967   0.736   3.198  1.00  0.00     0.058 A 
ATOM     11  C   UNL     1       1.419   0.213   4.413  1.00  0.00     0.029 A 
BRANCH   7  12
ATOM     12  N   UNL     1       0.842  -2.337   1.101  1.00  0.00    -0.372 N 
BRANCH  12  13
ATOM     13  C   UNL     1       1.402  -2.095  -0.235  1.00  0.00     0.116 C 
BRANCH  13  14
ATOM     14  C   UNL     1       0.428  -1.440  -1.229  1.00  0.00     0.018 C 
ATOM     15  C   UNL     1       0.523   0.078  -1.333  1.00  0.00     0.006 C 
ENDBRANCH  13  14
ENDBRANCH  12  13
BRANCH  12  16
ATOM     16  C   UNL     1      -0.190  -3.378   1.255  1.00  0.00     0.116 C 
BRANCH  16  17
ATOM     17  C   UNL     1       0.337  -4.677   1.874  1.00  0.00     0.018 C 
ATOM     18  C   UNL     1      -0.141  -4.873   3.305  1.00  0.00     0.006 C 
ENDBRANCH  16  17
ENDBRANCH  12  16
ENDBRANCH   7  12
BRANCH  10  19
ATOM     19  C   UNL     1       0.591   2.189   3.071  1.00  0.00     0.416 C 
ATOM     20  F   UNL     1      -0.515   2.503   3.799  1.00  0.00    -0.166 F 
ATOM     21  F   UNL     1       1.576   3.022   3.505  1.00  0.00    -0.166 F 
ATOM     22  F   UNL     1       0.317   2.572   1.792  1.00  0.00    -0.166 F 
ENDBRANCH  10  19
ENDBRANCH   4   6
ENDBRANCH   3   4
ENDBRANCH   2   3
ENDBRANCH   1   2
BRANCH   1  23
ATOM     23  O   UNL     1      -0.658  -3.354   7.633  1.00  0.00    -0.374 OA
BRANCH  23  24
ATOM     24  C   UNL     1      -1.053  -3.055   6.298  1.00  0.00     0.202 C 
BRANCH  24  25
ATOM     25  C   UNL     1      -2.381  -2.315   6.089  1.00  0.00     0.261 C 
BRANCH  25  26
ATOM     26  O   UNL     1      -2.483  -1.113   6.859  1.00  0.00    -0.460 OA
BRANCH  26  27
ATOM     27  C   UNL     1      -3.191  -1.262   8.005  1.00  0.00     0.338 C 
ATOM     28  O   UNL     1      -3.787  -2.253   8.390  1.00  0.00    -0.246 OA
BRANCH  27  29
ATOM     29  C   UNL     1      -3.012  -0.072   8.849  1.00  0.00     0.060 A 
ATOM     30  C   UNL     1      -2.558  -0.277  10.157  1.00  0.00     0.016 A 
ATOM     31  C   UNL     1      -3.341   1.207   8.395  1.00  0.00     0.016 A 
ATOM     32  C   UNL     1      -2.485   0.795  11.038  1.00  0.00     0.010 A 
ATOM     33  C   UNL     1      -3.268   2.283   9.284  1.00  0.00     0.010 A 
ATOM     34  C   UNL     1      -2.879   2.073  10.619  1.00  0.00    -0.014 A 
BRANCH  34  35
ATOM     35  C   UNL     1      -3.004   3.150  11.627  1.00  0.00     0.031 A 
ATOM     36  C   UNL     1      -4.368   3.526  12.136  1.00  0.00     0.074 A 
ATOM     37  C   UNL     1      -1.904   3.739  12.129  1.00  0.00     0.049 A 
ATOM     38  N   UNL     1      -4.697   4.399  13.053  1.00  0.00    -0.248 NA
ATOM     39  C   UNL     1      -5.513   2.828  11.530  1.00  0.00     0.031 C 
ATOM     40  C   UNL     1      -0.528   3.434  11.738  1.00  0.00     0.029 A 
ATOM     41  N   UNL     1      -1.776   4.711  13.088  1.00  0.00    -0.354 N 
ATOM     42  C   UNL     1      -6.084   4.358  13.132  1.00  0.00     0.074 A 
ATOM     43  C   UNL     1      -6.536   3.405  12.142  1.00  0.00     0.031 C 
ATOM     44  C   UNL     1       0.309   4.196  12.462  1.00  0.00     0.029 A 
ATOM     45  C   UNL     1      -0.473   5.062  13.341  1.00  0.00     0.049 A 
ATOM     46  H   UNL     1      -2.544   5.118  13.550  1.00  0.00     0.167 HD
ATOM     47  C   UNL     1      -6.907   5.043  13.961  1.00  0.00     0.031 A 
ATOM     48  C   UNL     1       0.031   5.984  14.182  1.00  0.00     0.031 A 
ATOM     49  C   UNL     1      -6.454   6.003  14.934  1.00  0.00     0.049 A 
ATOM     50  C   UNL     1      -0.910   6.779  15.048  1.00  0.00     0.074 A 
ATOM     51  C   UNL     1      -7.205   6.741  15.832  1.00  0.00     0.029 A 
ATOM     52  N   UNL     1      -5.129   6.363  15.129  1.00  0.00    -0.354 N 
ATOM     53  N   UNL     1      -2.216   6.706  15.137  1.00  0.00    -0.248 NA
ATOM     54  C   UNL     1      -0.300   7.770  15.944  1.00  0.00     0.031 C 
ATOM     55  C   UNL     1      -6.341   7.594  16.526  1.00  0.00     0.029 A 
ATOM     56  C   UNL     1      -5.044   7.332  16.115  1.00  0.00     0.049 A 
ATOM     57  H   UNL     1      -4.363   5.986  14.639  1.00  0.00     0.167 HD
ATOM     58  C   UNL     1      -2.580   7.613  16.125  1.00  0.00     0.074 A 
ATOM     59  C   UNL     1      -1.355   8.211  16.614  1.00  0.00     0.031 C 
ATOM     60  C   UNL     1      -3.817   7.920  16.590  1.00  0.00     0.031 A 
BRANCH  47  61
ATOM     61  C   UNL     1      -8.386   4.804  13.824  1.00  0.00    -0.014 A 
ATOM     62  C   UNL     1      -8.971   3.584  14.201  1.00  0.00     0.009 A 
ATOM     63  C   UNL     1      -9.213   5.829  13.338  1.00  0.00     0.009 A 
ATOM     64  C   UNL     1     -10.346   3.384  14.060  1.00  0.00     0.001 A 
ATOM     65  C   UNL     1     -10.592   5.638  13.229  1.00  0.00     0.001 A 
ATOM     66  C   UNL     1     -11.156   4.413  13.580  1.00  0.00     0.000 A 
ENDBRANCH  47  61
BRANCH  48  67
ATOM     67  C   UNL     1       1.499   6.209  14.249  1.00  0.00    -0.014 A 
ATOM     68  C   UNL     1       2.226   5.871  15.401  1.00  0.00     0.009 A 
ATOM     69  C   UNL     1       2.179   6.781  13.162  1.00  0.00     0.009 A 
ATOM     70  C   UNL     1       3.597   6.131  15.473  1.00  0.00     0.001 A 
ATOM     71  C   UNL     1       3.554   7.008  13.225  1.00  0.00     0.001 A 
ATOM     72  C   UNL     1       4.261   6.694  14.384  1.00  0.00     0.000 A 
ENDBRANCH  48  67
BRANCH  60  73
ATOM     73  C   UNL     1      -3.899   8.909  17.722  1.00  0.00    -0.014 A 
ATOM     74  C   UNL     1      -3.591  10.266  17.542  1.00  0.00     0.009 A 
ATOM     75  C   UNL     1      -4.312   8.470  18.991  1.00  0.00     0.009 A 
ATOM     76  C   UNL     1      -3.646  11.152  18.621  1.00  0.00     0.001 A 
ATOM     77  C   UNL     1      -4.402   9.365  20.058  1.00  0.00     0.001 A 
ATOM     78  C   UNL     1      -4.054  10.702  19.876  1.00  0.00     0.000 A 
ENDBRANCH  60  73
ENDBRANCH  34  35
ENDBRANCH  27  29
ENDBRANCH  26  27
ENDBRANCH  25  26
ENDBRANCH  24  25
ENDBRANCH  23  24
ENDBRANCH   1  23
TORSDOF 20
