REMARK SMILES COc1cccc(NC(=O)[C@@H]2[C@@H](C(=O)OCCOCCOC(=O)c3ccc(-c4c5nc(c(-c6ccccc6)c6ccc([nH]6)c(-c6ccccc6)c6nc(c(-c7ccccc7)c7ccc4[nH]7)C=C6)C=C5)cc3)[C@H]3C=C[C@@H]2C3)c1
REMARK SMILES IDX 17 1 16 2 15 3 13 4 14 5 12 6 11 7 75 8 72 9 74 10 76 11
REMARK SMILES IDX 73 12 9 13 8 14 10 16 7 17 3 18 4 19 77 20 5 21 6 22 2 23
REMARK SMILES IDX 1 24 18 25 19 26 20 27 21 28 22 29 23 30 24 31 25 32 71 33
REMARK SMILES IDX 26 34 70 35 27 36 28 37 29 38 64 39 30 40 69 41 63 42 65 43
REMARK SMILES IDX 31 44 68 45 62 46 61 47 32 49 54 50 39 51 53 52 40 53 43 54
REMARK SMILES IDX 52 55 66 56 41 57 42 58 51 60 67 61 44 62 33 63 34 64 38 65
REMARK SMILES IDX 35 66 37 67 36 68 55 69 56 70 60 71 57 72 59 73 58 74 45 75
REMARK SMILES IDX 46 76 50 77 47 78 49 79 48 80
REMARK H PARENT 8 15 65 48 43 59
REMARK Flexibility Score: inf
ROOT
ATOM      1  C   UNL     1      -0.351   5.567   5.593  1.00  0.00     0.202 C 
ENDROOT
BRANCH   1   2
ATOM      2  C   UNL     1       0.005   5.193   7.032  1.00  0.00     0.261 C 
BRANCH   2   3
ATOM      3  O   UNL     1       1.385   4.831   7.155  1.00  0.00    -0.463 OA
BRANCH   3   4
ATOM      4  C   UNL     1       1.595   3.493   7.299  1.00  0.00     0.310 C 
ATOM      5  O   UNL     1       0.714   2.663   7.475  1.00  0.00    -0.252 OA
BRANCH   4   6
ATOM      6  C   UNL     1       3.070   3.179   7.190  1.00  0.00     0.119 C 
ATOM      7  C   UNL     1       3.346   1.643   7.052  1.00  0.00     0.100 C 
ATOM      8  C   UNL     1       4.221   1.387   8.315  1.00  0.00     0.025 C 
ATOM      9  C   UNL     1       3.796   3.570   8.507  1.00  0.00     0.027 C 
ATOM     10  C   UNL     1       3.329   1.573   9.530  1.00  0.00    -0.027 C 
ATOM     11  C   UNL     1       5.035   2.683   8.439  1.00  0.00     0.017 C 
ATOM     12  C   UNL     1       3.101   2.888   9.662  1.00  0.00    -0.027 C 
BRANCH   7  13
ATOM     13  C   UNL     1       4.095   1.301   5.768  1.00  0.00     0.228 C 
ATOM     14  N   UNL     1       3.514   1.105   4.551  1.00  0.00    -0.326 N 
ATOM     15  H   UNL     1       4.191   0.962   3.850  1.00  0.00     0.169 HD
ATOM     16  O   UNL     1       5.332   1.236   5.769  1.00  0.00    -0.274 OA
BRANCH  14  17
ATOM     17  C   UNL     1       2.211   1.052   4.024  1.00  0.00     0.044 A 
ATOM     18  C   UNL     1       0.859   1.084   1.990  1.00  0.00     0.120 A 
ATOM     19  C   UNL     1      -0.302   1.196   2.742  1.00  0.00     0.046 A 
ATOM     20  C   UNL     1       2.107   1.018   2.619  1.00  0.00     0.072 A 
ATOM     21  C   UNL     1      -0.215   1.162   4.129  1.00  0.00     0.006 A 
ATOM     22  C   UNL     1       1.032   1.068   4.762  1.00  0.00     0.026 A 
BRANCH  18  23
ATOM     23  O   UNL     1       0.744   1.165   0.629  1.00  0.00    -0.497 OA
ATOM     24  C   UNL     1       1.072  -0.075   0.006  1.00  0.00     0.278 C 
ENDBRANCH  18  23
ENDBRANCH  14  17
ENDBRANCH   7  13
ENDBRANCH   4   6
ENDBRANCH   3   4
ENDBRANCH   2   3
ENDBRANCH   1   2
BRANCH   1  25
ATOM     25  O   UNL     1      -0.050   4.638   4.557  1.00  0.00    -0.374 OA
BRANCH  25  26
ATOM     26  C   UNL     1       1.301   4.538   4.112  1.00  0.00     0.202 C 
BRANCH  26  27
ATOM     27  C   UNL     1       1.874   5.618   3.193  1.00  0.00     0.261 C 
BRANCH  27  28
ATOM     28  O   UNL     1       1.845   6.917   3.785  1.00  0.00    -0.460 OA
BRANCH  28  29
ATOM     29  C   UNL     1       0.815   7.685   3.364  1.00  0.00     0.338 C 
ATOM     30  O   UNL     1      -0.019   7.422   2.510  1.00  0.00    -0.246 OA
BRANCH  29  31
ATOM     31  C   UNL     1       0.709   8.849   4.252  1.00  0.00     0.060 A 
ATOM     32  C   UNL     1      -0.544   9.123   4.816  1.00  0.00     0.016 A 
ATOM     33  C   UNL     1       1.813   9.662   4.512  1.00  0.00     0.016 A 
ATOM     34  C   UNL     1      -0.713  10.254   5.601  1.00  0.00     0.010 A 
ATOM     35  C   UNL     1       1.641  10.802   5.291  1.00  0.00     0.010 A 
ATOM     36  C   UNL     1       0.369  11.120   5.800  1.00  0.00    -0.014 A 
BRANCH  36  37
ATOM     37  C   UNL     1       0.130  12.452   6.388  1.00  0.00     0.031 A 
ATOM     38  C   UNL     1       0.029  13.631   5.462  1.00  0.00     0.074 A 
ATOM     39  C   UNL     1      -0.009  12.595   7.716  1.00  0.00     0.049 A 
ATOM     40  N   UNL     1      -0.128  14.896   5.749  1.00  0.00    -0.248 NA
ATOM     41  C   UNL     1       0.125  13.347   4.019  1.00  0.00     0.031 C 
ATOM     42  C   UNL     1       0.023  11.507   8.694  1.00  0.00     0.029 A 
ATOM     43  N   UNL     1      -0.204  13.722   8.469  1.00  0.00    -0.354 N 
ATOM     44  C   UNL     1      -0.129  15.558   4.528  1.00  0.00     0.074 A 
ATOM     45  C   UNL     1       0.066  14.563   3.498  1.00  0.00     0.031 C 
ATOM     46  C   UNL     1      -0.144  12.024   9.924  1.00  0.00     0.029 A 
ATOM     47  C   UNL     1      -0.253  13.477   9.818  1.00  0.00     0.049 A 
ATOM     48  H   UNL     1      -0.299  14.621   8.080  1.00  0.00     0.167 HD
ATOM     49  C   UNL     1      -0.280  16.881   4.291  1.00  0.00     0.031 A 
ATOM     50  C   UNL     1      -0.353  14.338  10.848  1.00  0.00     0.031 A 
ATOM     51  C   UNL     1      -0.472  17.861   5.325  1.00  0.00     0.049 A 
ATOM     52  C   UNL     1      -0.445  15.812  10.554  1.00  0.00     0.074 A 
ATOM     53  C   UNL     1      -0.670  19.223   5.194  1.00  0.00     0.029 A 
ATOM     54  N   UNL     1      -0.482  17.579   6.682  1.00  0.00    -0.354 N 
ATOM     55  N   UNL     1      -0.485  16.426   9.395  1.00  0.00    -0.248 NA
ATOM     56  C   UNL     1      -0.512  16.712  11.713  1.00  0.00     0.031 C 
ATOM     57  C   UNL     1      -0.730  19.777   6.476  1.00  0.00     0.029 A 
ATOM     58  C   UNL     1      -0.645  18.749   7.403  1.00  0.00     0.049 A 
ATOM     59  H   UNL     1      -0.386  16.682   7.075  1.00  0.00     0.167 HD
ATOM     60  C   UNL     1      -0.622  17.778   9.686  1.00  0.00     0.074 A 
ATOM     61  C   UNL     1      -0.672  17.891  11.130  1.00  0.00     0.031 C 
ATOM     62  C   UNL     1      -0.700  18.833   8.839  1.00  0.00     0.031 A 
BRANCH  49  63
ATOM     63  C   UNL     1      -0.203  17.352   2.866  1.00  0.00    -0.014 A 
ATOM     64  C   UNL     1      -1.223  17.075   1.942  1.00  0.00     0.009 A 
ATOM     65  C   UNL     1       0.890  18.132   2.456  1.00  0.00     0.009 A 
ATOM     66  C   UNL     1      -1.137  17.552   0.632  1.00  0.00     0.001 A 
ATOM     67  C   UNL     1       0.959  18.632   1.155  1.00  0.00     0.001 A 
ATOM     68  C   UNL     1      -0.051  18.336   0.242  1.00  0.00     0.000 A 
ENDBRANCH  49  63
BRANCH  50  69
ATOM     69  C   UNL     1      -0.349  13.843  12.250  1.00  0.00    -0.014 A 
ATOM     70  C   UNL     1      -1.485  13.987  13.061  1.00  0.00     0.009 A 
ATOM     71  C   UNL     1       0.805  13.262  12.799  1.00  0.00     0.009 A 
ATOM     72  C   UNL     1      -1.452  13.598  14.402  1.00  0.00     0.001 A 
ATOM     73  C   UNL     1       0.824  12.842  14.130  1.00  0.00     0.001 A 
ATOM     74  C   UNL     1      -0.299  13.023  14.935  1.00  0.00     0.000 A 
ENDBRANCH  50  69
BRANCH  62  75
ATOM     75  C   UNL     1      -0.903  20.192   9.450  1.00  0.00    -0.014 A 
ATOM     76  C   UNL     1       0.118  20.834  10.168  1.00  0.00     0.009 A 
ATOM     77  C   UNL     1      -2.126  20.856   9.264  1.00  0.00     0.009 A 
ATOM     78  C   UNL     1      -0.098  22.097  10.720  1.00  0.00     0.001 A 
ATOM     79  C   UNL     1      -2.326  22.133   9.786  1.00  0.00     0.001 A 
ATOM     80  C   UNL     1      -1.316  22.748  10.524  1.00  0.00     0.000 A 
ENDBRANCH  62  75
ENDBRANCH  36  37
ENDBRANCH  29  31
ENDBRANCH  28  29
ENDBRANCH  27  28
ENDBRANCH  26  27
ENDBRANCH  25  26
ENDBRANCH   1  25
TORSDOF 17
