REMARK SMILES CC(=O)c1nnn(-c2ccc(C(=O)OCCOCCOC(=O)c3ccc(-c4c5nc(c(-c6ccccc6)c6ccc([nH]6)c(-c6ccccc6)c6nc(c(-c7ccccc7)c7ccc4[nH]7)C=C6)C=C5)cc3)cc2)c1C
REMARK SMILES IDX 17 1 16 2 15 3 14 4 12 5 13 6 11 7 8 8 9 9 72 10 10 11 71 12
REMARK SMILES IDX 7 13 4 14 5 15 73 16 6 17 74 18 2 19 1 20 3 21 18 22 19 23
REMARK SMILES IDX 20 24 21 25 22 26 23 27 24 28 70 29 25 30 69 31 26 32 27 33
REMARK SMILES IDX 28 34 63 35 29 36 68 37 62 38 64 39 30 40 67 41 61 42 60 43
REMARK SMILES IDX 31 45 53 46 38 47 52 48 39 49 42 50 51 51 65 52 40 53 41 54
REMARK SMILES IDX 50 56 66 57 43 58 32 59 33 60 37 61 34 62 36 63 35 64 54 65
REMARK SMILES IDX 55 66 59 67 56 68 58 69 57 70 44 71 45 72 49 73 46 74 48 75
REMARK SMILES IDX 47 76
REMARK H PARENT 64 44 42 55
REMARK Flexibility Score: inf
ROOT
ATOM      1  O   UNL     1       8.790  -7.042   5.933  1.00  0.00    -0.374 OA
ENDROOT
BRANCH   1   2
ATOM      2  C   UNL     1       9.645  -5.898   5.918  1.00  0.00     0.202 C 
BRANCH   2   3
ATOM      3  C   UNL     1       9.514  -4.924   4.749  1.00  0.00     0.261 C 
BRANCH   3   4
ATOM      4  O   UNL     1       8.265  -4.213   4.785  1.00  0.00    -0.460 OA
BRANCH   4   5
ATOM      5  C   UNL     1       7.408  -4.544   3.794  1.00  0.00     0.338 C 
ATOM      6  O   UNL     1       7.610  -5.321   2.870  1.00  0.00    -0.246 OA
BRANCH   5   7
ATOM      7  C   UNL     1       6.085  -3.938   4.027  1.00  0.00     0.060 A 
ATOM      8  C   UNL     1       3.595  -2.740   3.926  1.00  0.00     0.067 A 
ATOM      9  C   UNL     1       3.693  -4.112   3.677  1.00  0.00     0.029 A 
ATOM     10  C   UNL     1       4.700  -2.009   4.385  1.00  0.00     0.029 A 
ATOM     11  C   UNL     1       4.953  -4.702   3.699  1.00  0.00     0.018 A 
ATOM     12  C   UNL     1       5.954  -2.613   4.447  1.00  0.00     0.018 A 
BRANCH   8  13
ATOM     13  N   UNL     1       2.431  -2.066   3.500  1.00  0.00    -0.217 N 
ATOM     14  C   UNL     1       1.010  -0.837   2.392  1.00  0.00     0.151 A 
ATOM     15  N   UNL     1       0.320  -1.769   3.122  1.00  0.00    -0.126 NA
ATOM     16  C   UNL     1       2.369  -1.008   2.603  1.00  0.00     0.073 A 
ATOM     17  N   UNL     1       1.197  -2.570   3.710  1.00  0.00    -0.061 NA
ATOM     18  C   UNL     1       3.554  -0.380   1.968  1.00  0.00     0.069 C 
BRANCH  14  19
ATOM     19  C   UNL     1       0.339   0.089   1.494  1.00  0.00     0.181 C 
ATOM     20  C   UNL     1       0.673   0.003   0.024  1.00  0.00     0.095 C 
ATOM     21  O   UNL     1      -0.502   0.889   1.902  1.00  0.00    -0.293 OA
ENDBRANCH  14  19
ENDBRANCH   8  13
ENDBRANCH   5   7
ENDBRANCH   4   5
ENDBRANCH   3   4
ENDBRANCH   2   3
ENDBRANCH   1   2
BRANCH   1  22
ATOM     22  C   UNL     1       7.391  -6.886   6.145  1.00  0.00     0.202 C 
BRANCH  22  23
ATOM     23  C   UNL     1       6.911  -6.545   7.547  1.00  0.00     0.261 C 
BRANCH  23  24
ATOM     24  O   UNL     1       7.506  -5.358   8.044  1.00  0.00    -0.460 OA
BRANCH  24  25
ATOM     25  C   UNL     1       8.558  -5.572   8.859  1.00  0.00     0.338 C 
ATOM     26  O   UNL     1       9.175  -6.623   9.020  1.00  0.00    -0.246 OA
BRANCH  25  27
ATOM     27  C   UNL     1       8.759  -4.382   9.683  1.00  0.00     0.060 A 
ATOM     28  C   UNL     1       9.669  -4.512  10.735  1.00  0.00     0.016 A 
ATOM     29  C   UNL     1       7.813  -3.348   9.633  1.00  0.00     0.016 A 
ATOM     30  C   UNL     1       9.463  -3.761  11.866  1.00  0.00     0.010 A 
ATOM     31  C   UNL     1       7.580  -2.632  10.777  1.00  0.00     0.010 A 
ATOM     32  C   UNL     1       8.356  -2.911  11.901  1.00  0.00    -0.014 A 
BRANCH  32  33
ATOM     33  C   UNL     1       8.034  -2.273  13.153  1.00  0.00     0.031 A 
ATOM     34  C   UNL     1       8.780  -1.025  13.386  1.00  0.00     0.074 A 
ATOM     35  C   UNL     1       7.038  -2.714  13.940  1.00  0.00     0.049 A 
ATOM     36  N   UNL     1       9.681  -0.795  14.280  1.00  0.00    -0.248 NA
ATOM     37  C   UNL     1       8.615   0.048  12.392  1.00  0.00     0.031 C 
ATOM     38  C   UNL     1       6.031  -3.731  13.627  1.00  0.00     0.029 A 
ATOM     39  N   UNL     1       6.634  -2.230  15.143  1.00  0.00    -0.354 N 
ATOM     40  C   UNL     1      10.053   0.529  14.082  1.00  0.00     0.074 A 
ATOM     41  C   UNL     1       9.551   0.906  12.787  1.00  0.00     0.031 C 
ATOM     42  C   UNL     1       5.007  -3.616  14.503  1.00  0.00     0.029 A 
ATOM     43  C   UNL     1       5.342  -2.597  15.487  1.00  0.00     0.049 A 
ATOM     44  H   UNL     1       7.205  -1.671  15.718  1.00  0.00     0.167 HD
ATOM     45  C   UNL     1      10.453   1.312  15.119  1.00  0.00     0.031 A 
ATOM     46  C   UNL     1       4.579  -2.024  16.449  1.00  0.00     0.031 A 
ATOM     47  C   UNL     1      10.839   0.529  16.266  1.00  0.00     0.049 A 
ATOM     48  C   UNL     1       5.467  -1.221  17.324  1.00  0.00     0.074 A 
ATOM     49  C   UNL     1      11.753  -0.481  16.494  1.00  0.00     0.029 A 
ATOM     50  N   UNL     1       9.969   0.497  17.329  1.00  0.00    -0.354 N 
ATOM     51  N   UNL     1       6.318  -1.735  18.163  1.00  0.00    -0.248 NA
ATOM     52  C   UNL     1       5.708   0.172  16.973  1.00  0.00     0.031 C 
ATOM     53  C   UNL     1      11.127  -1.347  17.440  1.00  0.00     0.029 A 
ATOM     54  C   UNL     1       9.887  -0.797  17.767  1.00  0.00     0.049 A 
ATOM     55  H   UNL     1       9.489   1.269  17.709  1.00  0.00     0.167 HD
ATOM     56  C   UNL     1       7.426  -0.901  18.101  1.00  0.00     0.074 A 
ATOM     57  C   UNL     1       6.946   0.317  17.453  1.00  0.00     0.031 C 
ATOM     58  C   UNL     1       8.685  -1.388  18.312  1.00  0.00     0.031 A 
BRANCH  45  59
ATOM     59  C   UNL     1      10.040   2.763  15.233  1.00  0.00    -0.014 A 
ATOM     60  C   UNL     1      10.487   3.497  16.344  1.00  0.00     0.009 A 
ATOM     61  C   UNL     1       9.012   3.350  14.466  1.00  0.00     0.009 A 
ATOM     62  C   UNL     1       9.870   4.696  16.719  1.00  0.00     0.001 A 
ATOM     63  C   UNL     1       8.429   4.571  14.807  1.00  0.00     0.001 A 
ATOM     64  C   UNL     1       8.835   5.227  15.956  1.00  0.00     0.000 A 
ENDBRANCH  45  59
BRANCH  46  65
ATOM     65  C   UNL     1       3.107  -1.911  16.516  1.00  0.00    -0.014 A 
ATOM     66  C   UNL     1       2.474  -1.571  17.721  1.00  0.00     0.009 A 
ATOM     67  C   UNL     1       2.331  -1.896  15.342  1.00  0.00     0.009 A 
ATOM     68  C   UNL     1       1.125  -1.195  17.744  1.00  0.00     0.001 A 
ATOM     69  C   UNL     1       0.982  -1.531  15.366  1.00  0.00     0.001 A 
ATOM     70  C   UNL     1       0.383  -1.165  16.566  1.00  0.00     0.000 A 
ENDBRANCH  46  65
BRANCH  58  71
ATOM     71  C   UNL     1       8.816  -2.769  18.906  1.00  0.00    -0.014 A 
ATOM     72  C   UNL     1       8.260  -3.916  18.313  1.00  0.00     0.009 A 
ATOM     73  C   UNL     1       9.629  -2.934  20.037  1.00  0.00     0.009 A 
ATOM     74  C   UNL     1       8.469  -5.182  18.867  1.00  0.00     0.001 A 
ATOM     75  C   UNL     1       9.859  -4.202  20.575  1.00  0.00     0.001 A 
ATOM     76  C   UNL     1       9.270  -5.324  19.997  1.00  0.00     0.000 A 
ENDBRANCH  58  71
ENDBRANCH  32  33
ENDBRANCH  25  27
ENDBRANCH  24  25
ENDBRANCH  23  24
ENDBRANCH  22  23
ENDBRANCH   1  22
TORSDOF 16
