REMARK SMILES CCCCCN(C)S(=O)(=O)c1cc(Cl)cc(C(=O)OCCOCCOC(=O)c2ccc(-c3c4nc(c(-c5ccccc5)c5ccc([nH]5)c(-c5ccccc5)c5nc(c(-c6ccccc6)c6ccc3[nH]6)C=C5)C=C4)cc2)c1F
REMARK SMILES IDX 20 1 19 2 17 3 18 4 16 5 11 6 12 7 76 8 13 9 77 10 14 11
REMARK SMILES IDX 15 12 8 13 9 14 10 15 6 16 7 17 5 18 4 19 3 20 2 21 1 22
REMARK SMILES IDX 21 23 22 24 23 25 24 26 25 27 26 28 27 29 28 30 29 31 75 32
REMARK SMILES IDX 30 33 74 34 31 35 32 36 33 37 68 38 34 39 73 40 67 41 69 42
REMARK SMILES IDX 35 43 72 44 66 45 65 46 36 48 58 49 43 50 57 51 44 52 47 53
REMARK SMILES IDX 56 54 70 55 45 56 46 57 55 59 71 60 48 61 37 62 38 63 42 64
REMARK SMILES IDX 39 65 41 66 40 67 59 68 60 69 64 70 61 71 63 72 62 73 49 74
REMARK SMILES IDX 50 75 54 76 51 77 53 78 52 79
REMARK H PARENT 69 47 47 58
REMARK Flexibility Score: inf
ROOT
ATOM      1  C   UNL     1      -2.692   2.376   9.774  1.00  0.00     0.261 C 
ENDROOT
BRANCH   1   2
ATOM      2  O   UNL     1      -2.239   1.612   8.642  1.00  0.00    -0.460 OA
BRANCH   2   3
ATOM      3  C   UNL     1      -1.391   0.597   8.919  1.00  0.00     0.341 C 
ATOM      4  O   UNL     1      -0.811   0.377   9.967  1.00  0.00    -0.246 OA
BRANCH   3   5
ATOM      5  C   UNL     1      -1.492  -0.386   7.831  1.00  0.00     0.098 A 
ATOM      6  C   UNL     1      -1.526  -1.000   5.513  1.00  0.00     0.120 A 
ATOM      7  C   UNL     1      -1.870  -2.316   5.869  1.00  0.00     0.045 A 
ATOM      8  C   UNL     1      -1.333  -0.031   6.490  1.00  0.00     0.157 A 
ATOM      9  C   UNL     1      -2.002  -2.659   7.210  1.00  0.00     0.043 A 
ATOM     10  F   UNL     1      -0.991   1.223   6.170  1.00  0.00    -0.205 F 
ATOM     11  Cl  UNL     1      -2.403  -4.271   7.644  1.00  0.00    -0.084 Cl
ATOM     12  C   UNL     1      -1.810  -1.702   8.197  1.00  0.00     0.039 A 
BRANCH   6  13
ATOM     13  S   UNL     1      -1.242  -0.704   3.800  1.00  0.00     0.245 S 
ATOM     14  O   UNL     1      -2.296  -1.395   3.084  1.00  0.00    -0.207 OA
ATOM     15  O   UNL     1       0.142  -1.064   3.603  1.00  0.00    -0.207 OA
BRANCH  13  16
ATOM     16  N   UNL     1      -1.460   0.965   3.475  1.00  0.00    -0.201 NA
ATOM     17  C   UNL     1      -2.853   1.437   3.725  1.00  0.00     0.124 C 
BRANCH  16  18
ATOM     18  C   UNL     1      -1.040   1.371   2.085  1.00  0.00     0.102 C 
BRANCH  18  19
ATOM     19  C   UNL     1       0.400   1.883   1.996  1.00  0.00     0.017 C 
BRANCH  19  20
ATOM     20  C   UNL     1       1.526   0.860   1.794  1.00  0.00     0.001 C 
BRANCH  20  21
ATOM     21  C   UNL     1       1.266  -0.262   0.782  1.00  0.00    -0.003 C 
ATOM     22  C   UNL     1       1.160   0.226  -0.652  1.00  0.00     0.004 C 
ENDBRANCH  20  21
ENDBRANCH  19  20
ENDBRANCH  18  19
ENDBRANCH  16  18
ENDBRANCH  13  16
ENDBRANCH   6  13
ENDBRANCH   3   5
ENDBRANCH   2   3
ENDBRANCH   1   2
BRANCH   1  23
ATOM     23  C   UNL     1      -4.212   2.524   9.681  1.00  0.00     0.202 C 
BRANCH  23  24
ATOM     24  O   UNL     1      -4.899   1.304   9.985  1.00  0.00    -0.374 OA
BRANCH  24  25
ATOM     25  C   UNL     1      -5.119   0.426   8.879  1.00  0.00     0.202 C 
BRANCH  25  26
ATOM     26  C   UNL     1      -6.460   0.663   8.181  1.00  0.00     0.261 C 
BRANCH  26  27
ATOM     27  O   UNL     1      -6.412   1.889   7.427  1.00  0.00    -0.460 OA
BRANCH  27  28
ATOM     28  C   UNL     1      -7.117   2.917   7.956  1.00  0.00     0.338 C 
ATOM     29  O   UNL     1      -7.880   2.877   8.906  1.00  0.00    -0.246 OA
BRANCH  28  30
ATOM     30  C   UNL     1      -6.720   4.182   7.303  1.00  0.00     0.060 A 
ATOM     31  C   UNL     1      -6.624   5.320   8.113  1.00  0.00     0.016 A 
ATOM     32  C   UNL     1      -6.473   4.273   5.928  1.00  0.00     0.016 A 
ATOM     33  C   UNL     1      -6.327   6.558   7.548  1.00  0.00     0.010 A 
ATOM     34  C   UNL     1      -6.181   5.518   5.361  1.00  0.00     0.010 A 
ATOM     35  C   UNL     1      -6.138   6.669   6.165  1.00  0.00    -0.014 A 
BRANCH  35  36
ATOM     36  C   UNL     1      -6.043   8.015   5.555  1.00  0.00     0.031 A 
ATOM     37  C   UNL     1      -7.295   8.674   5.046  1.00  0.00     0.074 A 
ATOM     38  C   UNL     1      -4.868   8.664   5.494  1.00  0.00     0.049 A 
ATOM     39  N   UNL     1      -7.448   9.861   4.519  1.00  0.00    -0.248 NA
ATOM     40  C   UNL     1      -8.538   7.892   5.151  1.00  0.00     0.031 C 
ATOM     41  C   UNL     1      -3.588   8.150   5.980  1.00  0.00     0.029 A 
ATOM     42  N   UNL     1      -4.568   9.907   4.997  1.00  0.00    -0.354 N 
ATOM     43  C   UNL     1      -8.803   9.973   4.237  1.00  0.00     0.074 A 
ATOM     44  C   UNL     1      -9.424   8.725   4.625  1.00  0.00     0.031 C 
ATOM     45  C   UNL     1      -2.637   9.075   5.757  1.00  0.00     0.029 A 
ATOM     46  C   UNL     1      -3.239  10.234   5.101  1.00  0.00     0.049 A 
ATOM     47  H   UNL     1      -5.242  10.508   4.604  1.00  0.00     0.167 HD
ATOM     48  C   UNL     1      -9.476  11.024   3.712  1.00  0.00     0.031 A 
ATOM     49  C   UNL     1      -2.583  11.341   4.706  1.00  0.00     0.031 A 
ATOM     50  C   UNL     1      -8.869  12.261   3.308  1.00  0.00     0.049 A 
ATOM     51  C   UNL     1      -3.342  12.466   4.058  1.00  0.00     0.074 A 
ATOM     52  C   UNL     1      -9.475  13.386   2.775  1.00  0.00     0.029 A 
ATOM     53  N   UNL     1      -7.513  12.532   3.384  1.00  0.00    -0.354 N 
ATOM     54  N   UNL     1      -4.627  12.570   3.826  1.00  0.00    -0.248 NA
ATOM     55  C   UNL     1      -2.554  13.630   3.622  1.00  0.00     0.031 C 
ATOM     56  C   UNL     1      -8.477  14.327   2.494  1.00  0.00     0.029 A 
ATOM     57  C   UNL     1      -7.258  13.797   2.885  1.00  0.00     0.049 A 
ATOM     58  H   UNL     1      -6.833  11.916   3.740  1.00  0.00     0.167 HD
ATOM     59  C   UNL     1      -4.806  13.814   3.236  1.00  0.00     0.074 A 
ATOM     60  C   UNL     1      -3.499  14.433   3.152  1.00  0.00     0.031 C 
ATOM     61  C   UNL     1      -5.952  14.394   2.804  1.00  0.00     0.031 A 
BRANCH  48  62
ATOM     62  C   UNL     1     -10.954  10.860   3.525  1.00  0.00    -0.014 A 
ATOM     63  C   UNL     1     -11.833  10.960   4.614  1.00  0.00     0.009 A 
ATOM     64  C   UNL     1     -11.474  10.618   2.245  1.00  0.00     0.009 A 
ATOM     65  C   UNL     1     -13.207  10.796   4.427  1.00  0.00     0.001 A 
ATOM     66  C   UNL     1     -12.850  10.472   2.059  1.00  0.00     0.001 A 
ATOM     67  C   UNL     1     -13.714  10.554   3.151  1.00  0.00     0.000 A 
ENDBRANCH  48  62
BRANCH  49  68
ATOM     68  C   UNL     1      -1.116  11.442   4.901  1.00  0.00    -0.014 A 
ATOM     69  C   UNL     1      -0.584  12.270   5.900  1.00  0.00     0.009 A 
ATOM     70  C   UNL     1      -0.242  10.722   4.072  1.00  0.00     0.009 A 
ATOM     71  C   UNL     1       0.799  12.388   6.054  1.00  0.00     0.001 A 
ATOM     72  C   UNL     1       1.139  10.829   4.241  1.00  0.00     0.001 A 
ATOM     73  C   UNL     1       1.659  11.666   5.226  1.00  0.00     0.000 A 
ENDBRANCH  49  68
BRANCH  61  74
ATOM     74  C   UNL     1      -5.845  15.772   2.221  1.00  0.00    -0.014 A 
ATOM     75  C   UNL     1      -5.381  15.966   0.911  1.00  0.00     0.009 A 
ATOM     76  C   UNL     1      -6.254  16.883   2.974  1.00  0.00     0.009 A 
ATOM     77  C   UNL     1      -5.307  17.253   0.374  1.00  0.00     0.001 A 
ATOM     78  C   UNL     1      -6.196  18.166   2.428  1.00  0.00     0.001 A 
ATOM     79  C   UNL     1      -5.717  18.350   1.132  1.00  0.00     0.000 A 
ENDBRANCH  61  74
ENDBRANCH  35  36
ENDBRANCH  28  30
ENDBRANCH  27  28
ENDBRANCH  26  27
ENDBRANCH  25  26
ENDBRANCH  24  25
ENDBRANCH  23  24
ENDBRANCH   1  23
TORSDOF 20
