REMARK SMILES CC(C)COC(=O)N[C@H](Cc1c[nH]c2ccccc12)C(=O)OCCOCCOC(=O)c1ccc(-c2c3nc(c(-c4ccccc4)c4ccc([nH]4)c(-c4ccccc4)c4nc(c(-c5ccccc5)c5ccc2[nH]5)C=C4)C=C3)cc1
REMARK SMILES IDX 24 1 23 2 22 3 20 4 21 5 9 6 8 7 6 8 7 9 5 11 4 12 2 13 1 14
REMARK SMILES IDX 3 15 10 16 11 17 12 18 19 19 13 20 14 21 18 22 15 24 17 25
REMARK SMILES IDX 16 26 25 27 26 28 27 29 28 30 29 31 30 32 31 33 32 34 78 35
REMARK SMILES IDX 33 36 77 37 34 38 35 39 36 40 71 41 37 42 76 43 70 44 72 45
REMARK SMILES IDX 38 46 75 47 69 48 68 49 39 51 61 52 46 53 60 54 47 55 50 56
REMARK SMILES IDX 59 57 73 58 48 59 49 60 58 62 74 63 51 64 40 65 41 66 45 67
REMARK SMILES IDX 42 68 44 69 43 70 62 71 63 72 67 73 64 74 66 75 65 76 52 77
REMARK SMILES IDX 53 78 57 79 54 80 56 81 55 82
REMARK H PARENT 8 10 13 23 72 50 50 61
REMARK Flexibility Score: inf
ROOT
ATOM      1  C   UNL     1       0.015   6.724   2.040  1.00  0.00     0.202 C 
ENDROOT
BRANCH   1   2
ATOM      2  C   UNL     1      -1.513   6.661   2.140  1.00  0.00     0.261 C 
BRANCH   2   3
ATOM      3  O   UNL     1      -1.986   5.305   2.272  1.00  0.00    -0.462 OA
BRANCH   3   4
ATOM      4  C   UNL     1      -2.474   4.717   1.149  1.00  0.00     0.329 C 
ATOM      5  O   UNL     1      -2.538   5.263   0.053  1.00  0.00    -0.250 OA
BRANCH   4   6
ATOM      6  C   UNL     1      -3.022   3.309   1.419  1.00  0.00     0.200 C 
BRANCH   6   7
ATOM      7  N   UNL     1      -4.291   3.470   2.115  1.00  0.00    -0.308 N 
ATOM      8  C   UNL     1      -5.449   3.817   1.490  1.00  0.00     0.407 C 
ATOM      9  O   UNL     1      -6.427   4.214   2.115  1.00  0.00    -0.225 OA
ATOM     10  H   UNL     1      -4.313   3.320   3.088  1.00  0.00     0.168 HD
BRANCH   8  11
ATOM     11  O   UNL     1      -5.374   3.666   0.149  1.00  0.00    -0.449 OA
BRANCH  11  12
ATOM     12  C   UNL     1      -6.514   4.053  -0.627  1.00  0.00     0.238 C 
BRANCH  12  13
ATOM     13  C   UNL     1      -7.405   2.842  -0.934  1.00  0.00     0.021 C 
ATOM     14  C   UNL     1      -7.993   2.216   0.331  1.00  0.00     0.011 C 
ATOM     15  C   UNL     1      -8.525   3.250  -1.888  1.00  0.00     0.011 C 
ENDBRANCH  12  13
ENDBRANCH  11  12
ENDBRANCH   8  11
ENDBRANCH   6   7
BRANCH   6  16
ATOM     16  C   UNL     1      -2.030   2.310   2.041  1.00  0.00     0.075 C 
BRANCH  16  17
ATOM     17  C   UNL     1      -2.164   2.015   3.506  1.00  0.00    -0.020 A 
ATOM     18  C   UNL     1      -2.852   0.948   4.056  1.00  0.00     0.087 A 
ATOM     19  C   UNL     1      -1.593   2.732   4.602  1.00  0.00     0.003 A 
ATOM     20  N   UNL     1      -2.725   1.001   5.418  1.00  0.00    -0.361 N 
ATOM     21  C   UNL     1      -1.982   2.097   5.781  1.00  0.00     0.046 A 
ATOM     22  C   UNL     1      -0.781   3.872   4.707  1.00  0.00     0.010 A 
ATOM     23  H   UNL     1      -3.110   0.347   6.046  1.00  0.00     0.166 HD
ATOM     24  C   UNL     1      -1.623   2.563   7.053  1.00  0.00     0.026 A 
ATOM     25  C   UNL     1      -0.483   4.397   5.963  1.00  0.00     0.001 A 
ATOM     26  C   UNL     1      -0.881   3.743   7.122  1.00  0.00     0.002 A 
ENDBRANCH  16  17
ENDBRANCH   6  16
ENDBRANCH   4   6
ENDBRANCH   3   4
ENDBRANCH   2   3
ENDBRANCH   1   2
BRANCH   1  27
ATOM     27  O   UNL     1       0.540   6.311   0.777  1.00  0.00    -0.374 OA
BRANCH  27  28
ATOM     28  C   UNL     1       0.738   4.908   0.614  1.00  0.00     0.202 C 
BRANCH  28  29
ATOM     29  C   UNL     1       2.146   4.431   0.974  1.00  0.00     0.261 C 
BRANCH  29  30
ATOM     30  O   UNL     1       2.333   4.478   2.401  1.00  0.00    -0.460 OA
BRANCH  30  31
ATOM     31  C   UNL     1       3.077   5.517   2.849  1.00  0.00     0.338 C 
ATOM     32  O   UNL     1       3.686   6.332   2.179  1.00  0.00    -0.246 OA
BRANCH  31  33
ATOM     33  C   UNL     1       2.918   5.642   4.314  1.00  0.00     0.060 A 
ATOM     34  C   UNL     1       2.807   6.935   4.843  1.00  0.00     0.016 A 
ATOM     35  C   UNL     1       2.885   4.532   5.162  1.00  0.00     0.016 A 
ATOM     36  C   UNL     1       2.700   7.125   6.221  1.00  0.00     0.010 A 
ATOM     37  C   UNL     1       2.770   4.725   6.545  1.00  0.00     0.010 A 
ATOM     38  C   UNL     1       2.705   6.023   7.087  1.00  0.00    -0.014 A 
BRANCH  38  39
ATOM     39  C   UNL     1       2.805   6.238   8.553  1.00  0.00     0.031 A 
ATOM     40  C   UNL     1       4.126   5.975   9.226  1.00  0.00     0.074 A 
ATOM     41  C   UNL     1       1.767   6.691   9.282  1.00  0.00     0.049 A 
ATOM     42  N   UNL     1       4.469   6.146  10.478  1.00  0.00    -0.248 NA
ATOM     43  C   UNL     1       5.205   5.448   8.373  1.00  0.00     0.031 C 
ATOM     44  C   UNL     1       0.434   7.007   8.773  1.00  0.00     0.029 A 
ATOM     45  N   UNL     1       1.681   6.966  10.627  1.00  0.00    -0.354 N 
ATOM     46  C   UNL     1       5.798   5.752  10.557  1.00  0.00     0.074 A 
ATOM     47  C   UNL     1       6.181   5.275   9.248  1.00  0.00     0.031 C 
ATOM     48  C   UNL     1      -0.341   7.421   9.792  1.00  0.00     0.029 A 
ATOM     49  C   UNL     1       0.442   7.406  11.025  1.00  0.00     0.049 A 
ATOM     50  H   UNL     1       2.438   6.857  11.247  1.00  0.00     0.167 HD
ATOM     51  C   UNL     1       6.643   5.810  11.613  1.00  0.00     0.031 A 
ATOM     52  C   UNL     1      -0.008   7.768  12.242  1.00  0.00     0.031 A 
ATOM     53  C   UNL     1       6.282   6.281  12.920  1.00  0.00     0.049 A 
ATOM     54  C   UNL     1       0.935   7.769  13.418  1.00  0.00     0.074 A 
ATOM     55  C   UNL     1       7.081   6.405  14.042  1.00  0.00     0.029 A 
ATOM     56  N   UNL     1       5.012   6.699  13.280  1.00  0.00    -0.354 N 
ATOM     57  N   UNL     1       2.209   7.465  13.458  1.00  0.00    -0.248 NA
ATOM     58  C   UNL     1       0.377   8.191  14.712  1.00  0.00     0.031 C 
ATOM     59  C   UNL     1       6.282   6.857  15.097  1.00  0.00     0.029 A 
ATOM     60  C   UNL     1       4.999   7.061  14.616  1.00  0.00     0.049 A 
ATOM     61  H   UNL     1       4.235   6.732  12.677  1.00  0.00     0.167 HD
ATOM     62  C   UNL     1       2.614   7.702  14.767  1.00  0.00     0.074 A 
ATOM     63  C   UNL     1       1.452   8.179  15.487  1.00  0.00     0.031 C 
ATOM     64  C   UNL     1       3.841   7.546  15.320  1.00  0.00     0.031 A 
BRANCH  51  65
ATOM     65  C   UNL     1       8.049   5.339  11.379  1.00  0.00    -0.014 A 
ATOM     66  C   UNL     1       8.942   6.090  10.597  1.00  0.00     0.009 A 
ATOM     67  C   UNL     1       8.483   4.128  11.938  1.00  0.00     0.009 A 
ATOM     68  C   UNL     1      10.229   5.614  10.343  1.00  0.00     0.001 A 
ATOM     69  C   UNL     1       9.780   3.669  11.706  1.00  0.00     0.001 A 
ATOM     70  C   UNL     1      10.648   4.406  10.900  1.00  0.00     0.000 A 
ENDBRANCH  51  65
BRANCH  52  71
ATOM     71  C   UNL     1      -1.421   8.192  12.429  1.00  0.00    -0.014 A 
ATOM     72  C   UNL     1      -1.735   9.535  12.690  1.00  0.00     0.009 A 
ATOM     73  C   UNL     1      -2.456   7.245  12.403  1.00  0.00     0.009 A 
ATOM     74  C   UNL     1      -3.052   9.915  12.960  1.00  0.00     0.001 A 
ATOM     75  C   UNL     1      -3.776   7.632  12.649  1.00  0.00     0.001 A 
ATOM     76  C   UNL     1      -4.071   8.964  12.939  1.00  0.00     0.000 A 
ENDBRANCH  52  71
BRANCH  64  77
ATOM     77  C   UNL     1       4.010   7.940  16.761  1.00  0.00    -0.014 A 
ATOM     78  C   UNL     1       3.471   7.167  17.800  1.00  0.00     0.009 A 
ATOM     79  C   UNL     1       4.765   9.080  17.082  1.00  0.00     0.009 A 
ATOM     80  C   UNL     1       3.658   7.546  19.131  1.00  0.00     0.001 A 
ATOM     81  C   UNL     1       4.974   9.440  18.414  1.00  0.00     0.001 A 
ATOM     82  C   UNL     1       4.413   8.678  19.437  1.00  0.00     0.000 A 
ENDBRANCH  64  77
ENDBRANCH  38  39
ENDBRANCH  31  33
ENDBRANCH  30  31
ENDBRANCH  29  30
ENDBRANCH  28  29
ENDBRANCH  27  28
ENDBRANCH   1  27
TORSDOF 20
