REMARK SMILES CC[C@@H]1CCCC[N@H+]1Cc1c(C(=O)OCCOCCOC(=O)c2ccc(-c3c4nc(c(-c5ccccc5)c5ccc([nH]5)c(-c5ccccc5)c5nc(c(-c6ccccc6)c6ccc3[nH]6)C=C5)C=C4)cc2)oc2ccccc12
REMARK SMILES IDX 16 1 15 2 14 3 12 4 13 5 11 6 10 7 77 8 71 9 72 10 76 11
REMARK SMILES IDX 73 12 75 13 74 14 9 15 8 16 3 17 4 18 5 19 7 20 6 22 2 23
REMARK SMILES IDX 1 24 17 25 18 26 19 27 20 28 21 29 22 30 23 31 24 32 70 33
REMARK SMILES IDX 25 34 69 35 26 36 27 37 28 38 63 39 29 40 68 41 62 42 64 43
REMARK SMILES IDX 30 44 67 45 61 46 60 47 31 49 53 50 38 51 52 52 39 53 42 54
REMARK SMILES IDX 51 55 65 56 40 57 41 58 50 60 66 61 43 62 32 63 33 64 37 65
REMARK SMILES IDX 34 66 36 67 35 68 54 69 55 70 59 71 56 72 58 73 57 74 44 75
REMARK SMILES IDX 45 76 49 77 46 78 48 79 47 80
REMARK H PARENT 8 21 64 48 42 59
REMARK Flexibility Score: inf
ROOT
ATOM      1  C   UNL     1       0.871   1.556   7.274  1.00  0.00     0.202 C 
ENDROOT
BRANCH   1   2
ATOM      2  C   UNL     1       1.669   0.253   7.385  1.00  0.00     0.261 C 
BRANCH   2   3
ATOM      3  O   UNL     1       2.562   0.068   6.277  1.00  0.00    -0.457 OA
BRANCH   3   4
ATOM      4  C   UNL     1       2.219  -0.955   5.441  1.00  0.00     0.374 C 
ATOM      5  O   UNL     1       1.347  -1.782   5.677  1.00  0.00    -0.242 OA
BRANCH   4   6
ATOM      6  C   UNL     1       2.917  -0.833   4.183  1.00  0.00     0.221 A 
ATOM      7  C   UNL     1       2.420  -0.848   2.878  1.00  0.00     0.067 A 
ATOM      8  C   UNL     1       3.579  -0.777   2.031  1.00  0.00     0.030 A 
ATOM      9  O   UNL     1       4.272  -0.678   4.181  1.00  0.00    -0.448 OA
ATOM     10  C   UNL     1       4.673  -0.673   2.884  1.00  0.00     0.135 A 
ATOM     11  C   UNL     1       3.847  -0.780   0.646  1.00  0.00     0.012 A 
ATOM     12  C   UNL     1       6.000  -0.581   2.458  1.00  0.00     0.048 A 
ATOM     13  C   UNL     1       5.169  -0.731   0.185  1.00  0.00     0.001 A 
ATOM     14  C   UNL     1       6.229  -0.629   1.080  1.00  0.00     0.004 A 
BRANCH   7  15
ATOM     15  C   UNL     1       0.953  -0.824   2.526  1.00  0.00     0.304 C 
BRANCH  15  16
ATOM     16  N   UNL     1       0.367  -2.077   2.016  1.00  0.00    -0.329 N 
ATOM     17  C   UNL     1       0.670  -2.419   0.617  1.00  0.00     0.184 C 
ATOM     18  C   UNL     1       0.228  -3.862   0.242  1.00  0.00     0.065 C 
ATOM     19  C   UNL     1       0.651  -4.904   1.258  1.00  0.00     0.012 C 
ATOM     20  C   UNL     1       0.555  -3.153   3.006  1.00  0.00     0.262 C 
ATOM     21  H   UNL     1      -0.636  -1.922   1.923  1.00  0.00     0.348 HD
ATOM     22  C   UNL     1       0.048  -4.526   2.592  1.00  0.00     0.062 C 
BRANCH  17  23
ATOM     23  C   UNL     1      -0.019  -1.519  -0.460  1.00  0.00     0.061 C 
ATOM     24  C   UNL     1       0.245  -0.022  -0.516  1.00  0.00     0.010 C 
ENDBRANCH  17  23
ENDBRANCH  15  16
ENDBRANCH   7  15
ENDBRANCH   4   6
ENDBRANCH   3   4
ENDBRANCH   2   3
ENDBRANCH   1   2
BRANCH   1  25
ATOM     25  O   UNL     1       0.090   1.743   6.097  1.00  0.00    -0.374 OA
BRANCH  25  26
ATOM     26  C   UNL     1       0.763   2.147   4.904  1.00  0.00     0.202 C 
BRANCH  26  27
ATOM     27  C   UNL     1       1.286   3.586   4.829  1.00  0.00     0.261 C 
BRANCH  27  28
ATOM     28  O   UNL     1       2.365   3.817   5.751  1.00  0.00    -0.460 OA
BRANCH  28  29
ATOM     29  C   UNL     1       2.088   4.701   6.739  1.00  0.00     0.338 C 
ATOM     30  O   UNL     1       1.075   5.364   6.878  1.00  0.00    -0.246 OA
BRANCH  29  31
ATOM     31  C   UNL     1       3.127   4.623   7.782  1.00  0.00     0.060 A 
ATOM     32  C   UNL     1       2.704   4.391   9.097  1.00  0.00     0.016 A 
ATOM     33  C   UNL     1       4.475   4.847   7.496  1.00  0.00     0.016 A 
ATOM     34  C   UNL     1       3.623   4.437  10.143  1.00  0.00     0.010 A 
ATOM     35  C   UNL     1       5.394   4.903   8.548  1.00  0.00     0.010 A 
ATOM     36  C   UNL     1       4.965   4.737   9.878  1.00  0.00    -0.014 A 
BRANCH  36  37
ATOM     37  C   UNL     1       5.879   5.031  11.007  1.00  0.00     0.031 A 
ATOM     38  C   UNL     1       6.160   6.466  11.359  1.00  0.00     0.074 A 
ATOM     39  C   UNL     1       6.416   4.038  11.736  1.00  0.00     0.049 A 
ATOM     40  N   UNL     1       6.929   6.954  12.300  1.00  0.00    -0.248 NA
ATOM     41  C   UNL     1       5.484   7.488  10.543  1.00  0.00     0.031 C 
ATOM     42  C   UNL     1       6.183   2.610  11.524  1.00  0.00     0.029 A 
ATOM     43  N   UNL     1       7.271   4.086  12.807  1.00  0.00    -0.354 N 
ATOM     44  C   UNL     1       6.831   8.335  12.187  1.00  0.00     0.074 A 
ATOM     45  C   UNL     1       5.957   8.609  11.067  1.00  0.00     0.031 C 
ATOM     46  C   UNL     1       6.884   1.915  12.437  1.00  0.00     0.029 A 
ATOM     47  C   UNL     1       7.636   2.847  13.274  1.00  0.00     0.049 A 
ATOM     48  H   UNL     1       7.593   4.928  13.203  1.00  0.00     0.167 HD
ATOM     49  C   UNL     1       7.409   9.292  12.952  1.00  0.00     0.031 A 
ATOM     50  C   UNL     1       8.494   2.507  14.254  1.00  0.00     0.031 A 
ATOM     51  C   UNL     1       8.292   9.022  14.054  1.00  0.00     0.049 A 
ATOM     52  C   UNL     1       9.189   3.589  15.037  1.00  0.00     0.074 A 
ATOM     53  C   UNL     1       8.928   9.922  14.891  1.00  0.00     0.029 A 
ATOM     54  N   UNL     1       8.669   7.754  14.469  1.00  0.00    -0.354 N 
ATOM     55  N   UNL     1       9.072   4.891  14.934  1.00  0.00    -0.248 NA
ATOM     56  C   UNL     1      10.127   3.151  16.081  1.00  0.00     0.031 C 
ATOM     57  C   UNL     1       9.731   9.200  15.780  1.00  0.00     0.029 A 
ATOM     58  C   UNL     1       9.547   7.849  15.536  1.00  0.00     0.049 A 
ATOM     59  H   UNL     1       8.359   6.912  14.065  1.00  0.00     0.167 HD
ATOM     60  C   UNL     1       9.895   5.425  15.919  1.00  0.00     0.074 A 
ATOM     61  C   UNL     1      10.493   4.306  16.617  1.00  0.00     0.031 C 
ATOM     62  C   UNL     1      10.132   6.725  16.221  1.00  0.00     0.031 A 
BRANCH  49  63
ATOM     63  C   UNL     1       7.124  10.724  12.596  1.00  0.00    -0.014 A 
ATOM     64  C   UNL     1       5.863  11.296  12.830  1.00  0.00     0.009 A 
ATOM     65  C   UNL     1       8.139  11.521  12.044  1.00  0.00     0.009 A 
ATOM     66  C   UNL     1       5.615  12.627  12.486  1.00  0.00     0.001 A 
ATOM     67  C   UNL     1       7.896  12.859  11.727  1.00  0.00     0.001 A 
ATOM     68  C   UNL     1       6.633  13.408  11.940  1.00  0.00     0.000 A 
ENDBRANCH  49  63
BRANCH  50  69
ATOM     69  C   UNL     1       8.765   1.074  14.545  1.00  0.00    -0.014 A 
ATOM     70  C   UNL     1       8.340   0.493  15.749  1.00  0.00     0.009 A 
ATOM     71  C   UNL     1       9.481   0.288  13.628  1.00  0.00     0.009 A 
ATOM     72  C   UNL     1       8.652  -0.837  16.041  1.00  0.00     0.001 A 
ATOM     73  C   UNL     1       9.765  -1.050  13.910  1.00  0.00     0.001 A 
ATOM     74  C   UNL     1       9.360  -1.608  15.120  1.00  0.00     0.000 A 
ENDBRANCH  50  69
BRANCH  62  75
ATOM     75  C   UNL     1      11.043   7.007  17.384  1.00  0.00    -0.014 A 
ATOM     76  C   UNL     1      12.425   6.783  17.302  1.00  0.00     0.009 A 
ATOM     77  C   UNL     1      10.508   7.537  18.569  1.00  0.00     0.009 A 
ATOM     78  C   UNL     1      13.249   7.049  18.398  1.00  0.00     0.001 A 
ATOM     79  C   UNL     1      11.338   7.831  19.652  1.00  0.00     0.001 A 
ATOM     80  C   UNL     1      12.705   7.577  19.570  1.00  0.00     0.000 A 
ENDBRANCH  62  75
ENDBRANCH  36  37
ENDBRANCH  29  31
ENDBRANCH  28  29
ENDBRANCH  27  28
ENDBRANCH  26  27
ENDBRANCH  25  26
ENDBRANCH   1  25
TORSDOF 17
