REMARK SMILES CCOC(=O)c1c(NC(=O)[C@@H]2[C@@H](C(=O)OCCOCCOC(=O)c3ccc(-c4c5nc(c(-c6ccccc6)c6ccc([nH]6)c(-c6ccccc6)c6nc(c(-c7ccccc7)c7ccc4[nH]7)C=C6)C=C5)cc3)[C@@H]3C=C[C@H]2CC3)sc2c1CCC2
REMARK SMILES IDX 16 1 15 2 13 3 14 4 12 5 11 6 75 7 72 8 74 9 76 10 73 11
REMARK SMILES IDX 77 12 9 13 8 14 10 16 7 17 6 18 80 19 78 20 79 21 81 22
REMARK SMILES IDX 83 23 82 24 4 25 5 26 3 27 2 28 1 29 17 30 18 31 19 32 20 33
REMARK SMILES IDX 21 34 22 35 23 36 24 37 25 38 71 39 26 40 70 41 27 42 28 43
REMARK SMILES IDX 29 44 64 45 30 46 69 47 63 48 65 49 31 50 68 51 62 52 61 53
REMARK SMILES IDX 32 55 54 56 39 57 53 58 40 59 43 60 52 61 66 62 41 63 42 64
REMARK SMILES IDX 51 66 67 67 44 68 33 69 34 70 38 71 35 72 37 73 36 74 55 75
REMARK SMILES IDX 56 76 60 77 57 78 59 79 58 80 45 81 46 82 50 83 47 84 49 85
REMARK SMILES IDX 48 86
REMARK H PARENT 8 15 65 54 43 65
REMARK Flexibility Score: inf
ROOT
ATOM      1  C   UNL     1      10.419  -3.375   5.386  1.00  0.00     0.261 C 
ENDROOT
BRANCH   1   2
ATOM      2  O   UNL     1       9.070  -2.925   5.171  1.00  0.00    -0.463 OA
BRANCH   2   3
ATOM      3  C   UNL     1       8.135  -3.868   5.454  1.00  0.00     0.310 C 
ATOM      4  O   UNL     1       8.406  -5.024   5.768  1.00  0.00    -0.252 OA
BRANCH   3   5
ATOM      5  C   UNL     1       6.687  -3.420   5.297  1.00  0.00     0.119 C 
ATOM      6  C   UNL     1       6.314  -1.924   5.221  1.00  0.00     0.100 C 
ATOM      7  C   UNL     1       5.275  -1.562   6.333  1.00  0.00     0.025 C 
ATOM      8  C   UNL     1       5.871  -4.084   6.468  1.00  0.00     0.026 C 
ATOM      9  C   UNL     1       4.080  -2.474   6.247  1.00  0.00    -0.027 C 
ATOM     10  C   UNL     1       5.855  -1.911   7.738  1.00  0.00     0.009 C 
ATOM     11  C   UNL     1       4.394  -3.772   6.377  1.00  0.00    -0.027 C 
ATOM     12  C   UNL     1       6.243  -3.417   7.804  1.00  0.00     0.009 C 
BRANCH   6  13
ATOM     13  C   UNL     1       5.909  -1.349   3.832  1.00  0.00     0.229 C 
ATOM     14  N   UNL     1       4.888  -1.698   2.991  1.00  0.00    -0.317 N 
ATOM     15  H   UNL     1       4.800  -1.077   2.233  1.00  0.00     0.170 HD
ATOM     16  O   UNL     1       6.529  -0.328   3.471  1.00  0.00    -0.274 OA
BRANCH  14  17
ATOM     17  C   UNL     1       3.949  -2.714   2.949  1.00  0.00     0.110 A 
ATOM     18  C   UNL     1       2.679  -2.729   2.350  1.00  0.00     0.098 A 
ATOM     19  C   UNL     1       1.932  -3.803   2.936  1.00  0.00    -0.017 A 
ATOM     20  S   UNL     1       4.346  -4.330   3.346  1.00  0.00    -0.122 S 
ATOM     21  C   UNL     1       2.743  -4.641   3.647  1.00  0.00     0.011 A 
ATOM     22  C   UNL     1       0.544  -4.332   2.952  1.00  0.00     0.038 C 
ATOM     23  C   UNL     1       2.066  -5.729   4.376  1.00  0.00     0.047 C 
ATOM     24  C   UNL     1       0.580  -5.335   4.157  1.00  0.00     0.010 C 
BRANCH  18  25
ATOM     25  C   UNL     1       2.253  -1.764   1.348  1.00  0.00     0.341 C 
ATOM     26  O   UNL     1       3.059  -1.095   0.712  1.00  0.00    -0.246 OA
BRANCH  25  27
ATOM     27  O   UNL     1       0.907  -1.766   1.137  1.00  0.00    -0.462 OA
BRANCH  27  28
ATOM     28  C   UNL     1       0.437  -1.167  -0.083  1.00  0.00     0.230 C 
ATOM     29  C   UNL     1       0.667   0.332  -0.180  1.00  0.00     0.049 C 
ENDBRANCH  27  28
ENDBRANCH  25  27
ENDBRANCH  18  25
ENDBRANCH  14  17
ENDBRANCH   6  13
ENDBRANCH   3   5
ENDBRANCH   2   3
ENDBRANCH   1   2
BRANCH   1  30
ATOM     30  C   UNL     1      11.109  -2.835   6.650  1.00  0.00     0.202 C 
BRANCH  30  31
ATOM     31  O   UNL     1      10.405  -2.686   7.878  1.00  0.00    -0.374 OA
BRANCH  31  32
ATOM     32  C   UNL     1       9.242  -1.878   7.957  1.00  0.00     0.202 C 
BRANCH  32  33
ATOM     33  C   UNL     1       9.326  -0.367   7.847  1.00  0.00     0.261 C 
BRANCH  33  34
ATOM     34  O   UNL     1       9.853  -0.020   6.587  1.00  0.00    -0.460 OA
BRANCH  34  35
ATOM     35  C   UNL     1      11.176   0.236   6.639  1.00  0.00     0.338 C 
ATOM     36  O   UNL     1      11.908   0.153   7.602  1.00  0.00    -0.246 OA
BRANCH  35  37
ATOM     37  C   UNL     1      11.580   0.773   5.335  1.00  0.00     0.060 A 
ATOM     38  C   UNL     1      12.822   1.398   5.388  1.00  0.00     0.016 A 
ATOM     39  C   UNL     1      10.580   1.126   4.417  1.00  0.00     0.016 A 
ATOM     40  C   UNL     1      12.905   2.638   4.821  1.00  0.00     0.010 A 
ATOM     41  C   UNL     1      10.662   2.370   3.856  1.00  0.00     0.010 A 
ATOM     42  C   UNL     1      11.773   3.146   4.171  1.00  0.00    -0.014 A 
BRANCH  42  43
ATOM     43  C   UNL     1      11.855   4.501   3.700  1.00  0.00     0.031 A 
ATOM     44  C   UNL     1      12.688   4.574   2.489  1.00  0.00     0.074 A 
ATOM     45  C   UNL     1      11.205   5.524   4.277  1.00  0.00     0.049 A 
ATOM     46  N   UNL     1      13.912   4.973   2.408  1.00  0.00    -0.248 NA
ATOM     47  C   UNL     1      12.193   3.863   1.298  1.00  0.00     0.031 C 
ATOM     48  C   UNL     1      10.148   5.496   5.289  1.00  0.00     0.029 A 
ATOM     49  N   UNL     1      11.303   6.840   3.973  1.00  0.00    -0.354 N 
ATOM     50  C   UNL     1      14.267   4.758   1.085  1.00  0.00     0.074 A 
ATOM     51  C   UNL     1      13.290   3.851   0.544  1.00  0.00     0.031 C 
ATOM     52  C   UNL     1       9.537   6.706   5.317  1.00  0.00     0.029 A 
ATOM     53  C   UNL     1      10.249   7.614   4.431  1.00  0.00     0.049 A 
ATOM     54  H   UNL     1      12.060   7.215   3.469  1.00  0.00     0.167 HD
ATOM     55  C   UNL     1      15.120   5.603   0.448  1.00  0.00     0.031 A 
ATOM     56  C   UNL     1       9.963   8.873   4.016  1.00  0.00     0.031 A 
ATOM     57  C   UNL     1      15.856   6.414   1.387  1.00  0.00     0.049 A 
ATOM     58  C   UNL     1      11.178   9.408   3.349  1.00  0.00     0.074 A 
ATOM     59  C   UNL     1      16.753   6.160   2.404  1.00  0.00     0.029 A 
ATOM     60  N   UNL     1      15.376   7.685   1.605  1.00  0.00    -0.354 N 
ATOM     61  N   UNL     1      12.283   9.680   3.982  1.00  0.00    -0.248 NA
ATOM     62  C   UNL     1      11.321   9.193   1.915  1.00  0.00     0.031 C 
ATOM     63  C   UNL     1      16.443   7.113   3.419  1.00  0.00     0.029 A 
ATOM     64  C   UNL     1      15.419   7.938   2.949  1.00  0.00     0.049 A 
ATOM     65  H   UNL     1      15.055   8.306   0.911  1.00  0.00     0.167 HD
ATOM     66  C   UNL     1      13.295   9.242   3.137  1.00  0.00     0.074 A 
ATOM     67  C   UNL     1      12.648   9.044   1.841  1.00  0.00     0.031 C 
ATOM     68  C   UNL     1      14.487   8.804   3.640  1.00  0.00     0.031 A 
BRANCH  55  69
ATOM     69  C   UNL     1      14.907   6.027  -0.986  1.00  0.00    -0.014 A 
ATOM     70  C   UNL     1      15.811   6.942  -1.546  1.00  0.00     0.009 A 
ATOM     71  C   UNL     1      13.716   5.798  -1.706  1.00  0.00     0.009 A 
ATOM     72  C   UNL     1      15.496   7.653  -2.709  1.00  0.00     0.001 A 
ATOM     73  C   UNL     1      13.416   6.473  -2.888  1.00  0.00     0.001 A 
ATOM     74  C   UNL     1      14.295   7.426  -3.373  1.00  0.00     0.000 A 
ENDBRANCH  55  69
BRANCH  56  75
ATOM     75  C   UNL     1       8.637   9.506   3.837  1.00  0.00    -0.014 A 
ATOM     76  C   UNL     1       8.522  10.898   3.690  1.00  0.00     0.009 A 
ATOM     77  C   UNL     1       7.513   8.721   3.524  1.00  0.00     0.009 A 
ATOM     78  C   UNL     1       7.339  11.477   3.210  1.00  0.00     0.001 A 
ATOM     79  C   UNL     1       6.331   9.299   3.047  1.00  0.00     0.001 A 
ATOM     80  C   UNL     1       6.249  10.676   2.876  1.00  0.00     0.000 A 
ENDBRANCH  56  75
BRANCH  68  81
ATOM     81  C   UNL     1      14.758   9.037   5.106  1.00  0.00    -0.014 A 
ATOM     82  C   UNL     1      14.002   8.446   6.136  1.00  0.00     0.009 A 
ATOM     83  C   UNL     1      15.914   9.750   5.454  1.00  0.00     0.009 A 
ATOM     84  C   UNL     1      14.387   8.585   7.474  1.00  0.00     0.001 A 
ATOM     85  C   UNL     1      16.309   9.871   6.787  1.00  0.00     0.001 A 
ATOM     86  C   UNL     1      15.544   9.292   7.798  1.00  0.00     0.000 A 
ENDBRANCH  68  81
ENDBRANCH  42  43
ENDBRANCH  35  37
ENDBRANCH  34  35
ENDBRANCH  33  34
ENDBRANCH  32  33
ENDBRANCH  31  32
ENDBRANCH  30  31
ENDBRANCH   1  30
TORSDOF 19
