REMARK SMILES CN(C(=O)C[C@](C)(C(=O)OCCOCCOC(=O)c1ccc(-c2c3nc(c(-c4ccccc4)c4ccc([nH]4)c(-c4ccccc4)c4nc(c(-c5ccccc5)c5ccc2[nH]5)C=C4)C=C3)cc1)c1ccccc1)[C@@H]1CCSC1
REMARK SMILES IDX 12 1 11 2 10 3 8 4 9 5 6 6 7 7 5 8 3 9 4 10 2 11 1 12 73 13
REMARK SMILES IDX 74 14 77 15 75 16 76 17 67 18 68 19 72 20 69 21 71 22 70 23
REMARK SMILES IDX 13 24 14 25 15 26 16 27 17 28 18 29 19 30 20 31 66 32 21 33
REMARK SMILES IDX 65 34 22 35 23 36 24 37 59 38 25 39 64 40 58 41 60 42 26 43
REMARK SMILES IDX 63 44 57 45 56 46 27 48 49 49 34 50 48 51 35 52 38 53 47 54
REMARK SMILES IDX 61 55 36 56 37 57 46 59 62 60 39 61 28 62 29 63 33 64 30 65
REMARK SMILES IDX 32 66 31 67 50 68 51 69 55 70 52 71 54 72 53 73 40 74 41 75
REMARK SMILES IDX 45 76 42 77 44 78 43 79
REMARK H PARENT 60 47 38 58
REMARK Flexibility Score: inf
ROOT
ATOM      1  C   UNL     1      -0.970   3.642   5.549  1.00  0.00     0.202 C 
ENDROOT
BRANCH   1   2
ATOM      2  C   UNL     1       0.193   3.535   4.560  1.00  0.00     0.261 C 
BRANCH   2   3
ATOM      3  O   UNL     1       0.039   2.362   3.746  1.00  0.00    -0.463 OA
BRANCH   3   4
ATOM      4  C   UNL     1       1.197   1.742   3.392  1.00  0.00     0.316 C 
ATOM      5  O   UNL     1       2.310   2.229   3.561  1.00  0.00    -0.251 OA
BRANCH   4   6
ATOM      6  C   UNL     1       0.951   0.320   2.814  1.00  0.00     0.099 C 
ATOM      7  C   UNL     1      -0.555  -0.046   2.758  1.00  0.00     0.029 C 
BRANCH   6   8
ATOM      8  C   UNL     1       1.530   0.337   1.373  1.00  0.00     0.123 C 
BRANCH   8   9
ATOM      9  C   UNL     1       1.019   1.532   0.564  1.00  0.00     0.224 C 
ATOM     10  O   UNL     1       1.684   2.566   0.584  1.00  0.00    -0.275 OA
BRANCH   9  11
ATOM     11  N   UNL     1      -0.204   1.465  -0.088  1.00  0.00    -0.342 N 
ATOM     12  C   UNL     1      -0.848   0.215  -0.476  1.00  0.00     0.147 C 
BRANCH  11  13
ATOM     13  C   UNL     1      -0.928   2.694  -0.506  1.00  0.00     0.095 C 
ATOM     14  C   UNL     1      -0.276   3.519  -1.618  1.00  0.00     0.037 C 
ATOM     15  C   UNL     1      -1.324   3.645   0.629  1.00  0.00     0.094 C 
ATOM     16  C   UNL     1       0.522   4.673  -1.031  1.00  0.00     0.072 C 
ATOM     17  S   UNL     1      -0.257   5.106   0.544  1.00  0.00    -0.160 SA
ENDBRANCH  11  13
ENDBRANCH   9  11
ENDBRANCH   8   9
ENDBRANCH   6   8
BRANCH   6  18
ATOM     18  C   UNL     1       1.626  -0.778   3.690  1.00  0.00    -0.030 A 
ATOM     19  C   UNL     1       1.485  -2.141   3.361  1.00  0.00     0.005 A 
ATOM     20  C   UNL     1       2.311  -0.479   4.885  1.00  0.00     0.005 A 
ATOM     21  C   UNL     1       1.965  -3.149   4.205  1.00  0.00     0.000 A 
ATOM     22  C   UNL     1       2.806  -1.486   5.719  1.00  0.00     0.000 A 
ATOM     23  C   UNL     1       2.622  -2.821   5.387  1.00  0.00     0.000 A 
ENDBRANCH   6  18
ENDBRANCH   4   6
ENDBRANCH   3   4
ENDBRANCH   2   3
ENDBRANCH   1   2
BRANCH   1  24
ATOM     24  O   UNL     1      -1.053   2.624   6.550  1.00  0.00    -0.374 OA
BRANCH  24  25
ATOM     25  C   UNL     1      -1.353   1.297   6.120  1.00  0.00     0.202 C 
BRANCH  25  26
ATOM     26  C   UNL     1      -2.804   1.020   5.694  1.00  0.00     0.261 C 
BRANCH  26  27
ATOM     27  O   UNL     1      -3.255   1.851   4.607  1.00  0.00    -0.460 OA
BRANCH  27  28
ATOM     28  C   UNL     1      -4.290   2.671   4.916  1.00  0.00     0.338 C 
ATOM     29  O   UNL     1      -4.914   2.722   5.966  1.00  0.00    -0.246 OA
BRANCH  28  30
ATOM     30  C   UNL     1      -4.519   3.644   3.835  1.00  0.00     0.060 A 
ATOM     31  C   UNL     1      -4.277   4.997   4.107  1.00  0.00     0.016 A 
ATOM     32  C   UNL     1      -5.080   3.256   2.617  1.00  0.00     0.016 A 
ATOM     33  C   UNL     1      -4.611   5.971   3.166  1.00  0.00     0.010 A 
ATOM     34  C   UNL     1      -5.425   4.237   1.680  1.00  0.00     0.010 A 
ATOM     35  C   UNL     1      -5.213   5.601   1.957  1.00  0.00    -0.014 A 
BRANCH  35  36
ATOM     36  C   UNL     1      -5.691   6.640   1.012  1.00  0.00     0.031 A 
ATOM     37  C   UNL     1      -7.147   7.003   0.974  1.00  0.00     0.074 A 
ATOM     38  C   UNL     1      -4.830   7.261   0.187  1.00  0.00     0.049 A 
ATOM     39  N   UNL     1      -7.770   7.831   0.174  1.00  0.00    -0.248 NA
ATOM     40  C   UNL     1      -8.013   6.359   1.974  1.00  0.00     0.031 C 
ATOM     41  C   UNL     1      -3.386   7.060   0.182  1.00  0.00     0.029 A 
ATOM     42  N   UNL     1      -5.045   8.175  -0.814  1.00  0.00    -0.354 N 
ATOM     43  C   UNL     1      -9.098   7.816   0.578  1.00  0.00     0.074 A 
ATOM     44  C   UNL     1      -9.198   6.872   1.671  1.00  0.00     0.031 C 
ATOM     45  C   UNL     1      -2.842   7.791  -0.804  1.00  0.00     0.029 A 
ATOM     46  C   UNL     1      -3.905   8.499  -1.510  1.00  0.00     0.049 A 
ATOM     47  H   UNL     1      -5.928   8.560  -1.014  1.00  0.00     0.167 HD
ATOM     48  C   UNL     1     -10.137   8.532   0.087  1.00  0.00     0.031 A 
ATOM     49  C   UNL     1      -3.739   9.260  -2.608  1.00  0.00     0.031 A 
ATOM     50  C   UNL     1     -10.041   9.457  -1.011  1.00  0.00     0.049 A 
ATOM     51  C   UNL     1      -4.932   9.938  -3.221  1.00  0.00     0.074 A 
ATOM     52  C   UNL     1     -11.034  10.250  -1.560  1.00  0.00     0.029 A 
ATOM     53  N   UNL     1      -8.886   9.703  -1.737  1.00  0.00    -0.354 N 
ATOM     54  N   UNL     1      -6.178   9.937  -2.814  1.00  0.00    -0.248 NA
ATOM     55  C   UNL     1      -4.697  10.723  -4.441  1.00  0.00     0.031 C 
ATOM     56  C   UNL     1     -10.495  10.928  -2.658  1.00  0.00     0.029 A 
ATOM     57  C   UNL     1      -9.154  10.598  -2.760  1.00  0.00     0.049 A 
ATOM     58  H   UNL     1      -8.007   9.302  -1.553  1.00  0.00     0.167 HD
ATOM     59  C   UNL     1      -6.871  10.737  -3.712  1.00  0.00     0.074 A 
ATOM     60  C   UNL     1      -5.905  11.214  -4.681  1.00  0.00     0.031 C 
ATOM     61  C   UNL     1      -8.189  11.050  -3.728  1.00  0.00     0.031 A 
BRANCH  48  62
ATOM     62  C   UNL     1     -11.482   8.314   0.717  1.00  0.00    -0.014 A 
ATOM     63  C   UNL     1     -11.780   8.821   1.991  1.00  0.00     0.009 A 
ATOM     64  C   UNL     1     -12.478   7.625   0.007  1.00  0.00     0.009 A 
ATOM     65  C   UNL     1     -13.041   8.615   2.555  1.00  0.00     0.001 A 
ATOM     66  C   UNL     1     -13.745   7.441   0.564  1.00  0.00     0.001 A 
ATOM     67  C   UNL     1     -14.023   7.929   1.840  1.00  0.00     0.000 A 
ENDBRANCH  48  62
BRANCH  49  68
ATOM     68  C   UNL     1      -2.393   9.389  -3.224  1.00  0.00    -0.014 A 
ATOM     69  C   UNL     1      -1.687  10.598  -3.161  1.00  0.00     0.009 A 
ATOM     70  C   UNL     1      -1.811   8.296  -3.887  1.00  0.00     0.009 A 
ATOM     71  C   UNL     1      -0.433  10.716  -3.766  1.00  0.00     0.001 A 
ATOM     72  C   UNL     1      -0.547   8.409  -4.470  1.00  0.00     0.001 A 
ATOM     73  C   UNL     1       0.137   9.622  -4.415  1.00  0.00     0.000 A 
ENDBRANCH  49  68
BRANCH  61  74
ATOM     74  C   UNL     1      -8.665  11.958  -4.825  1.00  0.00    -0.014 A 
ATOM     75  C   UNL     1      -8.813  11.486  -6.139  1.00  0.00     0.009 A 
ATOM     76  C   UNL     1      -9.017  13.285  -4.533  1.00  0.00     0.009 A 
ATOM     77  C   UNL     1      -9.284  12.334  -7.143  1.00  0.00     0.001 A 
ATOM     78  C   UNL     1      -9.510  14.123  -5.534  1.00  0.00     0.001 A 
ATOM     79  C   UNL     1      -9.637  13.649  -6.839  1.00  0.00     0.000 A 
ENDBRANCH  61  74
ENDBRANCH  35  36
ENDBRANCH  28  30
ENDBRANCH  27  28
ENDBRANCH  26  27
ENDBRANCH  25  26
ENDBRANCH  24  25
ENDBRANCH   1  24
TORSDOF 19
