REMARK SMILES COc1ccc(C2=NN(C(=O)CCC(=O)OCCOCCOC(=O)c3ccc(-c4c5nc(c(-c6ccccc6)c6ccc([nH]6)c(-c6ccccc6)c6nc(c(-c7ccccc7)c7ccc4[nH]7)C=C6)C=C5)cc3)[C@H](c3ccc(Cl)cc3Cl)C2)cc1
REMARK SMILES IDX 17 1 16 2 14 3 15 4 13 5 12 6 10 7 11 8 9 9 7 10 8 11 82 12
REMARK SMILES IDX 73 13 6 14 3 15 4 16 84 17 5 18 83 19 2 20 1 21 74 22 75 23
REMARK SMILES IDX 80 24 76 25 79 26 81 27 77 28 78 29 18 30 19 31 20 32 21 33
REMARK SMILES IDX 22 34 23 35 24 36 25 37 26 38 72 39 27 40 71 41 28 42 29 43
REMARK SMILES IDX 30 44 65 45 31 46 70 47 64 48 66 49 32 50 69 51 63 52 62 53
REMARK SMILES IDX 33 55 55 56 40 57 54 58 41 59 44 60 53 61 67 62 42 63 43 64
REMARK SMILES IDX 52 66 68 67 45 68 34 69 35 70 39 71 36 72 38 73 37 74 56 75
REMARK SMILES IDX 57 76 61 77 58 78 60 79 59 80 46 81 47 82 51 83 48 84 50 85
REMARK SMILES IDX 49 86
REMARK H PARENT 66 54 44 65
REMARK Flexibility Score: inf
ROOT
ATOM      1  C   UNL     1       6.306   7.299  -5.606  1.00  0.00     0.261 C 
ENDROOT
BRANCH   1   2
ATOM      2  O   UNL     1       5.368   8.068  -4.880  1.00  0.00    -0.463 OA
BRANCH   2   3
ATOM      3  C   UNL     1       5.713   9.322  -4.576  1.00  0.00     0.306 C 
ATOM      4  O   UNL     1       6.857   9.797  -4.704  1.00  0.00    -0.252 OA
BRANCH   3   5
ATOM      5  C   UNL     1       4.541  10.091  -4.080  1.00  0.00     0.132 C 
BRANCH   5   6
ATOM      6  C   UNL     1       3.196   9.556  -4.557  1.00  0.00     0.114 C 
BRANCH   6   7
ATOM      7  C   UNL     1       2.797   8.147  -4.093  1.00  0.00     0.243 C 
ATOM      8  O   UNL     1       2.397   8.205  -2.903  1.00  0.00    -0.273 OA
BRANCH   7   9
ATOM      9  N   UNL     1       2.684   6.914  -4.807  1.00  0.00    -0.225 N 
ATOM     10  C   UNL     1       2.453   4.951  -3.923  1.00  0.00     0.071 C 
ATOM     11  N   UNL     1       1.945   6.125  -3.989  1.00  0.00    -0.174 NA
ATOM     12  C   UNL     1       3.521   4.615  -4.934  1.00  0.00     0.091 C 
ATOM     13  C   UNL     1       3.364   5.813  -5.931  1.00  0.00     0.149 C 
BRANCH  10  14
ATOM     14  C   UNL     1       1.962   4.149  -2.799  1.00  0.00    -0.002 A 
ATOM     15  C   UNL     1       0.789   2.737  -0.744  1.00  0.00     0.118 A 
ATOM     16  C   UNL     1       0.022   3.659  -1.421  1.00  0.00     0.047 A 
ATOM     17  C   UNL     1       2.167   2.633  -0.974  1.00  0.00     0.047 A 
ATOM     18  C   UNL     1       0.636   4.415  -2.397  1.00  0.00     0.014 A 
ATOM     19  C   UNL     1       2.758   3.304  -2.048  1.00  0.00     0.014 A 
BRANCH  15  20
ATOM     20  O   UNL     1       0.122   1.831   0.025  1.00  0.00    -0.497 OA
ATOM     21  C   UNL     1       0.234   2.162   1.395  1.00  0.00     0.278 C 
ENDBRANCH  15  20
ENDBRANCH  10  14
BRANCH  13  22
ATOM     22  C   UNL     1       3.134   5.390  -7.689  1.00  0.00    -0.004 A 
ATOM     23  C   UNL     1       4.099   4.413  -8.070  1.00  0.00     0.009 A 
ATOM     24  C   UNL     1       2.481   5.958  -8.925  1.00  0.00     0.047 A 
ATOM     25  C   UNL     1       4.426   4.087  -9.423  1.00  0.00     0.021 A 
ATOM     26  C   UNL     1       2.904   5.670 -10.254  1.00  0.00     0.041 A 
ATOM     27  Cl  UNL     1       1.049   6.915  -9.321  1.00  0.00    -0.084 Cl
ATOM     28  C   UNL     1       3.861   4.739 -10.503  1.00  0.00     0.042 A 
ATOM     29  Cl  UNL     1       4.285   4.401 -12.132  1.00  0.00    -0.084 Cl
ENDBRANCH  13  22
ENDBRANCH   7   9
ENDBRANCH   6   7
ENDBRANCH   5   6
ENDBRANCH   3   5
ENDBRANCH   2   3
ENDBRANCH   1   2
BRANCH   1  30
ATOM     30  C   UNL     1       5.929   7.226  -7.115  1.00  0.00     0.202 C 
BRANCH  30  31
ATOM     31  O   UNL     1       4.574   7.348  -7.641  1.00  0.00    -0.374 OA
BRANCH  31  32
ATOM     32  C   UNL     1       3.554   8.340  -7.387  1.00  0.00     0.202 C 
BRANCH  32  33
ATOM     33  C   UNL     1       1.817   8.025  -6.974  1.00  0.00     0.261 C 
BRANCH  33  34
ATOM     34  O   UNL     1       1.211   6.542  -6.593  1.00  0.00    -0.460 OA
BRANCH  34  35
ATOM     35  C   UNL     1       0.168   5.654  -6.788  1.00  0.00     0.338 C 
ATOM     36  O   UNL     1      -0.839   5.887  -7.453  1.00  0.00    -0.246 OA
BRANCH  35  37
ATOM     37  C   UNL     1       0.262   4.246  -6.097  1.00  0.00     0.060 A 
ATOM     38  C   UNL     1       1.177   3.196  -6.356  1.00  0.00     0.016 A 
ATOM     39  C   UNL     1      -0.746   3.887  -5.201  1.00  0.00     0.016 A 
ATOM     40  C   UNL     1       1.229   1.954  -5.603  1.00  0.00     0.010 A 
ATOM     41  C   UNL     1      -0.735   2.640  -4.492  1.00  0.00     0.010 A 
ATOM     42  C   UNL     1       0.282   1.659  -4.619  1.00  0.00    -0.014 A 
BRANCH  42  43
ATOM     43  C   UNL     1       0.045   0.300  -3.947  1.00  0.00     0.031 A 
ATOM     44  C   UNL     1      -1.145  -0.458  -4.479  1.00  0.00     0.074 A 
ATOM     45  C   UNL     1       0.692  -0.309  -2.914  1.00  0.00     0.049 A 
ATOM     46  N   UNL     1      -1.876  -1.393  -3.931  1.00  0.00    -0.248 NA
ATOM     47  C   UNL     1      -1.546  -0.092  -5.847  1.00  0.00     0.031 C 
ATOM     48  C   UNL     1       2.007   0.002  -2.374  1.00  0.00     0.029 A 
ATOM     49  N   UNL     1       0.244  -1.309  -2.043  1.00  0.00    -0.354 N 
ATOM     50  C   UNL     1      -2.816  -1.732  -4.893  1.00  0.00     0.074 A 
ATOM     51  C   UNL     1      -2.626  -0.833  -6.011  1.00  0.00     0.031 C 
ATOM     52  C   UNL     1       2.168  -0.609  -1.177  1.00  0.00     0.029 A 
ATOM     53  C   UNL     1       0.976  -1.385  -0.863  1.00  0.00     0.049 A 
ATOM     54  H   UNL     1      -0.516  -1.902  -2.247  1.00  0.00     0.167 HD
ATOM     55  C   UNL     1      -3.720  -2.738  -4.891  1.00  0.00     0.031 A 
ATOM     56  C   UNL     1       0.692  -1.950   0.339  1.00  0.00     0.031 A 
ATOM     57  C   UNL     1      -3.924  -3.651  -3.803  1.00  0.00     0.049 A 
ATOM     58  C   UNL     1      -0.522  -2.834   0.473  1.00  0.00     0.074 A 
ATOM     59  C   UNL     1      -4.776  -4.739  -3.736  1.00  0.00     0.029 A 
ATOM     60  N   UNL     1      -3.268  -3.578  -2.587  1.00  0.00    -0.354 N 
ATOM     61  N   UNL     1      -1.453  -3.098  -0.407  1.00  0.00    -0.248 NA
ATOM     62  C   UNL     1      -0.676  -3.563   1.747  1.00  0.00     0.031 C 
ATOM     63  C   UNL     1      -4.660  -5.307  -2.462  1.00  0.00     0.029 A 
ATOM     64  C   UNL     1      -3.701  -4.600  -1.758  1.00  0.00     0.049 A 
ATOM     65  H   UNL     1      -2.594  -2.902  -2.347  1.00  0.00     0.167 HD
ATOM     66  C   UNL     1      -2.227  -4.104   0.158  1.00  0.00     0.074 A 
ATOM     67  C   UNL     1      -1.724  -4.334   1.493  1.00  0.00     0.031 C 
ATOM     68  C   UNL     1      -3.209  -4.830  -0.427  1.00  0.00     0.031 A 
BRANCH  55  69
ATOM     69  C   UNL     1      -4.536  -2.893  -6.140  1.00  0.00    -0.014 A 
ATOM     70  C   UNL     1      -3.934  -3.307  -7.342  1.00  0.00     0.009 A 
ATOM     71  C   UNL     1      -5.899  -2.572  -6.134  1.00  0.00     0.009 A 
ATOM     72  C   UNL     1      -4.668  -3.332  -8.527  1.00  0.00     0.001 A 
ATOM     73  C   UNL     1      -6.640  -2.634  -7.315  1.00  0.00     0.001 A 
ATOM     74  C   UNL     1      -6.020  -2.996  -8.511  1.00  0.00     0.000 A 
ENDBRANCH  55  69
BRANCH  56  75
ATOM     75  C   UNL     1       1.504  -1.715   1.581  1.00  0.00    -0.014 A 
ATOM     76  C   UNL     1       2.667  -2.435   1.877  1.00  0.00     0.009 A 
ATOM     77  C   UNL     1       0.997  -0.858   2.576  1.00  0.00     0.009 A 
ATOM     78  C   UNL     1       3.321  -2.262   3.110  1.00  0.00     0.001 A 
ATOM     79  C   UNL     1       1.664  -0.658   3.791  1.00  0.00     0.001 A 
ATOM     80  C   UNL     1       2.832  -1.360   4.056  1.00  0.00     0.000 A 
ENDBRANCH  56  75
BRANCH  68  81
ATOM     81  C   UNL     1      -3.697  -6.041   0.313  1.00  0.00    -0.014 A 
ATOM     82  C   UNL     1      -4.555  -5.956   1.417  1.00  0.00     0.009 A 
ATOM     83  C   UNL     1      -3.277  -7.307  -0.131  1.00  0.00     0.009 A 
ATOM     84  C   UNL     1      -4.960  -7.119   2.079  1.00  0.00     0.001 A 
ATOM     85  C   UNL     1      -3.703  -8.465   0.516  1.00  0.00     0.001 A 
ATOM     86  C   UNL     1      -4.537  -8.370   1.627  1.00  0.00     0.000 A 
ENDBRANCH  68  81
ENDBRANCH  42  43
ENDBRANCH  35  37
ENDBRANCH  34  35
ENDBRANCH  33  34
ENDBRANCH  32  33
ENDBRANCH  31  32
ENDBRANCH  30  31
ENDBRANCH   1  30
TORSDOF 20
