REMARK SMILES O=C(OCCOCCOC(=O)[C@H]1O[C@@H](Oc2c(-c3cc(O)c(O)c(O)c3)oc3cc(O)cc(O)c3c2=O)[C@H](O)[C@@H](O)[C@@H]1O)c1ccc(-c2c3nc(c(-c4ccccc4)c4ccc([nH]4)c(-c4ccccc4)c4nc(c(-c5ccccc5)c5ccc2[nH]5)C=C4)C=C3)cc1
REMARK SMILES IDX 7 1 6 2 5 3 4 4 3 5 2 6 1 7 44 8 45 9 91 10 46 11 90 12
REMARK SMILES IDX 47 13 48 14 49 15 84 16 50 17 89 18 83 19 85 20 51 21 88 22
REMARK SMILES IDX 82 23 81 24 52 26 74 27 59 28 73 29 60 30 63 31 72 32 86 33
REMARK SMILES IDX 61 34 62 35 71 37 87 38 64 39 53 40 54 41 58 42 55 43 57 44
REMARK SMILES IDX 56 45 75 46 76 47 80 48 77 49 79 50 78 51 65 52 66 53 70 54
REMARK SMILES IDX 67 55 69 56 68 57 8 58 9 59 10 60 11 61 12 62 13 63 42 64
REMARK SMILES IDX 14 65 40 66 38 67 43 68 15 70 16 71 17 72 36 73 27 74 35 75
REMARK SMILES IDX 37 76 28 77 33 78 29 79 32 80 30 81 18 82 19 83 26 84 20 85
REMARK SMILES IDX 24 86 22 87 21 88 25 90 23 92 34 94 31 96 41 98 39 100
REMARK H PARENT 85 25 63 36 43 69 21 89 25 91 23 93 34 95 31 97 41 99 39 101
REMARK Flexibility Score: inf
ROOT
ATOM      1  C   UNL     1       8.201   1.608  -3.894  1.00  0.00     0.202 C 
ENDROOT
BRANCH   1   2
ATOM      2  O   UNL     1       7.424   1.204  -2.753  1.00  0.00    -0.374 OA
BRANCH   2   3
ATOM      3  C   UNL     1       6.636   2.230  -2.135  1.00  0.00     0.202 C 
BRANCH   3   4
ATOM      4  C   UNL     1       7.336   3.152  -1.137  1.00  0.00     0.261 C 
BRANCH   4   5
ATOM      5  O   UNL     1       8.375   3.892  -1.791  1.00  0.00    -0.460 OA
BRANCH   5   6
ATOM      6  C   UNL     1       9.697   3.619  -1.825  1.00  0.00     0.338 C 
ATOM      7  O   UNL     1      10.439   4.315  -2.513  1.00  0.00    -0.246 OA
BRANCH   6   8
ATOM      8  C   UNL     1      10.313   2.518  -1.032  1.00  0.00     0.060 A 
ATOM      9  C   UNL     1       9.678   1.318  -0.706  1.00  0.00     0.016 A 
ATOM     10  C   UNL     1      11.656   2.682  -0.659  1.00  0.00     0.016 A 
ATOM     11  C   UNL     1      10.305   0.351   0.052  1.00  0.00     0.010 A 
ATOM     12  C   UNL     1      12.321   1.685   0.055  1.00  0.00     0.010 A 
ATOM     13  C   UNL     1      11.628   0.531   0.433  1.00  0.00    -0.014 A 
BRANCH  13  14
ATOM     14  C   UNL     1      12.196  -0.472   1.338  1.00  0.00     0.031 A 
ATOM     15  C   UNL     1      12.310  -0.122   2.786  1.00  0.00     0.074 A 
ATOM     16  C   UNL     1      12.418  -1.714   0.875  1.00  0.00     0.049 A 
ATOM     17  N   UNL     1      12.761  -0.841   3.776  1.00  0.00    -0.248 NA
ATOM     18  C   UNL     1      11.828   1.216   3.178  1.00  0.00     0.031 C 
ATOM     19  C   UNL     1      12.167  -2.160  -0.501  1.00  0.00     0.029 A 
ATOM     20  N   UNL     1      12.851  -2.839   1.516  1.00  0.00    -0.354 N 
ATOM     21  C   UNL     1      12.653  -0.032   4.898  1.00  0.00     0.074 A 
ATOM     22  C   UNL     1      12.095   1.230   4.473  1.00  0.00     0.031 C 
ATOM     23  C   UNL     1      12.413  -3.477  -0.585  1.00  0.00     0.029 A 
ATOM     24  C   UNL     1      12.915  -3.941   0.701  1.00  0.00     0.049 A 
ATOM     25  H   UNL     1      13.092  -2.858   2.470  1.00  0.00     0.167 HD
ATOM     26  C   UNL     1      13.008  -0.326   6.169  1.00  0.00     0.031 A 
ATOM     27  C   UNL     1      13.368  -5.178   0.971  1.00  0.00     0.031 A 
ATOM     28  C   UNL     1      13.580  -1.589   6.543  1.00  0.00     0.049 A 
ATOM     29  C   UNL     1      13.878  -5.435   2.362  1.00  0.00     0.074 A 
ATOM     30  C   UNL     1      14.059  -1.998   7.772  1.00  0.00     0.029 A 
ATOM     31  N   UNL     1      13.749  -2.655   5.666  1.00  0.00    -0.354 N 
ATOM     32  N   UNL     1      13.855  -4.643   3.409  1.00  0.00    -0.248 NA
ATOM     33  C   UNL     1      14.489  -6.745   2.606  1.00  0.00     0.031 C 
ATOM     34  C   UNL     1      14.571  -3.292   7.623  1.00  0.00     0.029 A 
ATOM     35  C   UNL     1      14.348  -3.715   6.319  1.00  0.00     0.049 A 
ATOM     36  H   UNL     1      13.480  -2.655   4.719  1.00  0.00     0.167 HD
ATOM     37  C   UNL     1      14.430  -5.364   4.444  1.00  0.00     0.074 A 
ATOM     38  C   UNL     1      14.770  -6.666   3.899  1.00  0.00     0.031 C 
ATOM     39  C   UNL     1      14.663  -4.992   5.727  1.00  0.00     0.031 A 
BRANCH  26  40
ATOM     40  C   UNL     1      12.884   0.779   7.179  1.00  0.00    -0.014 A 
ATOM     41  C   UNL     1      11.635   1.245   7.622  1.00  0.00     0.009 A 
ATOM     42  C   UNL     1      14.047   1.413   7.645  1.00  0.00     0.009 A 
ATOM     43  C   UNL     1      11.554   2.354   8.470  1.00  0.00     0.001 A 
ATOM     44  C   UNL     1      13.964   2.502   8.514  1.00  0.00     0.001 A 
ATOM     45  C   UNL     1      12.718   2.981   8.915  1.00  0.00     0.000 A 
ENDBRANCH  26  40
BRANCH  27  46
ATOM     46  C   UNL     1      13.420  -6.218  -0.090  1.00  0.00    -0.014 A 
ATOM     47  C   UNL     1      12.662  -7.393   0.010  1.00  0.00     0.009 A 
ATOM     48  C   UNL     1      14.247  -6.046  -1.214  1.00  0.00     0.009 A 
ATOM     49  C   UNL     1      12.751  -8.382  -0.974  1.00  0.00     0.001 A 
ATOM     50  C   UNL     1      14.310  -7.020  -2.213  1.00  0.00     0.001 A 
ATOM     51  C   UNL     1      13.571  -8.193  -2.086  1.00  0.00     0.000 A 
ENDBRANCH  27  46
BRANCH  39  52
ATOM     52  C   UNL     1      15.272  -6.029   6.624  1.00  0.00    -0.014 A 
ATOM     53  C   UNL     1      16.616  -6.410   6.493  1.00  0.00     0.009 A 
ATOM     54  C   UNL     1      14.490  -6.602   7.639  1.00  0.00     0.009 A 
ATOM     55  C   UNL     1      17.155  -7.376   7.343  1.00  0.00     0.001 A 
ATOM     56  C   UNL     1      15.043  -7.540   8.509  1.00  0.00     0.001 A 
ATOM     57  C   UNL     1      16.371  -7.934   8.353  1.00  0.00     0.000 A 
ENDBRANCH  39  52
ENDBRANCH  13  14
ENDBRANCH   6   8
ENDBRANCH   5   6
ENDBRANCH   4   5
ENDBRANCH   3   4
ENDBRANCH   2   3
ENDBRANCH   1   2
BRANCH   1  58
ATOM     58  C   UNL     1       8.144   0.527  -4.984  1.00  0.00     0.261 C 
BRANCH  58  59
ATOM     59  O   UNL     1       6.810   0.456  -5.502  1.00  0.00    -0.461 OA
BRANCH  59  60
ATOM     60  C   UNL     1       5.949  -0.248  -4.713  1.00  0.00     0.338 C 
ATOM     61  O   UNL     1       6.219  -1.309  -4.158  1.00  0.00    -0.249 OA
BRANCH  60  62
ATOM     62  C   UNL     1       4.708   0.590  -4.411  1.00  0.00     0.263 C 
ATOM     63  O   UNL     1       4.609   1.729  -5.268  1.00  0.00    -0.322 OA
ATOM     64  C   UNL     1       3.402  -0.181  -4.481  1.00  0.00     0.186 C 
ATOM     65  C   UNL     1       3.737   2.736  -4.762  1.00  0.00     0.340 C 
ATOM     66  C   UNL     1       2.294   0.727  -3.928  1.00  0.00     0.181 C 
ATOM     67  C   UNL     1       2.334   2.166  -4.444  1.00  0.00     0.214 C 
BRANCH  64  68
ATOM     68  O   UNL     1       3.348  -1.383  -3.704  1.00  0.00    -0.387 OA
ATOM     69  H   UNL     1       3.445  -1.165  -2.764  1.00  0.00     0.211 HD
ENDBRANCH  64  68
BRANCH  65  70
ATOM     70  O   UNL     1       3.581   3.872  -5.650  1.00  0.00    -0.454 OA
BRANCH  70  71
ATOM     71  C   UNL     1       4.136   3.752  -6.917  1.00  0.00     0.214 A 
ATOM     72  C   UNL     1       3.494   3.207  -7.971  1.00  0.00     0.181 A 
ATOM     73  C   UNL     1       5.479   4.366  -7.162  1.00  0.00     0.239 A 
ATOM     74  O   UNL     1       4.019   3.067  -9.235  1.00  0.00    -0.452 OA
ATOM     75  C   UNL     1       5.950   4.394  -8.576  1.00  0.00     0.111 A 
ATOM     76  O   UNL     1       6.135   4.810  -6.227  1.00  0.00    -0.285 OA
ATOM     77  C   UNL     1       5.193   3.704  -9.525  1.00  0.00     0.146 A 
ATOM     78  C   UNL     1       7.103   5.067  -9.009  1.00  0.00     0.134 A 
ATOM     79  C   UNL     1       5.593   3.637 -10.861  1.00  0.00     0.094 A 
ATOM     80  C   UNL     1       7.503   5.018 -10.353  1.00  0.00     0.093 A 
ATOM     81  C   UNL     1       6.745   4.292 -11.265  1.00  0.00     0.123 A 
BRANCH  72  82
ATOM     82  C   UNL     1       2.167   2.591  -7.845  1.00  0.00     0.029 A 
ATOM     83  C   UNL     1       2.070   1.191  -7.931  1.00  0.00     0.062 A 
ATOM     84  C   UNL     1       1.044   3.357  -7.483  1.00  0.00     0.062 A 
ATOM     85  C   UNL     1       0.900   0.564  -7.533  1.00  0.00     0.162 A 
ATOM     86  C   UNL     1      -0.118   2.708  -7.080  1.00  0.00     0.162 A 
ATOM     87  C   UNL     1      -0.171   1.318  -7.064  1.00  0.00     0.200 A 
BRANCH  85  88
ATOM     88  O   UNL     1       0.856  -0.799  -7.503  1.00  0.00    -0.504 OA
ATOM     89  H   UNL     1       1.583  -1.297  -7.821  1.00  0.00     0.293 HD
ENDBRANCH  85  88
BRANCH  86  90
ATOM     90  O   UNL     1      -1.143   3.441  -6.558  1.00  0.00    -0.504 OA
ATOM     91  H   UNL     1      -1.931   3.015  -6.282  1.00  0.00     0.293 HD
ENDBRANCH  86  90
BRANCH  87  92
ATOM     92  O   UNL     1      -1.194   0.699  -6.397  1.00  0.00    -0.502 OA
ATOM     93  H   UNL     1      -1.242  -0.237  -6.378  1.00  0.00     0.293 HD
ENDBRANCH  87  92
ENDBRANCH  72  82
BRANCH  78  94
ATOM     94  O   UNL     1       7.851   5.804  -8.135  1.00  0.00    -0.507 OA
ATOM     95  H   UNL     1       8.620   6.249  -8.435  1.00  0.00     0.293 HD
ENDBRANCH  78  94
BRANCH  81  96
ATOM     96  O   UNL     1       7.090   4.203 -12.581  1.00  0.00    -0.508 OA
ATOM     97  H   UNL     1       6.558   3.706 -13.171  1.00  0.00     0.293 HD
ENDBRANCH  81  96
ENDBRANCH  70  71
ENDBRANCH  65  70
BRANCH  66  98
ATOM     98  O   UNL     1       0.999   0.150  -4.240  1.00  0.00    -0.387 OA
ATOM     99  H   UNL     1       0.883   0.116  -5.202  1.00  0.00     0.211 HD
ENDBRANCH  66  98
BRANCH  67 100
ATOM    100  O   UNL     1       1.624   3.004  -3.518  1.00  0.00    -0.384 OA
ATOM    101  H   UNL     1       2.078   2.996  -2.661  1.00  0.00     0.211 HD
ENDBRANCH  67 100
ENDBRANCH  60  62
ENDBRANCH  59  60
ENDBRANCH  58  59
ENDBRANCH   1  58
TORSDOF 25
