REMARK SMILES CC1(C)CCN(C(=O)N[C@H]2COC[C@@]2(C)C(=O)OCCOCCOC(=O)c2ccc(-c3c4nc(c(-c5ccccc5)c5ccc([nH]5)c(-c5ccccc5)c5nc(c(-c6ccccc6)c6ccc3[nH]6)C=C5)C=C4)cc2)C1
REMARK SMILES IDX 21 1 20 2 19 3 18 4 16 5 17 6 14 7 10 8 11 9 12 10 13 11
REMARK SMILES IDX 15 12 9 13 7 14 8 15 6 17 1 18 2 19 3 20 4 21 75 22 5 23
REMARK SMILES IDX 22 24 23 25 24 26 25 27 26 28 27 29 28 30 74 31 29 32 73 33
REMARK SMILES IDX 30 34 31 35 32 36 67 37 33 38 72 39 66 40 68 41 34 42 71 43
REMARK SMILES IDX 65 44 64 45 35 47 57 48 42 49 56 50 43 51 46 52 55 53 69 54
REMARK SMILES IDX 44 55 45 56 54 58 70 59 47 60 36 61 37 62 41 63 38 64 40 65
REMARK SMILES IDX 39 66 58 67 59 68 63 69 60 70 62 71 61 72 48 73 49 74 53 75
REMARK SMILES IDX 50 76 52 77 51 78
REMARK H PARENT 9 16 68 46 46 57
REMARK Flexibility Score: inf
ROOT
ATOM      1  O   UNL     1      -1.280  -0.889   2.435  1.00  0.00    -0.374 OA
ENDROOT
BRANCH   1   2
ATOM      2  C   UNL     1      -1.383  -0.909   1.009  1.00  0.00     0.202 C 
BRANCH   2   3
ATOM      3  C   UNL     1      -1.622   0.428   0.290  1.00  0.00     0.261 C 
BRANCH   3   4
ATOM      4  O   UNL     1      -0.466   1.292   0.336  1.00  0.00    -0.463 OA
BRANCH   4   5
ATOM      5  C   UNL     1      -0.575   2.401   1.127  1.00  0.00     0.316 C 
ATOM      6  O   UNL     1      -1.575   2.708   1.762  1.00  0.00    -0.251 OA
BRANCH   5   7
ATOM      7  C   UNL     1       0.748   3.137   1.221  1.00  0.00     0.111 C 
ATOM      8  C   UNL     1       1.288   3.646  -0.112  1.00  0.00     0.129 C 
ATOM      9  C   UNL     1       2.236   4.746   0.339  1.00  0.00     0.186 C 
ATOM     10  O   UNL     1       1.712   5.263   1.585  1.00  0.00    -0.378 OA
ATOM     11  C   UNL     1       0.612   4.427   2.001  1.00  0.00     0.181 C 
ATOM     12  C   UNL     1       1.810   2.285   1.955  1.00  0.00     0.028 C 
BRANCH   8  13
ATOM     13  N   UNL     1       0.296   3.950  -1.168  1.00  0.00    -0.332 N 
ATOM     14  C   UNL     1      -0.603   4.829  -1.627  1.00  0.00     0.317 C 
ATOM     15  O   UNL     1      -1.246   4.413  -2.600  1.00  0.00    -0.249 OA
ATOM     16  H   UNL     1       0.298   3.188  -1.792  1.00  0.00     0.165 HD
BRANCH  14  17
ATOM     17  N   UNL     1      -0.818   6.073  -1.153  1.00  0.00    -0.324 N 
ATOM     18  C   UNL     1       0.821   8.640  -1.476  1.00  0.00     0.013 C 
ATOM     19  C   UNL     1      -0.295   8.284  -0.479  1.00  0.00    -0.016 C 
ATOM     20  C   UNL     1      -0.173   9.162   0.766  1.00  0.00     0.013 C 
ATOM     21  C   UNL     1      -1.681   8.305  -1.129  1.00  0.00     0.030 C 
ATOM     22  C   UNL     1      -0.196   6.814  -0.088  1.00  0.00     0.127 C 
ATOM     23  C   UNL     1      -1.768   6.949  -1.840  1.00  0.00     0.122 C 
ENDBRANCH  14  17
ENDBRANCH   8  13
ENDBRANCH   5   7
ENDBRANCH   4   5
ENDBRANCH   3   4
ENDBRANCH   2   3
ENDBRANCH   1   2
BRANCH   1  24
ATOM     24  C   UNL     1      -0.064  -0.380   2.972  1.00  0.00     0.202 C 
BRANCH  24  25
ATOM     25  C   UNL     1       1.122  -1.345   3.080  1.00  0.00     0.261 C 
BRANCH  25  26
ATOM     26  O   UNL     1       1.506  -1.868   1.797  1.00  0.00    -0.460 OA
BRANCH  26  27
ATOM     27  C   UNL     1       1.124  -3.146   1.586  1.00  0.00     0.338 C 
ATOM     28  O   UNL     1       0.607  -3.912   2.393  1.00  0.00    -0.246 OA
BRANCH  27  29
ATOM     29  C   UNL     1       1.238  -3.477   0.158  1.00  0.00     0.060 A 
ATOM     30  C   UNL     1       0.084  -3.947  -0.481  1.00  0.00     0.016 A 
ATOM     31  C   UNL     1       2.452  -3.397  -0.527  1.00  0.00     0.016 A 
ATOM     32  C   UNL     1       0.149  -4.390  -1.798  1.00  0.00     0.010 A 
ATOM     33  C   UNL     1       2.518  -3.854  -1.847  1.00  0.00     0.010 A 
ATOM     34  C   UNL     1       1.375  -4.385  -2.474  1.00  0.00    -0.014 A 
BRANCH  34  35
ATOM     35  C   UNL     1       1.479  -5.068  -3.783  1.00  0.00     0.031 A 
ATOM     36  C   UNL     1       2.046  -6.460  -3.837  1.00  0.00     0.074 A 
ATOM     37  C   UNL     1       1.034  -4.472  -4.903  1.00  0.00     0.049 A 
ATOM     38  N   UNL     1       2.240  -7.235  -4.873  1.00  0.00    -0.248 NA
ATOM     39  C   UNL     1       2.447  -7.057  -2.553  1.00  0.00     0.031 C 
ATOM     40  C   UNL     1       0.420  -3.146  -4.968  1.00  0.00     0.029 A 
ATOM     41  N   UNL     1       1.034  -4.910  -6.202  1.00  0.00    -0.354 N 
ATOM     42  C   UNL     1       2.795  -8.405  -4.368  1.00  0.00     0.074 A 
ATOM     43  C   UNL     1       2.929  -8.229  -2.939  1.00  0.00     0.031 C 
ATOM     44  C   UNL     1       0.111  -2.874  -6.247  1.00  0.00     0.029 A 
ATOM     45  C   UNL     1       0.535  -3.990  -7.090  1.00  0.00     0.049 A 
ATOM     46  H   UNL     1       1.360  -5.799  -6.472  1.00  0.00     0.167 HD
ATOM     47  C   UNL     1       3.156  -9.525  -5.037  1.00  0.00     0.031 A 
ATOM     48  C   UNL     1       0.454  -4.033  -8.434  1.00  0.00     0.031 A 
ATOM     49  C   UNL     1       3.029  -9.694  -6.460  1.00  0.00     0.049 A 
ATOM     50  C   UNL     1       0.936  -5.260  -9.161  1.00  0.00     0.074 A 
ATOM     51  C   UNL     1       3.342 -10.802  -7.228  1.00  0.00     0.029 A 
ATOM     52  N   UNL     1       2.561  -8.722  -7.330  1.00  0.00    -0.354 N 
ATOM     53  N   UNL     1       1.427  -6.373  -8.670  1.00  0.00    -0.248 NA
ATOM     54  C   UNL     1       0.847  -5.238 -10.628  1.00  0.00     0.031 C 
ATOM     55  C   UNL     1       3.123 -10.477  -8.570  1.00  0.00     0.029 A 
ATOM     56  C   UNL     1       2.613  -9.190  -8.632  1.00  0.00     0.049 A 
ATOM     57  H   UNL     1       2.239  -7.831  -7.062  1.00  0.00     0.167 HD
ATOM     58  C   UNL     1       1.684  -7.190  -9.764  1.00  0.00     0.074 A 
ATOM     59  C   UNL     1       1.276  -6.452 -10.942  1.00  0.00     0.031 C 
ATOM     60  C   UNL     1       2.211  -8.439  -9.793  1.00  0.00     0.031 A 
BRANCH  47  61
ATOM     61  C   UNL     1       3.765 -10.645  -4.239  1.00  0.00    -0.014 A 
ATOM     62  C   UNL     1       2.994 -11.428  -3.366  1.00  0.00     0.009 A 
ATOM     63  C   UNL     1       5.127 -10.946  -4.398  1.00  0.00     0.009 A 
ATOM     64  C   UNL     1       3.583 -12.471  -2.646  1.00  0.00     0.001 A 
ATOM     65  C   UNL     1       5.706 -12.006  -3.699  1.00  0.00     0.001 A 
ATOM     66  C   UNL     1       4.936 -12.762  -2.818  1.00  0.00     0.000 A 
ENDBRANCH  47  61
BRANCH  48  67
ATOM     67  C   UNL     1      -0.071  -2.864  -9.186  1.00  0.00    -0.014 A 
ATOM     68  C   UNL     1      -1.291  -2.938  -9.873  1.00  0.00     0.009 A 
ATOM     69  C   UNL     1       0.663  -1.667  -9.235  1.00  0.00     0.009 A 
ATOM     70  C   UNL     1      -1.753  -1.846 -10.614  1.00  0.00     0.001 A 
ATOM     71  C   UNL     1       0.184  -0.568  -9.950  1.00  0.00     0.001 A 
ATOM     72  C   UNL     1      -1.018  -0.662 -10.647  1.00  0.00     0.000 A 
ENDBRANCH  48  67
BRANCH  60  73
ATOM     73  C   UNL     1       2.354  -9.094 -11.138  1.00  0.00    -0.014 A 
ATOM     74  C   UNL     1       3.326  -8.667 -12.057  1.00  0.00     0.009 A 
ATOM     75  C   UNL     1       1.532 -10.181 -11.474  1.00  0.00     0.009 A 
ATOM     76  C   UNL     1       3.447  -9.295 -13.298  1.00  0.00     0.001 A 
ATOM     77  C   UNL     1       1.676 -10.826 -12.703  1.00  0.00     0.001 A 
ATOM     78  C   UNL     1       2.627 -10.376 -13.618  1.00  0.00     0.000 A 
ENDBRANCH  60  73
ENDBRANCH  34  35
ENDBRANCH  27  29
ENDBRANCH  26  27
ENDBRANCH  25  26
ENDBRANCH  24  25
ENDBRANCH   1  24
TORSDOF 16
