REMARK SMILES CC(C)C[C@H](NC(=O)CNC(=O)[C@@H]([NH3+])C(C)C)C(=O)OCCOCCOC(=O)c1ccc(-c2c3nc(c(-c4ccccc4)c4ccc([nH]4)c(-c4ccccc4)c4nc(c(-c5ccccc5)c5ccc2[nH]5)C=C4)C=C3)cc1
REMARK SMILES IDX 21 1 20 2 18 3 19 4 5 5 4 6 2 7 1 8 3 9 6 10 7 11 8 13 9 14
REMARK SMILES IDX 10 15 11 16 12 18 13 19 14 20 15 24 16 25 17 26 22 27 23 28
REMARK SMILES IDX 24 29 25 30 26 31 27 32 28 33 29 34 30 35 76 36 31 37 75 38
REMARK SMILES IDX 32 39 33 40 34 41 69 42 35 43 74 44 68 45 70 46 36 47 73 48
REMARK SMILES IDX 67 49 66 50 37 52 59 53 44 54 58 55 45 56 48 57 57 58 71 59
REMARK SMILES IDX 46 60 47 61 56 63 72 64 49 65 38 66 39 67 43 68 40 69 42 70
REMARK SMILES IDX 41 71 60 72 61 73 65 74 62 75 64 76 63 77 50 78 51 79 55 80
REMARK SMILES IDX 52 81 54 82 53 83
REMARK H PARENT 6 12 10 17 14 21 14 22 14 23 70 51 48 62
REMARK Flexibility Score: inf
ROOT
ATOM      1  C   UNL     1      -5.568  -1.662   0.545  1.00  0.00     0.261 C 
ENDROOT
BRANCH   1   2
ATOM      2  O   UNL     1      -4.230  -1.708   1.058  1.00  0.00    -0.462 OA
BRANCH   2   3
ATOM      3  C   UNL     1      -3.263  -1.950   0.127  1.00  0.00     0.328 C 
ATOM      4  O   UNL     1      -3.441  -2.031  -1.082  1.00  0.00    -0.250 OA
BRANCH   3   5
ATOM      5  C   UNL     1      -1.917  -2.211   0.788  1.00  0.00     0.192 C 
BRANCH   5   6
ATOM      6  C   UNL     1      -1.758  -3.679   1.217  1.00  0.00     0.040 C 
BRANCH   6   7
ATOM      7  C   UNL     1      -2.790  -4.786   0.909  1.00  0.00    -0.015 C 
ATOM      8  C   UNL     1      -3.180  -4.927  -0.563  1.00  0.00     0.007 C 
ATOM      9  C   UNL     1      -2.175  -6.123   1.364  1.00  0.00     0.007 C 
ENDBRANCH   6   7
ENDBRANCH   5   6
BRANCH   5  10
ATOM     10  N   UNL     1      -1.715  -1.267   1.905  1.00  0.00    -0.341 N 
ATOM     11  C   UNL     1      -0.565  -0.730   2.410  1.00  0.00     0.240 C 
ATOM     12  H   UNL     1      -2.540  -0.980   2.358  1.00  0.00     0.164 HD
ATOM     13  O   UNL     1      -0.669   0.286   3.104  1.00  0.00    -0.273 OA
BRANCH  11  14
ATOM     14  C   UNL     1       0.817  -1.329   2.098  1.00  0.00     0.216 C 
BRANCH  14  15
ATOM     15  N   UNL     1       0.907  -2.692   2.597  1.00  0.00    -0.342 N 
ATOM     16  C   UNL     1       1.249  -3.880   2.039  1.00  0.00     0.278 C 
ATOM     17  H   UNL     1       0.667  -2.770   3.549  1.00  0.00     0.164 HD
ATOM     18  O   UNL     1       1.036  -4.874   2.748  1.00  0.00    -0.268 OA
BRANCH  16  19
ATOM     19  C   UNL     1       1.856  -4.068   0.619  1.00  0.00     0.273 C 
BRANCH  19  20
ATOM     20  N   UNL     1       1.537  -2.956  -0.299  1.00  0.00    -0.347 N 
ATOM     21  H   UNL     1       1.954  -2.094   0.053  1.00  0.00     0.345 HD
ATOM     22  H   UNL     1       0.525  -2.845  -0.360  1.00  0.00     0.345 HD
ATOM     23  H   UNL     1       1.913  -3.161  -1.225  1.00  0.00     0.345 HD
ENDBRANCH  19  20
BRANCH  19  24
ATOM     24  C   UNL     1       3.370  -4.385   0.710  1.00  0.00     0.051 C 
ATOM     25  C   UNL     1       3.600  -5.739   1.403  1.00  0.00     0.014 C 
ATOM     26  C   UNL     1       4.044  -4.445  -0.668  1.00  0.00     0.014 C 
ENDBRANCH  19  24
ENDBRANCH  16  19
ENDBRANCH  14  15
ENDBRANCH  11  14
ENDBRANCH   5  10
ENDBRANCH   3   5
ENDBRANCH   2   3
ENDBRANCH   1   2
BRANCH   1  27
ATOM     27  C   UNL     1      -6.117  -0.238   0.471  1.00  0.00     0.202 C 
BRANCH  27  28
ATOM     28  O   UNL     1      -5.485   0.640  -0.453  1.00  0.00    -0.374 OA
BRANCH  28  29
ATOM     29  C   UNL     1      -4.213   1.193  -0.116  1.00  0.00     0.202 C 
BRANCH  29  30
ATOM     30  C   UNL     1      -4.180   2.203   1.034  1.00  0.00     0.261 C 
BRANCH  30  31
ATOM     31  O   UNL     1      -4.394   1.567   2.310  1.00  0.00    -0.460 OA
BRANCH  31  32
ATOM     32  C   UNL     1      -5.476   2.023   2.984  1.00  0.00     0.338 C 
ATOM     33  O   UNL     1      -6.249   2.902   2.643  1.00  0.00    -0.246 OA
BRANCH  32  34
ATOM     34  C   UNL     1      -5.737   1.185   4.166  1.00  0.00     0.060 A 
ATOM     35  C   UNL     1      -6.985   0.553   4.243  1.00  0.00     0.016 A 
ATOM     36  C   UNL     1      -4.854   1.159   5.246  1.00  0.00     0.016 A 
ATOM     37  C   UNL     1      -7.387  -0.045   5.432  1.00  0.00     0.010 A 
ATOM     38  C   UNL     1      -5.265   0.566   6.445  1.00  0.00     0.010 A 
ATOM     39  C   UNL     1      -6.552   0.009   6.556  1.00  0.00    -0.014 A 
BRANCH  39  40
ATOM     40  C   UNL     1      -7.115  -0.345   7.880  1.00  0.00     0.031 A 
ATOM     41  C   UNL     1      -7.631   0.757   8.768  1.00  0.00     0.074 A 
ATOM     42  C   UNL     1      -7.235  -1.629   8.258  1.00  0.00     0.049 A 
ATOM     43  N   UNL     1      -8.196   0.676   9.946  1.00  0.00    -0.248 NA
ATOM     44  C   UNL     1      -7.498   2.131   8.257  1.00  0.00     0.031 C 
ATOM     45  C   UNL     1      -6.827  -2.786   7.464  1.00  0.00     0.029 A 
ATOM     46  N   UNL     1      -7.747  -2.170   9.409  1.00  0.00    -0.354 N 
ATOM     47  C   UNL     1      -8.481   1.985  10.317  1.00  0.00     0.074 A 
ATOM     48  C   UNL     1      -8.003   2.841   9.254  1.00  0.00     0.031 C 
ATOM     49  C   UNL     1      -7.109  -3.905   8.152  1.00  0.00     0.029 A 
ATOM     50  C   UNL     1      -7.690  -3.541   9.443  1.00  0.00     0.049 A 
ATOM     51  H   UNL     1      -8.121  -1.628  10.140  1.00  0.00     0.167 HD
ATOM     52  C   UNL     1      -9.092   2.435  11.438  1.00  0.00     0.031 A 
ATOM     53  C   UNL     1      -8.054  -4.402  10.412  1.00  0.00     0.031 A 
ATOM     54  C   UNL     1      -9.556   1.588  12.504  1.00  0.00     0.049 A 
ATOM     55  C   UNL     1      -8.656  -3.871  11.685  1.00  0.00     0.074 A 
ATOM     56  C   UNL     1     -10.194   1.948  13.678  1.00  0.00     0.029 A 
ATOM     57  N   UNL     1      -9.425   0.209  12.525  1.00  0.00    -0.354 N 
ATOM     58  N   UNL     1      -8.938  -2.634  12.014  1.00  0.00    -0.248 NA
ATOM     59  C   UNL     1      -8.996  -4.861  12.717  1.00  0.00     0.031 C 
ATOM     60  C   UNL     1     -10.403   0.789  14.434  1.00  0.00     0.029 A 
ATOM     61  C   UNL     1      -9.944  -0.296  13.705  1.00  0.00     0.049 A 
ATOM     62  H   UNL     1      -9.021  -0.332  11.808  1.00  0.00     0.167 HD
ATOM     63  C   UNL     1      -9.513  -2.699  13.277  1.00  0.00     0.074 A 
ATOM     64  C   UNL     1      -9.551  -4.099  13.649  1.00  0.00     0.031 C 
ATOM     65  C   UNL     1      -9.972  -1.691  14.059  1.00  0.00     0.031 A 
BRANCH  52  66
ATOM     66  C   UNL     1      -9.258   3.922  11.582  1.00  0.00    -0.014 A 
ATOM     67  C   UNL     1     -10.195   4.629  10.812  1.00  0.00     0.009 A 
ATOM     68  C   UNL     1      -8.480   4.621  12.517  1.00  0.00     0.009 A 
ATOM     69  C   UNL     1     -10.324   6.013  10.952  1.00  0.00     0.001 A 
ATOM     70  C   UNL     1      -8.629   6.000  12.673  1.00  0.00     0.001 A 
ATOM     71  C   UNL     1      -9.544   6.696  11.884  1.00  0.00     0.000 A 
ENDBRANCH  52  66
BRANCH  53  72
ATOM     72  C   UNL     1      -7.850  -5.861  10.224  1.00  0.00    -0.014 A 
ATOM     73  C   UNL     1      -8.945  -6.721  10.054  1.00  0.00     0.009 A 
ATOM     74  C   UNL     1      -6.555  -6.403  10.232  1.00  0.00     0.009 A 
ATOM     75  C   UNL     1      -8.748  -8.098   9.919  1.00  0.00     0.001 A 
ATOM     76  C   UNL     1      -6.360  -7.776  10.069  1.00  0.00     0.001 A 
ATOM     77  C   UNL     1      -7.457  -8.623   9.922  1.00  0.00     0.000 A 
ENDBRANCH  53  72
BRANCH  65  78
ATOM     78  C   UNL     1     -10.587  -2.070  15.377  1.00  0.00    -0.014 A 
ATOM     79  C   UNL     1      -9.798  -2.506  16.452  1.00  0.00     0.009 A 
ATOM     80  C   UNL     1     -11.975  -1.956  15.553  1.00  0.00     0.009 A 
ATOM     81  C   UNL     1     -10.391  -2.853  17.667  1.00  0.00     0.001 A 
ATOM     82  C   UNL     1     -12.562  -2.277  16.777  1.00  0.00     0.001 A 
ATOM     83  C   UNL     1     -11.771  -2.735  17.830  1.00  0.00     0.000 A 
ENDBRANCH  65  78
ENDBRANCH  39  40
ENDBRANCH  32  34
ENDBRANCH  31  32
ENDBRANCH  30  31
ENDBRANCH  29  30
ENDBRANCH  28  29
ENDBRANCH  27  28
ENDBRANCH   1  27
TORSDOF 22
