REMARK SMILES COC(=O)c1ccccc1-c1ccc(/C=C(\C#N)C(=O)OCCOCCOC(=O)c2ccc(-c3c4nc(c(-c5ccccc5)c5ccc([nH]5)c(-c5ccccc5)c5nc(c(-c6ccccc6)c6ccc3[nH]6)C=C5)C=C4)cc2)o1
REMARK SMILES IDX 23 1 22 2 21 3 19 4 20 5 16 6 15 7 14 8 11 9 12 10 78 11
REMARK SMILES IDX 13 12 10 13 5 14 6 15 7 16 9 17 8 18 3 19 4 20 2 21 1 22
REMARK SMILES IDX 17 23 18 24 24 25 25 26 26 27 27 28 28 29 29 30 30 31 31 32
REMARK SMILES IDX 77 33 32 34 76 35 33 36 34 37 35 38 70 39 36 40 75 41 69 42
REMARK SMILES IDX 71 43 37 44 74 45 68 46 67 47 38 49 60 50 45 51 59 52 46 53
REMARK SMILES IDX 49 54 58 55 72 56 47 57 48 58 57 60 73 61 50 62 39 63 40 64
REMARK SMILES IDX 44 65 41 66 43 67 42 68 61 69 62 70 66 71 63 72 65 73 64 74
REMARK SMILES IDX 51 75 52 76 56 77 53 78 55 79 54 80
REMARK H PARENT 71 48 49 59
REMARK Flexibility Score: inf
ROOT
ATOM      1  C   UNL     1      -6.133  -1.464   6.998  1.00  0.00     0.202 C 
ENDROOT
BRANCH   1   2
ATOM      2  C   UNL     1      -6.499  -2.458   5.896  1.00  0.00     0.261 C 
BRANCH   2   3
ATOM      3  O   UNL     1      -5.360  -2.774   5.076  1.00  0.00    -0.459 OA
BRANCH   3   4
ATOM      4  C   UNL     1      -5.496  -2.398   3.784  1.00  0.00     0.349 C 
ATOM      5  O   UNL     1      -6.513  -1.950   3.271  1.00  0.00    -0.245 OA
BRANCH   4   6
ATOM      6  C   UNL     1      -4.206  -2.450   3.072  1.00  0.00     0.141 C 
ATOM      7  C   UNL     1      -4.074  -1.495   2.124  1.00  0.00     0.074 C 
BRANCH   7   8
ATOM      8  C   UNL     1      -3.237  -1.612   0.974  1.00  0.00     0.129 A 
ATOM      9  C   UNL     1      -1.865  -2.532  -0.523  1.00  0.00     0.135 A 
ATOM     10  C   UNL     1      -2.261  -1.329  -1.060  1.00  0.00     0.051 A 
ATOM     11  O   UNL     1      -2.446  -2.700   0.692  1.00  0.00    -0.457 OA
ATOM     12  C   UNL     1      -3.127  -0.740  -0.105  1.00  0.00     0.051 A 
BRANCH   9  13
ATOM     13  C   UNL     1      -0.985  -3.609  -0.955  1.00  0.00     0.032 A 
ATOM     14  C   UNL     1       0.341  -3.388  -1.370  1.00  0.00     0.071 A 
ATOM     15  C   UNL     1       1.121  -4.450  -1.857  1.00  0.00     0.016 A 
ATOM     16  C   UNL     1       0.598  -5.741  -1.908  1.00  0.00     0.001 A 
ATOM     17  C   UNL     1      -1.488  -4.921  -1.001  1.00  0.00     0.013 A 
ATOM     18  C   UNL     1      -0.704  -5.977  -1.475  1.00  0.00     0.001 A 
BRANCH  14  19
ATOM     19  C   UNL     1       0.976  -2.055  -1.333  1.00  0.00     0.338 C 
ATOM     20  O   UNL     1       1.637  -1.596  -2.257  1.00  0.00    -0.246 OA
BRANCH  19  21
ATOM     21  O   UNL     1       0.758  -1.472  -0.133  1.00  0.00    -0.465 OA
ATOM     22  C   UNL     1       1.232  -0.130  -0.035  1.00  0.00     0.282 C 
ENDBRANCH  19  21
ENDBRANCH  14  19
ENDBRANCH   9  13
ENDBRANCH   7   8
BRANCH   6  23
ATOM     23  C   UNL     1      -3.436  -3.758   2.990  1.00  0.00     0.107 C 
ATOM     24  N   UNL     1      -2.796  -4.843   2.922  1.00  0.00    -0.192 NA
ENDBRANCH   6  23
ENDBRANCH   4   6
ENDBRANCH   3   4
ENDBRANCH   2   3
ENDBRANCH   1   2
BRANCH   1  25
ATOM     25  O   UNL     1      -5.723  -0.152   6.618  1.00  0.00    -0.374 OA
BRANCH  25  26
ATOM     26  C   UNL     1      -4.522   0.020   5.875  1.00  0.00     0.202 C 
BRANCH  26  27
ATOM     27  C   UNL     1      -3.172  -0.267   6.548  1.00  0.00     0.261 C 
BRANCH  27  28
ATOM     28  O   UNL     1      -3.114  -1.527   7.231  1.00  0.00    -0.460 OA
BRANCH  28  29
ATOM     29  C   UNL     1      -3.140  -1.413   8.582  1.00  0.00     0.338 C 
ATOM     30  O   UNL     1      -3.147  -0.380   9.236  1.00  0.00    -0.246 OA
BRANCH  29  31
ATOM     31  C   UNL     1      -3.339  -2.727   9.216  1.00  0.00     0.060 A 
ATOM     32  C   UNL     1      -4.416  -2.844  10.103  1.00  0.00     0.016 A 
ATOM     33  C   UNL     1      -2.435  -3.778   9.047  1.00  0.00     0.016 A 
ATOM     34  C   UNL     1      -4.552  -3.986  10.883  1.00  0.00     0.010 A 
ATOM     35  C   UNL     1      -2.567  -4.923   9.842  1.00  0.00     0.010 A 
ATOM     36  C   UNL     1      -3.596  -5.006  10.798  1.00  0.00    -0.014 A 
BRANCH  36  37
ATOM     37  C   UNL     1      -3.590  -6.044  11.855  1.00  0.00     0.031 A 
ATOM     38  C   UNL     1      -2.692  -5.857  13.049  1.00  0.00     0.074 A 
ATOM     39  C   UNL     1      -4.440  -7.084  11.805  1.00  0.00     0.049 A 
ATOM     40  N   UNL     1      -2.611  -6.570  14.144  1.00  0.00    -0.248 NA
ATOM     41  C   UNL     1      -1.770  -4.709  13.007  1.00  0.00     0.031 C 
ATOM     42  C   UNL     1      -5.380  -7.359  10.719  1.00  0.00     0.029 A 
ATOM     43  N   UNL     1      -4.658  -8.094  12.707  1.00  0.00    -0.354 N 
ATOM     44  C   UNL     1      -1.635  -5.956  14.919  1.00  0.00     0.074 A 
ATOM     45  C   UNL     1      -1.129  -4.835  14.159  1.00  0.00     0.031 C 
ATOM     46  C   UNL     1      -6.081  -8.466  11.022  1.00  0.00     0.029 A 
ATOM     47  C   UNL     1      -5.630  -8.980  12.314  1.00  0.00     0.049 A 
ATOM     48  H   UNL     1      -4.164  -8.176  13.554  1.00  0.00     0.167 HD
ATOM     49  C   UNL     1      -1.204  -6.288  16.159  1.00  0.00     0.031 A 
ATOM     50  C   UNL     1      -6.104 -10.079  12.930  1.00  0.00     0.031 A 
ATOM     51  C   UNL     1      -1.695  -7.407  16.917  1.00  0.00     0.049 A 
ATOM     52  C   UNL     1      -5.574 -10.454  14.289  1.00  0.00     0.074 A 
ATOM     53  C   UNL     1      -1.334  -7.812  18.190  1.00  0.00     0.029 A 
ATOM     54  N   UNL     1      -2.650  -8.303  16.465  1.00  0.00    -0.354 N 
ATOM     55  N   UNL     1      -4.687  -9.836  15.030  1.00  0.00    -0.248 NA
ATOM     56  C   UNL     1      -6.128 -11.670  14.900  1.00  0.00     0.031 C 
ATOM     57  C   UNL     1      -2.039  -8.983  18.491  1.00  0.00     0.029 A 
ATOM     58  C   UNL     1      -2.873  -9.276  17.424  1.00  0.00     0.049 A 
ATOM     59  H   UNL     1      -3.103  -8.254  15.592  1.00  0.00     0.167 HD
ATOM     60  C   UNL     1      -4.593 -10.575  16.203  1.00  0.00     0.074 A 
ATOM     61  C   UNL     1      -5.528 -11.675  16.082  1.00  0.00     0.031 C 
ATOM     62  C   UNL     1      -3.803 -10.365  17.284  1.00  0.00     0.031 A 
BRANCH  49  63
ATOM     63  C   UNL     1      -0.122  -5.439  16.762  1.00  0.00    -0.014 A 
ATOM     64  C   UNL     1      -0.396  -4.152  17.251  1.00  0.00     0.009 A 
ATOM     65  C   UNL     1       1.182  -5.947  16.870  1.00  0.00     0.009 A 
ATOM     66  C   UNL     1       0.623  -3.380  17.812  1.00  0.00     0.001 A 
ATOM     67  C   UNL     1       2.193  -5.180  17.452  1.00  0.00     0.001 A 
ATOM     68  C   UNL     1       1.915  -3.895  17.916  1.00  0.00     0.000 A 
ENDBRANCH  49  63
BRANCH  50  69
ATOM     69  C   UNL     1      -7.136 -10.918  12.269  1.00  0.00    -0.014 A 
ATOM     70  C   UNL     1      -8.450 -10.960  12.758  1.00  0.00     0.009 A 
ATOM     71  C   UNL     1      -6.797 -11.707  11.159  1.00  0.00     0.009 A 
ATOM     72  C   UNL     1      -9.397 -11.799  12.166  1.00  0.00     0.001 A 
ATOM     73  C   UNL     1      -7.753 -12.525  10.554  1.00  0.00     0.001 A 
ATOM     74  C   UNL     1      -9.049 -12.578  11.063  1.00  0.00     0.000 A 
ENDBRANCH  50  69
BRANCH  62  75
ATOM     75  C   UNL     1      -3.936 -11.331  18.427  1.00  0.00    -0.014 A 
ATOM     76  C   UNL     1      -3.429 -12.636  18.338  1.00  0.00     0.009 A 
ATOM     77  C   UNL     1      -4.553 -10.919  19.619  1.00  0.00     0.009 A 
ATOM     78  C   UNL     1      -3.573 -13.523  19.407  1.00  0.00     0.001 A 
ATOM     79  C   UNL     1      -4.671 -11.799  20.695  1.00  0.00     0.001 A 
ATOM     80  C   UNL     1      -4.191 -13.103  20.584  1.00  0.00     0.000 A 
ENDBRANCH  62  75
ENDBRANCH  36  37
ENDBRANCH  29  31
ENDBRANCH  28  29
ENDBRANCH  27  28
ENDBRANCH  26  27
ENDBRANCH  25  26
ENDBRANCH   1  25
TORSDOF 19
