REMARK SMILES CC(C)CCC(=O)NCc1ccc(C(=O)OCCOCCOC(=O)c2ccc(-c3c4nc(c(-c5ccccc5)c5ccc([nH]5)c(-c5ccccc5)c5nc(c(-c6ccccc6)c6ccc3[nH]6)C=C5)C=C4)cc2)o1
REMARK SMILES IDX 17 1 16 2 14 3 15 4 13 5 10 6 11 7 73 8 12 9 9 10 8 11 6 12
REMARK SMILES IDX 7 13 5 15 4 16 2 17 1 18 3 19 18 20 19 21 20 22 21 23 22 24
REMARK SMILES IDX 23 25 24 26 25 27 26 28 72 29 27 30 71 31 28 32 29 33 30 34
REMARK SMILES IDX 65 35 31 36 70 37 64 38 66 39 32 40 69 41 63 42 62 43 33 45
REMARK SMILES IDX 55 46 40 47 54 48 41 49 44 50 53 51 67 52 42 53 43 54 52 56
REMARK SMILES IDX 68 57 45 58 34 59 35 60 39 61 36 62 38 63 37 64 56 65 57 66
REMARK SMILES IDX 61 67 58 68 60 69 59 70 46 71 47 72 51 73 48 74 50 75 49 76
REMARK H PARENT 8 14 66 44 44 55
REMARK Flexibility Score: inf
ROOT
ATOM      1  C   UNL     1       7.202   2.658   4.370  1.00  0.00     0.261 C 
ENDROOT
BRANCH   1   2
ATOM      2  O   UNL     1       5.926   2.658   3.710  1.00  0.00    -0.457 OA
BRANCH   2   3
ATOM      3  C   UNL     1       5.653   1.575   2.926  1.00  0.00     0.374 C 
ATOM      4  O   UNL     1       6.496   0.840   2.430  1.00  0.00    -0.242 OA
BRANCH   3   5
ATOM      5  C   UNL     1       4.223   1.358   2.939  1.00  0.00     0.211 A 
ATOM      6  C   UNL     1       2.418   0.091   2.925  1.00  0.00     0.124 A 
ATOM      7  C   UNL     1       2.025   1.331   3.392  1.00  0.00     0.048 A 
ATOM      8  O   UNL     1       3.749   0.109   2.632  1.00  0.00    -0.452 OA
ATOM      9  C   UNL     1       3.172   2.154   3.363  1.00  0.00     0.058 A 
BRANCH   6  10
ATOM     10  C   UNL     1       1.700  -1.182   2.640  1.00  0.00     0.191 C 
BRANCH  10  11
ATOM     11  N   UNL     1       0.414  -1.158   3.303  1.00  0.00    -0.349 N 
ATOM     12  C   UNL     1      -0.822  -0.888   2.810  1.00  0.00     0.220 C 
ATOM     13  O   UNL     1      -1.750  -0.768   3.612  1.00  0.00    -0.275 OA
ATOM     14  H   UNL     1       0.440  -1.369   4.264  1.00  0.00     0.163 HD
BRANCH  12  15
ATOM     15  C   UNL     1      -1.058  -0.749   1.318  1.00  0.00     0.100 C 
BRANCH  15  16
ATOM     16  C   UNL     1      -0.996   0.702   0.821  1.00  0.00     0.013 C 
BRANCH  16  17
ATOM     17  C   UNL     1       0.365   1.132   0.248  1.00  0.00    -0.017 C 
ATOM     18  C   UNL     1       0.730   0.423  -1.054  1.00  0.00     0.007 C 
ATOM     19  C   UNL     1       0.432   2.648   0.063  1.00  0.00     0.007 C 
ENDBRANCH  16  17
ENDBRANCH  15  16
ENDBRANCH  12  15
ENDBRANCH  10  11
ENDBRANCH   6  10
ENDBRANCH   3   5
ENDBRANCH   2   3
ENDBRANCH   1   2
BRANCH   1  20
ATOM     20  C   UNL     1       6.974   2.682   5.888  1.00  0.00     0.202 C 
BRANCH  20  21
ATOM     21  O   UNL     1       6.583   1.426   6.454  1.00  0.00    -0.374 OA
BRANCH  21  22
ATOM     22  C   UNL     1       5.198   1.090   6.373  1.00  0.00     0.202 C 
BRANCH  22  23
ATOM     23  C   UNL     1       4.318   1.617   7.510  1.00  0.00     0.261 C 
BRANCH  23  24
ATOM     24  O   UNL     1       4.246   3.053   7.493  1.00  0.00    -0.460 OA
BRANCH  24  25
ATOM     25  C   UNL     1       4.982   3.662   8.453  1.00  0.00     0.338 C 
ATOM     26  O   UNL     1       5.602   3.131   9.359  1.00  0.00    -0.246 OA
BRANCH  25  27
ATOM     27  C   UNL     1       5.082   5.106   8.168  1.00  0.00     0.060 A 
ATOM     28  C   UNL     1       6.358   5.679   8.220  1.00  0.00     0.016 A 
ATOM     29  C   UNL     1       3.957   5.897   7.924  1.00  0.00     0.016 A 
ATOM     30  C   UNL     1       6.510   7.056   8.082  1.00  0.00     0.010 A 
ATOM     31  C   UNL     1       4.110   7.281   7.790  1.00  0.00     0.010 A 
ATOM     32  C   UNL     1       5.383   7.870   7.905  1.00  0.00    -0.014 A 
BRANCH  32  33
ATOM     33  C   UNL     1       5.531   9.343   7.984  1.00  0.00     0.031 A 
ATOM     34  C   UNL     1       5.195  10.045   9.271  1.00  0.00     0.074 A 
ATOM     35  C   UNL     1       6.001  10.044   6.937  1.00  0.00     0.049 A 
ATOM     36  N   UNL     1       5.261  11.320   9.561  1.00  0.00    -0.248 NA
ATOM     37  C   UNL     1       4.724   9.198  10.379  1.00  0.00     0.031 C 
ATOM     38  C   UNL     1       6.401   9.478   5.650  1.00  0.00     0.029 A 
ATOM     39  N   UNL     1       6.221  11.391   6.798  1.00  0.00    -0.354 N 
ATOM     40  C   UNL     1       4.836  11.428  10.879  1.00  0.00     0.074 A 
ATOM     41  C   UNL     1       4.486  10.096  11.323  1.00  0.00     0.031 C 
ATOM     42  C   UNL     1       6.818  10.474   4.849  1.00  0.00     0.029 A 
ATOM     43  C   UNL     1       6.688  11.746   5.557  1.00  0.00     0.049 A 
ATOM     44  H   UNL     1       6.060  12.041   7.519  1.00  0.00     0.167 HD
ATOM     45  C   UNL     1       4.751  12.535  11.655  1.00  0.00     0.031 A 
ATOM     46  C   UNL     1       6.964  12.960   5.045  1.00  0.00     0.031 A 
ATOM     47  C   UNL     1       5.087  13.862  11.215  1.00  0.00     0.049 A 
ATOM     48  C   UNL     1       6.790  14.184   5.904  1.00  0.00     0.074 A 
ATOM     49  C   UNL     1       5.050  15.044  11.934  1.00  0.00     0.029 A 
ATOM     50  N   UNL     1       5.513  14.184   9.936  1.00  0.00    -0.354 N 
ATOM     51  N   UNL     1       6.417  14.269   7.157  1.00  0.00    -0.248 NA
ATOM     52  C   UNL     1       7.085  15.480   5.275  1.00  0.00     0.031 C 
ATOM     53  C   UNL     1       5.404  16.090  11.075  1.00  0.00     0.029 A 
ATOM     54  C   UNL     1       5.715  15.550   9.837  1.00  0.00     0.049 A 
ATOM     55  H   UNL     1       5.652  13.538   9.207  1.00  0.00     0.167 HD
ATOM     56  C   UNL     1       6.459  15.621   7.475  1.00  0.00     0.074 A 
ATOM     57  C   UNL     1       6.905  16.318   6.287  1.00  0.00     0.031 C 
ATOM     58  C   UNL     1       6.157  16.231   8.648  1.00  0.00     0.031 A 
BRANCH  45  59
ATOM     59  C   UNL     1       4.243  12.356  13.057  1.00  0.00    -0.014 A 
ATOM     60  C   UNL     1       5.029  11.742  14.045  1.00  0.00     0.009 A 
ATOM     61  C   UNL     1       2.969  12.834  13.401  1.00  0.00     0.009 A 
ATOM     62  C   UNL     1       4.535  11.582  15.342  1.00  0.00     0.001 A 
ATOM     63  C   UNL     1       2.489  12.696  14.704  1.00  0.00     0.001 A 
ATOM     64  C   UNL     1       3.268  12.062  15.671  1.00  0.00     0.000 A 
ENDBRANCH  45  59
BRANCH  46  65
ATOM     65  C   UNL     1       7.423  13.087   3.638  1.00  0.00    -0.014 A 
ATOM     66  C   UNL     1       8.742  13.465   3.345  1.00  0.00     0.009 A 
ATOM     67  C   UNL     1       6.533  12.848   2.578  1.00  0.00     0.009 A 
ATOM     68  C   UNL     1       9.154  13.624   2.020  1.00  0.00     0.001 A 
ATOM     69  C   UNL     1       6.955  12.982   1.254  1.00  0.00     0.001 A 
ATOM     70  C   UNL     1       8.262  13.379   0.976  1.00  0.00     0.000 A 
ENDBRANCH  46  65
BRANCH  58  71
ATOM     71  C   UNL     1       6.332  17.722   8.715  1.00  0.00    -0.014 A 
ATOM     72  C   UNL     1       5.439  18.591   8.070  1.00  0.00     0.009 A 
ATOM     73  C   UNL     1       7.382  18.264   9.473  1.00  0.00     0.009 A 
ATOM     74  C   UNL     1       5.613  19.974   8.157  1.00  0.00     0.001 A 
ATOM     75  C   UNL     1       7.537  19.647   9.581  1.00  0.00     0.001 A 
ATOM     76  C   UNL     1       6.658  20.500   8.916  1.00  0.00     0.000 A 
ENDBRANCH  58  71
ENDBRANCH  32  33
ENDBRANCH  25  27
ENDBRANCH  24  25
ENDBRANCH  23  24
ENDBRANCH  22  23
ENDBRANCH  21  22
ENDBRANCH  20  21
ENDBRANCH   1  20
TORSDOF 19
