REMARK SMILES C[C@@H](C(=O)OCCOCCOC(=O)c1ccc(-c2c3nc(c(-c4ccccc4)c4ccc([nH]4)c(-c4ccccc4)c4nc(c(-c5ccccc5)c5ccc2[nH]5)C=C4)C=C3)cc1)c1cc(C(=O)c2ccccc2)ccc1O
REMARK SMILES IDX 7 1 6 2 5 3 3 4 4 5 2 6 1 7 62 8 63 9 75 10 64 11 74 12
REMARK SMILES IDX 73 13 76 14 65 16 66 17 67 18 68 19 72 20 69 21 71 22 70 23
REMARK SMILES IDX 8 24 9 25 10 26 11 27 12 28 13 29 14 30 15 31 61 32 16 33
REMARK SMILES IDX 60 34 17 35 18 36 19 37 54 38 20 39 59 40 53 41 55 42 21 43
REMARK SMILES IDX 58 44 52 45 51 46 22 48 44 49 29 50 43 51 30 52 33 53 42 54
REMARK SMILES IDX 56 55 31 56 32 57 41 59 57 60 34 61 23 62 24 63 28 64 25 65
REMARK SMILES IDX 27 66 26 67 45 68 46 69 50 70 47 71 49 72 48 73 35 74 36 75
REMARK SMILES IDX 40 76 37 77 39 78 38 79
REMARK H PARENT 76 15 55 47 33 58
REMARK Flexibility Score: inf
ROOT
ATOM      1  C   UNL     1       2.671  -3.012  -3.505  1.00  0.00     0.202 C 
ENDROOT
BRANCH   1   2
ATOM      2  C   UNL     1       2.271  -1.596  -3.940  1.00  0.00     0.261 C 
BRANCH   2   3
ATOM      3  O   UNL     1       1.896  -0.795  -2.795  1.00  0.00    -0.463 OA
BRANCH   3   4
ATOM      4  C   UNL     1       0.740  -0.081  -2.913  1.00  0.00     0.313 C 
ATOM      5  O   UNL     1       0.092   0.003  -3.951  1.00  0.00    -0.252 OA
BRANCH   4   6
ATOM      6  C   UNL     1       0.362   0.658  -1.618  1.00  0.00     0.130 C 
ATOM      7  C   UNL     1       1.184   0.288  -0.383  1.00  0.00     0.025 C 
BRANCH   6   8
ATOM      8  C   UNL     1      -1.141   0.582  -1.357  1.00  0.00     0.009 A 
ATOM      9  C   UNL     1      -1.904   1.760  -1.345  1.00  0.00     0.020 A 
ATOM     10  C   UNL     1      -1.831  -0.625  -1.200  1.00  0.00     0.119 A 
ATOM     11  C   UNL     1      -3.304   1.705  -1.256  1.00  0.00     0.023 A 
ATOM     12  C   UNL     1      -3.216  -0.702  -1.236  1.00  0.00     0.047 A 
ATOM     13  C   UNL     1      -3.957   0.468  -1.298  1.00  0.00     0.016 A 
BRANCH  10  14
ATOM     14  O   UNL     1      -1.177  -1.784  -0.931  1.00  0.00    -0.508 OA
ATOM     15  H   UNL     1      -0.241  -1.797  -0.893  1.00  0.00     0.293 HD
ENDBRANCH  10  14
BRANCH  11  16
ATOM     16  C   UNL     1      -4.069   2.973  -1.106  1.00  0.00     0.193 C 
ATOM     17  O   UNL     1      -3.570   4.044  -1.433  1.00  0.00    -0.289 OA
BRANCH  16  18
ATOM     18  C   UNL     1      -5.444   2.949  -0.548  1.00  0.00     0.022 A 
ATOM     19  C   UNL     1      -6.440   3.673  -1.206  1.00  0.00     0.012 A 
ATOM     20  C   UNL     1      -5.758   2.183   0.584  1.00  0.00     0.012 A 
ATOM     21  C   UNL     1      -7.761   3.580  -0.769  1.00  0.00     0.001 A 
ATOM     22  C   UNL     1      -7.082   2.086   1.010  1.00  0.00     0.001 A 
ATOM     23  C   UNL     1      -8.083   2.776   0.327  1.00  0.00     0.000 A 
ENDBRANCH  16  18
ENDBRANCH  11  16
ENDBRANCH   6   8
ENDBRANCH   4   6
ENDBRANCH   3   4
ENDBRANCH   2   3
ENDBRANCH   1   2
BRANCH   1  24
ATOM     24  O   UNL     1       1.605  -3.925  -3.217  1.00  0.00    -0.374 OA
BRANCH  24  25
ATOM     25  C   UNL     1       0.766  -3.586  -2.118  1.00  0.00     0.202 C 
BRANCH  25  26
ATOM     26  C   UNL     1       1.234  -4.043  -0.731  1.00  0.00     0.261 C 
BRANCH  26  27
ATOM     27  O   UNL     1       2.615  -3.744  -0.497  1.00  0.00    -0.460 OA
BRANCH  27  28
ATOM     28  C   UNL     1       3.431  -4.808  -0.672  1.00  0.00     0.338 C 
ATOM     29  O   UNL     1       3.112  -5.979  -0.825  1.00  0.00    -0.246 OA
BRANCH  28  30
ATOM     30  C   UNL     1       4.816  -4.346  -0.830  1.00  0.00     0.060 A 
ATOM     31  C   UNL     1       5.488  -4.745  -1.991  1.00  0.00     0.016 A 
ATOM     32  C   UNL     1       5.461  -3.592   0.152  1.00  0.00     0.016 A 
ATOM     33  C   UNL     1       6.834  -4.443  -2.149  1.00  0.00     0.010 A 
ATOM     34  C   UNL     1       6.817  -3.296  -0.004  1.00  0.00     0.010 A 
ATOM     35  C   UNL     1       7.515  -3.758  -1.134  1.00  0.00    -0.014 A 
BRANCH  35  36
ATOM     36  C   UNL     1       8.991  -3.689  -1.189  1.00  0.00     0.031 A 
ATOM     37  C   UNL     1       9.789  -4.683  -0.393  1.00  0.00     0.074 A 
ATOM     38  C   UNL     1       9.605  -2.796  -1.983  1.00  0.00     0.049 A 
ATOM     39  N   UNL     1      11.086  -4.826  -0.306  1.00  0.00    -0.248 NA
ATOM     40  C   UNL     1       9.021  -5.649   0.411  1.00  0.00     0.031 C 
ATOM     41  C   UNL     1       8.931  -1.821  -2.840  1.00  0.00     0.029 A 
ATOM     42  N   UNL     1      10.940  -2.573  -2.202  1.00  0.00    -0.354 N 
ATOM     43  C   UNL     1      11.289  -5.889   0.565  1.00  0.00     0.074 A 
ATOM     44  C   UNL     1       9.986  -6.336   1.004  1.00  0.00     0.031 C 
ATOM     45  C   UNL     1       9.860  -1.106  -3.498  1.00  0.00     0.029 A 
ATOM     46  C   UNL     1      11.188  -1.551  -3.083  1.00  0.00     0.049 A 
ATOM     47  H   UNL     1      11.652  -3.097  -1.768  1.00  0.00     0.167 HD
ATOM     48  C   UNL     1      12.458  -6.446   0.959  1.00  0.00     0.031 A 
ATOM     49  C   UNL     1      12.358  -1.026  -3.494  1.00  0.00     0.031 A 
ATOM     50  C   UNL     1      13.752  -5.990   0.528  1.00  0.00     0.049 A 
ATOM     51  C   UNL     1      13.645  -1.612  -2.976  1.00  0.00     0.074 A 
ATOM     52  C   UNL     1      14.998  -6.493   0.856  1.00  0.00     0.029 A 
ATOM     53  N   UNL     1      13.963  -4.914  -0.321  1.00  0.00    -0.354 N 
ATOM     54  N   UNL     1      13.825  -2.633  -2.173  1.00  0.00    -0.248 NA
ATOM     55  C   UNL     1      14.889  -0.975  -3.430  1.00  0.00     0.031 C 
ATOM     56  C   UNL     1      15.966  -5.683   0.254  1.00  0.00     0.029 A 
ATOM     57  C   UNL     1      15.321  -4.716  -0.501  1.00  0.00     0.049 A 
ATOM     58  H   UNL     1      13.253  -4.371  -0.733  1.00  0.00     0.167 HD
ATOM     59  C   UNL     1      15.201  -2.779  -2.048  1.00  0.00     0.074 A 
ATOM     60  C   UNL     1      15.807  -1.751  -2.870  1.00  0.00     0.031 C 
ATOM     61  C   UNL     1      15.902  -3.684  -1.322  1.00  0.00     0.031 A 
BRANCH  48  62
ATOM     62  C   UNL     1      12.387  -7.583   1.941  1.00  0.00    -0.014 A 
ATOM     63  C   UNL     1      11.906  -8.848   1.566  1.00  0.00     0.009 A 
ATOM     64  C   UNL     1      12.831  -7.388   3.258  1.00  0.00     0.009 A 
ATOM     65  C   UNL     1      11.841  -9.884   2.501  1.00  0.00     0.001 A 
ATOM     66  C   UNL     1      12.792  -8.434   4.182  1.00  0.00     0.001 A 
ATOM     67  C   UNL     1      12.288  -9.678   3.806  1.00  0.00     0.000 A 
ENDBRANCH  48  62
BRANCH  49  68
ATOM     68  C   UNL     1      12.370   0.125  -4.434  1.00  0.00    -0.014 A 
ATOM     69  C   UNL     1      12.844  -0.025  -5.746  1.00  0.00     0.009 A 
ATOM     70  C   UNL     1      11.920   1.387  -4.016  1.00  0.00     0.009 A 
ATOM     71  C   UNL     1      12.890   1.072  -6.612  1.00  0.00     0.001 A 
ATOM     72  C   UNL     1      11.940   2.475  -4.892  1.00  0.00     0.001 A 
ATOM     73  C   UNL     1      12.433   2.318  -6.186  1.00  0.00     0.000 A 
ENDBRANCH  49  68
BRANCH  61  74
ATOM     74  C   UNL     1      17.401  -3.626  -1.413  1.00  0.00    -0.014 A 
ATOM     75  C   UNL     1      18.131  -2.590  -0.809  1.00  0.00     0.009 A 
ATOM     76  C   UNL     1      18.095  -4.650  -2.077  1.00  0.00     0.009 A 
ATOM     77  C   UNL     1      19.524  -2.563  -0.900  1.00  0.00     0.001 A 
ATOM     78  C   UNL     1      19.489  -4.637  -2.140  1.00  0.00     0.001 A 
ATOM     79  C   UNL     1      20.201  -3.589  -1.560  1.00  0.00     0.000 A 
ENDBRANCH  61  74
ENDBRANCH  35  36
ENDBRANCH  28  30
ENDBRANCH  27  28
ENDBRANCH  26  27
ENDBRANCH  25  26
ENDBRANCH  24  25
ENDBRANCH   1  24
TORSDOF 18
