REMARK SMILES COc1cccc(C[C@H](C(=O)OCCOCCOC(=O)c2ccc(-c3c4nc(c(-c5ccccc5)c5ccc([nH]5)c(-c5ccccc5)c5nc(c(-c6ccccc6)c6ccc3[nH]6)C=C5)C=C4)cc2)[C@H]2CCCCC[C@@H]2O)c1
REMARK SMILES IDX 14 1 13 2 12 3 10 4 11 5 9 6 8 7 7 8 3 9 4 10 77 11 5 12
REMARK SMILES IDX 6 13 2 14 1 15 69 16 70 17 71 18 72 19 75 21 74 22 73 23
REMARK SMILES IDX 76 25 15 27 16 28 17 29 18 30 19 31 20 32 21 33 22 34 68 35
REMARK SMILES IDX 23 36 67 37 24 38 25 39 26 40 61 41 27 42 66 43 60 44 62 45
REMARK SMILES IDX 28 46 65 47 59 48 58 49 29 51 51 52 36 53 50 54 37 55 40 56
REMARK SMILES IDX 49 57 63 58 38 59 39 60 48 62 64 63 41 64 30 65 31 66 35 67
REMARK SMILES IDX 32 68 34 69 33 70 52 71 53 72 57 73 54 74 56 75 55 76 42 77
REMARK SMILES IDX 43 78 47 79 44 80 46 81 45 82
REMARK H PARENT 76 26 62 50 40 61
REMARK Flexibility Score: 100.00
ROOT
ATOM      1  C   UNL     1       2.032   0.159  -4.118  1.00  0.00     0.202 C 
ENDROOT
BRANCH   1   2
ATOM      2  C   UNL     1       3.267  -0.316  -3.333  1.00  0.00     0.261 C 
BRANCH   2   3
ATOM      3  O   UNL     1       3.844  -1.461  -3.996  1.00  0.00    -0.463 OA
BRANCH   3   4
ATOM      4  C   UNL     1       4.642  -2.271  -3.241  1.00  0.00     0.309 C 
ATOM      5  O   UNL     1       5.010  -2.019  -2.104  1.00  0.00    -0.252 OA
BRANCH   4   6
ATOM      6  C   UNL     1       5.012  -3.550  -4.012  1.00  0.00     0.109 C 
BRANCH   6   7
ATOM      7  C   UNL     1       3.686  -4.168  -4.512  1.00  0.00     0.051 C 
BRANCH   7   8
ATOM      8  C   UNL     1       3.411  -5.658  -4.560  1.00  0.00    -0.043 A 
ATOM      9  C   UNL     1       1.710  -7.406  -4.830  1.00  0.00     0.119 A 
ATOM     10  C   UNL     1       2.674  -8.370  -4.552  1.00  0.00     0.046 A 
ATOM     11  C   UNL     1       2.082  -6.061  -4.841  1.00  0.00     0.050 A 
ATOM     12  C   UNL     1       3.992  -7.995  -4.293  1.00  0.00     0.004 A 
ATOM     13  C   UNL     1       4.356  -6.645  -4.282  1.00  0.00     0.004 A 
BRANCH   9  14
ATOM     14  O   UNL     1       0.441  -7.886  -5.003  1.00  0.00    -0.497 OA
ATOM     15  C   UNL     1      -0.435  -7.101  -5.802  1.00  0.00     0.278 C 
ENDBRANCH   9  14
ENDBRANCH   7   8
ENDBRANCH   6   7
BRANCH   6  16
ATOM     16  C   UNL     1       6.223  -3.274  -4.974  1.00  0.00     0.032 C 
BRANCH  16  17
ATOM     17  C   UNL     1       6.663  -4.434  -5.897  1.00  0.00     0.007 C 
BRANCH  17  18
ATOM     18  C   UNL     1       5.744  -4.833  -7.047  1.00  0.00     0.000 C 
BRANCH  18  19
ATOM     19  C   UNL     1       5.746  -3.974  -8.307  1.00  0.00     0.000 CG0
ATOM     20  G   UNL     1       6.105  -2.504  -8.179  1.00  0.00     0.000 G0
ENDBRANCH  18  19
ENDBRANCH  17  18
ENDBRANCH  16  17
BRANCH  16  21
ATOM     21  C   UNL     1       6.273  -1.902  -5.691  1.00  0.00     0.118 C 
BRANCH  21  22
ATOM     22  C   UNL     1       5.476  -1.781  -6.990  1.00  0.00     0.032 C 
BRANCH  22  23
ATOM     23  C   UNL     1       6.105  -2.504  -8.179  1.00  0.00     0.003 CG0
ATOM     24  G   UNL     1       5.746  -3.974  -8.307  1.00  0.00     0.000 G0
ENDBRANCH  22  23
ENDBRANCH  21  22
BRANCH  21  25
ATOM     25  O   UNL     1       7.654  -1.606  -5.954  1.00  0.00    -0.393 OA
ATOM     26  H   UNL     1       8.018  -2.273  -6.556  1.00  0.00     0.210 HD
ENDBRANCH  21  25
ENDBRANCH  16  21
ENDBRANCH   6  16
ENDBRANCH   4   6
ENDBRANCH   3   4
ENDBRANCH   2   3
ENDBRANCH   1   2
BRANCH   1  27
ATOM     27  O   UNL     1       0.833  -0.601  -3.903  1.00  0.00    -0.374 OA
BRANCH  27  28
ATOM     28  C   UNL     1       0.842  -1.940  -4.387  1.00  0.00     0.202 C 
BRANCH  28  29
ATOM     29  C   UNL     1       0.349  -2.150  -5.821  1.00  0.00     0.261 C 
BRANCH  29  30
ATOM     30  O   UNL     1       1.011  -1.271  -6.739  1.00  0.00    -0.460 OA
BRANCH  30  31
ATOM     31  C   UNL     1       0.263  -0.193  -7.072  1.00  0.00     0.338 C 
ATOM     32  O   UNL     1      -0.906   0.013  -6.793  1.00  0.00    -0.246 OA
BRANCH  31  33
ATOM     33  C   UNL     1       1.099   0.822  -7.730  1.00  0.00     0.060 A 
ATOM     34  C   UNL     1       0.957   2.138  -7.277  1.00  0.00     0.016 A 
ATOM     35  C   UNL     1       1.923   0.523  -8.819  1.00  0.00     0.016 A 
ATOM     36  C   UNL     1       1.573   3.176  -7.964  1.00  0.00     0.010 A 
ATOM     37  C   UNL     1       2.540   1.569  -9.511  1.00  0.00     0.010 A 
ATOM     38  C   UNL     1       2.324   2.901  -9.114  1.00  0.00    -0.014 A 
BRANCH  38  39
ATOM     39  C   UNL     1       2.715   4.030  -9.989  1.00  0.00     0.031 A 
ATOM     40  C   UNL     1       1.858   4.348 -11.184  1.00  0.00     0.074 A 
ATOM     41  C   UNL     1       3.763   4.810  -9.673  1.00  0.00     0.049 A 
ATOM     42  N   UNL     1       1.987   5.308 -12.064  1.00  0.00    -0.248 NA
ATOM     43  C   UNL     1       0.694   3.475 -11.413  1.00  0.00     0.031 C 
ATOM     44  C   UNL     1       4.629   4.633  -8.508  1.00  0.00     0.029 A 
ATOM     45  N   UNL     1       4.266   5.918 -10.304  1.00  0.00    -0.354 N 
ATOM     46  C   UNL     1       0.920   5.160 -12.941  1.00  0.00     0.074 A 
ATOM     47  C   UNL     1       0.174   3.997 -12.514  1.00  0.00     0.031 C 
ATOM     48  C   UNL     1       5.561   5.602  -8.509  1.00  0.00     0.029 A 
ATOM     49  C   UNL     1       5.372   6.447  -9.686  1.00  0.00     0.049 A 
ATOM     50  H   UNL     1       3.872   6.298 -11.122  1.00  0.00     0.167 HD
ATOM     51  C   UNL     1       0.581   5.932 -14.000  1.00  0.00     0.031 A 
ATOM     52  C   UNL     1       6.149   7.487 -10.041  1.00  0.00     0.031 A 
ATOM     53  C   UNL     1       1.332   7.077 -14.436  1.00  0.00     0.049 A 
ATOM     54  C   UNL     1       5.802   8.274 -11.276  1.00  0.00     0.074 A 
ATOM     55  C   UNL     1       1.089   7.910 -15.514  1.00  0.00     0.029 A 
ATOM     56  N   UNL     1       2.476   7.549 -13.813  1.00  0.00    -0.354 N 
ATOM     57  N   UNL     1       4.789   8.124 -12.095  1.00  0.00    -0.248 NA
ATOM     58  C   UNL     1       6.701   9.382 -11.629  1.00  0.00     0.031 C 
ATOM     59  C   UNL     1       2.112   8.863 -15.566  1.00  0.00     0.029 A 
ATOM     60  C   UNL     1       2.960   8.653 -14.491  1.00  0.00     0.049 A 
ATOM     61  H   UNL     1       2.884   7.157 -13.007  1.00  0.00     0.167 HD
ATOM     62  C   UNL     1       4.915   9.133 -13.042  1.00  0.00     0.074 A 
ATOM     63  C   UNL     1       6.091   9.899 -12.686  1.00  0.00     0.031 C 
ATOM     64  C   UNL     1       4.129   9.402 -14.113  1.00  0.00     0.031 A 
BRANCH  51  65
ATOM     65  C   UNL     1      -0.651   5.549 -14.770  1.00  0.00    -0.014 A 
ATOM     66  C   UNL     1      -1.932   5.767 -14.239  1.00  0.00     0.009 A 
ATOM     67  C   UNL     1      -0.531   4.999 -16.055  1.00  0.00     0.009 A 
ATOM     68  C   UNL     1      -3.069   5.419 -14.972  1.00  0.00     0.001 A 
ATOM     69  C   UNL     1      -1.670   4.674 -16.795  1.00  0.00     0.001 A 
ATOM     70  C   UNL     1      -2.937   4.878 -16.250  1.00  0.00     0.000 A 
ENDBRANCH  51  65
BRANCH  52  71
ATOM     71  C   UNL     1       7.352   7.831  -9.239  1.00  0.00    -0.014 A 
ATOM     72  C   UNL     1       7.417   9.029  -8.511  1.00  0.00     0.009 A 
ATOM     73  C   UNL     1       8.464   6.974  -9.232  1.00  0.00     0.009 A 
ATOM     74  C   UNL     1       8.581   9.375  -7.820  1.00  0.00     0.001 A 
ATOM     75  C   UNL     1       9.615   7.308  -8.517  1.00  0.00     0.001 A 
ATOM     76  C   UNL     1       9.678   8.514  -7.822  1.00  0.00     0.000 A 
ENDBRANCH  52  71
BRANCH  64  77
ATOM     77  C   UNL     1       4.495  10.595 -14.949  1.00  0.00    -0.014 A 
ATOM     78  C   UNL     1       5.603  10.569 -15.809  1.00  0.00     0.009 A 
ATOM     79  C   UNL     1       3.695  11.748 -14.901  1.00  0.00     0.009 A 
ATOM     80  C   UNL     1       5.922  11.688 -16.581  1.00  0.00     0.001 A 
ATOM     81  C   UNL     1       4.000  12.854 -15.694  1.00  0.00     0.001 A 
ATOM     82  C   UNL     1       5.119  12.827 -16.526  1.00  0.00     0.000 A 
ENDBRANCH  64  77
ENDBRANCH  38  39
ENDBRANCH  31  33
ENDBRANCH  30  31
ENDBRANCH  29  30
ENDBRANCH  28  29
ENDBRANCH  27  28
ENDBRANCH   1  27
TORSDOF 19
