REMARK SMILES COc1ccc(-c2[nH]nc3nc(-c4ccc(C(F)(F)F)cc4)cc(C(=O)OCCOCCOC(=O)c4ccc(-c5c6nc(c(-c7ccccc7)c7ccc([nH]7)c(-c7ccccc7)c7nc(c(-c8ccccc8)c8ccc5[nH]8)C=C7)C=C6)cc4)c23)cc1
REMARK SMILES IDX 30 1 29 2 28 3 27 4 25 5 26 6 24 7 7 8 8 9 84 10 9 11 10 13
REMARK SMILES IDX 11 14 23 15 12 16 6 17 3 18 4 19 86 20 5 21 85 22 2 23 1 24
REMARK SMILES IDX 13 25 14 26 22 27 15 28 21 29 16 30 17 31 18 32 19 33 20 34
REMARK SMILES IDX 31 35 32 36 33 37 34 38 35 39 36 40 37 41 83 42 38 43 82 44
REMARK SMILES IDX 39 45 40 46 41 47 76 48 42 49 81 50 75 51 77 52 43 53 80 54
REMARK SMILES IDX 74 55 73 56 44 58 66 59 51 60 65 61 52 62 55 63 64 64 78 65
REMARK SMILES IDX 53 66 54 67 63 69 79 70 56 71 45 72 46 73 50 74 47 75 49 76
REMARK SMILES IDX 48 77 67 78 68 79 72 80 69 81 71 82 70 83 57 84 58 85 62 86
REMARK SMILES IDX 59 87 61 88 60 89
REMARK H PARENT 8 12 77 57 55 68
REMARK Flexibility Score: inf
ROOT
ATOM      1  O   UNL     1       3.782  -0.965   3.524  1.00  0.00    -0.374 OA
ENDROOT
BRANCH   1   2
ATOM      2  C   UNL     1       4.144  -0.249   4.707  1.00  0.00     0.202 C 
BRANCH   2   3
ATOM      3  C   UNL     1       3.459  -0.761   5.977  1.00  0.00     0.261 C 
BRANCH   3   4
ATOM      4  O   UNL     1       3.710  -2.170   6.156  1.00  0.00    -0.460 OA
BRANCH   4   5
ATOM      5  C   UNL     1       2.666  -2.994   5.870  1.00  0.00     0.339 C 
ATOM      6  O   UNL     1       1.501  -2.673   5.753  1.00  0.00    -0.246 OA
BRANCH   5   7
ATOM      7  C   UNL     1       3.172  -4.365   5.692  1.00  0.00     0.075 A 
ATOM      8  C   UNL     1       1.806  -5.256   3.738  1.00  0.00     0.075 A 
ATOM      9  N   UNL     1       1.655  -6.557   3.312  1.00  0.00    -0.275 N 
ATOM     10  C   UNL     1       2.667  -5.349   4.826  1.00  0.00     0.061 A 
ATOM     11  N   UNL     1       2.474  -7.440   3.902  1.00  0.00    -0.154 NA
ATOM     12  H   UNL     1       0.997  -6.818   2.628  1.00  0.00     0.190 HD
ATOM     13  C   UNL     1       3.123  -6.712   4.808  1.00  0.00     0.182 A 
ATOM     14  N   UNL     1       4.120  -7.163   5.608  1.00  0.00    -0.226 NA
ATOM     15  C   UNL     1       4.226  -4.861   6.485  1.00  0.00     0.045 A 
ATOM     16  C   UNL     1       4.648  -6.213   6.430  1.00  0.00     0.074 A 
BRANCH   8  17
ATOM     17  C   UNL     1       1.258  -4.162   2.936  1.00  0.00     0.001 A 
ATOM     18  C   UNL     1       0.457  -1.870   1.499  1.00  0.00     0.118 A 
ATOM     19  C   UNL     1      -0.279  -2.325   2.597  1.00  0.00     0.047 A 
ATOM     20  C   UNL     1       1.547  -2.617   1.063  1.00  0.00     0.047 A 
ATOM     21  C   UNL     1       0.115  -3.463   3.313  1.00  0.00     0.014 A 
ATOM     22  C   UNL     1       1.923  -3.773   1.760  1.00  0.00     0.014 A 
BRANCH  18  23
ATOM     23  O   UNL     1       0.017  -0.697   0.951  1.00  0.00    -0.497 OA
ATOM     24  C   UNL     1       0.853  -0.085  -0.026  1.00  0.00     0.278 C 
ENDBRANCH  18  23
ENDBRANCH   8  17
BRANCH  16  25
ATOM     25  C   UNL     1       5.703  -6.710   7.346  1.00  0.00     0.000 A 
ATOM     26  C   UNL     1       6.673  -7.636   6.920  1.00  0.00     0.011 A 
ATOM     27  C   UNL     1       5.747  -6.303   8.691  1.00  0.00     0.011 A 
ATOM     28  C   UNL     1       7.642  -8.135   7.803  1.00  0.00     0.014 A 
ATOM     29  C   UNL     1       6.710  -6.800   9.576  1.00  0.00     0.014 A 
ATOM     30  C   UNL     1       7.666  -7.726   9.143  1.00  0.00     0.056 A 
BRANCH  30  31
ATOM     31  C   UNL     1       8.689  -8.291  10.099  1.00  0.00     0.416 C 
ATOM     32  F   UNL     1       8.600  -9.643  10.225  1.00  0.00    -0.166 F 
ATOM     33  F   UNL     1       9.967  -8.033   9.706  1.00  0.00    -0.166 F 
ATOM     34  F   UNL     1       8.583  -7.792  11.364  1.00  0.00    -0.166 F 
ENDBRANCH  30  31
ENDBRANCH  16  25
ENDBRANCH   5   7
ENDBRANCH   4   5
ENDBRANCH   3   4
ENDBRANCH   2   3
ENDBRANCH   1   2
BRANCH   1  35
ATOM     35  C   UNL     1       4.384  -2.250   3.401  1.00  0.00     0.202 C 
BRANCH  35  36
ATOM     36  C   UNL     1       5.143  -2.420   2.096  1.00  0.00     0.261 C 
BRANCH  36  37
ATOM     37  O   UNL     1       6.483  -2.020   2.337  1.00  0.00    -0.460 OA
BRANCH  37  38
ATOM     38  C   UNL     1       6.636  -0.711   2.639  1.00  0.00     0.338 C 
ATOM     39  O   UNL     1       5.978   0.237   2.250  1.00  0.00    -0.246 OA
BRANCH  38  40
ATOM     40  C   UNL     1       7.857  -0.639   3.443  1.00  0.00     0.060 A 
ATOM     41  C   UNL     1       8.722   0.367   3.039  1.00  0.00     0.016 A 
ATOM     42  C   UNL     1       8.284  -1.798   4.116  1.00  0.00     0.016 A 
ATOM     43  C   UNL     1      10.043   0.024   2.937  1.00  0.00     0.010 A 
ATOM     44  C   UNL     1       9.603  -2.143   3.999  1.00  0.00     0.010 A 
ATOM     45  C   UNL     1      10.430  -1.276   3.295  1.00  0.00    -0.014 A 
BRANCH  45  46
ATOM     46  C   UNL     1      11.791  -1.657   3.023  1.00  0.00     0.031 A 
ATOM     47  C   UNL     1      12.701  -1.051   4.006  1.00  0.00     0.074 A 
ATOM     48  C   UNL     1      12.153  -2.490   2.032  1.00  0.00     0.049 A 
ATOM     49  N   UNL     1      13.415   0.009   3.839  1.00  0.00    -0.248 NA
ATOM     50  C   UNL     1      12.585  -1.502   5.403  1.00  0.00     0.031 C 
ATOM     51  C   UNL     1      11.319  -3.338   1.179  1.00  0.00     0.029 A 
ATOM     52  N   UNL     1      13.410  -2.814   1.643  1.00  0.00    -0.354 N 
ATOM     53  C   UNL     1      14.023   0.222   5.065  1.00  0.00     0.074 A 
ATOM     54  C   UNL     1      13.278  -0.550   6.026  1.00  0.00     0.031 C 
ATOM     55  C   UNL     1      12.107  -4.250   0.558  1.00  0.00     0.029 A 
ATOM     56  C   UNL     1      13.499  -3.958   0.865  1.00  0.00     0.049 A 
ATOM     57  H   UNL     1      14.198  -2.280   1.892  1.00  0.00     0.167 HD
ATOM     58  C   UNL     1      15.285   0.722   5.133  1.00  0.00     0.031 A 
ATOM     59  C   UNL     1      14.640  -4.637   0.580  1.00  0.00     0.031 A 
ATOM     60  C   UNL     1      15.681   1.326   3.885  1.00  0.00     0.049 A 
ATOM     61  C   UNL     1      15.778  -3.715   0.828  1.00  0.00     0.074 A 
ATOM     62  C   UNL     1      15.213   2.372   3.115  1.00  0.00     0.029 A 
ATOM     63  N   UNL     1      16.464   0.559   3.051  1.00  0.00    -0.354 N 
ATOM     64  N   UNL     1      16.002  -2.654   0.104  1.00  0.00    -0.248 NA
ATOM     65  C   UNL     1      16.360  -3.690   2.163  1.00  0.00     0.031 C 
ATOM     66  C   UNL     1      15.367   1.939   1.766  1.00  0.00     0.029 A 
ATOM     67  C   UNL     1      15.985   0.687   1.774  1.00  0.00     0.049 A 
ATOM     68  H   UNL     1      17.235   0.013   3.326  1.00  0.00     0.167 HD
ATOM     69  C   UNL     1      16.347  -1.667   1.018  1.00  0.00     0.074 A 
ATOM     70  C   UNL     1      16.640  -2.386   2.259  1.00  0.00     0.031 C 
ATOM     71  C   UNL     1      16.071  -0.352   0.769  1.00  0.00     0.031 A 
BRANCH  58  72
ATOM     72  C   UNL     1      16.291   0.216   6.136  1.00  0.00    -0.014 A 
ATOM     73  C   UNL     1      17.575   0.782   6.131  1.00  0.00     0.009 A 
ATOM     74  C   UNL     1      16.128  -0.971   6.880  1.00  0.00     0.009 A 
ATOM     75  C   UNL     1      18.649   0.147   6.763  1.00  0.00     0.001 A 
ATOM     76  C   UNL     1      17.187  -1.586   7.547  1.00  0.00     0.001 A 
ATOM     77  C   UNL     1      18.456  -1.041   7.462  1.00  0.00     0.000 A 
ENDBRANCH  58  72
BRANCH  59  78
ATOM     78  C   UNL     1      14.823  -6.103   0.460  1.00  0.00    -0.014 A 
ATOM     79  C   UNL     1      15.980  -6.648  -0.119  1.00  0.00     0.009 A 
ATOM     80  C   UNL     1      13.976  -6.977   1.167  1.00  0.00     0.009 A 
ATOM     81  C   UNL     1      16.288  -8.010   0.026  1.00  0.00     0.001 A 
ATOM     82  C   UNL     1      14.283  -8.335   1.313  1.00  0.00     0.001 A 
ATOM     83  C   UNL     1      15.445  -8.850   0.752  1.00  0.00     0.000 A 
ENDBRANCH  59  78
BRANCH  71  84
ATOM     84  C   UNL     1      15.590   0.016  -0.615  1.00  0.00    -0.014 A 
ATOM     85  C   UNL     1      14.378  -0.447  -1.161  1.00  0.00     0.009 A 
ATOM     86  C   UNL     1      16.308   0.989  -1.324  1.00  0.00     0.009 A 
ATOM     87  C   UNL     1      13.915   0.036  -2.391  1.00  0.00     0.001 A 
ATOM     88  C   UNL     1      15.836   1.485  -2.541  1.00  0.00     0.001 A 
ATOM     89  C   UNL     1      14.643   1.006  -3.076  1.00  0.00     0.000 A 
ENDBRANCH  71  84
ENDBRANCH  45  46
ENDBRANCH  38  40
ENDBRANCH  37  38
ENDBRANCH  36  37
ENDBRANCH  35  36
ENDBRANCH   1  35
TORSDOF 18
