REMARK SMILES Cc1cc2[nH]ccc2nc1C(=O)OCCOCCOC(=O)c1ccc(-c2c3nc(c(-c4ccccc4)c4ccc([nH]4)c(-c4ccccc4)c4nc(c(-c5ccccc5)c5ccc2[nH]5)C=C4)C=C3)cc1
REMARK SMILES IDX 17 1 16 2 15 3 14 4 13 5 11 6 12 7 10 8 1 9 2 10 3 11 4 12
REMARK SMILES IDX 9 13 5 14 8 15 6 16 7 18 18 19 19 20 20 21 21 22 22 23 23 24
REMARK SMILES IDX 69 25 24 26 68 27 25 28 26 29 27 30 62 31 28 32 67 33 61 34
REMARK SMILES IDX 63 35 29 36 66 37 60 38 59 39 30 41 52 42 37 43 51 44 38 45
REMARK SMILES IDX 41 46 50 47 64 48 39 49 40 50 49 52 65 53 42 54 31 55 32 56
REMARK SMILES IDX 36 57 33 58 35 59 34 60 53 61 54 62 58 63 55 64 57 65 56 66
REMARK SMILES IDX 43 67 44 68 48 69 45 70 47 71 46 72
REMARK H PARENT 5 17 63 40 41 51
REMARK Flexibility Score: inf
ROOT
ATOM      1  C   UNL     1      -1.483  -0.686  -4.171  1.00  0.00     0.202 C 
ENDROOT
BRANCH   1   2
ATOM      2  O   UNL     1      -2.272   0.496  -4.255  1.00  0.00    -0.374 OA
BRANCH   2   3
ATOM      3  C   UNL     1      -1.973   1.606  -3.407  1.00  0.00     0.202 C 
BRANCH   3   4
ATOM      4  C   UNL     1      -2.187   1.419  -1.905  1.00  0.00     0.261 C 
BRANCH   4   5
ATOM      5  O   UNL     1      -1.233   0.488  -1.361  1.00  0.00    -0.459 OA
BRANCH   5   6
ATOM      6  C   UNL     1      -1.772  -0.611  -0.771  1.00  0.00     0.357 C 
ATOM      7  O   UNL     1      -2.962  -0.791  -0.564  1.00  0.00    -0.244 OA
BRANCH   6   8
ATOM      8  C   UNL     1      -0.730  -1.668  -0.540  1.00  0.00     0.152 A 
ATOM      9  C   UNL     1       1.062  -0.019   0.253  1.00  0.00     0.047 C 
ATOM     10  C   UNL     1       0.539  -1.403   0.001  1.00  0.00    -0.016 A 
ATOM     11  C   UNL     1       1.351  -2.498   0.345  1.00  0.00     0.034 A 
ATOM     12  C   UNL     1       0.853  -3.767   0.056  1.00  0.00     0.064 A 
ATOM     13  N   UNL     1      -1.194  -2.905  -0.866  1.00  0.00    -0.239 NA
ATOM     14  N   UNL     1       1.361  -5.026   0.278  1.00  0.00    -0.360 N 
ATOM     15  C   UNL     1      -0.377  -3.933  -0.567  1.00  0.00     0.089 A 
ATOM     16  C   UNL     1       0.521  -5.971  -0.258  1.00  0.00     0.085 A 
ATOM     17  H   UNL     1       2.202  -5.221   0.750  1.00  0.00     0.166 HD
ATOM     18  C   UNL     1      -0.564  -5.315  -0.796  1.00  0.00     0.048 A 
ENDBRANCH   6   8
ENDBRANCH   5   6
ENDBRANCH   4   5
ENDBRANCH   3   4
ENDBRANCH   2   3
ENDBRANCH   1   2
BRANCH   1  19
ATOM     19  C   UNL     1      -0.089  -0.644  -4.782  1.00  0.00     0.261 C 
BRANCH  19  20
ATOM     20  O   UNL     1       0.731   0.364  -4.207  1.00  0.00    -0.460 OA
BRANCH  20  21
ATOM     21  C   UNL     1       0.811   1.488  -4.956  1.00  0.00     0.338 C 
ATOM     22  O   UNL     1       0.101   1.813  -5.889  1.00  0.00    -0.246 OA
BRANCH  21  23
ATOM     23  C   UNL     1       2.012   2.230  -4.562  1.00  0.00     0.060 A 
ATOM     24  C   UNL     1       2.229   3.449  -5.208  1.00  0.00     0.016 A 
ATOM     25  C   UNL     1       3.017   1.583  -3.829  1.00  0.00     0.016 A 
ATOM     26  C   UNL     1       3.523   3.904  -5.314  1.00  0.00     0.010 A 
ATOM     27  C   UNL     1       4.309   2.032  -3.945  1.00  0.00     0.010 A 
ATOM     28  C   UNL     1       4.550   3.128  -4.766  1.00  0.00    -0.014 A 
BRANCH  28  29
ATOM     29  C   UNL     1       5.910   3.526  -5.039  1.00  0.00     0.031 A 
ATOM     30  C   UNL     1       6.322   4.722  -4.280  1.00  0.00     0.074 A 
ATOM     31  C   UNL     1       6.723   2.818  -5.844  1.00  0.00     0.049 A 
ATOM     32  N   UNL     1       6.561   5.901  -4.744  1.00  0.00    -0.248 NA
ATOM     33  C   UNL     1       6.296   4.635  -2.811  1.00  0.00     0.031 C 
ATOM     34  C   UNL     1       6.515   1.484  -6.413  1.00  0.00     0.029 A 
ATOM     35  N   UNL     1       7.985   3.123  -6.236  1.00  0.00    -0.354 N 
ATOM     36  C   UNL     1       6.901   6.669  -3.639  1.00  0.00     0.074 A 
ATOM     37  C   UNL     1       6.543   5.900  -2.475  1.00  0.00     0.031 C 
ATOM     38  C   UNL     1       7.700   1.004  -6.860  1.00  0.00     0.029 A 
ATOM     39  C   UNL     1       8.704   2.049  -6.741  1.00  0.00     0.049 A 
ATOM     40  H   UNL     1       8.360   4.031  -6.168  1.00  0.00     0.167 HD
ATOM     41  C   UNL     1       7.695   7.765  -3.758  1.00  0.00     0.031 A 
ATOM     42  C   UNL     1      10.044   2.025  -6.953  1.00  0.00     0.031 A 
ATOM     43  C   UNL     1       7.774   8.227  -5.119  1.00  0.00     0.049 A 
ATOM     44  C   UNL     1      10.503   3.434  -7.024  1.00  0.00     0.074 A 
ATOM     45  C   UNL     1       6.862   8.710  -6.036  1.00  0.00     0.029 A 
ATOM     46  N   UNL     1       8.877   7.846  -5.846  1.00  0.00    -0.354 N 
ATOM     47  N   UNL     1      10.170   4.252  -7.980  1.00  0.00    -0.248 NA
ATOM     48  C   UNL     1      10.963   4.063  -5.796  1.00  0.00     0.031 C 
ATOM     49  C   UNL     1       7.273   8.164  -7.288  1.00  0.00     0.029 A 
ATOM     50  C   UNL     1       8.443   7.432  -7.079  1.00  0.00     0.049 A 
ATOM     51  H   UNL     1       9.811   7.866  -5.536  1.00  0.00     0.167 HD
ATOM     52  C   UNL     1       9.955   5.468  -7.346  1.00  0.00     0.074 A 
ATOM     53  C   UNL     1      10.550   5.313  -6.019  1.00  0.00     0.031 C 
ATOM     54  C   UNL     1       9.068   6.377  -7.848  1.00  0.00     0.031 A 
BRANCH  41  55
ATOM     55  C   UNL     1       8.718   8.134  -2.717  1.00  0.00    -0.014 A 
ATOM     56  C   UNL     1       9.445   9.324  -2.873  1.00  0.00     0.009 A 
ATOM     57  C   UNL     1       9.183   7.227  -1.742  1.00  0.00     0.009 A 
ATOM     58  C   UNL     1      10.605   9.566  -2.127  1.00  0.00     0.001 A 
ATOM     59  C   UNL     1      10.314   7.484  -0.967  1.00  0.00     0.001 A 
ATOM     60  C   UNL     1      11.040   8.645  -1.178  1.00  0.00     0.000 A 
ENDBRANCH  41  55
BRANCH  42  61
ATOM     61  C   UNL     1      10.990   0.917  -6.675  1.00  0.00    -0.014 A 
ATOM     62  C   UNL     1      12.326   1.005  -7.105  1.00  0.00     0.009 A 
ATOM     63  C   UNL     1      10.675  -0.072  -5.726  1.00  0.00     0.009 A 
ATOM     64  C   UNL     1      13.317   0.179  -6.557  1.00  0.00     0.001 A 
ATOM     65  C   UNL     1      11.664  -0.900  -5.184  1.00  0.00     0.001 A 
ATOM     66  C   UNL     1      12.988  -0.760  -5.583  1.00  0.00     0.000 A 
ENDBRANCH  42  61
BRANCH  54  67
ATOM     67  C   UNL     1       8.505   6.127  -9.228  1.00  0.00    -0.014 A 
ATOM     68  C   UNL     1       7.717   5.006  -9.549  1.00  0.00     0.009 A 
ATOM     69  C   UNL     1       8.646   7.136 -10.191  1.00  0.00     0.009 A 
ATOM     70  C   UNL     1       7.109   4.894 -10.805  1.00  0.00     0.001 A 
ATOM     71  C   UNL     1       8.022   7.034 -11.436  1.00  0.00     0.001 A 
ATOM     72  C   UNL     1       7.256   5.912 -11.745  1.00  0.00     0.000 A 
ENDBRANCH  54  67
ENDBRANCH  28  29
ENDBRANCH  21  23
ENDBRANCH  20  21
ENDBRANCH  19  20
ENDBRANCH   1  19
TORSDOF 14
