REMARK SMILES CC(C)(C#N)Nc1ccccc1C(=O)OCCOCCOC(=O)c1ccc(-c2c3nc(c(-c4ccccc4)c4ccc([nH]4)c(-c4ccccc4)c4nc(c(-c5ccccc5)c5ccc2[nH]5)C=C4)C=C3)cc1
REMARK SMILES IDX 17 1 16 2 15 3 13 4 14 5 12 6 7 7 8 8 9 9 11 10 10 11 6 12
REMARK SMILES IDX 2 14 1 15 3 16 4 17 5 18 18 19 19 20 20 21 21 22 22 23 23 24
REMARK SMILES IDX 24 25 25 26 71 27 26 28 70 29 27 30 28 31 29 32 64 33 30 34
REMARK SMILES IDX 69 35 63 36 65 37 31 38 68 39 62 40 61 41 32 43 54 44 39 45
REMARK SMILES IDX 53 46 40 47 43 48 52 49 66 50 41 51 42 52 51 54 67 55 44 56
REMARK SMILES IDX 33 57 34 58 38 59 35 60 37 61 36 62 55 63 56 64 60 65 57 66
REMARK SMILES IDX 59 67 58 68 45 69 46 70 50 71 47 72 49 73 48 74
REMARK H PARENT 6 13 65 42 43 53
REMARK Flexibility Score: inf
ROOT
ATOM      1  C   UNL     1      -4.479   0.968   1.448  1.00  0.00     0.202 C 
ENDROOT
BRANCH   1   2
ATOM      2  C   UNL     1      -3.500  -0.201   1.472  1.00  0.00     0.261 C 
BRANCH   2   3
ATOM      3  O   UNL     1      -2.964  -0.462   0.163  1.00  0.00    -0.460 OA
BRANCH   3   4
ATOM      4  C   UNL     1      -3.042  -1.745  -0.254  1.00  0.00     0.340 C 
ATOM      5  O   UNL     1      -3.547  -2.666   0.372  1.00  0.00    -0.246 OA
BRANCH   4   6
ATOM      6  C   UNL     1      -2.548  -1.911  -1.640  1.00  0.00     0.083 A 
ATOM      7  C   UNL     1      -1.413  -1.323  -2.232  1.00  0.00     0.050 A 
ATOM      8  C   UNL     1      -1.166  -1.700  -3.580  1.00  0.00     0.026 A 
ATOM      9  C   UNL     1      -1.986  -2.567  -4.310  1.00  0.00     0.002 A 
ATOM     10  C   UNL     1      -3.392  -2.768  -2.397  1.00  0.00     0.018 A 
ATOM     11  C   UNL     1      -3.117  -3.094  -3.719  1.00  0.00     0.001 A 
BRANCH   7  12
ATOM     12  N   UNL     1      -0.447  -0.488  -1.710  1.00  0.00    -0.367 N 
ATOM     13  H   UNL     1      -0.046   0.080  -2.407  1.00  0.00     0.162 HD
BRANCH  12  14
ATOM     14  C   UNL     1       0.145  -0.220  -0.387  1.00  0.00     0.119 C 
ATOM     15  C   UNL     1      -0.396   1.127   0.129  1.00  0.00     0.051 C 
ATOM     16  C   UNL     1       0.007  -1.371   0.614  1.00  0.00     0.051 C 
BRANCH  14  17
ATOM     17  C   UNL     1       1.627  -0.034  -0.565  1.00  0.00     0.090 C 
ATOM     18  N   UNL     1       2.767   0.129  -0.701  1.00  0.00    -0.196 NA
ENDBRANCH  14  17
ENDBRANCH  12  14
ENDBRANCH   7  12
ENDBRANCH   4   6
ENDBRANCH   3   4
ENDBRANCH   2   3
ENDBRANCH   1   2
BRANCH   1  19
ATOM     19  O   UNL     1      -5.665   0.820   0.674  1.00  0.00    -0.374 OA
BRANCH  19  20
ATOM     20  C   UNL     1      -5.541   0.629  -0.731  1.00  0.00     0.202 C 
BRANCH  20  21
ATOM     21  C   UNL     1      -5.096   1.817  -1.599  1.00  0.00     0.261 C 
BRANCH  21  22
ATOM     22  O   UNL     1      -3.901   2.486  -1.168  1.00  0.00    -0.460 OA
BRANCH  22  23
ATOM     23  C   UNL     1      -4.128   3.630  -0.475  1.00  0.00     0.338 C 
ATOM     24  O   UNL     1      -5.203   4.097  -0.141  1.00  0.00    -0.246 OA
BRANCH  23  25
ATOM     25  C   UNL     1      -2.851   4.229  -0.054  1.00  0.00     0.060 A 
ATOM     26  C   UNL     1      -2.593   4.363   1.315  1.00  0.00     0.016 A 
ATOM     27  C   UNL     1      -1.991   4.788  -1.000  1.00  0.00     0.016 A 
ATOM     28  C   UNL     1      -1.496   5.107   1.746  1.00  0.00     0.010 A 
ATOM     29  C   UNL     1      -0.892   5.534  -0.565  1.00  0.00     0.010 A 
ATOM     30  C   UNL     1      -0.663   5.734   0.809  1.00  0.00    -0.014 A 
BRANCH  30  31
ATOM     31  C   UNL     1       0.359   6.713   1.258  1.00  0.00     0.031 A 
ATOM     32  C   UNL     1       0.113   8.184   1.049  1.00  0.00     0.074 A 
ATOM     33  C   UNL     1       1.487   6.300   1.862  1.00  0.00     0.049 A 
ATOM     34  N   UNL     1       0.893   9.202   1.313  1.00  0.00    -0.248 NA
ATOM     35  C   UNL     1      -1.183   8.558   0.459  1.00  0.00     0.031 C 
ATOM     36  C   UNL     1       1.825   4.910   2.167  1.00  0.00     0.029 A 
ATOM     37  N   UNL     1       2.562   7.017   2.323  1.00  0.00    -0.354 N 
ATOM     38  C   UNL     1       0.190  10.332   0.913  1.00  0.00     0.074 A 
ATOM     39  C   UNL     1      -1.062   9.873   0.351  1.00  0.00     0.031 C 
ATOM     40  C   UNL     1       3.027   4.876   2.767  1.00  0.00     0.029 A 
ATOM     41  C   UNL     1       3.562   6.234   2.847  1.00  0.00     0.049 A 
ATOM     42  H   UNL     1       2.613   8.000   2.283  1.00  0.00     0.167 HD
ATOM     43  C   UNL     1       0.546  11.636   1.014  1.00  0.00     0.031 A 
ATOM     44  C   UNL     1       4.779   6.572   3.315  1.00  0.00     0.031 A 
ATOM     45  C   UNL     1       1.798  12.092   1.558  1.00  0.00     0.049 A 
ATOM     46  C   UNL     1       5.192   8.021   3.320  1.00  0.00     0.074 A 
ATOM     47  C   UNL     1       2.250  13.393   1.708  1.00  0.00     0.029 A 
ATOM     48  N   UNL     1       2.802  11.264   2.033  1.00  0.00    -0.354 N 
ATOM     49  N   UNL     1       4.509   9.081   2.961  1.00  0.00    -0.248 NA
ATOM     50  C   UNL     1       6.547   8.318   3.808  1.00  0.00     0.031 C 
ATOM     51  C   UNL     1       3.554  13.347   2.209  1.00  0.00     0.029 A 
ATOM     52  C   UNL     1       3.883  12.023   2.451  1.00  0.00     0.049 A 
ATOM     53  H   UNL     1       2.755  10.281   2.069  1.00  0.00     0.167 HD
ATOM     54  C   UNL     1       5.334  10.171   3.221  1.00  0.00     0.074 A 
ATOM     55  C   UNL     1       6.560   9.643   3.781  1.00  0.00     0.031 C 
ATOM     56  C   UNL     1       5.095  11.490   3.018  1.00  0.00     0.031 A 
BRANCH  43  57
ATOM     57  C   UNL     1      -0.423  12.665   0.496  1.00  0.00    -0.014 A 
ATOM     58  C   UNL     1      -1.649  12.904   1.138  1.00  0.00     0.009 A 
ATOM     59  C   UNL     1      -0.087  13.437  -0.627  1.00  0.00     0.009 A 
ATOM     60  C   UNL     1      -2.532  13.867   0.643  1.00  0.00     0.001 A 
ATOM     61  C   UNL     1      -0.955  14.424  -1.098  1.00  0.00     0.001 A 
ATOM     62  C   UNL     1      -2.182  14.630  -0.470  1.00  0.00     0.000 A 
ENDBRANCH  43  57
BRANCH  44  63
ATOM     63  C   UNL     1       5.714   5.523   3.807  1.00  0.00    -0.014 A 
ATOM     64  C   UNL     1       6.100   5.486   5.156  1.00  0.00     0.009 A 
ATOM     65  C   UNL     1       6.261   4.581   2.921  1.00  0.00     0.009 A 
ATOM     66  C   UNL     1       7.045   4.556   5.597  1.00  0.00     0.001 A 
ATOM     67  C   UNL     1       7.176   3.628   3.373  1.00  0.00     0.001 A 
ATOM     68  C   UNL     1       7.579   3.627   4.707  1.00  0.00     0.000 A 
ENDBRANCH  44  63
BRANCH  56  69
ATOM     69  C   UNL     1       6.153  12.465   3.464  1.00  0.00    -0.014 A 
ATOM     70  C   UNL     1       7.395  12.559   2.818  1.00  0.00     0.009 A 
ATOM     71  C   UNL     1       5.880  13.334   4.534  1.00  0.00     0.009 A 
ATOM     72  C   UNL     1       8.356  13.471   3.261  1.00  0.00     0.001 A 
ATOM     73  C   UNL     1       6.826  14.271   4.950  1.00  0.00     0.001 A 
ATOM     74  C   UNL     1       8.068  14.330   4.322  1.00  0.00     0.000 A 
ENDBRANCH  56  69
ENDBRANCH  30  31
ENDBRANCH  23  25
ENDBRANCH  22  23
ENDBRANCH  21  22
ENDBRANCH  20  21
ENDBRANCH  19  20
ENDBRANCH   1  19
TORSDOF 17
