REMARK SMILES CS(=O)(=O)c1ccc(/C=C(/C(=O)OCCOCCOC(=O)c2ccc(-c3c4nc(c(-c5ccccc5)c5ccc([nH]5)c(-c5ccccc5)c5nc(c(-c6ccccc6)c6ccc3[nH]6)C=C5)C=C4)cc2)c2ccc(-c3ccc(S(C)(=O)=O)cc3)cc2)cc1
REMARK SMILES IDX 15 1 14 2 13 3 11 4 12 5 10 6 9 7 8 8 5 9 6 10 87 11 7 12
REMARK SMILES IDX 86 13 2 14 1 15 3 16 4 17 70 18 71 19 85 20 72 21 84 22
REMARK SMILES IDX 73 23 74 24 75 25 83 26 76 27 82 28 77 29 78 30 79 31 80 32
REMARK SMILES IDX 81 33 16 34 17 35 18 36 19 37 20 38 21 39 22 40 23 41 69 42
REMARK SMILES IDX 24 43 68 44 25 45 26 46 27 47 62 48 28 49 67 50 61 51 63 52
REMARK SMILES IDX 29 53 66 54 60 55 59 56 30 58 52 59 37 60 51 61 38 62 41 63
REMARK SMILES IDX 50 64 64 65 39 66 40 67 49 69 65 70 42 71 31 72 32 73 36 74
REMARK SMILES IDX 33 75 35 76 34 77 53 78 54 79 58 80 55 81 57 82 56 83 43 84
REMARK SMILES IDX 44 85 48 86 45 87 47 88 46 89
REMARK H PARENT 63 57 41 68
REMARK Flexibility Score: inf
ROOT
ATOM      1  C   UNL     1       3.793   7.326  -8.736  1.00  0.00     0.202 C 
ENDROOT
BRANCH   1   2
ATOM      2  C   UNL     1       2.519   6.487  -8.864  1.00  0.00     0.261 C 
BRANCH   2   3
ATOM      3  O   UNL     1       2.347   5.621  -7.727  1.00  0.00    -0.460 OA
BRANCH   3   4
ATOM      4  C   UNL     1       2.258   4.301  -8.036  1.00  0.00     0.338 C 
ATOM      5  O   UNL     1       2.141   3.843  -9.164  1.00  0.00    -0.246 OA
BRANCH   4   6
ATOM      6  C   UNL     1       2.448   3.428  -6.833  1.00  0.00     0.067 C 
ATOM      7  C   UNL     1       1.896   3.770  -5.645  1.00  0.00     0.024 C 
BRANCH   7   8
ATOM      8  C   UNL     1       1.705   2.909  -4.448  1.00  0.00    -0.025 A 
ATOM      9  C   UNL     1       0.906   1.029  -2.518  1.00  0.00     0.067 A 
ATOM     10  C   UNL     1       2.138   0.888  -3.153  1.00  0.00     0.021 A 
ATOM     11  C   UNL     1       0.117   2.154  -2.753  1.00  0.00     0.021 A 
ATOM     12  C   UNL     1       2.550   1.852  -4.079  1.00  0.00     0.009 A 
ATOM     13  C   UNL     1       0.522   3.091  -3.711  1.00  0.00     0.009 A 
BRANCH   9  14
ATOM     14  S   UNL     1       0.266  -0.311  -1.542  1.00  0.00     0.175 S 
ATOM     15  C   UNL     1       0.962  -0.043   0.062  1.00  0.00     0.163 C 
ATOM     16  O   UNL     1       0.827  -1.540  -2.077  1.00  0.00    -0.224 OA
ATOM     17  O   UNL     1      -1.169  -0.134  -1.446  1.00  0.00    -0.224 OA
ENDBRANCH   9  14
ENDBRANCH   7   8
BRANCH   6  18
ATOM     18  C   UNL     1       3.168   2.165  -7.072  1.00  0.00    -0.011 A 
ATOM     19  C   UNL     1       4.570   2.161  -7.070  1.00  0.00     0.009 A 
ATOM     20  C   UNL     1       2.484   0.964  -7.260  1.00  0.00     0.009 A 
ATOM     21  C   UNL     1       5.278   0.970  -7.232  1.00  0.00     0.009 A 
ATOM     22  C   UNL     1       3.197  -0.228  -7.403  1.00  0.00     0.009 A 
ATOM     23  C   UNL     1       4.604  -0.249  -7.388  1.00  0.00    -0.018 A 
BRANCH  23  24
ATOM     24  C   UNL     1       5.347  -1.515  -7.515  1.00  0.00    -0.018 A 
ATOM     25  C   UNL     1       6.427  -1.814  -6.663  1.00  0.00     0.010 A 
ATOM     26  C   UNL     1       4.979  -2.471  -8.478  1.00  0.00     0.010 A 
ATOM     27  C   UNL     1       7.107  -3.030  -6.759  1.00  0.00     0.021 A 
ATOM     28  C   UNL     1       5.651  -3.690  -8.582  1.00  0.00     0.021 A 
ATOM     29  C   UNL     1       6.715  -3.960  -7.723  1.00  0.00     0.067 A 
BRANCH  29  30
ATOM     30  S   UNL     1       7.555  -5.520  -7.815  1.00  0.00     0.175 S 
ATOM     31  C   UNL     1       9.163  -5.093  -8.428  1.00  0.00     0.163 C 
ATOM     32  O   UNL     1       7.698  -6.006  -6.456  1.00  0.00    -0.224 OA
ATOM     33  O   UNL     1       6.896  -6.320  -8.829  1.00  0.00    -0.224 OA
ENDBRANCH  29  30
ENDBRANCH  23  24
ENDBRANCH   6  18
ENDBRANCH   4   6
ENDBRANCH   3   4
ENDBRANCH   2   3
ENDBRANCH   1   2
BRANCH   1  34
ATOM     34  O   UNL     1       5.040   6.631  -8.760  1.00  0.00    -0.374 OA
BRANCH  34  35
ATOM     35  C   UNL     1       5.378   5.843  -7.623  1.00  0.00     0.202 C 
BRANCH  35  36
ATOM     36  C   UNL     1       5.915   6.568  -6.383  1.00  0.00     0.261 C 
BRANCH  36  37
ATOM     37  O   UNL     1       5.042   7.607  -5.921  1.00  0.00    -0.460 OA
BRANCH  37  38
ATOM     38  C   UNL     1       5.465   8.857  -6.218  1.00  0.00     0.338 C 
ATOM     39  O   UNL     1       6.529   9.182  -6.733  1.00  0.00    -0.246 OA
BRANCH  38  40
ATOM     40  C   UNL     1       4.374   9.818  -5.997  1.00  0.00     0.060 A 
ATOM     41  C   UNL     1       4.018  10.646  -7.069  1.00  0.00     0.016 A 
ATOM     42  C   UNL     1       3.743   9.944  -4.757  1.00  0.00     0.016 A 
ATOM     43  C   UNL     1       3.057  11.636  -6.893  1.00  0.00     0.010 A 
ATOM     44  C   UNL     1       2.785  10.947  -4.580  1.00  0.00     0.010 A 
ATOM     45  C   UNL     1       2.463  11.816  -5.638  1.00  0.00    -0.014 A 
BRANCH  45  46
ATOM     46  C   UNL     1       1.604  13.000  -5.407  1.00  0.00     0.031 A 
ATOM     47  C   UNL     1       2.189  14.207  -4.729  1.00  0.00     0.074 A 
ATOM     48  C   UNL     1       0.329  13.011  -5.831  1.00  0.00     0.049 A 
ATOM     49  N   UNL     1       1.621  15.350  -4.441  1.00  0.00    -0.248 NA
ATOM     50  C   UNL     1       3.600  14.114  -4.323  1.00  0.00     0.031 C 
ATOM     51  C   UNL     1      -0.339  11.915  -6.532  1.00  0.00     0.029 A 
ATOM     52  N   UNL     1      -0.631  13.985  -5.732  1.00  0.00    -0.354 N 
ATOM     53  C   UNL     1       2.602  16.109  -3.814  1.00  0.00     0.074 A 
ATOM     54  C   UNL     1       3.790  15.287  -3.738  1.00  0.00     0.031 C 
ATOM     55  C   UNL     1      -1.605  12.278  -6.798  1.00  0.00     0.029 A 
ATOM     56  C   UNL     1      -1.843  13.616  -6.261  1.00  0.00     0.049 A 
ATOM     57  H   UNL     1      -0.468  14.865  -5.321  1.00  0.00     0.167 HD
ATOM     58  C   UNL     1       2.522  17.378  -3.350  1.00  0.00     0.031 A 
ATOM     59  C   UNL     1      -3.015  14.278  -6.294  1.00  0.00     0.031 A 
ATOM     60  C   UNL     1       1.336  18.189  -3.414  1.00  0.00     0.049 A 
ATOM     61  C   UNL     1      -3.097  15.662  -5.710  1.00  0.00     0.074 A 
ATOM     62  C   UNL     1       1.162  19.497  -2.994  1.00  0.00     0.029 A 
ATOM     63  N   UNL     1       0.117  17.765  -3.920  1.00  0.00    -0.354 N 
ATOM     64  N   UNL     1      -2.153  16.384  -5.156  1.00  0.00    -0.248 NA
ATOM     65  C   UNL     1      -4.408  16.326  -5.766  1.00  0.00     0.031 C 
ATOM     66  C   UNL     1      -0.179  19.843  -3.191  1.00  0.00     0.029 A 
ATOM     67  C   UNL     1      -0.824  18.773  -3.791  1.00  0.00     0.049 A 
ATOM     68  H   UNL     1      -0.054  16.879  -4.313  1.00  0.00     0.167 HD
ATOM     69  C   UNL     1      -2.747  17.593  -4.819  1.00  0.00     0.074 A 
ATOM     70  C   UNL     1      -4.129  17.514  -5.247  1.00  0.00     0.031 C 
ATOM     71  C   UNL     1      -2.198  18.674  -4.212  1.00  0.00     0.031 A 
BRANCH  58  72
ATOM     72  C   UNL     1       3.747  17.951  -2.693  1.00  0.00    -0.014 A 
ATOM     73  C   UNL     1       4.886  18.293  -3.438  1.00  0.00     0.009 A 
ATOM     74  C   UNL     1       3.750  18.175  -1.307  1.00  0.00     0.009 A 
ATOM     75  C   UNL     1       6.016  18.815  -2.804  1.00  0.00     0.001 A 
ATOM     76  C   UNL     1       4.870  18.723  -0.679  1.00  0.00     0.001 A 
ATOM     77  C   UNL     1       6.005  19.034  -1.426  1.00  0.00     0.000 A 
ENDBRANCH  58  72
BRANCH  59  78
ATOM     78  C   UNL     1      -4.213  13.632  -6.889  1.00  0.00    -0.014 A 
ATOM     79  C   UNL     1      -4.753  14.092  -8.098  1.00  0.00     0.009 A 
ATOM     80  C   UNL     1      -4.827  12.548  -6.240  1.00  0.00     0.009 A 
ATOM     81  C   UNL     1      -5.896  13.494  -8.635  1.00  0.00     0.001 A 
ATOM     82  C   UNL     1      -5.952  11.934  -6.793  1.00  0.00     0.001 A 
ATOM     83  C   UNL     1      -6.491  12.413  -7.986  1.00  0.00     0.000 A 
ENDBRANCH  59  78
BRANCH  71  84
ATOM     84  C   UNL     1      -3.087  19.868  -3.997  1.00  0.00    -0.014 A 
ATOM     85  C   UNL     1      -4.106  19.855  -3.032  1.00  0.00     0.009 A 
ATOM     86  C   UNL     1      -2.875  21.036  -4.746  1.00  0.00     0.009 A 
ATOM     87  C   UNL     1      -4.917  20.976  -2.847  1.00  0.00     0.001 A 
ATOM     88  C   UNL     1      -3.667  22.166  -4.538  1.00  0.00     0.001 A 
ATOM     89  C   UNL     1      -4.694  22.132  -3.596  1.00  0.00     0.000 A 
ENDBRANCH  71  84
ENDBRANCH  45  46
ENDBRANCH  38  40
ENDBRANCH  37  38
ENDBRANCH  36  37
ENDBRANCH  35  36
ENDBRANCH  34  35
ENDBRANCH   1  34
TORSDOF 19
