REMARK SMILES O=C(OCCOCCOC(=O)[C@H]1C[C@@H](O)CN1C(=O)c1cc(F)c(F)cc1Cl)c1ccc(-c2c3nc(c(-c4ccccc4)c4ccc([nH]4)c(-c4ccccc4)c4nc(c(-c5ccccc5)c5ccc2[nH]5)C=C4)C=C3)cc1
REMARK SMILES IDX 6 1 5 2 4 3 3 4 2 5 1 6 29 7 30 8 76 9 31 10 75 11 32 12
REMARK SMILES IDX 33 13 34 14 69 15 35 16 74 17 68 18 70 19 36 20 73 21 67 22
REMARK SMILES IDX 66 23 37 25 59 26 44 27 58 28 45 29 48 30 57 31 71 32 46 33
REMARK SMILES IDX 47 34 56 36 72 37 49 38 38 39 39 40 43 41 40 42 42 43 41 44
REMARK SMILES IDX 60 45 61 46 65 47 62 48 64 49 63 50 50 51 51 52 55 53 52 54
REMARK SMILES IDX 54 55 53 56 7 57 8 58 9 59 10 60 11 61 12 62 13 63 17 64
REMARK SMILES IDX 14 65 16 66 18 67 19 68 20 69 21 70 27 71 22 72 26 73 28 74
REMARK SMILES IDX 23 75 24 76 25 77 15 78
REMARK H PARENT 70 24 48 35 15 79
REMARK Flexibility Score: inf
ROOT
ATOM      1  O   UNL     1       4.099  -0.883  -1.159  1.00  0.00    -0.374 OA
ENDROOT
BRANCH   1   2
ATOM      2  C   UNL     1       4.826  -1.027   0.062  1.00  0.00     0.202 C 
BRANCH   2   3
ATOM      3  C   UNL     1       4.606   0.040   1.141  1.00  0.00     0.261 C 
BRANCH   3   4
ATOM      4  O   UNL     1       3.232   0.402   1.304  1.00  0.00    -0.460 OA
BRANCH   4   5
ATOM      5  C   UNL     1       2.522   1.323   0.609  1.00  0.00     0.338 C 
ATOM      6  O   UNL     1       1.359   1.524   0.957  1.00  0.00    -0.246 OA
BRANCH   5   7
ATOM      7  C   UNL     1       3.017   2.038  -0.619  1.00  0.00     0.060 A 
ATOM      8  C   UNL     1       2.097   2.894  -1.254  1.00  0.00     0.016 A 
ATOM      9  C   UNL     1       4.255   1.859  -1.240  1.00  0.00     0.016 A 
ATOM     10  C   UNL     1       2.386   3.485  -2.488  1.00  0.00     0.010 A 
ATOM     11  C   UNL     1       4.530   2.385  -2.491  1.00  0.00     0.010 A 
ATOM     12  C   UNL     1       3.598   3.201  -3.117  1.00  0.00    -0.014 A 
BRANCH  12  13
ATOM     13  C   UNL     1       4.040   3.864  -4.347  1.00  0.00     0.031 A 
ATOM     14  C   UNL     1       3.978   3.154  -5.659  1.00  0.00     0.074 A 
ATOM     15  C   UNL     1       4.698   5.025  -4.183  1.00  0.00     0.049 A 
ATOM     16  N   UNL     1       4.402   3.567  -6.823  1.00  0.00    -0.248 NA
ATOM     17  C   UNL     1       3.389   1.803  -5.674  1.00  0.00     0.031 C 
ATOM     18  C   UNL     1       4.900   5.690  -2.890  1.00  0.00     0.029 A 
ATOM     19  N   UNL     1       5.368   5.812  -5.074  1.00  0.00    -0.354 N 
ATOM     20  C   UNL     1       4.107   2.545  -7.714  1.00  0.00     0.074 A 
ATOM     21  C   UNL     1       3.513   1.469  -6.954  1.00  0.00     0.031 C 
ATOM     22  C   UNL     1       5.672   6.769  -3.070  1.00  0.00     0.029 A 
ATOM     23  C   UNL     1       6.019   6.866  -4.482  1.00  0.00     0.049 A 
ATOM     24  H   UNL     1       5.383   5.641  -6.043  1.00  0.00     0.167 HD
ATOM     25  C   UNL     1       4.310   2.541  -9.050  1.00  0.00     0.031 A 
ATOM     26  C   UNL     1       6.815   7.804  -5.024  1.00  0.00     0.031 A 
ATOM     27  C   UNL     1       4.942   3.629  -9.750  1.00  0.00     0.049 A 
ATOM     28  C   UNL     1       7.001   7.788  -6.511  1.00  0.00     0.074 A 
ATOM     29  C   UNL     1       5.117   3.784 -11.112  1.00  0.00     0.029 A 
ATOM     30  N   UNL     1       5.517   4.734  -9.138  1.00  0.00    -0.354 N 
ATOM     31  N   UNL     1       6.570   6.901  -7.377  1.00  0.00    -0.248 NA
ATOM     32  C   UNL     1       7.738   8.906  -7.108  1.00  0.00     0.031 C 
ATOM     33  C   UNL     1       5.864   4.943 -11.320  1.00  0.00     0.029 A 
ATOM     34  C   UNL     1       6.079   5.558 -10.095  1.00  0.00     0.049 A 
ATOM     35  H   UNL     1       5.524   4.905  -8.168  1.00  0.00     0.167 HD
ATOM     36  C   UNL     1       6.957   7.366  -8.623  1.00  0.00     0.074 A 
ATOM     37  C   UNL     1       7.649   8.621  -8.401  1.00  0.00     0.031 C 
ATOM     38  C   UNL     1       6.757   6.805  -9.839  1.00  0.00     0.031 A 
BRANCH  25  39
ATOM     39  C   UNL     1       3.822   1.377  -9.869  1.00  0.00    -0.014 A 
ATOM     40  C   UNL     1       4.736   0.591 -10.592  1.00  0.00     0.009 A 
ATOM     41  C   UNL     1       2.448   1.182 -10.081  1.00  0.00     0.009 A 
ATOM     42  C   UNL     1       4.286  -0.332 -11.539  1.00  0.00     0.001 A 
ATOM     43  C   UNL     1       2.001   0.239 -11.011  1.00  0.00     0.001 A 
ATOM     44  C   UNL     1       2.919  -0.503 -11.751  1.00  0.00     0.000 A 
ENDBRANCH  25  39
BRANCH  26  45
ATOM     45  C   UNL     1       7.403   8.843  -4.141  1.00  0.00    -0.014 A 
ATOM     46  C   UNL     1       8.377   8.499  -3.187  1.00  0.00     0.009 A 
ATOM     47  C   UNL     1       6.908  10.154  -4.159  1.00  0.00     0.009 A 
ATOM     48  C   UNL     1       8.820   9.439  -2.253  1.00  0.00     0.001 A 
ATOM     49  C   UNL     1       7.377  11.101  -3.244  1.00  0.00     0.001 A 
ATOM     50  C   UNL     1       8.322  10.740  -2.285  1.00  0.00     0.000 A 
ENDBRANCH  26  45
BRANCH  38  51
ATOM     51  C   UNL     1       7.282   7.532 -11.043  1.00  0.00    -0.014 A 
ATOM     52  C   UNL     1       6.379   8.063 -11.979  1.00  0.00     0.009 A 
ATOM     53  C   UNL     1       8.653   7.537 -11.333  1.00  0.00     0.009 A 
ATOM     54  C   UNL     1       6.837   8.550 -13.202  1.00  0.00     0.001 A 
ATOM     55  C   UNL     1       9.111   8.056 -12.545  1.00  0.00     0.001 A 
ATOM     56  C   UNL     1       8.202   8.545 -13.484  1.00  0.00     0.000 A 
ENDBRANCH  38  51
ENDBRANCH  12  13
ENDBRANCH   5   7
ENDBRANCH   4   5
ENDBRANCH   3   4
ENDBRANCH   2   3
ENDBRANCH   1   2
BRANCH   1  57
ATOM     57  C   UNL     1       2.738  -1.328  -1.175  1.00  0.00     0.202 C 
BRANCH  57  58
ATOM     58  C   UNL     1       2.571  -2.631  -1.958  1.00  0.00     0.261 C 
BRANCH  58  59
ATOM     59  O   UNL     1       3.039  -3.712  -1.138  1.00  0.00    -0.462 OA
BRANCH  59  60
ATOM     60  C   UNL     1       4.393  -3.869  -1.156  1.00  0.00     0.329 C 
ATOM     61  O   UNL     1       5.134  -3.423  -2.024  1.00  0.00    -0.250 OA
BRANCH  60  62
ATOM     62  C   UNL     1       4.867  -4.667   0.064  1.00  0.00     0.198 C 
ATOM     63  C   UNL     1       4.146  -4.359   1.388  1.00  0.00     0.071 C 
ATOM     64  N   UNL     1       4.615  -6.071  -0.191  1.00  0.00    -0.322 N 
ATOM     65  C   UNL     1       3.099  -5.453   1.531  1.00  0.00     0.136 C 
ATOM     66  C   UNL     1       3.708  -6.646   0.802  1.00  0.00     0.152 C 
BRANCH  64  67
ATOM     67  C   UNL     1       5.343  -6.710  -1.171  1.00  0.00     0.256 C 
ATOM     68  O   UNL     1       6.267  -6.172  -1.782  1.00  0.00    -0.269 OA
BRANCH  67  69
ATOM     69  C   UNL     1       4.937  -8.061  -1.564  1.00  0.00     0.061 A 
ATOM     70  C   UNL     1       3.602  -8.256  -1.946  1.00  0.00     0.057 A 
ATOM     71  C   UNL     1       5.853  -9.119  -1.602  1.00  0.00     0.056 A 
ATOM     72  C   UNL     1       3.169  -9.531  -2.264  1.00  0.00     0.159 A 
ATOM     73  C   UNL     1       5.409 -10.393  -1.957  1.00  0.00     0.063 A 
ATOM     74  Cl  UNL     1       7.516  -8.939  -1.176  1.00  0.00    -0.083 Cl
ATOM     75  F   UNL     1       1.877  -9.730  -2.552  1.00  0.00    -0.204 F 
ATOM     76  C   UNL     1       4.065 -10.593  -2.264  1.00  0.00     0.160 A 
ATOM     77  F   UNL     1       3.638 -11.828  -2.552  1.00  0.00    -0.204 F 
ENDBRANCH  67  69
ENDBRANCH  64  67
BRANCH  65  78
ATOM     78  O   UNL     1       1.866  -5.054   0.937  1.00  0.00    -0.391 OA
ATOM     79  H   UNL     1       2.013  -4.836   0.003  1.00  0.00     0.211 HD
ENDBRANCH  65  78
ENDBRANCH  60  62
ENDBRANCH  59  60
ENDBRANCH  58  59
ENDBRANCH  57  58
ENDBRANCH   1  57
TORSDOF 17
