REMARK SMILES CCCNC(=O)CN(C)C(=O)C[N@H+]1CCCC[C@H]1C(=O)OCCOCCOC(=O)c1ccc(-c2c3nc(c(-c4ccccc4)c4ccc([nH]4)c(-c4ccccc4)c4nc(c(-c5ccccc5)c5ccc2[nH]5)C=C4)C=C3)cc1
REMARK SMILES IDX 22 1 21 2 19 3 20 4 18 5 13 6 14 7 15 9 17 10 16 11 12 12
REMARK SMILES IDX 10 13 11 14 8 15 9 16 7 17 5 18 4 19 6 21 3 22 2 23 1 24
REMARK SMILES IDX 23 25 24 26 25 27 26 28 27 29 28 30 29 31 30 32 31 33 77 34
REMARK SMILES IDX 32 35 76 36 33 37 34 38 35 39 70 40 36 41 75 42 69 43 71 44
REMARK SMILES IDX 37 45 74 46 68 47 67 48 38 50 60 51 45 52 59 53 46 54 49 55
REMARK SMILES IDX 58 56 72 57 47 58 48 59 57 61 73 62 50 63 39 64 40 65 44 66
REMARK SMILES IDX 41 67 43 68 42 69 61 70 62 71 66 72 63 73 65 74 64 75 51 76
REMARK SMILES IDX 52 77 56 78 53 79 55 80 54 81
REMARK H PARENT 13 8 4 20 71 49 49 60
REMARK Flexibility Score: inf
ROOT
ATOM      1  C   UNL     1      -6.362  -0.551   0.042  1.00  0.00     0.261 C 
ENDROOT
BRANCH   1   2
ATOM      2  O   UNL     1      -4.950  -0.543   0.306  1.00  0.00    -0.459 OA
BRANCH   2   3
ATOM      3  C   UNL     1      -4.446  -1.750   0.694  1.00  0.00     0.365 C 
ATOM      4  O   UNL     1      -5.115  -2.774   0.774  1.00  0.00    -0.245 OA
BRANCH   3   5
ATOM      5  C   UNL     1      -2.926  -1.660   0.976  1.00  0.00     0.295 C 
ATOM      6  N   UNL     1      -2.523  -2.414   2.199  1.00  0.00    -0.315 N 
ATOM      7  C   UNL     1      -2.728  -3.862   2.074  1.00  0.00     0.263 C 
ATOM      8  H   UNL     1      -1.516  -2.283   2.301  1.00  0.00     0.349 HD
ATOM      9  C   UNL     1      -2.009  -4.439   0.850  1.00  0.00     0.062 C 
ATOM     10  C   UNL     1      -2.098  -2.177  -0.209  1.00  0.00     0.078 C 
ATOM     11  C   UNL     1      -2.295  -3.671  -0.436  1.00  0.00     0.013 C 
BRANCH   6  12
ATOM     12  C   UNL     1      -3.167  -1.865   3.409  1.00  0.00     0.364 C 
BRANCH  12  13
ATOM     13  C   UNL     1      -2.486  -0.545   3.817  1.00  0.00     0.277 C 
ATOM     14  O   UNL     1      -3.074   0.527   3.657  1.00  0.00    -0.268 OA
BRANCH  13  15
ATOM     15  N   UNL     1      -1.201  -0.611   4.355  1.00  0.00    -0.332 N 
ATOM     16  C   UNL     1      -0.519  -1.871   4.611  1.00  0.00     0.147 C 
BRANCH  15  17
ATOM     17  C   UNL     1      -0.607   0.632   4.856  1.00  0.00     0.219 C 
BRANCH  17  18
ATOM     18  C   UNL     1      -0.136   1.680   3.832  1.00  0.00     0.239 C 
ATOM     19  N   UNL     1       0.788   1.386   2.873  1.00  0.00    -0.355 N 
ATOM     20  H   UNL     1       1.024   2.137   2.282  1.00  0.00     0.163 HD
ATOM     21  O   UNL     1      -0.444   2.871   3.956  1.00  0.00    -0.273 OA
BRANCH  19  22
ATOM     22  C   UNL     1       1.477   0.148   2.586  1.00  0.00     0.115 C 
BRANCH  22  23
ATOM     23  C   UNL     1       0.889  -0.547   1.366  1.00  0.00     0.018 C 
ATOM     24  C   UNL     1       1.225   0.164   0.061  1.00  0.00     0.006 C 
ENDBRANCH  22  23
ENDBRANCH  19  22
ENDBRANCH  17  18
ENDBRANCH  15  17
ENDBRANCH  13  15
ENDBRANCH  12  13
ENDBRANCH   6  12
ENDBRANCH   3   5
ENDBRANCH   2   3
ENDBRANCH   1   2
BRANCH   1  25
ATOM     25  C   UNL     1      -6.698  -0.512  -1.452  1.00  0.00     0.202 C 
BRANCH  25  26
ATOM     26  O   UNL     1      -6.194  -1.548  -2.292  1.00  0.00    -0.374 OA
BRANCH  26  27
ATOM     27  C   UNL     1      -4.807  -1.507  -2.620  1.00  0.00     0.202 C 
BRANCH  27  28
ATOM     28  C   UNL     1      -4.344  -0.494  -3.673  1.00  0.00     0.261 C 
BRANCH  28  29
ATOM     29  O   UNL     1      -4.572   0.862  -3.254  1.00  0.00    -0.460 OA
BRANCH  29  30
ATOM     30  C   UNL     1      -5.557   1.496  -3.930  1.00  0.00     0.338 C 
ATOM     31  O   UNL     1      -6.171   1.087  -4.906  1.00  0.00    -0.246 OA
BRANCH  30  32
ATOM     32  C   UNL     1      -5.960   2.714  -3.206  1.00  0.00     0.060 A 
ATOM     33  C   UNL     1      -7.319   2.850  -2.894  1.00  0.00     0.016 A 
ATOM     34  C   UNL     1      -5.051   3.728  -2.899  1.00  0.00     0.016 A 
ATOM     35  C   UNL     1      -7.789   4.031  -2.331  1.00  0.00     0.010 A 
ATOM     36  C   UNL     1      -5.527   4.922  -2.349  1.00  0.00     0.010 A 
ATOM     37  C   UNL     1      -6.902   5.091  -2.107  1.00  0.00    -0.014 A 
BRANCH  37  38
ATOM     38  C   UNL     1      -7.455   6.432  -1.812  1.00  0.00     0.031 A 
ATOM     39  C   UNL     1      -7.651   7.391  -2.955  1.00  0.00     0.074 A 
ATOM     40  C   UNL     1      -7.825   6.768  -0.565  1.00  0.00     0.049 A 
ATOM     41  N   UNL     1      -8.117   8.613  -2.941  1.00  0.00    -0.248 NA
ATOM     42  C   UNL     1      -7.274   6.905  -4.294  1.00  0.00     0.031 C 
ATOM     43  C   UNL     1      -7.729   5.902   0.609  1.00  0.00     0.029 A 
ATOM     44  N   UNL     1      -8.360   7.935  -0.084  1.00  0.00    -0.354 N 
ATOM     45  C   UNL     1      -8.080   9.043  -4.262  1.00  0.00     0.074 A 
ATOM     46  C   UNL     1      -7.528   7.964  -5.049  1.00  0.00     0.031 C 
ATOM     47  C   UNL     1      -8.182   6.575   1.682  1.00  0.00     0.029 A 
ATOM     48  C   UNL     1      -8.571   7.922   1.273  1.00  0.00     0.049 A 
ATOM     49  H   UNL     1      -8.572   8.708  -0.656  1.00  0.00     0.167 HD
ATOM     50  C   UNL     1      -8.476  10.232  -4.773  1.00  0.00     0.031 A 
ATOM     51  C   UNL     1      -9.009   8.899   2.090  1.00  0.00     0.031 A 
ATOM     52  C   UNL     1      -9.018  11.306  -3.987  1.00  0.00     0.049 A 
ATOM     53  C   UNL     1      -9.375  10.237   1.503  1.00  0.00     0.074 A 
ATOM     54  C   UNL     1      -9.461  12.546  -4.411  1.00  0.00     0.029 A 
ATOM     55  N   UNL     1      -9.183  11.267  -2.612  1.00  0.00    -0.354 N 
ATOM     56  N   UNL     1      -9.364  10.622   0.250  1.00  0.00    -0.248 NA
ATOM     57  C   UNL     1      -9.822  11.273   2.446  1.00  0.00     0.031 C 
ATOM     58  C   UNL     1      -9.848  13.277  -3.284  1.00  0.00     0.029 A 
ATOM     59  C   UNL     1      -9.697  12.471  -2.166  1.00  0.00     0.049 A 
ATOM     60  H   UNL     1      -8.966  10.497  -2.037  1.00  0.00     0.167 HD
ATOM     61  C   UNL     1      -9.828  11.932   0.251  1.00  0.00     0.074 A 
ATOM     62  C   UNL     1     -10.127  12.269   1.627  1.00  0.00     0.031 C 
ATOM     63  C   UNL     1      -9.993  12.781  -0.792  1.00  0.00     0.031 A 
BRANCH  50  64
ATOM     64  C   UNL     1      -8.304  10.445  -6.250  1.00  0.00    -0.014 A 
ATOM     65  C   UNL     1      -9.141   9.812  -7.181  1.00  0.00     0.009 A 
ATOM     66  C   UNL     1      -7.317  11.330  -6.712  1.00  0.00     0.009 A 
ATOM     67  C   UNL     1      -8.977  10.044  -8.549  1.00  0.00     0.001 A 
ATOM     68  C   UNL     1      -7.172  11.578  -8.078  1.00  0.00     0.001 A 
ATOM     69  C   UNL     1      -7.998  10.931  -8.995  1.00  0.00     0.000 A 
ENDBRANCH  50  64
BRANCH  51  70
ATOM     70  C   UNL     1      -9.099   8.667   3.555  1.00  0.00    -0.014 A 
ATOM     71  C   UNL     1     -10.343   8.623   4.203  1.00  0.00     0.009 A 
ATOM     72  C   UNL     1      -7.931   8.522   4.322  1.00  0.00     0.009 A 
ATOM     73  C   UNL     1     -10.414   8.471   5.590  1.00  0.00     0.001 A 
ATOM     74  C   UNL     1      -8.007   8.340   5.704  1.00  0.00     0.001 A 
ATOM     75  C   UNL     1      -9.247   8.326   6.339  1.00  0.00     0.000 A 
ENDBRANCH  51  70
BRANCH  63  76
ATOM     76  C   UNL     1     -10.558  14.140  -0.490  1.00  0.00    -0.014 A 
ATOM     77  C   UNL     1      -9.789  15.123   0.150  1.00  0.00     0.009 A 
ATOM     78  C   UNL     1     -11.865  14.453  -0.897  1.00  0.00     0.009 A 
ATOM     79  C   UNL     1     -10.331  16.384   0.407  1.00  0.00     0.001 A 
ATOM     80  C   UNL     1     -12.393  15.722  -0.664  1.00  0.00     0.001 A 
ATOM     81  C   UNL     1     -11.629  16.684  -0.004  1.00  0.00     0.000 A 
ENDBRANCH  63  76
ENDBRANCH  37  38
ENDBRANCH  30  32
ENDBRANCH  29  30
ENDBRANCH  28  29
ENDBRANCH  27  28
ENDBRANCH  26  27
ENDBRANCH  25  26
ENDBRANCH   1  25
TORSDOF 21
