REMARK SMILES CCOC(=O)CS[C@H]1CC(=O)N(c2ccc(C(=O)OCCOCCOC(=O)c3ccc(-c4c5nc(c(-c6ccccc6)c6ccc([nH]6)c(-c6ccccc6)c6nc(c(-c7ccccc7)c7ccc4[nH]7)C=C6)C=C5)cc3)c(O)c2)C1=O
REMARK SMILES IDX 20 1 19 2 17 3 18 4 16 5 13 6 14 7 78 8 15 9 76 10 12 11
REMARK SMILES IDX 8 12 9 13 79 14 10 15 80 16 11 17 7 18 6 19 4 20 5 21 3 22
REMARK SMILES IDX 2 23 1 24 77 25 21 27 22 28 23 29 24 30 25 31 26 32 27 33
REMARK SMILES IDX 28 34 29 35 75 36 30 37 74 38 31 39 32 40 33 41 68 42 34 43
REMARK SMILES IDX 73 44 67 45 69 46 35 47 72 48 66 49 65 50 36 52 58 53 43 54
REMARK SMILES IDX 57 55 44 56 47 57 56 58 70 59 45 60 46 61 55 63 71 64 48 65
REMARK SMILES IDX 37 66 38 67 42 68 39 69 41 70 40 71 59 72 60 73 64 74 61 75
REMARK SMILES IDX 63 76 62 77 49 78 50 79 54 80 51 81 53 82 52 83
REMARK H PARENT 77 26 69 51 47 62
REMARK Flexibility Score: inf
ROOT
ATOM      1  C   UNL     1       0.460  -5.013  -2.968  1.00  0.00     0.261 C 
ENDROOT
BRANCH   1   2
ATOM      2  O   UNL     1       0.605  -3.697  -2.399  1.00  0.00    -0.460 OA
BRANCH   2   3
ATOM      3  C   UNL     1       1.543  -2.924  -3.002  1.00  0.00     0.341 C 
ATOM      4  O   UNL     1       2.342  -3.280  -3.857  1.00  0.00    -0.246 OA
BRANCH   3   5
ATOM      5  C   UNL     1       1.386  -1.510  -2.602  1.00  0.00     0.101 A 
ATOM      6  C   UNL     1       1.420   1.243  -1.959  1.00  0.00     0.055 A 
ATOM      7  C   UNL     1       1.632   0.808  -3.276  1.00  0.00     0.028 A 
ATOM      8  C   UNL     1       1.096   0.278  -0.992  1.00  0.00     0.074 A 
ATOM      9  C   UNL     1       1.648  -0.553  -3.587  1.00  0.00     0.022 A 
ATOM     10  C   UNL     1       1.044  -1.084  -1.319  1.00  0.00     0.132 A 
BRANCH   6  11
ATOM     11  N   UNL     1       1.650   2.606  -1.625  1.00  0.00    -0.249 N 
ATOM     12  C   UNL     1       2.697   4.426  -0.609  1.00  0.00     0.146 C 
ATOM     13  C   UNL     1       1.854   4.929  -1.764  1.00  0.00     0.125 C 
ATOM     14  C   UNL     1       2.115   3.047  -0.402  1.00  0.00     0.247 C 
ATOM     15  C   UNL     1       1.508   3.664  -2.498  1.00  0.00     0.235 C 
ATOM     16  O   UNL     1       2.119   2.480   0.682  1.00  0.00    -0.273 OA
ATOM     17  O   UNL     1       1.066   3.664  -3.638  1.00  0.00    -0.274 OA
BRANCH  12  18
ATOM     18  S   UNL     1       4.461   4.359  -1.133  1.00  0.00    -0.136 SA
BRANCH  18  19
ATOM     19  C   UNL     1       5.256   3.627   0.339  1.00  0.00     0.192 C 
BRANCH  19  20
ATOM     20  C   UNL     1       5.704   2.208   0.062  1.00  0.00     0.315 C 
ATOM     21  O   UNL     1       6.872   1.862  -0.062  1.00  0.00    -0.251 OA
BRANCH  20  22
ATOM     22  O   UNL     1       4.629   1.384  -0.039  1.00  0.00    -0.465 OA
BRANCH  22  23
ATOM     23  C   UNL     1       4.883   0.015  -0.372  1.00  0.00     0.229 C 
ATOM     24  C   UNL     1       5.078  -0.120  -1.870  1.00  0.00     0.049 C 
ENDBRANCH  22  23
ENDBRANCH  20  22
ENDBRANCH  19  20
ENDBRANCH  18  19
ENDBRANCH  12  18
ENDBRANCH   6  11
BRANCH  10  25
ATOM     25  O   UNL     1       0.672  -1.937  -0.317  1.00  0.00    -0.507 OA
ATOM     26  H   UNL     1       0.621  -2.858  -0.480  1.00  0.00     0.293 HD
ENDBRANCH  10  25
ENDBRANCH   3   5
ENDBRANCH   2   3
ENDBRANCH   1   2
BRANCH   1  27
ATOM     27  C   UNL     1      -0.895  -5.177  -3.664  1.00  0.00     0.202 C 
BRANCH  27  28
ATOM     28  O   UNL     1      -1.112  -4.397  -4.839  1.00  0.00    -0.374 OA
BRANCH  28  29
ATOM     29  C   UNL     1      -1.406  -3.010  -4.678  1.00  0.00     0.202 C 
BRANCH  29  30
ATOM     30  C   UNL     1      -2.833  -2.641  -4.259  1.00  0.00     0.261 C 
BRANCH  30  31
ATOM     31  O   UNL     1      -3.192  -3.194  -2.981  1.00  0.00    -0.460 OA
BRANCH  31  32
ATOM     32  C   UNL     1      -4.078  -4.215  -3.051  1.00  0.00     0.338 C 
ATOM     33  O   UNL     1      -4.634  -4.646  -4.050  1.00  0.00    -0.246 OA
BRANCH  32  34
ATOM     34  C   UNL     1      -4.194  -4.892  -1.747  1.00  0.00     0.060 A 
ATOM     35  C   UNL     1      -4.083  -6.287  -1.744  1.00  0.00     0.016 A 
ATOM     36  C   UNL     1      -4.515  -4.201  -0.576  1.00  0.00     0.016 A 
ATOM     37  C   UNL     1      -4.378  -7.006  -0.590  1.00  0.00     0.010 A 
ATOM     38  C   UNL     1      -4.814  -4.926   0.584  1.00  0.00     0.010 A 
ATOM     39  C   UNL     1      -4.800  -6.333   0.564  1.00  0.00    -0.014 A 
BRANCH  39  40
ATOM     40  C   UNL     1      -5.405  -7.120   1.666  1.00  0.00     0.031 A 
ATOM     41  C   UNL     1      -6.905  -7.201   1.764  1.00  0.00     0.074 A 
ATOM     42  C   UNL     1      -4.636  -7.819   2.518  1.00  0.00     0.049 A 
ATOM     43  N   UNL     1      -7.647  -7.878   2.603  1.00  0.00    -0.248 NA
ATOM     44  C   UNL     1      -7.672  -6.417   0.781  1.00  0.00     0.031 C 
ATOM     45  C   UNL     1      -3.174  -7.861   2.502  1.00  0.00     0.029 A 
ATOM     46  N   UNL     1      -4.986  -8.643   3.558  1.00  0.00    -0.354 N 
ATOM     47  C   UNL     1      -8.963  -7.600   2.252  1.00  0.00     0.074 A 
ATOM     48  C   UNL     1      -8.920  -6.666   1.150  1.00  0.00     0.031 C 
ATOM     49  C   UNL     1      -2.752  -8.677   3.484  1.00  0.00     0.029 A 
ATOM     50  C   UNL     1      -3.911  -9.195   4.208  1.00  0.00     0.049 A 
ATOM     51  H   UNL     1      -5.920  -8.821   3.813  1.00  0.00     0.167 HD
ATOM     52  C   UNL     1     -10.107  -8.087   2.789  1.00  0.00     0.031 A 
ATOM     53  C   UNL     1      -3.867 -10.022   5.270  1.00  0.00     0.031 A 
ATOM     54  C   UNL     1     -10.157  -9.009   3.892  1.00  0.00     0.049 A 
ATOM     55  C   UNL     1      -5.153 -10.502   5.888  1.00  0.00     0.074 A 
ATOM     56  C   UNL     1     -11.267  -9.562   4.506  1.00  0.00     0.029 A 
ATOM     57  N   UNL     1      -9.044  -9.512   4.548  1.00  0.00    -0.354 N 
ATOM     58  N   UNL     1      -6.389 -10.249   5.532  1.00  0.00    -0.248 NA
ATOM     59  C   UNL     1      -5.033 -11.400   7.046  1.00  0.00     0.031 C 
ATOM     60  C   UNL     1     -10.827 -10.363   5.565  1.00  0.00     0.029 A 
ATOM     61  C   UNL     1      -9.441 -10.355   5.572  1.00  0.00     0.049 A 
ATOM     62  H   UNL     1      -8.110  -9.300   4.320  1.00  0.00     0.167 HD
ATOM     63  C   UNL     1      -7.192 -10.985   6.396  1.00  0.00     0.074 A 
ATOM     64  C   UNL     1      -6.301 -11.702   7.285  1.00  0.00     0.031 C 
ATOM     65  C   UNL     1      -8.544 -11.066   6.445  1.00  0.00     0.031 A 
BRANCH  52  66
ATOM     66  C   UNL     1     -11.404  -7.603   2.203  1.00  0.00    -0.014 A 
ATOM     67  C   UNL     1     -11.828  -8.014   0.928  1.00  0.00     0.009 A 
ATOM     68  C   UNL     1     -12.226  -6.742   2.946  1.00  0.00     0.009 A 
ATOM     69  C   UNL     1     -13.031  -7.544   0.398  1.00  0.00     0.001 A 
ATOM     70  C   UNL     1     -13.442  -6.296   2.425  1.00  0.00     0.001 A 
ATOM     71  C   UNL     1     -13.839  -6.690   1.148  1.00  0.00     0.000 A 
ENDBRANCH  52  66
BRANCH  53  72
ATOM     72  C   UNL     1      -2.558 -10.458   5.823  1.00  0.00    -0.014 A 
ATOM     73  C   UNL     1      -2.135 -11.790   5.701  1.00  0.00     0.009 A 
ATOM     74  C   UNL     1      -1.736  -9.544   6.501  1.00  0.00     0.009 A 
ATOM     75  C   UNL     1      -0.930 -12.205   6.273  1.00  0.00     0.001 A 
ATOM     76  C   UNL     1      -0.519  -9.955   7.047  1.00  0.00     0.001 A 
ATOM     77  C   UNL     1      -0.122 -11.287   6.942  1.00  0.00     0.000 A 
ENDBRANCH  53  72
BRANCH  65  78
ATOM     78  C   UNL     1      -9.141 -12.004   7.458  1.00  0.00    -0.014 A 
ATOM     79  C   UNL     1      -9.108 -11.720   8.832  1.00  0.00     0.009 A 
ATOM     80  C   UNL     1      -9.769 -13.182   7.022  1.00  0.00     0.009 A 
ATOM     81  C   UNL     1      -9.654 -12.619   9.752  1.00  0.00     0.001 A 
ATOM     82  C   UNL     1     -10.340 -14.063   7.941  1.00  0.00     0.001 A 
ATOM     83  C   UNL     1     -10.271 -13.787   9.305  1.00  0.00     0.000 A 
ENDBRANCH  65  78
ENDBRANCH  39  40
ENDBRANCH  32  34
ENDBRANCH  31  32
ENDBRANCH  30  31
ENDBRANCH  29  30
ENDBRANCH  28  29
ENDBRANCH  27  28
ENDBRANCH   1  27
TORSDOF 21
