REMARK SMILES CC(C)=CCc1cccc2c(C(=O)OCCOCCOC(=O)c3ccc(-c4c5nc(c(-c6ccccc6)c6ccc([nH]6)c(-c6ccccc6)c6nc(c(-c7ccccc7)c7ccc4[nH]7)C=C6)C=C5)cc3)c[nH]c12
REMARK SMILES IDX 17 1 16 2 15 3 14 4 12 5 13 6 11 7 6 8 7 9 73 10 8 11 10 12
REMARK SMILES IDX 72 13 9 14 71 15 5 17 4 18 1 19 2 20 3 21 18 22 19 23 20 24
REMARK SMILES IDX 21 25 22 26 23 27 24 28 70 29 25 30 69 31 26 32 27 33 28 34
REMARK SMILES IDX 63 35 29 36 68 37 62 38 64 39 30 40 67 41 61 42 60 43 31 45
REMARK SMILES IDX 53 46 38 47 52 48 39 49 42 50 51 51 65 52 40 53 41 54 50 56
REMARK SMILES IDX 66 57 43 58 32 59 33 60 37 61 34 62 36 63 35 64 54 65 55 66
REMARK SMILES IDX 59 67 56 68 58 69 57 70 44 71 45 72 49 73 46 74 48 75 47 76
REMARK H PARENT 72 16 64 44 42 55
REMARK Flexibility Score: inf
ROOT
ATOM      1  O   UNL     1       9.427   0.411   6.340  1.00  0.00    -0.374 OA
ENDROOT
BRANCH   1   2
ATOM      2  C   UNL     1       9.767   1.695   5.813  1.00  0.00     0.202 C 
BRANCH   2   3
ATOM      3  C   UNL     1       9.642   1.808   4.292  1.00  0.00     0.261 C 
BRANCH   3   4
ATOM      4  O   UNL     1       8.258   1.795   3.900  1.00  0.00    -0.460 OA
BRANCH   4   5
ATOM      5  C   UNL     1       7.824   0.641   3.317  1.00  0.00     0.340 C 
ATOM      6  O   UNL     1       8.559  -0.276   2.966  1.00  0.00    -0.246 OA
BRANCH   5   7
ATOM      7  C   UNL     1       6.369   0.545   3.242  1.00  0.00     0.085 A 
ATOM      8  C   UNL     1       2.869   1.592   3.148  1.00  0.00    -0.020 A 
ATOM      9  C   UNL     1       2.932   2.981   3.379  1.00  0.00     0.006 A 
ATOM     10  C   UNL     1       4.108   0.913   3.172  1.00  0.00     0.050 A 
ATOM     11  C   UNL     1       4.141   3.646   3.571  1.00  0.00     0.001 A 
ATOM     12  C   UNL     1       5.345   1.550   3.346  1.00  0.00     0.014 A 
ATOM     13  N   UNL     1       4.372  -0.433   3.043  1.00  0.00    -0.360 N 
ATOM     14  C   UNL     1       5.349   2.946   3.548  1.00  0.00     0.011 A 
ATOM     15  C   UNL     1       5.714  -0.663   3.074  1.00  0.00     0.099 A 
ATOM     16  H   UNL     1       3.686  -1.132   2.942  1.00  0.00     0.166 HD
BRANCH   8  17
ATOM     17  C   UNL     1       1.540   0.897   2.927  1.00  0.00     0.065 C 
BRANCH  17  18
ATOM     18  C   UNL     1       0.651   1.577   1.919  1.00  0.00    -0.024 C 
ATOM     19  C   UNL     1       1.036  -0.007   0.009  1.00  0.00     0.039 C 
ATOM     20  C   UNL     1       0.409   1.199   0.647  1.00  0.00    -0.080 C 
ATOM     21  C   UNL     1      -0.512   2.023  -0.213  1.00  0.00     0.039 C 
ENDBRANCH  17  18
ENDBRANCH   8  17
ENDBRANCH   5   7
ENDBRANCH   4   5
ENDBRANCH   3   4
ENDBRANCH   2   3
ENDBRANCH   1   2
BRANCH   1  22
ATOM     22  C   UNL     1       8.046   0.199   6.642  1.00  0.00     0.202 C 
BRANCH  22  23
ATOM     23  C   UNL     1       7.618   0.675   8.034  1.00  0.00     0.261 C 
BRANCH  23  24
ATOM     24  O   UNL     1       7.595   2.113   8.096  1.00  0.00    -0.460 OA
BRANCH  24  25
ATOM     25  C   UNL     1       8.585   2.672   8.829  1.00  0.00     0.338 C 
ATOM     26  O   UNL     1       9.406   2.100   9.525  1.00  0.00    -0.246 OA
BRANCH  25  27
ATOM     27  C   UNL     1       8.658   4.119   8.543  1.00  0.00     0.060 A 
ATOM     28  C   UNL     1       9.928   4.663   8.308  1.00  0.00     0.016 A 
ATOM     29  C   UNL     1       7.528   4.941   8.556  1.00  0.00     0.016 A 
ATOM     30  C   UNL     1      10.079   6.037   8.140  1.00  0.00     0.010 A 
ATOM     31  C   UNL     1       7.682   6.322   8.394  1.00  0.00     0.010 A 
ATOM     32  C   UNL     1       8.962   6.878   8.223  1.00  0.00    -0.014 A 
BRANCH  32  33
ATOM     33  C   UNL     1       9.161   8.346   8.284  1.00  0.00     0.031 A 
ATOM     34  C   UNL     1       9.170   9.025   9.626  1.00  0.00     0.074 A 
ATOM     35  C   UNL     1       9.371   9.062   7.165  1.00  0.00     0.049 A 
ATOM     36  N   UNL     1       9.335  10.291   9.913  1.00  0.00    -0.248 NA
ATOM     37  C   UNL     1       8.966   8.161  10.800  1.00  0.00     0.031 C 
ATOM     38  C   UNL     1       9.426   8.518   5.809  1.00  0.00     0.029 A 
ATOM     39  N   UNL     1       9.578  10.408   7.000  1.00  0.00    -0.354 N 
ATOM     40  C   UNL     1       9.254  10.376  11.297  1.00  0.00     0.074 A 
ATOM     41  C   UNL     1       8.994   9.041  11.790  1.00  0.00     0.031 C 
ATOM     42  C   UNL     1       9.651   9.525   4.947  1.00  0.00     0.029 A 
ATOM     43  C   UNL     1       9.729  10.783   5.688  1.00  0.00     0.049 A 
ATOM     44  H   UNL     1       9.616  11.044   7.751  1.00  0.00     0.167 HD
ATOM     45  C   UNL     1       9.389  11.465  12.090  1.00  0.00     0.031 A 
ATOM     46  C   UNL     1       9.897  12.004   5.147  1.00  0.00     0.031 A 
ATOM     47  C   UNL     1       9.633  12.797  11.605  1.00  0.00     0.049 A 
ATOM     48  C   UNL     1       9.969  13.211   6.043  1.00  0.00     0.074 A 
ATOM     49  C   UNL     1       9.801  13.962  12.332  1.00  0.00     0.029 A 
ATOM     50  N   UNL     1       9.734  13.141  10.267  1.00  0.00    -0.354 N 
ATOM     51  N   UNL     1       9.920  13.273   7.351  1.00  0.00    -0.248 NA
ATOM     52  C   UNL     1      10.127  14.516   5.384  1.00  0.00     0.031 C 
ATOM     53  C   UNL     1       9.954  15.021  11.430  1.00  0.00     0.029 A 
ATOM     54  C   UNL     1       9.934  14.505  10.145  1.00  0.00     0.049 A 
ATOM     55  H   UNL     1       9.673  12.509   9.514  1.00  0.00     0.167 HD
ATOM     56  C   UNL     1      10.067  14.617   7.673  1.00  0.00     0.074 A 
ATOM     57  C   UNL     1      10.218  15.334   6.424  1.00  0.00     0.031 C 
ATOM     58  C   UNL     1      10.079  15.204   8.895  1.00  0.00     0.031 A 
BRANCH  45  59
ATOM     59  C   UNL     1       9.242  11.259  13.570  1.00  0.00    -0.014 A 
ATOM     60  C   UNL     1      10.241  10.618  14.319  1.00  0.00     0.009 A 
ATOM     61  C   UNL     1       8.095  11.732  14.227  1.00  0.00     0.009 A 
ATOM     62  C   UNL     1      10.078  10.424  15.692  1.00  0.00     0.001 A 
ATOM     63  C   UNL     1       7.947  11.559  15.604  1.00  0.00     0.001 A 
ATOM     64  C   UNL     1       8.934  10.897  16.334  1.00  0.00     0.000 A 
ENDBRANCH  45  59
BRANCH  46  65
ATOM     65  C   UNL     1       9.995  12.154   3.672  1.00  0.00    -0.014 A 
ATOM     66  C   UNL     1      11.213  12.495   3.067  1.00  0.00     0.009 A 
ATOM     67  C   UNL     1       8.861  11.970   2.864  1.00  0.00     0.009 A 
ATOM     68  C   UNL     1      11.289  12.670   1.683  1.00  0.00     0.001 A 
ATOM     69  C   UNL     1       8.947  12.121   1.479  1.00  0.00     0.001 A 
ATOM     70  C   UNL     1      10.158  12.478   0.890  1.00  0.00     0.000 A 
ENDBRANCH  46  65
BRANCH  58  71
ATOM     71  C   UNL     1      10.291  16.691   8.942  1.00  0.00    -0.014 A 
ATOM     72  C   UNL     1       9.273  17.584   8.573  1.00  0.00     0.009 A 
ATOM     73  C   UNL     1      11.512  17.204   9.407  1.00  0.00     0.009 A 
ATOM     74  C   UNL     1       9.486  18.962   8.641  1.00  0.00     0.001 A 
ATOM     75  C   UNL     1      11.712  18.582   9.498  1.00  0.00     0.001 A 
ATOM     76  C   UNL     1      10.702  19.460   9.107  1.00  0.00     0.000 A 
ENDBRANCH  58  71
ENDBRANCH  32  33
ENDBRANCH  25  27
ENDBRANCH  24  25
ENDBRANCH  23  24
ENDBRANCH  22  23
ENDBRANCH   1  22
TORSDOF 16
