REMARK SMILES O=C(OCCOCCOC(=O)c1ccc(F)cc1-c1ccc(F)c(Cl)c1)c1ccc(-c2c3nc(c(-c4ccccc4)c4ccc([nH]4)c(-c4ccccc4)c4nc(c(-c5ccccc5)c5ccc2[nH]5)C=C4)C=C3)cc1
REMARK SMILES IDX 5 1 4 2 3 3 2 4 1 5 27 6 28 7 74 8 29 9 73 10 30 11 31 12
REMARK SMILES IDX 32 13 67 14 33 15 72 16 66 17 68 18 34 19 71 20 65 21 64 22
REMARK SMILES IDX 35 24 57 25 42 26 56 27 43 28 46 29 55 30 69 31 44 32 45 33
REMARK SMILES IDX 54 35 70 36 47 37 36 38 37 39 41 40 38 41 40 42 39 43 58 44
REMARK SMILES IDX 59 45 63 46 60 47 62 48 61 49 48 50 49 51 53 52 50 53 52 54
REMARK SMILES IDX 51 55 6 56 7 57 8 58 9 59 10 60 11 61 12 62 13 63 18 64
REMARK SMILES IDX 14 65 17 66 15 67 16 68 19 69 20 70 26 71 21 72 24 73 22 74
REMARK SMILES IDX 25 75 23 76
REMARK H PARENT 68 23 46 34
REMARK Flexibility Score: inf
ROOT
ATOM      1  C   UNL     1       3.873   0.912  -0.759  1.00  0.00     0.202 C 
ENDROOT
BRANCH   1   2
ATOM      2  C   UNL     1       3.222  -0.474  -0.786  1.00  0.00     0.261 C 
BRANCH   2   3
ATOM      3  O   UNL     1       1.853  -0.441  -0.339  1.00  0.00    -0.460 OA
BRANCH   3   4
ATOM      4  C   UNL     1       1.398  -1.043   0.795  1.00  0.00     0.338 C 
ATOM      5  O   UNL     1       0.205  -1.282   0.941  1.00  0.00    -0.246 OA
BRANCH   4   6
ATOM      6  C   UNL     1       2.350  -1.411   1.875  1.00  0.00     0.060 A 
ATOM      7  C   UNL     1       3.438  -0.603   2.163  1.00  0.00     0.016 A 
ATOM      8  C   UNL     1       2.136  -2.525   2.683  1.00  0.00     0.016 A 
ATOM      9  C   UNL     1       4.415  -0.950   3.057  1.00  0.00     0.010 A 
ATOM     10  C   UNL     1       3.017  -2.785   3.744  1.00  0.00     0.010 A 
ATOM     11  C   UNL     1       4.162  -1.989   3.928  1.00  0.00    -0.014 A 
BRANCH  11  12
ATOM     12  C   UNL     1       5.136  -2.180   5.013  1.00  0.00     0.031 A 
ATOM     13  C   UNL     1       5.919  -3.446   5.047  1.00  0.00     0.074 A 
ATOM     14  C   UNL     1       5.385  -1.161   5.863  1.00  0.00     0.049 A 
ATOM     15  N   UNL     1       6.719  -3.890   5.974  1.00  0.00    -0.248 NA
ATOM     16  C   UNL     1       5.779  -4.337   3.882  1.00  0.00     0.031 C 
ATOM     17  C   UNL     1       4.768   0.174   5.807  1.00  0.00     0.029 A 
ATOM     18  N   UNL     1       6.251  -1.068   6.918  1.00  0.00    -0.354 N 
ATOM     19  C   UNL     1       7.139  -5.134   5.530  1.00  0.00     0.074 A 
ATOM     20  C   UNL     1       6.497  -5.382   4.259  1.00  0.00     0.031 C 
ATOM     21  C   UNL     1       5.308   0.957   6.752  1.00  0.00     0.029 A 
ATOM     22  C   UNL     1       6.213   0.152   7.554  1.00  0.00     0.049 A 
ATOM     23  H   UNL     1       6.844  -1.803   7.196  1.00  0.00     0.167 HD
ATOM     24  C   UNL     1       7.984  -5.988   6.147  1.00  0.00     0.031 A 
ATOM     25  C   UNL     1       6.800   0.547   8.697  1.00  0.00     0.031 A 
ATOM     26  C   UNL     1       8.597  -5.698   7.413  1.00  0.00     0.049 A 
ATOM     27  C   UNL     1       7.635  -0.469   9.422  1.00  0.00     0.074 A 
ATOM     28  C   UNL     1       9.401  -6.504   8.194  1.00  0.00     0.029 A 
ATOM     29  N   UNL     1       8.474  -4.482   8.075  1.00  0.00    -0.354 N 
ATOM     30  N   UNL     1       7.945  -1.692   9.059  1.00  0.00    -0.248 NA
ATOM     31  C   UNL     1       8.185  -0.063  10.718  1.00  0.00     0.031 C 
ATOM     32  C   UNL     1       9.727  -5.790   9.353  1.00  0.00     0.029 A 
ATOM     33  C   UNL     1       9.180  -4.518   9.262  1.00  0.00     0.049 A 
ATOM     34  H   UNL     1       7.960  -3.709   7.747  1.00  0.00     0.167 HD
ATOM     35  C   UNL     1       8.745  -2.196  10.071  1.00  0.00     0.074 A 
ATOM     36  C   UNL     1       8.894  -1.133  11.048  1.00  0.00     0.031 C 
ATOM     37  C   UNL     1       9.303  -3.426  10.195  1.00  0.00     0.031 A 
BRANCH  24  38
ATOM     38  C   UNL     1       8.204  -7.316   5.485  1.00  0.00    -0.014 A 
ATOM     39  C   UNL     1       8.927  -7.430   4.287  1.00  0.00     0.009 A 
ATOM     40  C   UNL     1       7.625  -8.467   6.042  1.00  0.00     0.009 A 
ATOM     41  C   UNL     1       9.028  -8.663   3.638  1.00  0.00     0.001 A 
ATOM     42  C   UNL     1       7.754  -9.703   5.406  1.00  0.00     0.001 A 
ATOM     43  C   UNL     1       8.444  -9.798   4.199  1.00  0.00     0.000 A 
ENDBRANCH  24  38
BRANCH  25  44
ATOM     44  C   UNL     1       6.544   1.899   9.268  1.00  0.00    -0.014 A 
ATOM     45  C   UNL     1       7.589   2.817   9.453  1.00  0.00     0.009 A 
ATOM     46  C   UNL     1       5.250   2.269   9.674  1.00  0.00     0.009 A 
ATOM     47  C   UNL     1       7.353   4.050  10.069  1.00  0.00     0.001 A 
ATOM     48  C   UNL     1       5.008   3.516  10.254  1.00  0.00     0.001 A 
ATOM     49  C   UNL     1       6.063   4.399  10.468  1.00  0.00     0.000 A 
ENDBRANCH  25  44
BRANCH  37  50
ATOM     50  C   UNL     1      10.162  -3.648  11.404  1.00  0.00    -0.014 A 
ATOM     51  C   UNL     1       9.605  -3.768  12.685  1.00  0.00     0.009 A 
ATOM     52  C   UNL     1      11.550  -3.776  11.243  1.00  0.00     0.009 A 
ATOM     53  C   UNL     1      10.430  -3.973  13.791  1.00  0.00     0.001 A 
ATOM     54  C   UNL     1      12.367  -4.018  12.345  1.00  0.00     0.001 A 
ATOM     55  C   UNL     1      11.808  -4.105  13.618  1.00  0.00     0.000 A 
ENDBRANCH  37  50
ENDBRANCH  11  12
ENDBRANCH   4   6
ENDBRANCH   3   4
ENDBRANCH   2   3
ENDBRANCH   1   2
BRANCH   1  56
ATOM     56  O   UNL     1       3.606   1.711   0.378  1.00  0.00    -0.374 OA
BRANCH  56  57
ATOM     57  C   UNL     1       2.458   2.538   0.324  1.00  0.00     0.202 C 
BRANCH  57  58
ATOM     58  C   UNL     1       2.944   3.975   0.204  1.00  0.00     0.261 C 
BRANCH  58  59
ATOM     59  O   UNL     1       3.624   4.128  -1.056  1.00  0.00    -0.460 OA
BRANCH  59  60
ATOM     60  C   UNL     1       4.959   3.856  -1.117  1.00  0.00     0.338 C 
ATOM     61  O   UNL     1       5.718   3.630  -0.192  1.00  0.00    -0.246 OA
BRANCH  60  62
ATOM     62  C   UNL     1       5.324   3.822  -2.560  1.00  0.00     0.068 A 
ATOM     63  C   UNL     1       4.701   4.803  -3.366  1.00  0.00     0.019 A 
ATOM     64  C   UNL     1       6.184   2.858  -3.147  1.00  0.00    -0.001 A 
ATOM     65  C   UNL     1       4.901   4.834  -4.740  1.00  0.00     0.040 A 
ATOM     66  C   UNL     1       6.385   2.941  -4.542  1.00  0.00     0.048 A 
ATOM     67  C   UNL     1       5.747   3.905  -5.314  1.00  0.00     0.123 A 
ATOM     68  F   UNL     1       5.945   3.921  -6.637  1.00  0.00    -0.207 F 
BRANCH  64  69
ATOM     69  C   UNL     1       6.837   1.713  -2.477  1.00  0.00    -0.016 A 
ATOM     70  C   UNL     1       6.354   0.403  -2.701  1.00  0.00     0.012 A 
ATOM     71  C   UNL     1       8.027   1.853  -1.746  1.00  0.00     0.032 A 
ATOM     72  C   UNL     1       6.986  -0.717  -2.149  1.00  0.00     0.041 A 
ATOM     73  C   UNL     1       8.690   0.726  -1.238  1.00  0.00     0.077 A 
ATOM     74  C   UNL     1       8.157  -0.548  -1.424  1.00  0.00     0.141 A 
ATOM     75  Cl  UNL     1      10.199   0.920  -0.430  1.00  0.00    -0.081 Cl
ATOM     76  F   UNL     1       8.768  -1.635  -0.929  1.00  0.00    -0.205 F 
ENDBRANCH  64  69
ENDBRANCH  60  62
ENDBRANCH  59  60
ENDBRANCH  58  59
ENDBRANCH  57  58
ENDBRANCH  56  57
ENDBRANCH   1  56
TORSDOF 15
