REMARK SMILES C[C@H](CC(=O)OCCOCCOC(=O)c1ccc(-c2c3nc(c(-c4ccccc4)c4ccc([nH]4)c(-c4ccccc4)c4nc(c(-c5ccccc5)c5ccc2[nH]5)C=C4)C=C3)cc1)NC(=O)[C@H]1CC(=O)N(C2CC2)C1
REMARK SMILES IDX 8 1 7 2 6 3 4 4 5 5 3 6 2 7 1 8 63 9 64 10 65 12 66 13 67 14
REMARK SMILES IDX 74 15 68 16 70 17 69 18 71 19 72 20 73 21 9 22 10 23 11 24
REMARK SMILES IDX 12 25 13 26 14 27 15 28 16 29 62 30 17 31 61 32 18 33 19 34
REMARK SMILES IDX 20 35 55 36 21 37 60 38 54 39 56 40 22 41 59 42 53 43 52 44
REMARK SMILES IDX 23 46 45 47 30 48 44 49 31 50 34 51 43 52 57 53 32 54 33 55
REMARK SMILES IDX 42 57 58 58 35 59 24 60 25 61 29 62 26 63 28 64 27 65 46 66
REMARK SMILES IDX 47 67 51 68 48 69 50 70 49 71 36 72 37 73 41 74 38 75 40 76
REMARK SMILES IDX 39 77
REMARK H PARENT 63 11 56 45 34 56
REMARK Flexibility Score: inf
ROOT
ATOM      1  C   UNL     1      -6.472  -1.558   4.770  1.00  0.00     0.202 C 
ENDROOT
BRANCH   1   2
ATOM      2  C   UNL     1      -6.116  -1.545   3.281  1.00  0.00     0.261 C 
BRANCH   2   3
ATOM      3  O   UNL     1      -5.184  -0.495   2.961  1.00  0.00    -0.463 OA
BRANCH   3   4
ATOM      4  C   UNL     1      -5.658   0.538   2.214  1.00  0.00     0.307 C 
ATOM      5  O   UNL     1      -6.805   0.641   1.801  1.00  0.00    -0.252 OA
BRANCH   4   6
ATOM      6  C   UNL     1      -4.570   1.530   1.872  1.00  0.00     0.147 C 
BRANCH   6   7
ATOM      7  C   UNL     1      -3.737   2.113   3.022  1.00  0.00     0.090 C 
ATOM      8  C   UNL     1      -4.455   3.184   3.845  1.00  0.00     0.031 C 
BRANCH   7   9
ATOM      9  N   UNL     1      -3.135   1.104   3.891  1.00  0.00    -0.353 N 
ATOM     10  C   UNL     1      -1.832   0.706   3.984  1.00  0.00     0.225 C 
ATOM     11  H   UNL     1      -3.759   0.645   4.498  1.00  0.00     0.163 HD
ATOM     12  O   UNL     1      -1.539  -0.208   4.751  1.00  0.00    -0.275 OA
BRANCH  10  13
ATOM     13  C   UNL     1      -0.810   1.414   3.136  1.00  0.00     0.107 C 
ATOM     14  C   UNL     1      -0.454   2.792   3.687  1.00  0.00     0.115 C 
ATOM     15  C   UNL     1       0.534   0.712   3.124  1.00  0.00     0.133 C 
ATOM     16  C   UNL     1       0.928   3.019   3.132  1.00  0.00     0.223 C 
ATOM     17  N   UNL     1       1.444   1.774   2.772  1.00  0.00    -0.339 N 
ATOM     18  O   UNL     1       1.454   4.117   3.052  1.00  0.00    -0.275 OA
BRANCH  17  19
ATOM     19  C   UNL     1       2.720   1.487   2.200  1.00  0.00     0.085 C 
ATOM     20  C   UNL     1       3.610   2.520   1.567  1.00  0.00     0.027 C 
ATOM     21  C   UNL     1       3.990   1.906   2.885  1.00  0.00     0.027 C 
ENDBRANCH  17  19
ENDBRANCH  10  13
ENDBRANCH   7   9
ENDBRANCH   6   7
ENDBRANCH   4   6
ENDBRANCH   3   4
ENDBRANCH   2   3
ENDBRANCH   1   2
BRANCH   1  22
ATOM     22  O   UNL     1      -7.277  -0.475   5.232  1.00  0.00    -0.374 OA
BRANCH  22  23
ATOM     23  C   UNL     1      -6.620   0.768   5.467  1.00  0.00     0.202 C 
BRANCH  23  24
ATOM     24  C   UNL     1      -5.836   0.881   6.779  1.00  0.00     0.261 C 
BRANCH  24  25
ATOM     25  O   UNL     1      -4.700  -0.005   6.794  1.00  0.00    -0.460 OA
BRANCH  25  26
ATOM     26  C   UNL     1      -4.756  -0.981   7.732  1.00  0.00     0.338 C 
ATOM     27  O   UNL     1      -5.608  -1.123   8.603  1.00  0.00    -0.246 OA
BRANCH  26  28
ATOM     28  C   UNL     1      -3.736  -2.010   7.468  1.00  0.00     0.060 A 
ATOM     29  C   UNL     1      -4.178  -3.324   7.267  1.00  0.00     0.016 A 
ATOM     30  C   UNL     1      -2.373  -1.715   7.476  1.00  0.00     0.016 A 
ATOM     31  C   UNL     1      -3.253  -4.354   7.094  1.00  0.00     0.010 A 
ATOM     32  C   UNL     1      -1.447  -2.752   7.310  1.00  0.00     0.010 A 
ATOM     33  C   UNL     1      -1.880  -4.078   7.138  1.00  0.00    -0.014 A 
BRANCH  33  34
ATOM     34  C   UNL     1      -0.900  -5.190   7.077  1.00  0.00     0.031 A 
ATOM     35  C   UNL     1      -0.262  -5.691   8.341  1.00  0.00     0.074 A 
ATOM     36  C   UNL     1      -0.594  -5.763   5.898  1.00  0.00     0.049 A 
ATOM     37  N   UNL     1       0.638  -6.629   8.499  1.00  0.00    -0.248 NA
ATOM     38  C   UNL     1      -0.695  -5.053   9.594  1.00  0.00     0.031 C 
ATOM     39  C   UNL     1      -1.173  -5.399   4.606  1.00  0.00     0.029 A 
ATOM     40  N   UNL     1       0.288  -6.772   5.601  1.00  0.00    -0.354 N 
ATOM     41  C   UNL     1       0.882  -6.692   9.865  1.00  0.00     0.074 A 
ATOM     42  C   UNL     1       0.055  -5.681  10.489  1.00  0.00     0.031 C 
ATOM     43  C   UNL     1      -0.628  -6.173   3.652  1.00  0.00     0.029 A 
ATOM     44  C   UNL     1       0.366  -7.055   4.260  1.00  0.00     0.049 A 
ATOM     45  H   UNL     1       0.813  -7.248   6.284  1.00  0.00     0.167 HD
ATOM     46  C   UNL     1       1.717  -7.519  10.540  1.00  0.00     0.031 A 
ATOM     47  C   UNL     1       1.168  -7.907   3.593  1.00  0.00     0.031 A 
ATOM     48  C   UNL     1       2.556  -8.511   9.920  1.00  0.00     0.049 A 
ATOM     49  C   UNL     1       2.161  -8.742   4.356  1.00  0.00     0.074 A 
ATOM     50  C   UNL     1       3.418  -9.410  10.525  1.00  0.00     0.029 A 
ATOM     51  N   UNL     1       2.651  -8.723   8.554  1.00  0.00    -0.354 N 
ATOM     52  N   UNL     1       2.357  -8.816   5.650  1.00  0.00    -0.248 NA
ATOM     53  C   UNL     1       3.045  -9.609   3.563  1.00  0.00     0.031 C 
ATOM     54  C   UNL     1       4.082 -10.122   9.520  1.00  0.00     0.029 A 
ATOM     55  C   UNL     1       3.589  -9.709   8.293  1.00  0.00     0.049 A 
ATOM     56  H   UNL     1       2.130  -8.244   7.870  1.00  0.00     0.167 HD
ATOM     57  C   UNL     1       3.372  -9.749   5.827  1.00  0.00     0.074 A 
ATOM     58  C   UNL     1       3.736 -10.229   4.510  1.00  0.00     0.031 C 
ATOM     59  C   UNL     1       3.953 -10.168   6.978  1.00  0.00     0.031 A 
BRANCH  46  60
ATOM     60  C   UNL     1       1.794  -7.358  12.033  1.00  0.00    -0.014 A 
ATOM     61  C   UNL     1       0.741  -7.764  12.867  1.00  0.00     0.009 A 
ATOM     62  C   UNL     1       2.958  -6.832  12.615  1.00  0.00     0.009 A 
ATOM     63  C   UNL     1       0.840  -7.617  14.252  1.00  0.00     0.001 A 
ATOM     64  C   UNL     1       3.065  -6.711  14.002  1.00  0.00     0.001 A 
ATOM     65  C   UNL     1       2.003  -7.095  14.818  1.00  0.00     0.000 A 
ENDBRANCH  46  60
BRANCH  47  66
ATOM     66  C   UNL     1       1.097  -7.989   2.111  1.00  0.00    -0.014 A 
ATOM     67  C   UNL     1       0.610  -9.143   1.478  1.00  0.00     0.009 A 
ATOM     68  C   UNL     1       1.539  -6.917   1.319  1.00  0.00     0.009 A 
ATOM     69  C   UNL     1       0.588  -9.229   0.084  1.00  0.00     0.001 A 
ATOM     70  C   UNL     1       1.487  -6.994  -0.074  1.00  0.00     0.001 A 
ATOM     71  C   UNL     1       1.021  -8.154  -0.690  1.00  0.00     0.000 A 
ENDBRANCH  47  66
BRANCH  59  72
ATOM     72  C   UNL     1       5.033 -11.208   6.866  1.00  0.00    -0.014 A 
ATOM     73  C   UNL     1       6.302 -10.886   6.360  1.00  0.00     0.009 A 
ATOM     74  C   UNL     1       4.792 -12.518   7.312  1.00  0.00     0.009 A 
ATOM     75  C   UNL     1       7.297 -11.862   6.274  1.00  0.00     0.001 A 
ATOM     76  C   UNL     1       5.797 -13.484   7.252  1.00  0.00     0.001 A 
ATOM     77  C   UNL     1       7.046 -13.158   6.725  1.00  0.00     0.000 A 
ENDBRANCH  59  72
ENDBRANCH  33  34
ENDBRANCH  26  28
ENDBRANCH  25  26
ENDBRANCH  24  25
ENDBRANCH  23  24
ENDBRANCH  22  23
ENDBRANCH   1  22
TORSDOF 18
