REMARK SMILES NC(=O)C[NH+]1CCC(C(=O)N[C@H](C(=O)OCCOCCOC(=O)c2ccc(-c3c4nc(c(-c5ccccc5)c5ccc([nH]5)c(-c5ccccc5)c5nc(c(-c6ccccc6)c6ccc3[nH]6)C=C5)C=C4)cc2)c2ccc(Cl)cc2)CC1
REMARK SMILES IDX 17 1 16 2 15 3 13 4 14 5 12 6 11 7 9 8 10 9 8 11 5 12 6 13
REMARK SMILES IDX 80 14 7 16 79 17 4 18 2 19 1 20 3 23 72 24 73 25 78 26 74 27
REMARK SMILES IDX 77 28 75 29 76 30 18 31 19 32 20 33 21 34 22 35 23 36 24 37
REMARK SMILES IDX 25 38 71 39 26 40 70 41 27 42 28 43 29 44 64 45 30 46 69 47
REMARK SMILES IDX 63 48 65 49 31 50 68 51 62 52 61 53 32 55 54 56 39 57 53 58
REMARK SMILES IDX 40 59 43 60 52 61 66 62 41 63 42 64 51 66 67 67 44 68 33 69
REMARK SMILES IDX 34 70 38 71 35 72 37 73 36 74 55 75 56 76 60 77 57 78 59 79
REMARK SMILES IDX 58 80 45 81 46 82 50 83 47 84 49 85 48 86
REMARK H PARENT 11 10 5 15 1 21 1 22 65 54 43 65
REMARK Flexibility Score: inf
ROOT
ATOM      1  C   UNL     1       4.041   2.058  -8.833  1.00  0.00     0.202 C 
ENDROOT
BRANCH   1   2
ATOM      2  C   UNL     1       4.289   3.023  -7.675  1.00  0.00     0.261 C 
BRANCH   2   3
ATOM      3  O   UNL     1       4.735   2.353  -6.498  1.00  0.00    -0.461 OA
BRANCH   3   4
ATOM      4  C   UNL     1       3.749   2.133  -5.579  1.00  0.00     0.333 C 
ATOM      5  O   UNL     1       2.578   2.474  -5.703  1.00  0.00    -0.249 OA
BRANCH   4   6
ATOM      6  C   UNL     1       4.328   1.586  -4.282  1.00  0.00     0.223 C 
BRANCH   6   7
ATOM      7  N   UNL     1       5.562   0.562  -4.490  1.00  0.00    -0.339 N 
ATOM      8  C   UNL     1       6.743   0.122  -3.870  1.00  0.00     0.224 C 
ATOM      9  O   UNL     1       7.121  -1.013  -4.194  1.00  0.00    -0.275 OA
ATOM     10  H   UNL     1       5.447   0.084  -5.343  1.00  0.00     0.164 HD
BRANCH   8  11
ATOM     11  C   UNL     1       7.709   0.996  -2.872  1.00  0.00     0.089 C 
ATOM     12  N   UNL     1       5.479   3.822  -1.656  1.00  0.00    -0.327 N 
ATOM     13  C   UNL     1       6.536   3.809  -3.481  1.00  0.00     0.263 C 
ATOM     14  C   UNL     1       5.933   2.429  -0.467  1.00  0.00     0.263 C 
ATOM     15  H   UNL     1       5.308   4.471  -2.424  1.00  0.00     0.348 HD
ATOM     16  C   UNL     1       7.849   2.458  -3.788  1.00  0.00     0.075 C 
ATOM     17  C   UNL     1       7.197   1.100  -1.053  1.00  0.00     0.075 C 
BRANCH  12  18
ATOM     18  C   UNL     1       4.417   4.683  -0.964  1.00  0.00     0.363 C 
BRANCH  18  19
ATOM     19  C   UNL     1       4.329   4.457   0.549  1.00  0.00     0.272 C 
ATOM     20  N   UNL     1       3.327   3.625   0.962  1.00  0.00    -0.365 N 
ATOM     21  H   UNL     1       3.210   3.433   1.920  1.00  0.00     0.159 HD
ATOM     22  H   UNL     1       2.722   3.217   0.300  1.00  0.00     0.159 HD
ATOM     23  O   UNL     1       5.089   4.963   1.370  1.00  0.00    -0.269 OA
ENDBRANCH  18  19
ENDBRANCH  12  18
ENDBRANCH   8  11
ENDBRANCH   6   7
BRANCH   6  24
ATOM     24  C   UNL     1       4.663   2.776  -3.405  1.00  0.00    -0.014 A 
ATOM     25  C   UNL     1       6.003   2.243  -2.536  1.00  0.00     0.008 A 
ATOM     26  C   UNL     1       4.470   4.505  -3.601  1.00  0.00     0.008 A 
ATOM     27  C   UNL     1       7.362   3.420  -1.788  1.00  0.00     0.021 A 
ATOM     28  C   UNL     1       5.635   5.674  -2.921  1.00  0.00     0.021 A 
ATOM     29  C   UNL     1       7.053   5.173  -1.959  1.00  0.00     0.041 A 
ATOM     30  Cl  UNL     1       8.134   6.333  -1.320  1.00  0.00    -0.084 Cl
ENDBRANCH   6  24
ENDBRANCH   4   6
ENDBRANCH   3   4
ENDBRANCH   2   3
ENDBRANCH   1   2
BRANCH   1  31
ATOM     31  O   UNL     1       3.309   0.865  -8.586  1.00  0.00    -0.374 OA
BRANCH  31  32
ATOM     32  C   UNL     1       3.889  -0.185  -7.816  1.00  0.00     0.202 C 
BRANCH  32  33
ATOM     33  C   UNL     1       5.177  -0.871  -8.288  1.00  0.00     0.261 C 
BRANCH  33  34
ATOM     34  O   UNL     1       6.311   0.009  -8.331  1.00  0.00    -0.460 OA
BRANCH  34  35
ATOM     35  C   UNL     1       6.729   0.317  -9.582  1.00  0.00     0.338 C 
ATOM     36  O   UNL     1       6.234  -0.033 -10.640  1.00  0.00    -0.246 OA
BRANCH  35  37
ATOM     37  C   UNL     1       7.807   1.311  -9.515  1.00  0.00     0.060 A 
ATOM     38  C   UNL     1       7.588   2.582 -10.066  1.00  0.00     0.016 A 
ATOM     39  C   UNL     1       9.065   0.934  -9.051  1.00  0.00     0.016 A 
ATOM     40  C   UNL     1       8.650   3.470 -10.204  1.00  0.00     0.010 A 
ATOM     41  C   UNL     1      10.128   1.822  -9.200  1.00  0.00     0.010 A 
ATOM     42  C   UNL     1       9.934   3.073  -9.815  1.00  0.00    -0.014 A 
BRANCH  42  43
ATOM     43  C   UNL     1      11.119   3.877 -10.186  1.00  0.00     0.031 A 
ATOM     44  C   UNL     1      12.002   3.383 -11.297  1.00  0.00     0.074 A 
ATOM     45  C   UNL     1      11.427   4.998  -9.513  1.00  0.00     0.049 A 
ATOM     46  N   UNL     1      13.182   3.807 -11.666  1.00  0.00    -0.248 NA
ATOM     47  C   UNL     1      11.494   2.247 -12.087  1.00  0.00     0.031 C 
ATOM     48  C   UNL     1      10.615   5.604  -8.458  1.00  0.00     0.029 A 
ATOM     49  N   UNL     1      12.531   5.808  -9.599  1.00  0.00    -0.354 N 
ATOM     50  C   UNL     1      13.572   2.971 -12.705  1.00  0.00     0.074 A 
ATOM     51  C   UNL     1      12.513   2.006 -12.899  1.00  0.00     0.031 C 
ATOM     52  C   UNL     1      11.264   6.677  -7.974  1.00  0.00     0.029 A 
ATOM     53  C   UNL     1      12.557   6.795  -8.645  1.00  0.00     0.049 A 
ATOM     54  H   UNL     1      13.234   5.693 -10.278  1.00  0.00     0.167 HD
ATOM     55  C   UNL     1      14.717   3.005 -13.426  1.00  0.00     0.031 A 
ATOM     56  C   UNL     1      13.536   7.662  -8.319  1.00  0.00     0.031 A 
ATOM     57  C   UNL     1      15.766   3.966 -13.219  1.00  0.00     0.049 A 
ATOM     58  C   UNL     1      14.837   7.621  -9.080  1.00  0.00     0.074 A 
ATOM     59  C   UNL     1      16.954   4.103 -13.915  1.00  0.00     0.029 A 
ATOM     60  N   UNL     1      15.758   4.944 -12.237  1.00  0.00    -0.354 N 
ATOM     61  N   UNL     1      15.190   6.844 -10.076  1.00  0.00    -0.248 NA
ATOM     62  C   UNL     1      15.874   8.582  -8.676  1.00  0.00     0.031 C 
ATOM     63  C   UNL     1      17.700   5.112 -13.303  1.00  0.00     0.029 A 
ATOM     64  C   UNL     1      16.936   5.666 -12.288  1.00  0.00     0.049 A 
ATOM     65  H   UNL     1      15.024   5.101 -11.600  1.00  0.00     0.167 HD
ATOM     66  C   UNL     1      16.466   7.255 -10.445  1.00  0.00     0.074 A 
ATOM     67  C   UNL     1      16.823   8.351  -9.571  1.00  0.00     0.031 C 
ATOM     68  C   UNL     1      17.266   6.772 -11.426  1.00  0.00     0.031 A 
BRANCH  55  69
ATOM     69  C   UNL     1      14.923   1.950 -14.477  1.00  0.00    -0.014 A 
ATOM     70  C   UNL     1      14.166   1.928 -15.658  1.00  0.00     0.009 A 
ATOM     71  C   UNL     1      15.946   1.002 -14.309  1.00  0.00     0.009 A 
ATOM     72  C   UNL     1      14.414   0.964 -16.638  1.00  0.00     0.001 A 
ATOM     73  C   UNL     1      16.214   0.061 -15.304  1.00  0.00     0.001 A 
ATOM     74  C   UNL     1      15.443   0.038 -16.465  1.00  0.00     0.000 A 
ENDBRANCH  55  69
BRANCH  56  75
ATOM     75  C   UNL     1      13.352   8.614  -7.190  1.00  0.00    -0.014 A 
ATOM     76  C   UNL     1      13.331   9.998  -7.417  1.00  0.00     0.009 A 
ATOM     77  C   UNL     1      13.241   8.143  -5.871  1.00  0.00     0.009 A 
ATOM     78  C   UNL     1      13.250  10.891  -6.345  1.00  0.00     0.001 A 
ATOM     79  C   UNL     1      13.119   9.037  -4.805  1.00  0.00     0.001 A 
ATOM     80  C   UNL     1      13.141  10.410  -5.041  1.00  0.00     0.000 A 
ENDBRANCH  56  75
BRANCH  68  81
ATOM     81  C   UNL     1      18.576   7.469 -11.675  1.00  0.00    -0.014 A 
ATOM     82  C   UNL     1      19.653   7.366 -10.782  1.00  0.00     0.009 A 
ATOM     83  C   UNL     1      18.758   8.167 -12.881  1.00  0.00     0.009 A 
ATOM     84  C   UNL     1      20.877   7.967 -11.083  1.00  0.00     0.001 A 
ATOM     85  C   UNL     1      19.992   8.734 -13.196  1.00  0.00     0.001 A 
ATOM     86  C   UNL     1      21.049   8.640 -12.294  1.00  0.00     0.000 A 
ENDBRANCH  68  81
ENDBRANCH  42  43
ENDBRANCH  35  37
ENDBRANCH  34  35
ENDBRANCH  33  34
ENDBRANCH  32  33
ENDBRANCH  31  32
ENDBRANCH   1  31
TORSDOF 19
