REMARK SMILES COc1ccccc1-n1nnc(C(=O)OCCOCCOC(=O)c2ccc(-c3c4nc(c(-c5ccccc5)c5ccc([nH]5)c(-c5ccccc5)c5nc(c(-c6ccccc6)c6ccc3[nH]6)C=C5)C=C4)cc2)c1-c1ccc(Cl)cc1
REMARK SMILES IDX 18 1 17 2 16 3 15 4 13 5 14 6 12 7 9 8 10 9 72 10 11 11 8 12
REMARK SMILES IDX 3 13 4 14 5 15 7 16 6 17 2 18 1 19 73 20 74 21 79 22 75 23
REMARK SMILES IDX 78 24 76 25 77 26 19 27 20 28 21 29 22 30 23 31 24 32 25 33
REMARK SMILES IDX 71 34 26 35 70 36 27 37 28 38 29 39 64 40 30 41 69 42 63 43
REMARK SMILES IDX 65 44 31 45 68 46 62 47 61 48 32 50 54 51 39 52 53 53 40 54
REMARK SMILES IDX 43 55 52 56 66 57 41 58 42 59 51 61 67 62 44 63 33 64 34 65
REMARK SMILES IDX 38 66 35 67 37 68 36 69 55 70 56 71 60 72 57 73 59 74 58 75
REMARK SMILES IDX 45 76 46 77 50 78 47 79 49 80 48 81
REMARK H PARENT 65 49 43 60
REMARK Flexibility Score: inf
ROOT
ATOM      1  O   UNL     1       7.169  -1.087  -3.562  1.00  0.00    -0.374 OA
ENDROOT
BRANCH   1   2
ATOM      2  C   UNL     1       6.082  -0.677  -4.393  1.00  0.00     0.202 C 
BRANCH   2   3
ATOM      3  C   UNL     1       4.683  -1.137  -3.992  1.00  0.00     0.261 C 
BRANCH   3   4
ATOM      4  O   UNL     1       4.242  -0.423  -2.833  1.00  0.00    -0.458 OA
BRANCH   4   5
ATOM      5  C   UNL     1       4.089  -1.143  -1.683  1.00  0.00     0.361 C 
ATOM      6  O   UNL     1       4.208  -2.350  -1.597  1.00  0.00    -0.244 OA
BRANCH   5   7
ATOM      7  C   UNL     1       3.851  -0.273  -0.542  1.00  0.00     0.198 A 
ATOM      8  N   UNL     1       3.102   1.197   0.856  1.00  0.00    -0.208 N 
ATOM      9  N   UNL     1       3.973   0.413   1.530  1.00  0.00    -0.061 NA
ATOM     10  C   UNL     1       3.199   0.951  -0.508  1.00  0.00     0.109 A 
ATOM     11  N   UNL     1       4.329  -0.568   0.714  1.00  0.00    -0.122 NA
BRANCH   8  12
ATOM     12  C   UNL     1       2.181   2.011   1.541  1.00  0.00     0.109 A 
ATOM     13  C   UNL     1       0.836   2.071   1.149  1.00  0.00     0.144 A 
ATOM     14  C   UNL     1       0.002   3.030   1.721  1.00  0.00     0.049 A 
ATOM     15  C   UNL     1       0.486   3.881   2.715  1.00  0.00     0.004 A 
ATOM     16  C   UNL     1       2.652   2.812   2.592  1.00  0.00     0.032 A 
ATOM     17  C   UNL     1       1.803   3.760   3.163  1.00  0.00     0.003 A 
BRANCH  13  18
ATOM     18  O   UNL     1       0.259   1.280   0.191  1.00  0.00    -0.494 OA
ATOM     19  C   UNL     1       0.201  -0.106   0.539  1.00  0.00     0.278 C 
ENDBRANCH  13  18
ENDBRANCH   8  12
BRANCH  10  20
ATOM     20  C   UNL     1       2.628   1.794  -1.558  1.00  0.00     0.003 A 
ATOM     21  C   UNL     1       1.800   1.242  -2.545  1.00  0.00     0.012 A 
ATOM     22  C   UNL     1       2.905   3.169  -1.596  1.00  0.00     0.012 A 
ATOM     23  C   UNL     1       1.276   2.040  -3.562  1.00  0.00     0.021 A 
ATOM     24  C   UNL     1       2.375   3.970  -2.610  1.00  0.00     0.021 A 
ATOM     25  C   UNL     1       1.568   3.400  -3.592  1.00  0.00     0.041 A 
ATOM     26  Cl  UNL     1       0.928   4.383  -4.849  1.00  0.00    -0.084 Cl
ENDBRANCH  10  20
ENDBRANCH   5   7
ENDBRANCH   4   5
ENDBRANCH   3   4
ENDBRANCH   2   3
ENDBRANCH   1   2
BRANCH   1  27
ATOM     27  C   UNL     1       7.281  -0.605  -2.228  1.00  0.00     0.202 C 
BRANCH  27  28
ATOM     28  C   UNL     1       7.671   0.849  -2.008  1.00  0.00     0.261 C 
BRANCH  28  29
ATOM     29  O   UNL     1       6.844   1.762  -2.712  1.00  0.00    -0.460 OA
BRANCH  29  30
ATOM     30  C   UNL     1       7.384   2.167  -3.885  1.00  0.00     0.338 C 
ATOM     31  O   UNL     1       8.286   1.637  -4.510  1.00  0.00    -0.246 OA
BRANCH  30  32
ATOM     32  C   UNL     1       6.843   3.483  -4.226  1.00  0.00     0.060 A 
ATOM     33  C   UNL     1       7.262   4.034  -5.440  1.00  0.00     0.016 A 
ATOM     34  C   UNL     1       6.271   4.258  -3.209  1.00  0.00     0.016 A 
ATOM     35  C   UNL     1       7.341   5.404  -5.535  1.00  0.00     0.010 A 
ATOM     36  C   UNL     1       6.367   5.621  -3.299  1.00  0.00     0.010 A 
ATOM     37  C   UNL     1       6.995   6.166  -4.415  1.00  0.00    -0.014 A 
BRANCH  37  38
ATOM     38  C   UNL     1       7.201   7.595  -4.455  1.00  0.00     0.031 A 
ATOM     39  C   UNL     1       6.131   8.270  -5.216  1.00  0.00     0.074 A 
ATOM     40  C   UNL     1       8.177   8.200  -3.751  1.00  0.00     0.049 A 
ATOM     41  N   UNL     1       6.216   8.773  -6.402  1.00  0.00    -0.248 NA
ATOM     42  C   UNL     1       4.753   8.156  -4.704  1.00  0.00     0.031 C 
ATOM     43  C   UNL     1       9.088   7.614  -2.762  1.00  0.00     0.029 A 
ATOM     44  N   UNL     1       8.493   9.519  -3.697  1.00  0.00    -0.354 N 
ATOM     45  C   UNL     1       4.942   9.253  -6.678  1.00  0.00     0.074 A 
ATOM     46  C   UNL     1       4.056   8.610  -5.745  1.00  0.00     0.031 C 
ATOM     47  C   UNL     1       9.663   8.607  -2.041  1.00  0.00     0.029 A 
ATOM     48  C   UNL     1       9.267   9.887  -2.603  1.00  0.00     0.049 A 
ATOM     49  H   UNL     1       8.197  10.164  -4.380  1.00  0.00     0.167 HD
ATOM     50  C   UNL     1       4.773  10.401  -7.387  1.00  0.00     0.031 A 
ATOM     51  C   UNL     1       9.495  11.155  -2.171  1.00  0.00     0.031 A 
ATOM     52  C   UNL     1       5.979  10.763  -8.090  1.00  0.00     0.049 A 
ATOM     53  C   UNL     1       9.147  12.070  -3.285  1.00  0.00     0.074 A 
ATOM     54  C   UNL     1       6.759  10.175  -9.064  1.00  0.00     0.029 A 
ATOM     55  N   UNL     1       6.764  11.721  -7.494  1.00  0.00    -0.354 N 
ATOM     56  N   UNL     1       9.824  12.131  -4.395  1.00  0.00    -0.248 NA
ATOM     57  C   UNL     1       7.777  12.553  -3.362  1.00  0.00     0.031 C 
ATOM     58  C   UNL     1       8.102  10.504  -8.713  1.00  0.00     0.029 A 
ATOM     59  C   UNL     1       8.074  11.338  -7.593  1.00  0.00     0.049 A 
ATOM     60  H   UNL     1       6.438  12.546  -7.066  1.00  0.00     0.167 HD
ATOM     61  C   UNL     1       8.860  12.217  -5.390  1.00  0.00     0.074 A 
ATOM     62  C   UNL     1       7.624  12.569  -4.690  1.00  0.00     0.031 C 
ATOM     63  C   UNL     1       9.094  11.701  -6.633  1.00  0.00     0.031 A 
BRANCH  50  64
ATOM     64  C   UNL     1       3.725  11.431  -7.025  1.00  0.00    -0.014 A 
ATOM     65  C   UNL     1       3.654  12.601  -7.798  1.00  0.00     0.009 A 
ATOM     66  C   UNL     1       3.019  11.440  -5.805  1.00  0.00     0.009 A 
ATOM     67  C   UNL     1       2.991  13.742  -7.331  1.00  0.00     0.001 A 
ATOM     68  C   UNL     1       2.322  12.562  -5.353  1.00  0.00     0.001 A 
ATOM     69  C   UNL     1       2.335  13.725  -6.104  1.00  0.00     0.000 A 
ENDBRANCH  50  64
BRANCH  51  70
ATOM     70  C   UNL     1       9.667  11.656  -0.786  1.00  0.00    -0.014 A 
ATOM     71  C   UNL     1      10.214  12.927  -0.536  1.00  0.00     0.009 A 
ATOM     72  C   UNL     1       9.024  11.004   0.282  1.00  0.00     0.009 A 
ATOM     73  C   UNL     1      10.093  13.532   0.725  1.00  0.00     0.001 A 
ATOM     74  C   UNL     1       8.902  11.609   1.540  1.00  0.00     0.001 A 
ATOM     75  C   UNL     1       9.425  12.879   1.758  1.00  0.00     0.000 A 
ENDBRANCH  51  70
BRANCH  63  76
ATOM     76  C   UNL     1      10.504  11.273  -6.961  1.00  0.00    -0.014 A 
ATOM     77  C   UNL     1      11.179  10.232  -6.297  1.00  0.00     0.009 A 
ATOM     78  C   UNL     1      11.115  11.854  -8.081  1.00  0.00     0.009 A 
ATOM     79  C   UNL     1      12.441   9.808  -6.731  1.00  0.00     0.001 A 
ATOM     80  C   UNL     1      12.363  11.416  -8.526  1.00  0.00     0.001 A 
ATOM     81  C   UNL     1      13.029  10.397  -7.849  1.00  0.00     0.000 A 
ENDBRANCH  63  76
ENDBRANCH  37  38
ENDBRANCH  30  32
ENDBRANCH  29  30
ENDBRANCH  28  29
ENDBRANCH  27  28
ENDBRANCH   1  27
TORSDOF 17
