REMARK SMILES O=C(OCCOCCOC(=O)c1ccc(-c2c3nc(c(-c4ccccc4)c4ccc([nH]4)c(-c4ccccc4)c4nc(c(-c5ccccc5)c5ccc2[nH]5)C=C4)C=C3)cc1)C1=Cc2cc(Cl)ccc2O[C@@H]1C(F)(F)F
REMARK SMILES IDX 7 1 6 2 5 3 4 4 3 5 2 6 1 7 60 8 61 9 70 10 62 11 69 12
REMARK SMILES IDX 63 13 68 14 64 15 67 16 65 17 66 18 71 19 72 20 73 21 74 22
REMARK SMILES IDX 8 23 9 24 10 25 11 26 12 27 13 28 59 29 14 30 58 31 15 32
REMARK SMILES IDX 16 33 17 34 52 35 18 36 57 37 51 38 53 39 19 40 56 41 50 42
REMARK SMILES IDX 49 43 20 45 42 46 27 47 41 48 28 49 31 50 40 51 54 52 29 53
REMARK SMILES IDX 30 54 39 56 55 57 32 58 21 59 22 60 26 61 23 62 25 63 24 64
REMARK SMILES IDX 43 65 44 66 48 67 45 68 47 69 46 70 33 71 34 72 38 73 35 74
REMARK SMILES IDX 37 75 36 76
REMARK H PARENT 53 44 31 55
REMARK Flexibility Score: inf
ROOT
ATOM      1  C   UNL     1       2.862   2.812   0.948  1.00  0.00     0.202 C 
ENDROOT
BRANCH   1   2
ATOM      2  O   UNL     1       4.075   2.058   1.140  1.00  0.00    -0.374 OA
BRANCH   2   3
ATOM      3  C   UNL     1       4.412   0.474   1.054  1.00  0.00     0.202 C 
BRANCH   3   4
ATOM      4  C   UNL     1       3.531  -1.104  -0.172  1.00  0.00     0.261 C 
BRANCH   4   5
ATOM      5  O   UNL     1       2.529  -2.166   0.295  1.00  0.00    -0.460 OA
BRANCH   5   6
ATOM      6  C   UNL     1       2.670  -2.474   1.587  1.00  0.00     0.338 C 
ATOM      7  O   UNL     1       1.997  -3.195   2.278  1.00  0.00    -0.246 OA
BRANCH   6   8
ATOM      8  C   UNL     1       3.581  -1.395   1.904  1.00  0.00     0.087 C 
ATOM      9  C   UNL     1       4.967  -1.695   1.469  1.00  0.00     0.027 C 
ATOM     10  C   UNL     1       2.475   0.013   1.166  1.00  0.00     0.316 C 
ATOM     11  C   UNL     1       5.747  -0.948   0.014  1.00  0.00     0.019 A 
ATOM     12  O   UNL     1       3.258   0.779  -0.425  1.00  0.00    -0.475 OA
ATOM     13  C   UNL     1       6.954  -1.421  -0.425  1.00  0.00     0.032 A 
ATOM     14  C   UNL     1       4.904   0.205  -0.974  1.00  0.00     0.128 A 
ATOM     15  C   UNL     1       7.352  -0.943  -1.686  1.00  0.00     0.041 A 
ATOM     16  C   UNL     1       5.316   0.521  -2.232  1.00  0.00     0.048 A 
ATOM     17  Cl  UNL     1       8.889  -1.489  -2.281  1.00  0.00    -0.084 Cl
ATOM     18  C   UNL     1       6.571  -0.062  -2.548  1.00  0.00     0.024 A 
BRANCH  10  19
ATOM     19  C   UNL     1       2.035   0.676   2.547  1.00  0.00     0.430 C 
ATOM     20  F   UNL     1       1.148   1.683   2.453  1.00  0.00    -0.167 F 
ATOM     21  F   UNL     1       1.388  -0.289   3.267  1.00  0.00    -0.167 F 
ATOM     22  F   UNL     1       3.054   1.069   3.343  1.00  0.00    -0.167 F 
ENDBRANCH  10  19
ENDBRANCH   6   8
ENDBRANCH   5   6
ENDBRANCH   4   5
ENDBRANCH   3   4
ENDBRANCH   2   3
ENDBRANCH   1   2
BRANCH   1  23
ATOM     23  C   UNL     1       2.974   4.051   0.067  1.00  0.00     0.261 C 
BRANCH  23  24
ATOM     24  O   UNL     1       3.485   3.753  -1.223  1.00  0.00    -0.460 OA
BRANCH  24  25
ATOM     25  C   UNL     1       4.816   3.953  -1.337  1.00  0.00     0.338 C 
ATOM     26  O   UNL     1       5.614   4.228  -0.459  1.00  0.00    -0.246 OA
BRANCH  25  27
ATOM     27  C   UNL     1       5.179   3.785  -2.752  1.00  0.00     0.060 A 
ATOM     28  C   UNL     1       6.471   3.336  -3.041  1.00  0.00     0.016 A 
ATOM     29  C   UNL     1       4.253   4.028  -3.776  1.00  0.00     0.016 A 
ATOM     30  C   UNL     1       6.830   3.088  -4.358  1.00  0.00     0.010 A 
ATOM     31  C   UNL     1       4.620   3.807  -5.096  1.00  0.00     0.010 A 
ATOM     32  C   UNL     1       5.911   3.345  -5.383  1.00  0.00    -0.014 A 
BRANCH  32  33
ATOM     33  C   UNL     1       6.383   3.347  -6.773  1.00  0.00     0.031 A 
ATOM     34  C   UNL     1       6.913   4.638  -7.312  1.00  0.00     0.074 A 
ATOM     35  C   UNL     1       6.351   2.228  -7.512  1.00  0.00     0.049 A 
ATOM     36  N   UNL     1       7.394   4.903  -8.495  1.00  0.00    -0.248 NA
ATOM     37  C   UNL     1       6.900   5.786  -6.387  1.00  0.00     0.031 C 
ATOM     38  C   UNL     1       5.888   0.919  -7.053  1.00  0.00     0.029 A 
ATOM     39  N   UNL     1       6.720   2.022  -8.814  1.00  0.00    -0.354 N 
ATOM     40  C   UNL     1       7.748   6.244  -8.455  1.00  0.00     0.074 A 
ATOM     41  C   UNL     1       7.394   6.749  -7.148  1.00  0.00     0.031 C 
ATOM     42  C   UNL     1       5.999   0.042  -8.066  1.00  0.00     0.029 A 
ATOM     43  C   UNL     1       6.506   0.739  -9.247  1.00  0.00     0.049 A 
ATOM     44  H   UNL     1       7.103   2.728  -9.384  1.00  0.00     0.167 HD
ATOM     45  C   UNL     1       8.321   6.987  -9.427  1.00  0.00     0.031 A 
ATOM     46  C   UNL     1       6.682   0.206 -10.471  1.00  0.00     0.031 A 
ATOM     47  C   UNL     1       8.614   6.481 -10.739  1.00  0.00     0.049 A 
ATOM     48  C   UNL     1       7.222   1.085 -11.570  1.00  0.00     0.074 A 
ATOM     49  C   UNL     1       9.184   7.142 -11.809  1.00  0.00     0.029 A 
ATOM     50  N   UNL     1       8.333   5.189 -11.163  1.00  0.00    -0.354 N 
ATOM     51  N   UNL     1       7.595   2.343 -11.517  1.00  0.00    -0.248 NA
ATOM     52  C   UNL     1       7.373   0.470 -12.895  1.00  0.00     0.031 C 
ATOM     53  C   UNL     1       9.175   6.275 -12.905  1.00  0.00     0.029 A 
ATOM     54  C   UNL     1       8.683   5.045 -12.492  1.00  0.00     0.049 A 
ATOM     55  H   UNL     1       7.943   4.482 -10.600  1.00  0.00     0.167 HD
ATOM     56  C   UNL     1       8.056   2.658 -12.790  1.00  0.00     0.074 A 
ATOM     57  C   UNL     1       7.931   1.454 -13.586  1.00  0.00     0.031 C 
ATOM     58  C   UNL     1       8.545   3.833 -13.261  1.00  0.00     0.031 A 
BRANCH  45  59
ATOM     59  C   UNL     1       8.596   8.429  -9.115  1.00  0.00    -0.014 A 
ATOM     60  C   UNL     1       9.565   8.806  -8.170  1.00  0.00     0.009 A 
ATOM     61  C   UNL     1       7.867   9.430  -9.775  1.00  0.00     0.009 A 
ATOM     62  C   UNL     1       9.768  10.153  -7.864  1.00  0.00     0.001 A 
ATOM     63  C   UNL     1       8.097  10.777  -9.494  1.00  0.00     0.001 A 
ATOM     64  C   UNL     1       9.038  11.137  -8.530  1.00  0.00     0.000 A 
ENDBRANCH  45  59
BRANCH  46  65
ATOM     65  C   UNL     1       6.321  -1.214 -10.733  1.00  0.00    -0.014 A 
ATOM     66  C   UNL     1       7.302  -2.157 -11.074  1.00  0.00     0.009 A 
ATOM     67  C   UNL     1       4.980  -1.627 -10.671  1.00  0.00     0.009 A 
ATOM     68  C   UNL     1       6.943  -3.473 -11.383  1.00  0.00     0.001 A 
ATOM     69  C   UNL     1       4.628  -2.950 -10.945  1.00  0.00     0.001 A 
ATOM     70  C   UNL     1       5.609  -3.869 -11.314  1.00  0.00     0.000 A 
ENDBRANCH  46  65
BRANCH  58  71
ATOM     71  C   UNL     1       9.024   3.862 -14.687  1.00  0.00    -0.014 A 
ATOM     72  C   UNL     1       8.133   3.772 -15.767  1.00  0.00     0.009 A 
ATOM     73  C   UNL     1      10.392   4.045 -14.948  1.00  0.00     0.009 A 
ATOM     74  C   UNL     1       8.607   3.827 -17.079  1.00  0.00     0.001 A 
ATOM     75  C   UNL     1      10.858   4.140 -16.259  1.00  0.00     0.001 A 
ATOM     76  C   UNL     1       9.967   4.019 -17.323  1.00  0.00     0.000 A 
ENDBRANCH  58  71
ENDBRANCH  32  33
ENDBRANCH  25  27
ENDBRANCH  24  25
ENDBRANCH  23  24
ENDBRANCH   1  23
TORSDOF 15
