REMARK SMILES O=C(OCCOCCOC(=O)[C@H](NC(=O)[C@H]1CC[C@@H](CNC(=O)[C@@H]2Cc3ccccc3C[NH2+]2)CC1)c1ccccc1)c1ccc(-c2c3nc(c(-c4ccccc4)c4ccc([nH]4)c(-c4ccccc4)c4nc(c(-c5ccccc5)c5ccc2[nH]5)C=C4)C=C3)cc1
REMARK SMILES IDX 7 1 6 2 5 3 4 4 3 5 2 6 1 7 42 8 43 9 89 10 44 11 88 12
REMARK SMILES IDX 45 13 46 14 47 15 82 16 48 17 87 18 81 19 83 20 49 21 86 22
REMARK SMILES IDX 80 23 79 24 50 26 72 27 57 28 71 29 58 30 61 31 70 32 84 33
REMARK SMILES IDX 59 34 60 35 69 37 85 38 62 39 51 40 52 41 56 42 53 43 55 44
REMARK SMILES IDX 54 45 73 46 74 47 78 48 75 49 77 50 76 51 63 52 64 53 68 54
REMARK SMILES IDX 65 55 67 56 66 57 8 58 9 59 10 60 11 61 12 62 36 63 37 64
REMARK SMILES IDX 41 65 38 66 40 67 39 68 13 69 14 70 15 72 16 73 35 74 17 75
REMARK SMILES IDX 34 76 18 77 19 78 20 79 21 80 22 81 23 83 24 84 25 85 33 86
REMARK SMILES IDX 26 87 32 88 27 91 31 92 28 93 30 94 29 95
REMARK H PARENT 83 25 61 36 13 71 21 82 33 89 33 90
REMARK Flexibility Score: inf
ROOT
ATOM      1  C   UNL     1      -1.351 -16.185   3.137  1.00  0.00     0.202 C 
ENDROOT
BRANCH   1   2
ATOM      2  O   UNL     1      -1.106 -14.929   3.787  1.00  0.00    -0.374 OA
BRANCH   2   3
ATOM      3  C   UNL     1       0.158 -14.309   3.565  1.00  0.00     0.202 C 
BRANCH   3   4
ATOM      4  C   UNL     1       1.377 -14.843   4.316  1.00  0.00     0.261 C 
BRANCH   4   5
ATOM      5  O   UNL     1       1.561 -16.255   4.052  1.00  0.00    -0.460 OA
BRANCH   5   6
ATOM      6  C   UNL     1       1.206 -17.274   4.878  1.00  0.00     0.338 C 
ATOM      7  O   UNL     1       1.368 -18.446   4.553  1.00  0.00    -0.246 OA
BRANCH   6   8
ATOM      8  C   UNL     1       0.665 -16.950   6.210  1.00  0.00     0.060 A 
ATOM      9  C   UNL     1      -0.354 -16.023   6.340  1.00  0.00     0.016 A 
ATOM     10  C   UNL     1       1.170 -17.549   7.357  1.00  0.00     0.016 A 
ATOM     11  C   UNL     1      -0.682 -15.456   7.529  1.00  0.00     0.010 A 
ATOM     12  C   UNL     1       0.682 -17.137   8.599  1.00  0.00     0.010 A 
ATOM     13  C   UNL     1      -0.224 -16.066   8.672  1.00  0.00    -0.014 A 
BRANCH  13  14
ATOM     14  C   UNL     1      -0.694 -15.464   9.912  1.00  0.00     0.031 A 
ATOM     15  C   UNL     1       0.310 -14.763  10.748  1.00  0.00     0.074 A 
ATOM     16  C   UNL     1      -2.018 -15.417  10.149  1.00  0.00     0.049 A 
ATOM     17  N   UNL     1       0.197 -14.338  11.969  1.00  0.00    -0.248 NA
ATOM     18  C   UNL     1       1.625 -14.517  10.129  1.00  0.00     0.031 C 
ATOM     19  C   UNL     1      -3.070 -15.894   9.234  1.00  0.00     0.029 A 
ATOM     20  N   UNL     1      -2.712 -14.916  11.209  1.00  0.00    -0.354 N 
ATOM     21  C   UNL     1       1.455 -13.865  12.303  1.00  0.00     0.074 A 
ATOM     22  C   UNL     1       2.306 -14.018  11.147  1.00  0.00     0.031 C 
ATOM     23  C   UNL     1      -4.270 -15.644   9.771  1.00  0.00     0.029 A 
ATOM     24  C   UNL     1      -4.064 -15.135  11.115  1.00  0.00     0.049 A 
ATOM     25  H   UNL     1      -2.288 -14.447  11.964  1.00  0.00     0.167 HD
ATOM     26  C   UNL     1       1.845 -13.396  13.507  1.00  0.00     0.031 A 
ATOM     27  C   UNL     1      -5.009 -15.036  12.062  1.00  0.00     0.031 A 
ATOM     28  C   UNL     1       0.927 -13.291  14.607  1.00  0.00     0.049 A 
ATOM     29  C   UNL     1      -4.542 -14.619  13.423  1.00  0.00     0.074 A 
ATOM     30  C   UNL     1       1.166 -12.906  15.909  1.00  0.00     0.029 A 
ATOM     31  N   UNL     1      -0.432 -13.584  14.510  1.00  0.00    -0.354 N 
ATOM     32  N   UNL     1      -3.328 -14.289  13.805  1.00  0.00    -0.248 NA
ATOM     33  C   UNL     1      -5.547 -14.583  14.485  1.00  0.00     0.031 C 
ATOM     34  C   UNL     1      -0.038 -13.024  16.613  1.00  0.00     0.029 A 
ATOM     35  C   UNL     1      -1.044 -13.411  15.734  1.00  0.00     0.049 A 
ATOM     36  H   UNL     1      -0.889 -13.873  13.688  1.00  0.00     0.167 HD
ATOM     37  C   UNL     1      -3.420 -13.988  15.152  1.00  0.00     0.074 A 
ATOM     38  C   UNL     1      -4.817 -14.166  15.513  1.00  0.00     0.031 C 
ATOM     39  C   UNL     1      -2.449 -13.600  16.015  1.00  0.00     0.031 A 
BRANCH  26  40
ATOM     40  C   UNL     1       3.312 -13.138  13.683  1.00  0.00    -0.014 A 
ATOM     41  C   UNL     1       3.981 -12.107  13.003  1.00  0.00     0.009 A 
ATOM     42  C   UNL     1       4.064 -14.027  14.468  1.00  0.00     0.009 A 
ATOM     43  C   UNL     1       5.375 -12.012  13.056  1.00  0.00     0.001 A 
ATOM     44  C   UNL     1       5.452 -13.910  14.547  1.00  0.00     0.001 A 
ATOM     45  C   UNL     1       6.109 -12.915  13.826  1.00  0.00     0.000 A 
ENDBRANCH  26  40
BRANCH  27  46
ATOM     46  C   UNL     1      -6.403 -15.456  11.764  1.00  0.00    -0.014 A 
ATOM     47  C   UNL     1      -7.447 -14.523  11.727  1.00  0.00     0.009 A 
ATOM     48  C   UNL     1      -6.687 -16.796  11.439  1.00  0.00     0.009 A 
ATOM     49  C   UNL     1      -8.742 -14.923  11.381  1.00  0.00     0.001 A 
ATOM     50  C   UNL     1      -7.973 -17.187  11.063  1.00  0.00     0.001 A 
ATOM     51  C   UNL     1      -9.002 -16.250  11.041  1.00  0.00     0.000 A 
ENDBRANCH  27  46
BRANCH  39  52
ATOM     52  C   UNL     1      -2.888 -13.289  17.412  1.00  0.00    -0.014 A 
ATOM     53  C   UNL     1      -3.191 -14.309  18.324  1.00  0.00     0.009 A 
ATOM     54  C   UNL     1      -2.896 -11.951  17.837  1.00  0.00     0.009 A 
ATOM     55  C   UNL     1      -3.507 -13.989  19.643  1.00  0.00     0.001 A 
ATOM     56  C   UNL     1      -3.180 -11.639  19.163  1.00  0.00     0.001 A 
ATOM     57  C   UNL     1      -3.489 -12.658  20.063  1.00  0.00     0.000 A 
ENDBRANCH  39  52
ENDBRANCH  13  14
ENDBRANCH   6   8
ENDBRANCH   5   6
ENDBRANCH   4   5
ENDBRANCH   3   4
ENDBRANCH   2   3
ENDBRANCH   1   2
BRANCH   1  58
ATOM     58  C   UNL     1      -2.487 -16.017   2.141  1.00  0.00     0.261 C 
BRANCH  58  59
ATOM     59  O   UNL     1      -1.947 -15.340   1.002  1.00  0.00    -0.461 OA
BRANCH  59  60
ATOM     60  C   UNL     1      -1.737 -14.004   1.169  1.00  0.00     0.333 C 
ATOM     61  O   UNL     1      -2.219 -13.308   2.057  1.00  0.00    -0.249 OA
BRANCH  60  62
ATOM     62  C   UNL     1      -0.813 -13.447   0.091  1.00  0.00     0.223 C 
BRANCH  62  63
ATOM     63  C   UNL     1       0.612 -13.088   0.455  1.00  0.00    -0.014 A 
ATOM     64  C   UNL     1       1.640 -14.038   0.575  1.00  0.00     0.006 A 
ATOM     65  C   UNL     1       0.927 -11.733   0.669  1.00  0.00     0.006 A 
ATOM     66  C   UNL     1       2.928 -13.643   0.949  1.00  0.00     0.000 A 
ATOM     67  C   UNL     1       2.220 -11.338   1.005  1.00  0.00     0.000 A 
ATOM     68  C   UNL     1       3.218 -12.295   1.156  1.00  0.00     0.000 A 
ENDBRANCH  62  63
BRANCH  62  69
ATOM     69  N   UNL     1      -0.893 -14.219  -1.131  1.00  0.00    -0.339 N 
ATOM     70  C   UNL     1      -1.974 -14.227  -1.963  1.00  0.00     0.224 C 
ATOM     71  H   UNL     1      -0.117 -14.773  -1.378  1.00  0.00     0.164 HD
ATOM     72  O   UNL     1      -1.996 -15.017  -2.903  1.00  0.00    -0.275 OA
BRANCH  70  73
ATOM     73  C   UNL     1      -3.109 -13.240  -1.665  1.00  0.00     0.078 C 
ATOM     74  C   UNL     1      -2.650 -11.796  -1.955  1.00  0.00     0.014 C 
ATOM     75  C   UNL     1      -4.378 -13.645  -2.436  1.00  0.00     0.014 C 
ATOM     76  C   UNL     1      -3.800 -10.823  -1.792  1.00  0.00     0.006 C 
ATOM     77  C   UNL     1      -5.454 -12.560  -2.431  1.00  0.00     0.006 C 
ATOM     78  C   UNL     1      -4.892 -11.181  -2.794  1.00  0.00     0.008 C 
BRANCH  78  79
ATOM     79  C   UNL     1      -4.301 -11.138  -4.219  1.00  0.00     0.119 C 
BRANCH  79  80
ATOM     80  N   UNL     1      -5.317 -10.910  -5.210  1.00  0.00    -0.351 N 
ATOM     81  C   UNL     1      -5.575  -9.749  -5.879  1.00  0.00     0.278 C 
ATOM     82  H   UNL     1      -5.891 -11.678  -5.431  1.00  0.00     0.163 HD
ATOM     83  O   UNL     1      -6.508  -9.729  -6.686  1.00  0.00    -0.268 OA
BRANCH  81  84
ATOM     84  C   UNL     1      -4.687  -8.513  -5.619  1.00  0.00     0.277 C 
ATOM     85  C   UNL     1      -4.957  -7.917  -4.225  1.00  0.00     0.111 C 
ATOM     86  N   UNL     1      -4.837  -7.550  -6.745  1.00  0.00    -0.332 N 
ATOM     87  C   UNL     1      -4.053  -6.729  -4.052  1.00  0.00    -0.033 A 
ATOM     88  C   UNL     1      -4.886  -6.145  -6.325  1.00  0.00     0.298 C 
ATOM     89  H   UNL     1      -5.702  -7.767  -7.240  1.00  0.00     0.347 HD
ATOM     90  H   UNL     1      -4.011  -7.654  -7.334  1.00  0.00     0.347 HD
ATOM     91  C   UNL     1      -3.268  -6.521  -2.916  1.00  0.00     0.004 A 
ATOM     92  C   UNL     1      -3.993  -5.846  -5.142  1.00  0.00     0.010 A 
ATOM     93  C   UNL     1      -2.414  -5.421  -2.870  1.00  0.00     0.000 A 
ATOM     94  C   UNL     1      -3.153  -4.736  -5.076  1.00  0.00     0.010 A 
ATOM     95  C   UNL     1      -2.360  -4.530  -3.944  1.00  0.00     0.001 A 
ENDBRANCH  81  84
ENDBRANCH  79  80
ENDBRANCH  78  79
ENDBRANCH  70  73
ENDBRANCH  62  69
ENDBRANCH  60  62
ENDBRANCH  59  60
ENDBRANCH  58  59
ENDBRANCH   1  58
TORSDOF 20
