REMARK SMILES O=C(OCCOCCOC(=O)[C@@H]1[C@@H](C(=O)Nc2cccc(C(F)(F)F)c2)[C@@H]2C=C[C@H]1O2)c1ccc(-c2c3nc(c(-c4ccccc4)c4ccc([nH]4)c(-c4ccccc4)c4nc(c(-c5ccccc5)c5ccc2[nH]5)C=C4)C=C3)cc1
REMARK SMILES IDX 7 1 6 2 5 3 4 4 3 5 2 6 1 7 32 8 33 9 79 10 34 11 78 12
REMARK SMILES IDX 35 13 36 14 37 15 72 16 38 17 77 18 71 19 73 20 39 21 76 22
REMARK SMILES IDX 70 23 69 24 40 26 62 27 47 28 61 29 48 30 51 31 60 32 74 33
REMARK SMILES IDX 49 34 50 35 59 37 75 38 52 39 41 40 42 41 46 42 43 43 45 44
REMARK SMILES IDX 44 45 63 46 64 47 68 48 65 49 67 50 66 51 53 52 54 53 58 54
REMARK SMILES IDX 55 55 57 56 56 57 8 58 9 59 10 60 11 61 12 62 13 63 30 64
REMARK SMILES IDX 27 65 29 66 31 67 28 68 14 69 15 70 16 71 17 73 18 74 26 75
REMARK SMILES IDX 19 76 21 77 20 78 22 79 23 80 24 81 25 82
REMARK H PARENT 73 25 51 36 16 72
REMARK Flexibility Score: inf
ROOT
ATOM      1  C   UNL     1       2.534  -0.721  -1.873  1.00  0.00     0.202 C 
ENDROOT
BRANCH   1   2
ATOM      2  O   UNL     1       3.937  -0.630  -1.575  1.00  0.00    -0.374 OA
BRANCH   2   3
ATOM      3  C   UNL     1       4.379  -1.379  -0.437  1.00  0.00     0.202 C 
BRANCH   3   4
ATOM      4  C   UNL     1       4.180  -0.721   0.934  1.00  0.00     0.261 C 
BRANCH   4   5
ATOM      5  O   UNL     1       2.795  -0.395   1.146  1.00  0.00    -0.460 OA
BRANCH   5   6
ATOM      6  C   UNL     1       2.172   0.786   0.922  1.00  0.00     0.338 C 
ATOM      7  O   UNL     1       0.956   0.858   1.084  1.00  0.00    -0.246 OA
BRANCH   6   8
ATOM      8  C   UNL     1       2.899   2.021   0.513  1.00  0.00     0.060 A 
ATOM      9  C   UNL     1       4.071   2.034  -0.243  1.00  0.00     0.016 A 
ATOM     10  C   UNL     1       2.323   3.253   0.860  1.00  0.00     0.016 A 
ATOM     11  C   UNL     1       4.711   3.209  -0.572  1.00  0.00     0.010 A 
ATOM     12  C   UNL     1       2.936   4.454   0.494  1.00  0.00     0.010 A 
ATOM     13  C   UNL     1       4.147   4.422  -0.204  1.00  0.00    -0.014 A 
BRANCH  13  14
ATOM     14  C   UNL     1       4.947   5.619  -0.479  1.00  0.00     0.031 A 
ATOM     15  C   UNL     1       5.734   6.210   0.645  1.00  0.00     0.074 A 
ATOM     16  C   UNL     1       5.111   6.008  -1.755  1.00  0.00     0.049 A 
ATOM     17  N   UNL     1       6.521   7.248   0.640  1.00  0.00    -0.248 NA
ATOM     18  C   UNL     1       5.644   5.520   1.945  1.00  0.00     0.031 C 
ATOM     19  C   UNL     1       4.508   5.354  -2.921  1.00  0.00     0.029 A 
ATOM     20  N   UNL     1       5.877   7.005  -2.289  1.00  0.00    -0.354 N 
ATOM     21  C   UNL     1       6.990   7.361   1.942  1.00  0.00     0.074 A 
ATOM     22  C   UNL     1       6.415   6.279   2.707  1.00  0.00     0.031 C 
ATOM     23  C   UNL     1       4.959   5.948  -4.037  1.00  0.00     0.029 A 
ATOM     24  C   UNL     1       5.811   7.067  -3.659  1.00  0.00     0.049 A 
ATOM     25  H   UNL     1       6.422   7.618  -1.745  1.00  0.00     0.167 HD
ATOM     26  C   UNL     1       7.813   8.307   2.446  1.00  0.00     0.031 A 
ATOM     27  C   UNL     1       6.356   7.963  -4.501  1.00  0.00     0.031 A 
ATOM     28  C   UNL     1       8.346   9.379   1.654  1.00  0.00     0.049 A 
ATOM     29  C   UNL     1       7.168   9.074  -3.897  1.00  0.00     0.074 A 
ATOM     30  C   UNL     1       9.103  10.462   2.053  1.00  0.00     0.029 A 
ATOM     31  N   UNL     1       8.168   9.490   0.280  1.00  0.00    -0.354 N 
ATOM     32  N   UNL     1       7.521   9.248  -2.645  1.00  0.00    -0.248 NA
ATOM     33  C   UNL     1       7.634  10.122  -4.811  1.00  0.00     0.031 C 
ATOM     34  C   UNL     1       9.347  11.253   0.923  1.00  0.00     0.029 A 
ATOM     35  C   UNL     1       8.785  10.634  -0.185  1.00  0.00     0.049 A 
ATOM     36  H   UNL     1       7.673   8.848  -0.279  1.00  0.00     0.167 HD
ATOM     37  C   UNL     1       8.253  10.425  -2.617  1.00  0.00     0.074 A 
ATOM     38  C   UNL     1       8.316  10.904  -3.986  1.00  0.00     0.031 C 
ATOM     39  C   UNL     1       8.815  11.064  -1.560  1.00  0.00     0.031 A 
BRANCH  26  40
ATOM     40  C   UNL     1       8.070   8.259   3.923  1.00  0.00    -0.014 A 
ATOM     41  C   UNL     1       8.910   7.292   4.497  1.00  0.00     0.009 A 
ATOM     42  C   UNL     1       7.403   9.165   4.763  1.00  0.00     0.009 A 
ATOM     43  C   UNL     1       9.046   7.210   5.886  1.00  0.00     0.001 A 
ATOM     44  C   UNL     1       7.559   9.095   6.148  1.00  0.00     0.001 A 
ATOM     45  C   UNL     1       8.371   8.111   6.709  1.00  0.00     0.000 A 
ENDBRANCH  26  40
BRANCH  27  46
ATOM     46  C   UNL     1       6.078   7.891  -5.959  1.00  0.00    -0.014 A 
ATOM     47  C   UNL     1       7.104   7.639  -6.882  1.00  0.00     0.009 A 
ATOM     48  C   UNL     1       4.770   8.074  -6.439  1.00  0.00     0.009 A 
ATOM     49  C   UNL     1       6.826   7.587  -8.252  1.00  0.00     0.001 A 
ATOM     50  C   UNL     1       4.490   7.991  -7.805  1.00  0.00     0.001 A 
ATOM     51  C   UNL     1       5.521   7.756  -8.711  1.00  0.00     0.000 A 
ENDBRANCH  27  46
BRANCH  39  52
ATOM     52  C   UNL     1       9.557  12.329  -1.865  1.00  0.00    -0.014 A 
ATOM     53  C   UNL     1       8.870  13.519  -2.148  1.00  0.00     0.009 A 
ATOM     54  C   UNL     1      10.959  12.335  -1.819  1.00  0.00     0.009 A 
ATOM     55  C   UNL     1       9.580  14.691  -2.409  1.00  0.00     0.001 A 
ATOM     56  C   UNL     1      11.664  13.514  -2.055  1.00  0.00     0.001 A 
ATOM     57  C   UNL     1      10.974  14.688  -2.357  1.00  0.00     0.000 A 
ENDBRANCH  39  52
ENDBRANCH  13  14
ENDBRANCH   6   8
ENDBRANCH   5   6
ENDBRANCH   4   5
ENDBRANCH   3   4
ENDBRANCH   2   3
ENDBRANCH   1   2
BRANCH   1  58
ATOM     58  C   UNL     1       2.327  -1.433  -3.206  1.00  0.00     0.261 C 
BRANCH  58  59
ATOM     59  O   UNL     1       2.821  -2.767  -3.028  1.00  0.00    -0.463 OA
BRANCH  59  60
ATOM     60  C   UNL     1       4.077  -2.975  -3.485  1.00  0.00     0.312 C 
ATOM     61  O   UNL     1       4.622  -2.334  -4.377  1.00  0.00    -0.252 OA
BRANCH  60  62
ATOM     62  C   UNL     1       4.809  -4.007  -2.680  1.00  0.00     0.147 C 
ATOM     63  C   UNL     1       5.325  -5.146  -3.580  1.00  0.00     0.129 C 
ATOM     64  C   UNL     1       4.023  -4.789  -1.618  1.00  0.00     0.157 C 
ATOM     65  C   UNL     1       4.909  -6.393  -2.792  1.00  0.00     0.155 C 
ATOM     66  C   UNL     1       2.874  -5.572  -2.167  1.00  0.00     0.004 C 
ATOM     67  O   UNL     1       4.949  -5.894  -1.427  1.00  0.00    -0.365 OA
ATOM     68  C   UNL     1       3.415  -6.565  -2.886  1.00  0.00     0.004 C 
BRANCH  63  69
ATOM     69  C   UNL     1       6.780  -5.082  -4.038  1.00  0.00     0.231 C 
ATOM     70  O   UNL     1       7.069  -5.564  -5.141  1.00  0.00    -0.274 OA
ATOM     71  N   UNL     1       7.766  -4.405  -3.379  1.00  0.00    -0.326 N 
ATOM     72  H   UNL     1       8.439  -3.996  -3.968  1.00  0.00     0.169 HD
BRANCH  71  73
ATOM     73  C   UNL     1       7.989  -4.190  -2.015  1.00  0.00     0.041 A 
ATOM     74  C   UNL     1       8.617  -3.011  -1.612  1.00  0.00     0.026 A 
ATOM     75  C   UNL     1       7.642  -5.138  -1.057  1.00  0.00     0.039 A 
ATOM     76  C   UNL     1       8.787  -2.736  -0.253  1.00  0.00     0.003 A 
ATOM     77  C   UNL     1       7.786  -4.872   0.311  1.00  0.00     0.058 A 
ATOM     78  C   UNL     1       8.353  -3.652   0.706  1.00  0.00     0.013 A 
BRANCH  77  79
ATOM     79  C   UNL     1       7.296  -5.862   1.339  1.00  0.00     0.416 C 
ATOM     80  F   UNL     1       8.224  -6.112   2.304  1.00  0.00    -0.166 F 
ATOM     81  F   UNL     1       6.190  -5.410   1.995  1.00  0.00    -0.166 F 
ATOM     82  F   UNL     1       6.962  -7.077   0.824  1.00  0.00    -0.166 F 
ENDBRANCH  77  79
ENDBRANCH  71  73
ENDBRANCH  63  69
ENDBRANCH  60  62
ENDBRANCH  59  60
ENDBRANCH  58  59
ENDBRANCH   1  58
TORSDOF 17
