REMARK SMILES Cc1cscc1-c1noc(SCC(=O)OCCOCCOC(=O)c2ccc(-c3c4nc(c(-c5ccccc5)c5ccc([nH]5)c(-c5ccccc5)c5nc(c(-c6ccccc6)c6ccc3[nH]6)C=C5)C=C4)cc2)n1
REMARK SMILES IDX 17 1 16 2 15 3 13 4 14 5 12 6 11 7 10 8 7 9 8 10 72 11 9 12
REMARK SMILES IDX 6 13 1 14 2 15 3 16 4 17 5 18 18 19 19 20 20 21 21 22 22 23
REMARK SMILES IDX 23 24 24 25 25 26 71 27 26 28 70 29 27 30 28 31 29 32 64 33
REMARK SMILES IDX 30 34 69 35 63 36 65 37 31 38 68 39 62 40 61 41 32 43 54 44
REMARK SMILES IDX 39 45 53 46 40 47 43 48 52 49 66 50 41 51 42 52 51 54 67 55
REMARK SMILES IDX 44 56 33 57 34 58 38 59 35 60 37 61 36 62 55 63 56 64 60 65
REMARK SMILES IDX 57 66 59 67 58 68 45 69 46 70 50 71 47 72 49 73 48 74
REMARK H PARENT 65 42 43 53
REMARK Flexibility Score: inf
ROOT
ATOM      1  C   UNL     1       6.444   0.554  -1.860  1.00  0.00     0.202 C 
ENDROOT
BRANCH   1   2
ATOM      2  C   UNL     1       6.771   1.889  -2.557  1.00  0.00     0.261 C 
BRANCH   2   3
ATOM      3  O   UNL     1       5.771   2.925  -2.396  1.00  0.00    -0.463 OA
BRANCH   3   4
ATOM      4  C   UNL     1       5.207   3.388  -3.548  1.00  0.00     0.316 C 
ATOM      5  O   UNL     1       5.625   3.097  -4.668  1.00  0.00    -0.251 OA
BRANCH   4   6
ATOM      6  C   UNL     1       3.932   4.205  -3.398  1.00  0.00     0.202 C 
BRANCH   6   7
ATOM      7  S   UNL     1       3.588   4.977  -1.813  1.00  0.00    -0.053 SA
BRANCH   7   8
ATOM      8  C   UNL     1       2.237   4.100  -1.106  1.00  0.00     0.286 A 
ATOM      9  C   UNL     1       0.944   2.575  -0.391  1.00  0.00     0.204 A 
ATOM     10  N   UNL     1       0.851   3.528   0.544  1.00  0.00    -0.056 NA
ATOM     11  N   UNL     1       1.764   2.915  -1.463  1.00  0.00    -0.181 NA
ATOM     12  O   UNL     1       1.704   4.525   0.085  1.00  0.00    -0.327 OA
BRANCH   9  13
ATOM     13  C   UNL     1       0.055   1.392  -0.382  1.00  0.00     0.036 A 
ATOM     14  C   UNL     1       1.617  -0.609   0.493  1.00  0.00     0.046 C 
ATOM     15  C   UNL     1       0.355   0.014  -0.014  1.00  0.00    -0.029 A 
ATOM     16  C   UNL     1      -0.779  -0.776  -0.141  1.00  0.00     0.069 A 
ATOM     17  S   UNL     1      -2.179   0.100  -0.541  1.00  0.00    -0.151 S 
ATOM     18  C   UNL     1      -1.299   1.556  -0.613  1.00  0.00     0.077 A 
ENDBRANCH   9  13
ENDBRANCH   7   8
ENDBRANCH   6   7
ENDBRANCH   4   6
ENDBRANCH   3   4
ENDBRANCH   2   3
ENDBRANCH   1   2
BRANCH   1  19
ATOM     19  O   UNL     1       5.113   0.058  -1.911  1.00  0.00    -0.374 OA
BRANCH  19  20
ATOM     20  C   UNL     1       4.073   0.940  -1.536  1.00  0.00     0.202 C 
BRANCH  20  21
ATOM     21  C   UNL     1       4.135   1.632  -0.168  1.00  0.00     0.261 C 
BRANCH  21  22
ATOM     22  O   UNL     1       5.367   1.617   0.512  1.00  0.00    -0.460 OA
BRANCH  22  23
ATOM     23  C   UNL     1       5.408   0.821   1.591  1.00  0.00     0.338 C 
ATOM     24  O   UNL     1       4.607  -0.006   1.985  1.00  0.00    -0.246 OA
BRANCH  23  25
ATOM     25  C   UNL     1       6.668   1.169   2.223  1.00  0.00     0.060 A 
ATOM     26  C   UNL     1       7.723   0.267   2.123  1.00  0.00     0.016 A 
ATOM     27  C   UNL     1       6.799   2.422   2.833  1.00  0.00     0.016 A 
ATOM     28  C   UNL     1       8.932   0.604   2.702  1.00  0.00     0.010 A 
ATOM     29  C   UNL     1       8.016   2.764   3.395  1.00  0.00     0.010 A 
ATOM     30  C   UNL     1       9.067   1.836   3.362  1.00  0.00    -0.014 A 
BRANCH  30  31
ATOM     31  C   UNL     1      10.286   2.090   4.139  1.00  0.00     0.031 A 
ATOM     32  C   UNL     1      10.233   1.907   5.623  1.00  0.00     0.074 A 
ATOM     33  C   UNL     1      11.414   2.431   3.497  1.00  0.00     0.049 A 
ATOM     34  N   UNL     1      11.193   2.020   6.501  1.00  0.00    -0.248 NA
ATOM     35  C   UNL     1       8.924   1.549   6.199  1.00  0.00     0.031 C 
ATOM     36  C   UNL     1      11.540   2.611   2.049  1.00  0.00     0.029 A 
ATOM     37  N   UNL     1      12.668   2.672   3.981  1.00  0.00    -0.354 N 
ATOM     38  C   UNL     1      10.604   1.752   7.729  1.00  0.00     0.074 A 
ATOM     39  C   UNL     1       9.199   1.512   7.493  1.00  0.00     0.031 C 
ATOM     40  C   UNL     1      12.814   2.919   1.760  1.00  0.00     0.029 A 
ATOM     41  C   UNL     1      13.576   2.988   3.003  1.00  0.00     0.049 A 
ATOM     42  H   UNL     1      12.897   2.625   4.937  1.00  0.00     0.167 HD
ATOM     43  C   UNL     1      11.194   1.703   8.944  1.00  0.00     0.031 A 
ATOM     44  C   UNL     1      14.878   3.303   3.114  1.00  0.00     0.031 A 
ATOM     45  C   UNL     1      12.592   1.966   9.152  1.00  0.00     0.049 A 
ATOM     46  C   UNL     1      15.499   3.291   4.482  1.00  0.00     0.074 A 
ATOM     47  C   UNL     1      13.312   1.935  10.330  1.00  0.00     0.029 A 
ATOM     48  N   UNL     1      13.478   2.322   8.144  1.00  0.00    -0.354 N 
ATOM     49  N   UNL     1      14.947   2.997   5.636  1.00  0.00    -0.248 NA
ATOM     50  C   UNL     1      16.921   3.641   4.563  1.00  0.00     0.031 C 
ATOM     51  C   UNL     1      14.624   2.328  10.043  1.00  0.00     0.029 A 
ATOM     52  C   UNL     1      14.735   2.542   8.677  1.00  0.00     0.049 A 
ATOM     53  H   UNL     1      13.246   2.405   7.191  1.00  0.00     0.167 HD
ATOM     54  C   UNL     1      15.958   3.105   6.580  1.00  0.00     0.074 A 
ATOM     55  C   UNL     1      17.160   3.474   5.856  1.00  0.00     0.031 C 
ATOM     56  C   UNL     1      15.904   2.918   7.922  1.00  0.00     0.031 A 
BRANCH  43  57
ATOM     57  C   UNL     1      10.317   1.397  10.125  1.00  0.00    -0.014 A 
ATOM     58  C   UNL     1       9.749   0.126  10.308  1.00  0.00     0.009 A 
ATOM     59  C   UNL     1      10.049   2.400  11.069  1.00  0.00     0.009 A 
ATOM     60  C   UNL     1       8.901  -0.122  11.391  1.00  0.00     0.001 A 
ATOM     61  C   UNL     1       9.225   2.141  12.166  1.00  0.00     0.001 A 
ATOM     62  C   UNL     1       8.643   0.884  12.320  1.00  0.00     0.000 A 
ENDBRANCH  43  57
BRANCH  44  63
ATOM     63  C   UNL     1      15.661   3.649   1.901  1.00  0.00    -0.014 A 
ATOM     64  C   UNL     1      16.657   2.788   1.417  1.00  0.00     0.009 A 
ATOM     65  C   UNL     1      15.393   4.837   1.202  1.00  0.00     0.009 A 
ATOM     66  C   UNL     1      17.383   3.121   0.271  1.00  0.00     0.001 A 
ATOM     67  C   UNL     1      16.100   5.153   0.040  1.00  0.00     0.001 A 
ATOM     68  C   UNL     1      17.100   4.299  -0.420  1.00  0.00     0.000 A 
ENDBRANCH  44  63
BRANCH  56  69
ATOM     69  C   UNL     1      17.190   3.086   8.679  1.00  0.00    -0.014 A 
ATOM     70  C   UNL     1      17.755   4.354   8.883  1.00  0.00     0.009 A 
ATOM     71  C   UNL     1      17.820   1.959   9.231  1.00  0.00     0.009 A 
ATOM     72  C   UNL     1      18.948   4.485   9.594  1.00  0.00     0.001 A 
ATOM     73  C   UNL     1      18.994   2.098   9.969  1.00  0.00     0.001 A 
ATOM     74  C   UNL     1      19.563   3.359  10.140  1.00  0.00     0.000 A 
ENDBRANCH  56  69
ENDBRANCH  30  31
ENDBRANCH  23  25
ENDBRANCH  22  23
ENDBRANCH  21  22
ENDBRANCH  20  21
ENDBRANCH  19  20
ENDBRANCH   1  19
TORSDOF 17
