REMARK SMILES CCCC(O)(CCC)[C@@]1(C)CC[C@@H](C(=O)OCCOCCOC(=O)c2ccc(-c3c4nc(c(-c5ccccc5)c5ccc([nH]5)c(-c5ccccc5)c5nc(c(-c6ccccc6)c6ccc3[nH]6)C=C5)C=C4)cc2)C(C)(C)O1
REMARK SMILES IDX 18 1 17 2 16 3 14 4 15 5 13 6 9 7 10 8 11 9 76 10 12 11
REMARK SMILES IDX 73 12 74 13 75 14 4 15 3 16 2 17 1 18 5 19 6 21 7 22 8 23
REMARK SMILES IDX 19 24 20 25 21 26 22 27 23 28 24 29 25 30 26 31 72 32 27 33
REMARK SMILES IDX 71 34 28 35 29 36 30 37 65 38 31 39 70 40 64 41 66 42 32 43
REMARK SMILES IDX 69 44 63 45 62 46 33 48 55 49 40 50 54 51 41 52 44 53 53 54
REMARK SMILES IDX 67 55 42 56 43 57 52 59 68 60 45 61 34 62 35 63 39 64 36 65
REMARK SMILES IDX 38 66 37 67 56 68 57 69 61 70 58 71 60 72 59 73 46 74 47 75
REMARK SMILES IDX 51 76 48 77 50 78 49 79
REMARK H PARENT 5 20 66 47 44 58
REMARK Flexibility Score: inf
ROOT
ATOM      1  C   UNL     1       1.091  -3.881  -8.992  1.00  0.00     0.202 C 
ENDROOT
BRANCH   1   2
ATOM      2  C   UNL     1       0.013  -4.379  -8.017  1.00  0.00     0.261 C 
BRANCH   2   3
ATOM      3  O   UNL     1       0.092  -3.715  -6.733  1.00  0.00    -0.463 OA
BRANCH   3   4
ATOM      4  C   UNL     1       0.662  -4.388  -5.700  1.00  0.00     0.311 C 
ATOM      5  O   UNL     1       1.063  -5.543  -5.765  1.00  0.00    -0.252 OA
BRANCH   4   6
ATOM      6  C   UNL     1       0.805  -3.532  -4.441  1.00  0.00     0.131 C 
ATOM      7  C   UNL     1       0.848  -1.362  -2.406  1.00  0.00     0.095 C 
ATOM      8  C   UNL     1       1.447  -1.734  -1.027  1.00  0.00     0.045 C 
ATOM      9  C   UNL     1      -0.363  -2.345  -2.571  1.00  0.00     0.039 C 
ATOM     10  O   UNL     1       1.920  -1.677  -3.303  1.00  0.00    -0.366 OA
ATOM     11  C   UNL     1      -0.539  -3.016  -3.932  1.00  0.00     0.021 C 
ATOM     12  C   UNL     1       1.794  -2.362  -4.557  1.00  0.00     0.077 C 
ATOM     13  C   UNL     1       1.420  -1.397  -5.695  1.00  0.00     0.043 C 
ATOM     14  C   UNL     1       3.249  -2.831  -4.788  1.00  0.00     0.043 C 
BRANCH   7  15
ATOM     15  C   UNL     1       0.543   0.233  -2.454  1.00  0.00     0.093 C 
BRANCH  15  16
ATOM     16  C   UNL     1       0.749   1.126  -1.176  1.00  0.00     0.038 C 
BRANCH  16  17
ATOM     17  C   UNL     1      -0.219   1.140   0.010  1.00  0.00    -0.000 C 
ATOM     18  C   UNL     1       0.340   0.498   1.272  1.00  0.00     0.004 C 
ENDBRANCH  16  17
ENDBRANCH  15  16
BRANCH  15  19
ATOM     19  O   UNL     1      -0.827   0.418  -2.881  1.00  0.00    -0.387 OA
ATOM     20  H   UNL     1      -1.030   1.366  -2.916  1.00  0.00     0.211 HD
ENDBRANCH  15  19
BRANCH  15  21
ATOM     21  C   UNL     1       1.368   0.995  -3.547  1.00  0.00     0.038 C 
BRANCH  21  22
ATOM     22  C   UNL     1       2.912   1.119  -3.555  1.00  0.00    -0.000 C 
ATOM     23  C   UNL     1       3.809   0.467  -2.514  1.00  0.00     0.004 C 
ENDBRANCH  21  22
ENDBRANCH  15  21
ENDBRANCH   7  15
ENDBRANCH   4   6
ENDBRANCH   3   4
ENDBRANCH   2   3
ENDBRANCH   1   2
BRANCH   1  24
ATOM     24  O   UNL     1       2.335  -4.582  -8.926  1.00  0.00    -0.374 OA
BRANCH  24  25
ATOM     25  C   UNL     1       3.261  -4.097  -7.955  1.00  0.00     0.202 C 
BRANCH  25  26
ATOM     26  C   UNL     1       4.140  -2.939  -8.446  1.00  0.00     0.261 C 
BRANCH  26  27
ATOM     27  O   UNL     1       3.349  -1.743  -8.608  1.00  0.00    -0.460 OA
BRANCH  27  28
ATOM     28  C   UNL     1       3.343  -1.230  -9.860  1.00  0.00     0.338 C 
ATOM     29  O   UNL     1       4.051  -1.553 -10.797  1.00  0.00    -0.246 OA
BRANCH  28  30
ATOM     30  C   UNL     1       2.190  -0.326 -10.026  1.00  0.00     0.060 A 
ATOM     31  C   UNL     1       1.220  -0.710 -10.958  1.00  0.00     0.016 A 
ATOM     32  C   UNL     1       2.102   0.908  -9.378  1.00  0.00     0.016 A 
ATOM     33  C   UNL     1       0.186   0.161 -11.289  1.00  0.00     0.010 A 
ATOM     34  C   UNL     1       1.060   1.786  -9.717  1.00  0.00     0.010 A 
ATOM     35  C   UNL     1       0.118   1.432 -10.701  1.00  0.00    -0.014 A 
BRANCH  35  36
ATOM     36  C   UNL     1      -0.879   2.406 -11.217  1.00  0.00     0.031 A 
ATOM     37  C   UNL     1      -0.447   3.480 -12.181  1.00  0.00     0.074 A 
ATOM     38  C   UNL     1      -2.182   2.287 -10.898  1.00  0.00     0.049 A 
ATOM     39  N   UNL     1      -1.171   4.388 -12.787  1.00  0.00    -0.248 NA
ATOM     40  C   UNL     1       0.985   3.533 -12.514  1.00  0.00     0.031 C 
ATOM     41  C   UNL     1      -2.746   1.265 -10.018  1.00  0.00     0.029 A 
ATOM     42  N   UNL     1      -3.268   3.030 -11.291  1.00  0.00    -0.354 N 
ATOM     43  C   UNL     1      -0.285   5.121 -13.569  1.00  0.00     0.074 A 
ATOM     44  C   UNL     1       1.033   4.568 -13.340  1.00  0.00     0.031 C 
ATOM     45  C   UNL     1      -4.076   1.444  -9.940  1.00  0.00     0.029 A 
ATOM     46  C   UNL     1      -4.452   2.612 -10.735  1.00  0.00     0.049 A 
ATOM     47  H   UNL     1      -3.204   3.791 -11.913  1.00  0.00     0.167 HD
ATOM     48  C   UNL     1      -0.544   6.155 -14.405  1.00  0.00     0.031 A 
ATOM     49  C   UNL     1      -5.695   3.121 -10.835  1.00  0.00     0.031 A 
ATOM     50  C   UNL     1      -1.850   6.715 -14.633  1.00  0.00     0.049 A 
ATOM     51  C   UNL     1      -5.939   4.328 -11.702  1.00  0.00     0.074 A 
ATOM     52  C   UNL     1      -2.206   7.746 -15.487  1.00  0.00     0.029 A 
ATOM     53  N   UNL     1      -3.010   6.305 -13.998  1.00  0.00    -0.354 N 
ATOM     54  N   UNL     1      -5.099   4.982 -12.466  1.00  0.00    -0.248 NA
ATOM     55  C   UNL     1      -7.310   4.863 -11.723  1.00  0.00     0.031 C 
ATOM     56  C   UNL     1      -3.570   8.005 -15.317  1.00  0.00     0.029 A 
ATOM     57  C   UNL     1      -4.075   7.091 -14.407  1.00  0.00     0.049 A 
ATOM     58  H   UNL     1      -3.070   5.565 -13.351  1.00  0.00     0.167 HD
ATOM     59  C   UNL     1      -5.841   5.990 -13.071  1.00  0.00     0.074 A 
ATOM     60  C   UNL     1      -7.204   5.846 -12.606  1.00  0.00     0.031 C 
ATOM     61  C   UNL     1      -5.428   6.950 -13.934  1.00  0.00     0.031 A 
BRANCH  48  62
ATOM     62  C   UNL     1       0.621   6.785 -15.117  1.00  0.00    -0.014 A 
ATOM     63  C   UNL     1       1.271   6.134 -16.177  1.00  0.00     0.009 A 
ATOM     64  C   UNL     1       1.029   8.081 -14.764  1.00  0.00     0.009 A 
ATOM     65  C   UNL     1       2.322   6.760 -16.852  1.00  0.00     0.001 A 
ATOM     66  C   UNL     1       2.062   8.714 -15.457  1.00  0.00     0.001 A 
ATOM     67  C   UNL     1       2.712   8.051 -16.496  1.00  0.00     0.000 A 
ENDBRANCH  48  62
BRANCH  49  68
ATOM     68  C   UNL     1      -6.811   2.521 -10.056  1.00  0.00    -0.014 A 
ATOM     69  C   UNL     1      -7.876   1.872 -10.699  1.00  0.00     0.009 A 
ATOM     70  C   UNL     1      -6.829   2.630  -8.656  1.00  0.00     0.009 A 
ATOM     71  C   UNL     1      -8.949   1.371  -9.957  1.00  0.00     0.001 A 
ATOM     72  C   UNL     1      -7.887   2.099  -7.915  1.00  0.00     0.001 A 
ATOM     73  C   UNL     1      -8.951   1.481  -8.567  1.00  0.00     0.000 A 
ENDBRANCH  49  68
BRANCH  61  74
ATOM     74  C   UNL     1      -6.464   7.911 -14.451  1.00  0.00    -0.014 A 
ATOM     75  C   UNL     1      -7.022   8.896 -13.621  1.00  0.00     0.009 A 
ATOM     76  C   UNL     1      -6.858   7.856 -15.797  1.00  0.00     0.009 A 
ATOM     77  C   UNL     1      -7.978   9.784 -14.120  1.00  0.00     0.001 A 
ATOM     78  C   UNL     1      -7.790   8.764 -16.302  1.00  0.00     0.001 A 
ATOM     79  C   UNL     1      -8.357   9.721 -15.461  1.00  0.00     0.000 A 
ENDBRANCH  61  74
ENDBRANCH  35  36
ENDBRANCH  28  30
ENDBRANCH  27  28
ENDBRANCH  26  27
ENDBRANCH  25  26
ENDBRANCH  24  25
ENDBRANCH   1  24
TORSDOF 20
