REMARK SMILES [NH3+][C@H]1CCCCC[C@@H]1C(=O)N[C@@H](CCO)C(=O)OCCOCCOC(=O)c1ccc(-c2c3nc(c(-c4ccccc4)c4ccc([nH]4)c(-c4ccccc4)c4nc(c(-c5ccccc5)c5ccc2[nH]5)C=C4)C=C3)cc1
REMARK SMILES IDX 19 1 18 2 16 3 17 4 12 5 11 6 9 7 10 8 8 10 2 11 1 12 3 16
REMARK SMILES IDX 7 18 6 19 5 20 4 21 13 23 14 24 15 25 20 27 21 28 22 29
REMARK SMILES IDX 23 30 24 31 25 32 26 33 27 34 28 35 74 36 29 37 73 38 30 39
REMARK SMILES IDX 31 40 32 41 67 42 33 43 72 44 66 45 68 46 34 47 71 48 65 49
REMARK SMILES IDX 64 50 35 52 57 53 42 54 56 55 43 56 46 57 55 58 69 59 44 60
REMARK SMILES IDX 45 61 54 63 70 64 47 65 36 66 37 67 41 68 38 69 40 70 39 71
REMARK SMILES IDX 58 72 59 73 63 74 60 75 62 76 61 77 48 78 49 79 53 80 50 81
REMARK SMILES IDX 52 82 51 83
REMARK H PARENT 11 9 1 13 1 14 1 15 15 26 68 51 46 62
REMARK Flexibility Score: 90.00
ROOT
ATOM      1  C   UNL     1       4.352  -2.753  -0.966  1.00  0.00     0.261 C 
ENDROOT
BRANCH   1   2
ATOM      2  O   UNL     1       4.183  -1.327  -0.931  1.00  0.00    -0.462 OA
BRANCH   2   3
ATOM      3  C   UNL     1       3.562  -0.806  -2.027  1.00  0.00     0.328 C 
ATOM      4  O   UNL     1       3.341  -1.416  -3.068  1.00  0.00    -0.250 OA
BRANCH   3   5
ATOM      5  C   UNL     1       3.107   0.650  -1.816  1.00  0.00     0.194 C 
BRANCH   5   6
ATOM      6  N   UNL     1       3.223   1.208  -0.465  1.00  0.00    -0.342 N 
ATOM      7  C   UNL     1       2.411   1.925   0.345  1.00  0.00     0.229 C 
ATOM      8  O   UNL     1       2.977   2.366   1.358  1.00  0.00    -0.275 OA
ATOM      9  H   UNL     1       4.095   1.016  -0.051  1.00  0.00     0.164 HD
BRANCH   7  10
ATOM     10  C   UNL     1       0.899   2.209   0.172  1.00  0.00     0.136 C 
BRANCH  10  11
ATOM     11  C   UNL     1       0.040   1.426  -0.836  1.00  0.00     0.193 C 
BRANCH  11  12
ATOM     12  N   UNL     1      -1.329   1.250  -0.307  1.00  0.00    -0.354 N 
ATOM     13  H   UNL     1      -1.890   0.730  -0.982  1.00  0.00     0.344 HD
ATOM     14  H   UNL     1      -1.752   2.164  -0.146  1.00  0.00     0.344 HD
ATOM     15  H   UNL     1      -1.290   0.733   0.572  1.00  0.00     0.344 HD
ENDBRANCH  11  12
BRANCH  11  16
ATOM     16  C   UNL     1      -0.045   2.006  -2.263  1.00  0.00     0.066 CG0
ATOM     17  G   UNL     1      -0.677   3.385  -2.414  1.00  0.00     0.000 G0
ENDBRANCH  11  16
ENDBRANCH  10  11
BRANCH  10  18
ATOM     18  C   UNL     1       0.601   3.723   0.243  1.00  0.00     0.020 C 
BRANCH  18  19
ATOM     19  C   UNL     1       1.140   4.533  -0.929  1.00  0.00     0.001 C 
BRANCH  19  20
ATOM     20  C   UNL     1       0.304   4.533  -2.208  1.00  0.00     0.000 C 
BRANCH  20  21
ATOM     21  C   UNL     1      -0.677   3.385  -2.414  1.00  0.00     0.006 CG0
ATOM     22  G   UNL     1      -0.045   2.006  -2.263  1.00  0.00     0.000 G0
ENDBRANCH  20  21
ENDBRANCH  19  20
ENDBRANCH  18  19
ENDBRANCH  10  18
ENDBRANCH   7  10
ENDBRANCH   5   6
BRANCH   5  23
ATOM     23  C   UNL     1       3.763   1.585  -2.840  1.00  0.00     0.065 C 
BRANCH  23  24
ATOM     24  C   UNL     1       5.272   1.729  -2.675  1.00  0.00     0.159 C 
BRANCH  24  25
ATOM     25  O   UNL     1       5.906   0.472  -2.843  1.00  0.00    -0.396 OA
ATOM     26  H   UNL     1       5.576  -0.148  -2.173  1.00  0.00     0.210 HD
ENDBRANCH  24  25
ENDBRANCH  23  24
ENDBRANCH   5  23
ENDBRANCH   3   5
ENDBRANCH   2   3
ENDBRANCH   1   2
BRANCH   1  27
ATOM     27  C   UNL     1       3.857  -3.432   0.317  1.00  0.00     0.202 C 
BRANCH  27  28
ATOM     28  O   UNL     1       2.534  -3.116   0.740  1.00  0.00    -0.374 OA
BRANCH  28  29
ATOM     29  C   UNL     1       2.284  -1.798   1.235  1.00  0.00     0.202 C 
BRANCH  29  30
ATOM     30  C   UNL     1       3.098  -1.333   2.451  1.00  0.00     0.261 C 
BRANCH  30  31
ATOM     31  O   UNL     1       4.500  -1.158   2.151  1.00  0.00    -0.460 OA
BRANCH  31  32
ATOM     32  C   UNL     1       5.340  -1.798   2.999  1.00  0.00     0.338 C 
ATOM     33  O   UNL     1       5.046  -2.454   3.989  1.00  0.00    -0.246 OA
BRANCH  32  34
ATOM     34  C   UNL     1       6.720  -1.756   2.491  1.00  0.00     0.060 A 
ATOM     35  C   UNL     1       7.308  -2.962   2.087  1.00  0.00     0.016 A 
ATOM     36  C   UNL     1       7.479  -0.588   2.577  1.00  0.00     0.016 A 
ATOM     37  C   UNL     1       8.674  -3.014   1.816  1.00  0.00     0.010 A 
ATOM     38  C   UNL     1       8.853  -0.645   2.311  1.00  0.00     0.010 A 
ATOM     39  C   UNL     1       9.462  -1.867   1.972  1.00  0.00    -0.014 A 
BRANCH  39  40
ATOM     40  C   UNL     1      10.940  -1.994   1.935  1.00  0.00     0.031 A 
ATOM     41  C   UNL     1      11.701  -2.109   3.228  1.00  0.00     0.074 A 
ATOM     42  C   UNL     1      11.596  -2.046   0.764  1.00  0.00     0.049 A 
ATOM     43  N   UNL     1      12.988  -2.254   3.422  1.00  0.00    -0.248 NA
ATOM     44  C   UNL     1      10.906  -2.053   4.465  1.00  0.00     0.031 C 
ATOM     45  C   UNL     1      10.976  -1.976  -0.557  1.00  0.00     0.029 A 
ATOM     46  N   UNL     1      12.938  -2.170   0.503  1.00  0.00    -0.354 N 
ATOM     47  C   UNL     1      13.158  -2.298   4.800  1.00  0.00     0.074 A 
ATOM     48  C   UNL     1      11.847  -2.139   5.394  1.00  0.00     0.031 C 
ATOM     49  C   UNL     1      11.938  -2.048  -1.493  1.00  0.00     0.029 A 
ATOM     50  C   UNL     1      13.240  -2.150  -0.835  1.00  0.00     0.049 A 
ATOM     51  H   UNL     1      13.618  -2.264   1.209  1.00  0.00     0.167 HD
ATOM     52  C   UNL     1      14.300  -2.460   5.511  1.00  0.00     0.031 A 
ATOM     53  C   UNL     1      14.431  -2.196  -1.460  1.00  0.00     0.031 A 
ATOM     54  C   UNL     1      15.606  -2.608   4.928  1.00  0.00     0.049 A 
ATOM     55  C   UNL     1      15.692  -2.328  -0.652  1.00  0.00     0.074 A 
ATOM     56  C   UNL     1      16.818  -2.813   5.565  1.00  0.00     0.029 A 
ATOM     57  N   UNL     1      15.872  -2.554   3.569  1.00  0.00    -0.354 N 
ATOM     58  N   UNL     1      15.834  -2.415   0.649  1.00  0.00    -0.248 NA
ATOM     59  C   UNL     1      16.957  -2.379  -1.400  1.00  0.00     0.031 C 
ATOM     60  C   UNL     1      17.825  -2.830   4.593  1.00  0.00     0.029 A 
ATOM     61  C   UNL     1      17.233  -2.688   3.348  1.00  0.00     0.049 A 
ATOM     62  H   UNL     1      15.194  -2.438   2.864  1.00  0.00     0.167 HD
ATOM     63  C   UNL     1      17.198  -2.551   0.874  1.00  0.00     0.074 A 
ATOM     64  C   UNL     1      17.840  -2.548  -0.425  1.00  0.00     0.031 C 
ATOM     65  C   UNL     1      17.859  -2.671   2.051  1.00  0.00     0.031 A 
BRANCH  52  66
ATOM     66  C   UNL     1      14.183  -2.441   7.009  1.00  0.00    -0.014 A 
ATOM     67  C   UNL     1      13.614  -3.515   7.712  1.00  0.00     0.009 A 
ATOM     68  C   UNL     1      14.660  -1.334   7.728  1.00  0.00     0.009 A 
ATOM     69  C   UNL     1      13.488  -3.461   9.102  1.00  0.00     0.001 A 
ATOM     70  C   UNL     1      14.556  -1.294   9.119  1.00  0.00     0.001 A 
ATOM     71  C   UNL     1      13.961  -2.353   9.804  1.00  0.00     0.000 A 
ENDBRANCH  52  66
BRANCH  53  72
ATOM     72  C   UNL     1      14.485  -2.103  -2.941  1.00  0.00    -0.014 A 
ATOM     73  C   UNL     1      14.787  -3.227  -3.722  1.00  0.00     0.009 A 
ATOM     74  C   UNL     1      14.216  -0.882  -3.581  1.00  0.00     0.009 A 
ATOM     75  C   UNL     1      14.833  -3.128  -5.114  1.00  0.00     0.001 A 
ATOM     76  C   UNL     1      14.239  -0.791  -4.973  1.00  0.00     0.001 A 
ATOM     77  C   UNL     1      14.553  -1.913  -5.739  1.00  0.00     0.000 A 
ENDBRANCH  53  72
BRANCH  65  78
ATOM     78  C   UNL     1      19.352  -2.828   1.989  1.00  0.00    -0.014 A 
ATOM     79  C   UNL     1      20.185  -1.741   1.678  1.00  0.00     0.009 A 
ATOM     80  C   UNL     1      19.936  -4.070   2.285  1.00  0.00     0.009 A 
ATOM     81  C   UNL     1      21.571  -1.904   1.636  1.00  0.00     0.001 A 
ATOM     82  C   UNL     1      21.323  -4.223   2.267  1.00  0.00     0.001 A 
ATOM     83  C   UNL     1      22.139  -3.143   1.934  1.00  0.00     0.000 A 
ENDBRANCH  65  78
ENDBRANCH  39  40
ENDBRANCH  32  34
ENDBRANCH  31  32
ENDBRANCH  30  31
ENDBRANCH  29  30
ENDBRANCH  28  29
ENDBRANCH  27  28
ENDBRANCH   1  27
TORSDOF 20
