REMARK SMILES Cc1ccc(N(CC(=O)OCCOCCOC(=O)c2ccc(-c3c4nc(c(-c5ccccc5)c5ccc([nH]5)c(-c5ccccc5)c5nc(c(-c6ccccc6)c6ccc3[nH]6)C=C5)C=C4)cc2)C(=O)C[C@H]2C[NH2+]CCO2)cc1
REMARK SMILES IDX 12 1 11 2 10 3 8 4 9 5 7 6 6 7 5 8 1 9 2 10 3 11 77 12 4 13
REMARK SMILES IDX 76 14 67 15 68 16 69 17 70 18 71 19 75 20 72 21 74 22 73 23
REMARK SMILES IDX 13 26 14 27 15 28 16 29 17 30 18 31 19 32 20 33 66 34 21 35
REMARK SMILES IDX 65 36 22 37 23 38 24 39 59 40 25 41 64 42 58 43 60 44 26 45
REMARK SMILES IDX 63 46 57 47 56 48 27 50 49 51 34 52 48 53 35 54 38 55 47 56
REMARK SMILES IDX 61 57 36 58 37 59 46 61 62 62 39 63 28 64 29 65 33 66 30 67
REMARK SMILES IDX 32 68 31 69 50 70 51 71 55 72 52 73 54 74 53 75 40 76 41 77
REMARK SMILES IDX 45 78 42 79 44 80 43 81
REMARK H PARENT 72 24 72 25 60 49 38 60
REMARK Flexibility Score: inf
ROOT
ATOM      1  C   UNL     1      -2.449   0.692  -4.650  1.00  0.00     0.202 C 
ENDROOT
BRANCH   1   2
ATOM      2  C   UNL     1      -2.461  -0.802  -4.666  1.00  0.00     0.261 C 
BRANCH   2   3
ATOM      3  O   UNL     1      -3.805  -1.258  -4.582  1.00  0.00    -0.462 OA
BRANCH   3   4
ATOM      4  C   UNL     1      -4.331  -1.381  -3.326  1.00  0.00     0.326 C 
ATOM      5  O   UNL     1      -3.840  -1.109  -2.254  1.00  0.00    -0.250 OA
BRANCH   4   6
ATOM      6  C   UNL     1      -5.719  -1.911  -3.468  1.00  0.00     0.248 C 
BRANCH   6   7
ATOM      7  N   UNL     1      -6.606  -0.883  -4.068  1.00  0.00    -0.301 N 
BRANCH   7   8
ATOM      8  C   UNL     1      -7.187  -1.310  -5.333  1.00  0.00     0.044 A 
ATOM      9  C   UNL     1      -8.396  -2.841  -9.216  1.00  0.00     0.044 C 
ATOM     10  C   UNL     1      -8.039  -2.301  -7.865  1.00  0.00    -0.051 A 
ATOM     11  C   UNL     1      -7.895  -3.165  -6.784  1.00  0.00     0.005 A 
ATOM     12  C   UNL     1      -7.807  -0.939  -7.665  1.00  0.00     0.005 A 
ATOM     13  C   UNL     1      -7.503  -2.670  -5.536  1.00  0.00     0.026 A 
ATOM     14  C   UNL     1      -7.393  -0.451  -6.415  1.00  0.00     0.026 A 
ENDBRANCH   7   8
BRANCH   7  15
ATOM     15  C   UNL     1      -6.670   0.452  -3.612  1.00  0.00     0.230 C 
ATOM     16  O   UNL     1      -7.008   1.389  -4.349  1.00  0.00    -0.274 OA
BRANCH  15  17
ATOM     17  C   UNL     1      -6.356   0.865  -2.159  1.00  0.00     0.138 C 
BRANCH  17  18
ATOM     18  C   UNL     1      -7.487   0.977  -1.109  1.00  0.00     0.182 C 
ATOM     19  C   UNL     1      -8.916   1.234  -1.601  1.00  0.00     0.293 C 
ATOM     20  O   UNL     1      -7.528  -0.134  -0.197  1.00  0.00    -0.366 OA
ATOM     21  N   UNL     1      -9.452   0.129  -2.397  1.00  0.00    -0.342 N 
ATOM     22  C   UNL     1      -7.988  -1.312  -0.842  1.00  0.00     0.222 C 
ATOM     23  C   UNL     1      -9.254  -1.153  -1.706  1.00  0.00     0.289 C 
ATOM     24  H   UNL     1      -8.973   0.101  -3.297  1.00  0.00     0.346 HD
ATOM     25  H   UNL     1     -10.452   0.277  -2.534  1.00  0.00     0.346 HD
ENDBRANCH  17  18
ENDBRANCH  15  17
ENDBRANCH   7  15
ENDBRANCH   6   7
ENDBRANCH   4   6
ENDBRANCH   3   4
ENDBRANCH   2   3
ENDBRANCH   1   2
BRANCH   1  26
ATOM     26  O   UNL     1      -2.614   0.964  -3.274  1.00  0.00    -0.374 OA
BRANCH  26  27
ATOM     27  C   UNL     1      -3.127   2.214  -2.911  1.00  0.00     0.202 C 
BRANCH  27  28
ATOM     28  C   UNL     1      -2.092   3.301  -3.163  1.00  0.00     0.261 C 
BRANCH  28  29
ATOM     29  O   UNL     1      -0.884   3.025  -2.411  1.00  0.00    -0.460 OA
BRANCH  29  30
ATOM     30  C   UNL     1       0.046   2.246  -3.040  1.00  0.00     0.338 C 
ATOM     31  O   UNL     1       0.530   2.482  -4.137  1.00  0.00    -0.246 OA
BRANCH  30  32
ATOM     32  C   UNL     1       0.179   0.926  -2.343  1.00  0.00     0.060 A 
ATOM     33  C   UNL     1       0.743  -0.175  -3.024  1.00  0.00     0.016 A 
ATOM     34  C   UNL     1      -0.608   0.712  -1.218  1.00  0.00     0.016 A 
ATOM     35  C   UNL     1       0.372  -1.487  -2.681  1.00  0.00     0.010 A 
ATOM     36  C   UNL     1      -1.096  -0.559  -1.005  1.00  0.00     0.010 A 
ATOM     37  C   UNL     1      -0.629  -1.667  -1.729  1.00  0.00    -0.014 A 
BRANCH  37  38
ATOM     38  C   UNL     1      -1.277  -2.934  -1.377  1.00  0.00     0.031 A 
ATOM     39  C   UNL     1      -0.915  -3.479  -0.059  1.00  0.00     0.074 A 
ATOM     40  C   UNL     1      -2.204  -3.592  -2.116  1.00  0.00     0.049 A 
ATOM     41  N   UNL     1      -0.594  -4.716   0.115  1.00  0.00    -0.248 NA
ATOM     42  C   UNL     1      -0.743  -2.654   1.139  1.00  0.00     0.031 C 
ATOM     43  C   UNL     1      -3.158  -4.594  -1.636  1.00  0.00     0.029 A 
ATOM     44  N   UNL     1      -2.478  -3.516  -3.473  1.00  0.00    -0.354 N 
ATOM     45  C   UNL     1      -0.505  -4.880   1.475  1.00  0.00     0.074 A 
ATOM     46  C   UNL     1      -0.367  -3.562   2.037  1.00  0.00     0.031 C 
ATOM     47  C   UNL     1      -3.818  -5.129  -2.681  1.00  0.00     0.029 A 
ATOM     48  C   UNL     1      -3.273  -4.568  -3.912  1.00  0.00     0.049 A 
ATOM     49  H   UNL     1      -2.146  -2.798  -4.060  1.00  0.00     0.167 HD
ATOM     50  C   UNL     1      -0.868  -6.052   2.057  1.00  0.00     0.031 A 
ATOM     51  C   UNL     1      -3.031  -5.235  -5.073  1.00  0.00     0.031 A 
ATOM     52  C   UNL     1      -1.510  -6.940   1.088  1.00  0.00     0.049 A 
ATOM     53  C   UNL     1      -2.395  -6.549  -4.704  1.00  0.00     0.074 A 
ATOM     54  C   UNL     1      -2.844  -7.236   0.852  1.00  0.00     0.029 A 
ATOM     55  N   UNL     1      -0.818  -7.353  -0.048  1.00  0.00    -0.354 N 
ATOM     56  N   UNL     1      -1.976  -6.779  -3.489  1.00  0.00    -0.248 NA
ATOM     57  C   UNL     1      -2.210  -7.700  -5.579  1.00  0.00     0.031 C 
ATOM     58  C   UNL     1      -2.947  -7.832  -0.433  1.00  0.00     0.029 A 
ATOM     59  C   UNL     1      -1.675  -7.919  -0.974  1.00  0.00     0.049 A 
ATOM     60  H   UNL     1       0.153  -7.255  -0.175  1.00  0.00     0.167 HD
ATOM     61  C   UNL     1      -1.558  -8.062  -3.376  1.00  0.00     0.074 A 
ATOM     62  C   UNL     1      -1.683  -8.597  -4.721  1.00  0.00     0.031 C 
ATOM     63  C   UNL     1      -1.156  -8.566  -2.177  1.00  0.00     0.031 A 
BRANCH  50  64
ATOM     64  C   UNL     1      -0.983  -6.163   3.557  1.00  0.00    -0.014 A 
ATOM     65  C   UNL     1      -1.958  -6.985   4.139  1.00  0.00     0.009 A 
ATOM     66  C   UNL     1      -0.142  -5.464   4.448  1.00  0.00     0.009 A 
ATOM     67  C   UNL     1      -2.139  -7.043   5.527  1.00  0.00     0.001 A 
ATOM     68  C   UNL     1      -0.351  -5.476   5.833  1.00  0.00     0.001 A 
ATOM     69  C   UNL     1      -1.354  -6.268   6.373  1.00  0.00     0.000 A 
ENDBRANCH  50  64
BRANCH  51  70
ATOM     70  C   UNL     1      -2.774  -4.370  -6.259  1.00  0.00    -0.014 A 
ATOM     71  C   UNL     1      -3.899  -3.707  -6.803  1.00  0.00     0.009 A 
ATOM     72  C   UNL     1      -1.504  -3.905  -6.631  1.00  0.00     0.009 A 
ATOM     73  C   UNL     1      -3.769  -2.552  -7.585  1.00  0.00     0.001 A 
ATOM     74  C   UNL     1      -1.374  -2.756  -7.438  1.00  0.00     0.001 A 
ATOM     75  C   UNL     1      -2.504  -2.062  -7.885  1.00  0.00     0.000 A 
ENDBRANCH  51  70
BRANCH  63  76
ATOM     76  C   UNL     1      -0.291  -9.779  -2.019  1.00  0.00    -0.014 A 
ATOM     77  C   UNL     1       0.491 -10.305  -3.052  1.00  0.00     0.009 A 
ATOM     78  C   UNL     1      -0.105 -10.322  -0.729  1.00  0.00     0.009 A 
ATOM     79  C   UNL     1       1.380 -11.356  -2.819  1.00  0.00     0.001 A 
ATOM     80  C   UNL     1       0.828 -11.324  -0.480  1.00  0.00     0.001 A 
ATOM     81  C   UNL     1       1.559 -11.854  -1.532  1.00  0.00     0.000 A 
ENDBRANCH  63  76
ENDBRANCH  37  38
ENDBRANCH  30  32
ENDBRANCH  29  30
ENDBRANCH  28  29
ENDBRANCH  27  28
ENDBRANCH  26  27
ENDBRANCH   1  26
TORSDOF 19
