REMARK SMILES CCCCCCNC(=O)Oc1cccc(-c2ccc([C@@H](C)C(=O)OCCOCCOC(=O)c3ccc(-c4c5nc(c(-c6ccccc6)c6ccc([nH]6)c(-c6ccccc6)c6nc(c(-c7ccccc7)c7ccc4[nH]7)C=C6)C=C5)cc3)cc2C(F)(F)F)c1
REMARK SMILES IDX 22 1 23 2 20 3 21 4 19 5 16 6 17 7 82 8 18 9 81 10 15 11
REMARK SMILES IDX 11 12 12 13 87 14 13 15 14 16 10 17 8 18 7 19 9 21 6 22 5 23
REMARK SMILES IDX 4 24 3 25 2 26 1 27 83 28 84 29 85 30 86 31 24 32 25 33
REMARK SMILES IDX 26 34 27 35 28 36 29 37 30 38 31 39 32 40 33 41 34 42 80 43
REMARK SMILES IDX 35 44 79 45 36 46 37 47 38 48 73 49 39 50 78 51 72 52 74 53
REMARK SMILES IDX 40 54 77 55 71 56 70 57 41 59 63 60 48 61 62 62 49 63 52 64
REMARK SMILES IDX 61 65 75 66 50 67 51 68 60 70 76 71 53 72 42 73 43 74 47 75
REMARK SMILES IDX 44 76 46 77 45 78 64 79 65 80 69 81 66 82 68 83 67 84 54 85
REMARK SMILES IDX 55 86 59 87 56 88 58 89 57 90
REMARK H PARENT 7 20 74 58 52 69
REMARK Flexibility Score: inf
ROOT
ATOM      1  C   UNL     1      -4.450  12.041   8.779  1.00  0.00     0.313 C 
ATOM      2  O   UNL     1      -4.213  13.231   8.592  1.00  0.00    -0.252 OA
ENDROOT
BRANCH   1   3
ATOM      3  C   UNL     1      -5.448  11.283   7.917  1.00  0.00     0.126 C 
ATOM      4  C   UNL     1      -6.863  11.622   8.377  1.00  0.00     0.025 C 
BRANCH   3   5
ATOM      5  C   UNL     1      -5.258   9.779   7.734  1.00  0.00    -0.033 A 
ATOM      6  C   UNL     1      -5.134   6.961   7.234  1.00  0.00    -0.006 A 
ATOM      7  C   UNL     1      -5.304   7.484   8.534  1.00  0.00     0.009 A 
ATOM      8  C   UNL     1      -5.001   7.878   6.170  1.00  0.00     0.064 A 
ATOM      9  C   UNL     1      -5.376   8.862   8.780  1.00  0.00     0.005 A 
ATOM     10  C   UNL     1      -5.043   9.268   6.443  1.00  0.00     0.018 A 
BRANCH   6  11
ATOM     11  C   UNL     1      -5.187   5.496   7.041  1.00  0.00    -0.014 A 
ATOM     12  C   UNL     1      -4.276   3.411   6.195  1.00  0.00     0.133 A 
ATOM     13  C   UNL     1      -5.443   2.729   6.532  1.00  0.00     0.047 A 
ATOM     14  C   UNL     1      -4.132   4.778   6.454  1.00  0.00     0.056 A 
ATOM     15  C   UNL     1      -6.481   3.419   7.149  1.00  0.00     0.004 A 
ATOM     16  C   UNL     1      -6.355   4.789   7.394  1.00  0.00     0.009 A 
BRANCH  12  17
ATOM     17  O   UNL     1      -3.337   2.683   5.437  1.00  0.00    -0.410 OA
BRANCH  17  18
ATOM     18  C   UNL     1      -1.982   2.787   5.700  1.00  0.00     0.412 C 
ATOM     19  N   UNL     1      -1.204   2.107   4.807  1.00  0.00    -0.321 N 
ATOM     20  H   UNL     1      -0.232   2.139   4.956  1.00  0.00     0.167 HD
ATOM     21  O   UNL     1      -1.479   3.406   6.639  1.00  0.00    -0.224 OA
BRANCH  19  22
ATOM     22  C   UNL     1      -1.659   1.342   3.659  1.00  0.00     0.119 C 
BRANCH  22  23
ATOM     23  C   UNL     1      -1.075   1.867   2.346  1.00  0.00     0.021 C 
BRANCH  23  24
ATOM     24  C   UNL     1       0.452   1.772   2.232  1.00  0.00     0.002 C 
BRANCH  24  25
ATOM     25  C   UNL     1       1.038   0.360   2.337  1.00  0.00    -0.000 C 
BRANCH  25  26
ATOM     26  C   UNL     1       0.560  -0.632   1.274  1.00  0.00    -0.003 C 
ATOM     27  C   UNL     1       0.953  -0.237  -0.142  1.00  0.00     0.004 C 
ENDBRANCH  25  26
ENDBRANCH  24  25
ENDBRANCH  23  24
ENDBRANCH  22  23
ENDBRANCH  19  22
ENDBRANCH  17  18
ENDBRANCH  12  17
ENDBRANCH   6  11
BRANCH   8  28
ATOM     28  C   UNL     1      -4.815   7.463   4.724  1.00  0.00     0.417 C 
ATOM     29  F   UNL     1      -5.341   8.376   3.852  1.00  0.00    -0.166 F 
ATOM     30  F   UNL     1      -3.497   7.366   4.389  1.00  0.00    -0.166 F 
ATOM     31  F   UNL     1      -5.387   6.281   4.373  1.00  0.00    -0.166 F 
ENDBRANCH   8  28
ENDBRANCH   3   5
ENDBRANCH   1   3
BRANCH   1  32
ATOM     32  O   UNL     1      -3.892  11.294   9.766  1.00  0.00    -0.463 OA
BRANCH  32  33
ATOM     33  C   UNL     1      -2.838  11.929  10.512  1.00  0.00     0.261 C 
BRANCH  33  34
ATOM     34  C   UNL     1      -1.517  11.172  10.351  1.00  0.00     0.202 C 
BRANCH  34  35
ATOM     35  O   UNL     1      -0.926  11.202   9.053  1.00  0.00    -0.374 OA
BRANCH  35  36
ATOM     36  C   UNL     1      -1.512  10.388   8.038  1.00  0.00     0.202 C 
BRANCH  36  37
ATOM     37  C   UNL     1      -1.210   8.885   8.095  1.00  0.00     0.261 C 
BRANCH  37  38
ATOM     38  O   UNL     1      -1.723   8.263   9.286  1.00  0.00    -0.460 OA
BRANCH  38  39
ATOM     39  C   UNL     1      -0.770   7.855  10.157  1.00  0.00     0.338 C 
ATOM     40  O   UNL     1       0.440   7.903  10.007  1.00  0.00    -0.246 OA
BRANCH  39  41
ATOM     41  C   UNL     1      -1.375   7.490  11.453  1.00  0.00     0.060 A 
ATOM     42  C   UNL     1      -0.802   8.056  12.598  1.00  0.00     0.016 A 
ATOM     43  C   UNL     1      -2.396   6.543  11.564  1.00  0.00     0.016 A 
ATOM     44  C   UNL     1      -1.191   7.620  13.861  1.00  0.00     0.010 A 
ATOM     45  C   UNL     1      -2.786   6.105  12.837  1.00  0.00     0.010 A 
ATOM     46  C   UNL     1      -2.147   6.604  13.988  1.00  0.00    -0.014 A 
BRANCH  46  47
ATOM     47  C   UNL     1      -2.318   5.956  15.313  1.00  0.00     0.031 A 
ATOM     48  C   UNL     1      -1.616   4.650  15.581  1.00  0.00     0.074 A 
ATOM     49  C   UNL     1      -2.999   6.566  16.300  1.00  0.00     0.049 A 
ATOM     50  N   UNL     1      -1.556   3.952  16.688  1.00  0.00    -0.248 NA
ATOM     51  C   UNL     1      -0.874   4.057  14.456  1.00  0.00     0.031 C 
ATOM     52  C   UNL     1      -3.675   7.857  16.190  1.00  0.00     0.029 A 
ATOM     53  N   UNL     1      -3.212   6.183  17.601  1.00  0.00    -0.354 N 
ATOM     54  C   UNL     1      -0.769   2.845  16.393  1.00  0.00     0.074 A 
ATOM     55  C   UNL     1      -0.407   2.941  14.996  1.00  0.00     0.031 C 
ATOM     56  C   UNL     1      -4.218   8.167  17.381  1.00  0.00     0.029 A 
ATOM     57  C   UNL     1      -3.948   7.086  18.327  1.00  0.00     0.049 A 
ATOM     58  H   UNL     1      -2.870   5.340  17.977  1.00  0.00     0.167 HD
ATOM     59  C   UNL     1      -0.366   1.845  17.213  1.00  0.00     0.031 A 
ATOM     60  C   UNL     1      -4.360   7.044  19.609  1.00  0.00     0.031 A 
ATOM     61  C   UNL     1      -0.731   1.734  18.599  1.00  0.00     0.049 A 
ATOM     62  C   UNL     1      -3.978   5.872  20.474  1.00  0.00     0.074 A 
ATOM     63  C   UNL     1      -0.374   0.754  19.509  1.00  0.00     0.029 A 
ATOM     64  N   UNL     1      -1.540   2.632  19.274  1.00  0.00    -0.354 N 
ATOM     65  N   UNL     1      -3.217   4.844  20.186  1.00  0.00    -0.248 NA
ATOM     66  C   UNL     1      -4.507   5.863  21.846  1.00  0.00     0.031 C 
ATOM     67  C   UNL     1      -1.010   1.033  20.724  1.00  0.00     0.029 A 
ATOM     68  C   UNL     1      -1.717   2.216  20.583  1.00  0.00     0.049 A 
ATOM     69  H   UNL     1      -1.932   3.446  18.882  1.00  0.00     0.167 HD
ATOM     70  C   UNL     1      -3.153   4.083  21.347  1.00  0.00     0.074 A 
ATOM     71  C   UNL     1      -3.938   4.776  22.347  1.00  0.00     0.031 C 
ATOM     72  C   UNL     1      -2.501   2.915  21.567  1.00  0.00     0.031 A 
BRANCH  59  73
ATOM     73  C   UNL     1       0.501   0.772  16.616  1.00  0.00    -0.014 A 
ATOM     74  C   UNL     1       1.842   1.022  16.285  1.00  0.00     0.009 A 
ATOM     75  C   UNL     1      -0.022  -0.514  16.410  1.00  0.00     0.009 A 
ATOM     76  C   UNL     1       2.633   0.013  15.731  1.00  0.00     0.001 A 
ATOM     77  C   UNL     1       0.779  -1.528  15.881  1.00  0.00     0.001 A 
ATOM     78  C   UNL     1       2.103  -1.261  15.534  1.00  0.00     0.000 A 
ENDBRANCH  59  73
BRANCH  60  79
ATOM     79  C   UNL     1      -5.196   8.142  20.164  1.00  0.00    -0.014 A 
ATOM     80  C   UNL     1      -4.690   9.001  21.151  1.00  0.00     0.009 A 
ATOM     81  C   UNL     1      -6.523   8.307  19.735  1.00  0.00     0.009 A 
ATOM     82  C   UNL     1      -5.505   9.985  21.718  1.00  0.00     0.001 A 
ATOM     83  C   UNL     1      -7.325   9.310  20.283  1.00  0.00     0.001 A 
ATOM     84  C   UNL     1      -6.819  10.140  21.281  1.00  0.00     0.000 A 
ENDBRANCH  60  79
BRANCH  72  85
ATOM     85  C   UNL     1      -2.583   2.330  22.949  1.00  0.00    -0.014 A 
ATOM     86  C   UNL     1      -3.766   1.741  23.422  1.00  0.00     0.009 A 
ATOM     87  C   UNL     1      -1.449   2.338  23.776  1.00  0.00     0.009 A 
ATOM     88  C   UNL     1      -3.820   1.203  24.710  1.00  0.00     0.001 A 
ATOM     89  C   UNL     1      -1.498   1.774  25.052  1.00  0.00     0.001 A 
ATOM     90  C   UNL     1      -2.686   1.216  25.521  1.00  0.00     0.000 A 
ENDBRANCH  72  85
ENDBRANCH  46  47
ENDBRANCH  39  41
ENDBRANCH  38  39
ENDBRANCH  37  38
ENDBRANCH  36  37
ENDBRANCH  35  36
ENDBRANCH  34  35
ENDBRANCH  33  34
ENDBRANCH  32  33
ENDBRANCH   1  32
TORSDOF 24
