REMARK SMILES CC(C)N(CC(=O)OCCOCCOC(=O)c1ccc(-c2c3nc(c(-c4ccccc4)c4ccc([nH]4)c(-c4ccccc4)c4nc(c(-c5ccccc5)c5ccc2[nH]5)C=C4)C=C3)cc1)C(=O)NC1C(C)(C)C1(C)C
REMARK SMILES IDX 10 1 9 2 8 3 6 4 7 5 5 6 4 7 2 8 1 9 3 10 65 11 66 12 67 13
REMARK SMILES IDX 68 15 69 16 72 17 70 18 71 19 73 20 74 21 11 22 12 23 13 24
REMARK SMILES IDX 14 25 15 26 16 27 17 28 18 29 64 30 19 31 63 32 20 33 21 34
REMARK SMILES IDX 22 35 57 36 23 37 62 38 56 39 58 40 24 41 61 42 55 43 54 44
REMARK SMILES IDX 25 46 47 47 32 48 46 49 33 50 36 51 45 52 59 53 34 54 35 55
REMARK SMILES IDX 44 57 60 58 37 59 26 60 27 61 31 62 28 63 30 64 29 65 48 66
REMARK SMILES IDX 49 67 53 68 50 69 52 70 51 71 38 72 39 73 43 74 40 75 42 76
REMARK SMILES IDX 41 77
REMARK H PARENT 67 14 58 45 36 56
REMARK Flexibility Score: inf
ROOT
ATOM      1  C   UNL     1      -4.155  -5.321  -2.366  1.00  0.00     0.202 C 
ENDROOT
BRANCH   1   2
ATOM      2  C   UNL     1      -2.881  -5.009  -3.183  1.00  0.00     0.261 C 
BRANCH   2   3
ATOM      3  O   UNL     1      -1.789  -4.345  -2.517  1.00  0.00    -0.462 OA
BRANCH   3   4
ATOM      4  C   UNL     1      -2.016  -3.013  -2.420  1.00  0.00     0.325 C 
ATOM      5  O   UNL     1      -3.128  -2.547  -2.584  1.00  0.00    -0.250 OA
BRANCH   4   6
ATOM      6  C   UNL     1      -0.780  -2.161  -2.216  1.00  0.00     0.244 C 
BRANCH   6   7
ATOM      7  N   UNL     1      -0.589  -1.459  -0.955  1.00  0.00    -0.311 N 
BRANCH   7   8
ATOM      8  C   UNL     1       0.830  -1.361  -0.523  1.00  0.00     0.081 C 
ATOM      9  C   UNL     1       1.200  -0.170   0.377  1.00  0.00     0.031 C 
ATOM     10  C   UNL     1       1.348  -2.664   0.085  1.00  0.00     0.031 C 
ENDBRANCH   7   8
BRANCH   7  11
ATOM     11  C   UNL     1      -1.558  -0.841  -0.235  1.00  0.00     0.318 C 
ATOM     12  O   UNL     1      -1.428  -0.695   0.990  1.00  0.00    -0.249 OA
ATOM     13  N   UNL     1      -2.698  -0.315  -0.709  1.00  0.00    -0.334 N 
ATOM     14  H   UNL     1      -3.154   0.105   0.056  1.00  0.00     0.165 HD
BRANCH  13  15
ATOM     15  C   UNL     1      -3.533  -0.104  -1.853  1.00  0.00     0.096 C 
ATOM     16  C   UNL     1      -3.500   1.251  -2.545  1.00  0.00    -0.007 C 
ATOM     17  C   UNL     1      -3.470  -0.029  -3.379  1.00  0.00    -0.007 C 
ATOM     18  C   UNL     1      -4.737   2.104  -2.636  1.00  0.00     0.014 C 
ATOM     19  C   UNL     1      -2.233   2.069  -2.372  1.00  0.00     0.014 C 
ATOM     20  C   UNL     1      -2.313  -0.174  -4.329  1.00  0.00     0.014 C 
ATOM     21  C   UNL     1      -4.742  -0.590  -4.040  1.00  0.00     0.014 C 
ENDBRANCH  13  15
ENDBRANCH   7  11
ENDBRANCH   6   7
ENDBRANCH   4   6
ENDBRANCH   3   4
ENDBRANCH   2   3
ENDBRANCH   1   2
BRANCH   1  22
ATOM     22  O   UNL     1      -4.988  -4.262  -1.949  1.00  0.00    -0.374 OA
BRANCH  22  23
ATOM     23  C   UNL     1      -4.891  -3.619  -0.681  1.00  0.00     0.202 C 
BRANCH  23  24
ATOM     24  C   UNL     1      -3.909  -3.922   0.470  1.00  0.00     0.261 C 
BRANCH  24  25
ATOM     25  O   UNL     1      -2.874  -4.861   0.220  1.00  0.00    -0.460 OA
BRANCH  25  26
ATOM     26  C   UNL     1      -3.147  -6.114   0.642  1.00  0.00     0.338 C 
ATOM     27  O   UNL     1      -4.159  -6.523   1.195  1.00  0.00    -0.246 OA
BRANCH  26  28
ATOM     28  C   UNL     1      -2.117  -6.992   0.084  1.00  0.00     0.060 A 
ATOM     29  C   UNL     1      -2.530  -7.985  -0.814  1.00  0.00     0.016 A 
ATOM     30  C   UNL     1      -0.775  -6.836   0.435  1.00  0.00     0.016 A 
ATOM     31  C   UNL     1      -1.599  -8.850  -1.354  1.00  0.00     0.010 A 
ATOM     32  C   UNL     1       0.156  -7.735  -0.072  1.00  0.00     0.010 A 
ATOM     33  C   UNL     1      -0.269  -8.762  -0.933  1.00  0.00    -0.014 A 
BRANCH  33  34
ATOM     34  C   UNL     1       0.602  -9.915  -1.204  1.00  0.00     0.031 A 
ATOM     35  C   UNL     1       0.695 -10.977  -0.150  1.00  0.00     0.074 A 
ATOM     36  C   UNL     1       1.206 -10.041  -2.393  1.00  0.00     0.049 A 
ATOM     37  N   UNL     1       1.360 -12.101  -0.163  1.00  0.00    -0.248 NA
ATOM     38  C   UNL     1      -0.073 -10.742   1.086  1.00  0.00     0.031 C 
ATOM     39  C   UNL     1       1.104  -9.089  -3.498  1.00  0.00     0.029 A 
ATOM     40  N   UNL     1       2.018 -11.034  -2.868  1.00  0.00    -0.354 N 
ATOM     41  C   UNL     1       1.099 -12.699   1.063  1.00  0.00     0.074 A 
ATOM     42  C   UNL     1       0.243 -11.804   1.807  1.00  0.00     0.031 C 
ATOM     43  C   UNL     1       1.836  -9.544  -4.528  1.00  0.00     0.029 A 
ATOM     44  C   UNL     1       2.480 -10.796  -4.136  1.00  0.00     0.049 A 
ATOM     45  H   UNL     1       2.247 -11.839  -2.351  1.00  0.00     0.167 HD
ATOM     46  C   UNL     1       1.539 -13.892   1.523  1.00  0.00     0.031 A 
ATOM     47  C   UNL     1       3.347 -11.506  -4.879  1.00  0.00     0.031 A 
ATOM     48  C   UNL     1       2.417 -14.749   0.774  1.00  0.00     0.049 A 
ATOM     49  C   UNL     1       3.896 -12.786  -4.313  1.00  0.00     0.074 A 
ATOM     50  C   UNL     1       2.934 -15.980   1.130  1.00  0.00     0.029 A 
ATOM     51  N   UNL     1       2.918 -14.448  -0.486  1.00  0.00    -0.354 N 
ATOM     52  N   UNL     1       3.639 -13.357  -3.159  1.00  0.00    -0.248 NA
ATOM     53  C   UNL     1       4.845 -13.525  -5.154  1.00  0.00     0.031 C 
ATOM     54  C   UNL     1       3.806 -16.390   0.115  1.00  0.00     0.029 A 
ATOM     55  C   UNL     1       3.771 -15.452  -0.907  1.00  0.00     0.049 A 
ATOM     56  H   UNL     1       2.699 -13.639  -1.002  1.00  0.00     0.167 HD
ATOM     57  C   UNL     1       4.376 -14.533  -3.142  1.00  0.00     0.074 A 
ATOM     58  C   UNL     1       5.076 -14.599  -4.411  1.00  0.00     0.031 C 
ATOM     59  C   UNL     1       4.466 -15.477  -2.171  1.00  0.00     0.031 A 
BRANCH  46  60
ATOM     60  C   UNL     1       1.133 -14.281   2.918  1.00  0.00    -0.014 A 
ATOM     61  C   UNL     1      -0.201 -14.580   3.245  1.00  0.00     0.009 A 
ATOM     62  C   UNL     1       2.102 -14.325   3.931  1.00  0.00     0.009 A 
ATOM     63  C   UNL     1      -0.560 -14.863   4.566  1.00  0.00     0.001 A 
ATOM     64  C   UNL     1       1.747 -14.642   5.243  1.00  0.00     0.001 A 
ATOM     65  C   UNL     1       0.414 -14.897   5.562  1.00  0.00     0.000 A 
ENDBRANCH  46  60
BRANCH  47  66
ATOM     66  C   UNL     1       3.752 -11.000  -6.215  1.00  0.00    -0.014 A 
ATOM     67  C   UNL     1       3.343 -11.649  -7.388  1.00  0.00     0.009 A 
ATOM     68  C   UNL     1       4.524  -9.830  -6.320  1.00  0.00     0.009 A 
ATOM     69  C   UNL     1       3.709 -11.143  -8.639  1.00  0.00     0.001 A 
ATOM     70  C   UNL     1       4.863  -9.311  -7.571  1.00  0.00     0.001 A 
ATOM     71  C   UNL     1       4.460  -9.972  -8.729  1.00  0.00     0.000 A 
ENDBRANCH  47  66
BRANCH  59  72
ATOM     72  C   UNL     1       5.334 -16.670  -2.459  1.00  0.00    -0.014 A 
ATOM     73  C   UNL     1       6.732 -16.564  -2.505  1.00  0.00     0.009 A 
ATOM     74  C   UNL     1       4.739 -17.929  -2.642  1.00  0.00     0.009 A 
ATOM     75  C   UNL     1       7.515 -17.690  -2.767  1.00  0.00     0.001 A 
ATOM     76  C   UNL     1       5.526 -19.058  -2.868  1.00  0.00     0.001 A 
ATOM     77  C   UNL     1       6.912 -18.935  -2.942  1.00  0.00     0.000 A 
ENDBRANCH  59  72
ENDBRANCH  33  34
ENDBRANCH  26  28
ENDBRANCH  25  26
ENDBRANCH  24  25
ENDBRANCH  23  24
ENDBRANCH  22  23
ENDBRANCH   1  22
TORSDOF 18
