REMARK SMILES COc1ccc(-n2c(SCC(=O)OCCOCCOC(=O)c3ccc(-c4c5nc(c(-c6ccccc6)c6ccc([nH]6)c(-c6ccccc6)c6nc(c(-c7ccccc7)c7ccc4[nH]7)C=C6)C=C5)cc3)nc3sc4c(c3c2=O)CC[N@H+](C)C4)cc1
REMARK SMILES IDX 15 1 14 2 13 3 11 4 12 5 10 6 9 7 8 8 7 9 76 10 70 11 75 12
REMARK SMILES IDX 77 13 71 14 74 15 72 16 73 17 78 18 82 19 79 20 80 21 81 22
REMARK SMILES IDX 6 24 3 25 4 26 84 27 5 28 83 29 2 30 1 31 16 32 17 33 18 34
REMARK SMILES IDX 19 35 20 36 21 37 22 38 23 39 69 40 24 41 68 42 25 43 26 44
REMARK SMILES IDX 27 45 62 46 28 47 67 48 61 49 63 50 29 51 66 52 60 53 59 54
REMARK SMILES IDX 30 56 52 57 37 58 51 59 38 60 41 61 50 62 64 63 39 64 40 65
REMARK SMILES IDX 49 67 65 68 42 69 31 70 32 71 36 72 33 73 35 74 34 75 53 76
REMARK SMILES IDX 54 77 58 78 55 79 57 80 56 81 43 82 44 83 48 84 45 85 47 86
REMARK SMILES IDX 46 87
REMARK H PARENT 80 23 63 55 41 66
REMARK Flexibility Score: inf
ROOT
ATOM      1  C   UNL     1       5.088  -0.446   4.114  1.00  0.00     0.202 C 
ENDROOT
BRANCH   1   2
ATOM      2  C   UNL     1       5.103   0.531   2.942  1.00  0.00     0.261 C 
BRANCH   2   3
ATOM      3  O   UNL     1       4.894   1.917   3.317  1.00  0.00    -0.463 OA
BRANCH   3   4
ATOM      4  C   UNL     1       5.021   2.744   2.241  1.00  0.00     0.316 C 
ATOM      5  O   UNL     1       5.476   2.354   1.163  1.00  0.00    -0.251 OA
BRANCH   4   6
ATOM      6  C   UNL     1       4.391   4.117   2.318  1.00  0.00     0.200 C 
BRANCH   6   7
ATOM      7  S   UNL     1       3.945   4.993   3.781  1.00  0.00    -0.076 SA
BRANCH   7   8
ATOM      8  C   UNL     1       2.833   4.384   4.985  1.00  0.00     0.177 A 
ATOM      9  N   UNL     1       1.578   3.732   4.836  1.00  0.00    -0.255 N 
ATOM     10  C   UNL     1       0.845   3.361   6.007  1.00  0.00     0.267 A 
ATOM     11  N   UNL     1       3.279   4.803   6.138  1.00  0.00    -0.212 NA
ATOM     12  C   UNL     1       1.370   3.853   7.265  1.00  0.00     0.081 A 
ATOM     13  O   UNL     1      -0.133   2.616   6.021  1.00  0.00    -0.268 OA
ATOM     14  C   UNL     1       2.526   4.580   7.228  1.00  0.00     0.132 A 
ATOM     15  C   UNL     1       0.921   3.640   8.610  1.00  0.00    -0.008 A 
ATOM     16  S   UNL     1       2.951   5.203   8.759  1.00  0.00    -0.114 S 
ATOM     17  C   UNL     1       1.650   4.400   9.507  1.00  0.00     0.065 A 
ATOM     18  C   UNL     1      -0.195   2.760   9.094  1.00  0.00     0.099 C 
ATOM     19  C   UNL     1       1.395   4.472  10.989  1.00  0.00     0.310 C 
ATOM     20  C   UNL     1      -0.180   2.646  10.641  1.00  0.00     0.267 C 
ATOM     21  N   UNL     1       0.073   3.914  11.362  1.00  0.00    -0.333 N 
ATOM     22  C   UNL     1      -1.005   4.880  11.151  1.00  0.00     0.333 C 
ATOM     23  H   UNL     1       0.091   3.709  12.361  1.00  0.00     0.348 HD
BRANCH   9  24
ATOM     24  C   UNL     1       0.990   3.280   3.598  1.00  0.00     0.052 A 
ATOM     25  C   UNL     1      -0.131   1.947   1.339  1.00  0.00     0.119 A 
ATOM     26  C   UNL     1      -0.947   2.623   2.244  1.00  0.00     0.048 A 
ATOM     27  C   UNL     1       1.237   1.980   1.531  1.00  0.00     0.048 A 
ATOM     28  C   UNL     1      -0.393   3.286   3.358  1.00  0.00     0.030 A 
ATOM     29  C   UNL     1       1.754   2.602   2.665  1.00  0.00     0.030 A 
BRANCH  25  30
ATOM     30  O   UNL     1      -0.743   1.272   0.322  1.00  0.00    -0.497 OA
ATOM     31  C   UNL     1      -0.039   0.113  -0.132  1.00  0.00     0.278 C 
ENDBRANCH  25  30
ENDBRANCH   9  24
ENDBRANCH   7   8
ENDBRANCH   6   7
ENDBRANCH   4   6
ENDBRANCH   3   4
ENDBRANCH   2   3
ENDBRANCH   1   2
BRANCH   1  32
ATOM     32  O   UNL     1       3.824  -0.703   4.710  1.00  0.00    -0.374 OA
BRANCH  32  33
ATOM     33  C   UNL     1       3.104   0.381   5.274  1.00  0.00     0.202 C 
BRANCH  33  34
ATOM     34  C   UNL     1       3.799   1.274   6.309  1.00  0.00     0.261 C 
BRANCH  34  35
ATOM     35  O   UNL     1       5.027   0.790   6.826  1.00  0.00    -0.460 OA
BRANCH  35  36
ATOM     36  C   UNL     1       4.905  -0.304   7.601  1.00  0.00     0.338 C 
ATOM     37  O   UNL     1       3.897  -0.908   7.904  1.00  0.00    -0.246 OA
BRANCH  36  38
ATOM     38  C   UNL     1       6.259  -0.675   8.005  1.00  0.00     0.060 A 
ATOM     39  C   UNL     1       6.764  -1.914   7.612  1.00  0.00     0.016 A 
ATOM     40  C   UNL     1       6.985   0.188   8.827  1.00  0.00     0.016 A 
ATOM     41  C   UNL     1       7.999  -2.322   8.101  1.00  0.00     0.010 A 
ATOM     42  C   UNL     1       8.207  -0.233   9.330  1.00  0.00     0.010 A 
ATOM     43  C   UNL     1       8.709  -1.499   8.990  1.00  0.00    -0.014 A 
BRANCH  43  44
ATOM     44  C   UNL     1       9.961  -2.010   9.581  1.00  0.00     0.031 A 
ATOM     45  C   UNL     1      11.079  -1.028   9.691  1.00  0.00     0.074 A 
ATOM     46  C   UNL     1       9.917  -3.018  10.481  1.00  0.00     0.049 A 
ATOM     47  N   UNL     1      11.135  -0.148  10.650  1.00  0.00    -0.248 NA
ATOM     48  C   UNL     1      12.033  -0.791   8.611  1.00  0.00     0.031 C 
ATOM     49  C   UNL     1       8.731  -3.323  11.298  1.00  0.00     0.029 A 
ATOM     50  N   UNL     1      10.912  -3.790  11.029  1.00  0.00    -0.354 N 
ATOM     51  C   UNL     1      12.051   0.810  10.268  1.00  0.00     0.074 A 
ATOM     52  C   UNL     1      12.617   0.349   9.018  1.00  0.00     0.031 C 
ATOM     53  C   UNL     1       9.116  -4.062  12.357  1.00  0.00     0.029 A 
ATOM     54  C   UNL     1      10.520  -4.422  12.207  1.00  0.00     0.049 A 
ATOM     55  H   UNL     1      11.807  -3.886  10.632  1.00  0.00     0.167 HD
ATOM     56  C   UNL     1      12.260   1.953  10.973  1.00  0.00     0.031 A 
ATOM     57  C   UNL     1      11.345  -4.729  13.244  1.00  0.00     0.031 A 
ATOM     58  C   UNL     1      11.459   2.125  12.148  1.00  0.00     0.049 A 
ATOM     59  C   UNL     1      11.689  -3.360  13.771  1.00  0.00     0.074 A 
ATOM     60  C   UNL     1      10.308   2.796  12.504  1.00  0.00     0.029 A 
ATOM     61  N   UNL     1      11.829   1.456  13.288  1.00  0.00    -0.354 N 
ATOM     62  N   UNL     1      10.954  -2.619  14.553  1.00  0.00    -0.248 NA
ATOM     63  C   UNL     1      12.797  -2.653  13.127  1.00  0.00     0.031 C 
ATOM     64  C   UNL     1       9.823   2.135  13.676  1.00  0.00     0.029 A 
ATOM     65  C   UNL     1      10.680   1.063  13.923  1.00  0.00     0.049 A 
ATOM     66  H   UNL     1      12.750   1.290  13.593  1.00  0.00     0.167 HD
ATOM     67  C   UNL     1      11.319  -1.301  14.269  1.00  0.00     0.074 A 
ATOM     68  C   UNL     1      12.485  -1.397  13.413  1.00  0.00     0.031 C 
ATOM     69  C   UNL     1      10.545  -0.219  14.582  1.00  0.00     0.031 A 
BRANCH  56  70
ATOM     70  C   UNL     1      13.303   2.944  10.650  1.00  0.00    -0.014 A 
ATOM     71  C   UNL     1      14.469   2.944  11.432  1.00  0.00     0.009 A 
ATOM     72  C   UNL     1      13.094   3.976   9.730  1.00  0.00     0.009 A 
ATOM     73  C   UNL     1      15.394   3.979  11.328  1.00  0.00     0.001 A 
ATOM     74  C   UNL     1      14.030   5.009   9.621  1.00  0.00     0.001 A 
ATOM     75  C   UNL     1      15.170   5.016  10.428  1.00  0.00     0.000 A 
ENDBRANCH  56  70
BRANCH  57  76
ATOM     76  C   UNL     1      12.389  -5.764  12.959  1.00  0.00    -0.014 A 
ATOM     77  C   UNL     1      11.992  -6.956  12.318  1.00  0.00     0.009 A 
ATOM     78  C   UNL     1      13.741  -5.647  13.313  1.00  0.00     0.009 A 
ATOM     79  C   UNL     1      12.920  -7.937  11.956  1.00  0.00     0.001 A 
ATOM     80  C   UNL     1      14.677  -6.613  12.925  1.00  0.00     0.001 A 
ATOM     81  C   UNL     1      14.269  -7.751  12.236  1.00  0.00     0.000 A 
ENDBRANCH  57  76
BRANCH  69  82
ATOM     82  C   UNL     1       9.353  -0.488  15.447  1.00  0.00    -0.014 A 
ATOM     83  C   UNL     1       9.520  -0.875  16.783  1.00  0.00     0.009 A 
ATOM     84  C   UNL     1       8.048  -0.323  14.952  1.00  0.00     0.009 A 
ATOM     85  C   UNL     1       8.412  -1.072  17.610  1.00  0.00     0.001 A 
ATOM     86  C   UNL     1       6.941  -0.499  15.784  1.00  0.00     0.001 A 
ATOM     87  C   UNL     1       7.125  -0.872  17.114  1.00  0.00     0.000 A 
ENDBRANCH  69  82
ENDBRANCH  43  44
ENDBRANCH  36  38
ENDBRANCH  35  36
ENDBRANCH  34  35
ENDBRANCH  33  34
ENDBRANCH  32  33
ENDBRANCH   1  32
TORSDOF 18
