REMARK SMILES Cc1cc(C(=O)OCCOCCOC(=O)c2ccc(-c3c4nc(c(-c5ccccc5)c5ccc([nH]5)c(-c5ccccc5)c5nc(c(-c6ccccc6)c6ccc3[nH]6)C=C5)C=C4)cc2)c(C)n1[C@@H]1C[N@H+]2CC[C@@H]1CC2
REMARK SMILES IDX 11 1 10 2 9 3 8 4 7 5 5 6 6 7 4 8 1 9 2 10 3 11 66 12 64 13
REMARK SMILES IDX 65 14 67 15 68 16 72 17 69 18 73 19 71 20 74 21 70 22 12 24
REMARK SMILES IDX 13 25 14 26 15 27 16 28 17 29 63 30 18 31 62 32 19 33 20 34
REMARK SMILES IDX 21 35 56 36 22 37 61 38 55 39 57 40 23 41 60 42 54 43 53 44
REMARK SMILES IDX 24 46 46 47 31 48 45 49 32 50 35 51 44 52 58 53 33 54 34 55
REMARK SMILES IDX 43 57 59 58 36 59 25 60 26 61 30 62 27 63 29 64 28 65 47 66
REMARK SMILES IDX 48 67 52 68 49 69 51 70 50 71 37 72 38 73 42 74 39 75 41 76
REMARK SMILES IDX 40 77
REMARK H PARENT 69 23 57 45 35 56
REMARK Flexibility Score: inf
ROOT
ATOM      1  C   UNL     1      -3.442   2.958  -3.269  1.00  0.00     0.202 C 
ENDROOT
BRANCH   1   2
ATOM      2  O   UNL     1      -3.473   3.512  -4.595  1.00  0.00    -0.374 OA
BRANCH   2   3
ATOM      3  C   UNL     1      -3.291   2.601  -5.676  1.00  0.00     0.202 C 
BRANCH   3   4
ATOM      4  C   UNL     1      -1.827   2.297  -6.043  1.00  0.00     0.261 C 
BRANCH   4   5
ATOM      5  O   UNL     1      -1.101   1.789  -4.919  1.00  0.00    -0.460 OA
BRANCH   5   6
ATOM      6  C   UNL     1      -0.262   2.665  -4.297  1.00  0.00     0.340 C 
ATOM      7  O   UNL     1       0.078   3.761  -4.759  1.00  0.00    -0.246 OA
BRANCH   6   8
ATOM      8  C   UNL     1       0.147   2.176  -2.985  1.00  0.00     0.081 A 
ATOM      9  C   UNL     1       0.978  -0.555  -0.655  1.00  0.00     0.064 C 
ATOM     10  C   UNL     1       0.670   0.746  -1.305  1.00  0.00     0.016 A 
ATOM     11  C   UNL     1       0.085   0.838  -2.550  1.00  0.00     0.038 A 
ATOM     12  N   UNL     1       0.948   2.038  -0.862  1.00  0.00    -0.339 N 
ATOM     13  C   UNL     1       0.618   2.921  -1.905  1.00  0.00     0.030 A 
ATOM     14  C   UNL     1       0.725   4.417  -1.873  1.00  0.00     0.065 C 
BRANCH  12  15
ATOM     15  C   UNL     1       1.586   2.454   0.395  1.00  0.00     0.145 C 
ATOM     16  C   UNL     1       2.962   1.817   0.696  1.00  0.00     0.288 C 
ATOM     17  C   UNL     1       0.732   2.452   1.698  1.00  0.00     0.029 C 
ATOM     18  N   UNL     1       3.080   1.384   2.115  1.00  0.00    -0.333 N 
ATOM     19  C   UNL     1       1.538   3.243   2.764  1.00  0.00     0.067 C 
ATOM     20  C   UNL     1       0.606   1.044   2.292  1.00  0.00     0.067 C 
ATOM     21  C   UNL     1       2.904   2.563   2.991  1.00  0.00     0.262 C 
ATOM     22  C   UNL     1       2.005   0.415   2.423  1.00  0.00     0.262 C 
ATOM     23  H   UNL     1       3.994   0.956   2.266  1.00  0.00     0.348 HD
ENDBRANCH  12  15
ENDBRANCH   6   8
ENDBRANCH   5   6
ENDBRANCH   4   5
ENDBRANCH   3   4
ENDBRANCH   2   3
ENDBRANCH   1   2
BRANCH   1  24
ATOM     24  C   UNL     1      -4.756   2.307  -2.754  1.00  0.00     0.261 C 
BRANCH  24  25
ATOM     25  O   UNL     1      -4.759   0.844  -2.527  1.00  0.00    -0.460 OA
BRANCH  25  26
ATOM     26  C   UNL     1      -5.891   0.161  -2.914  1.00  0.00     0.338 C 
ATOM     27  O   UNL     1      -6.685   0.594  -3.740  1.00  0.00    -0.246 OA
BRANCH  26  28
ATOM     28  C   UNL     1      -6.138  -1.196  -2.236  1.00  0.00     0.060 A 
ATOM     29  C   UNL     1      -5.878  -2.379  -2.914  1.00  0.00     0.016 A 
ATOM     30  C   UNL     1      -6.902  -1.359  -1.057  1.00  0.00     0.016 A 
ATOM     31  C   UNL     1      -6.301  -3.659  -2.389  1.00  0.00     0.010 A 
ATOM     32  C   UNL     1      -7.382  -2.665  -0.557  1.00  0.00     0.010 A 
ATOM     33  C   UNL     1      -7.095  -3.885  -1.199  1.00  0.00    -0.014 A 
BRANCH  33  34
ATOM     34  C   UNL     1      -7.889  -5.328  -1.078  1.00  0.00     0.031 A 
ATOM     35  C   UNL     1      -8.405  -5.505  -2.464  1.00  0.00     0.074 A 
ATOM     36  C   UNL     1      -8.365  -6.319  -0.200  1.00  0.00     0.049 A 
ATOM     37  N   UNL     1      -9.207  -4.602  -2.950  1.00  0.00    -0.248 NA
ATOM     38  C   UNL     1      -7.793  -6.387  -3.456  1.00  0.00     0.031 C 
ATOM     39  C   UNL     1      -8.303  -6.342   1.274  1.00  0.00     0.029 A 
ATOM     40  N   UNL     1      -9.038  -7.584  -0.410  1.00  0.00    -0.354 N 
ATOM     41  C   UNL     1      -9.421  -4.939  -4.263  1.00  0.00     0.074 A 
ATOM     42  C   UNL     1      -8.365  -5.899  -4.564  1.00  0.00     0.031 C 
ATOM     43  C   UNL     1      -8.725  -7.537   1.794  1.00  0.00     0.029 A 
ATOM     44  C   UNL     1      -9.181  -8.452   0.746  1.00  0.00     0.049 A 
ATOM     45  H   UNL     1      -9.383  -7.843  -1.295  1.00  0.00     0.167 HD
ATOM     46  C   UNL     1     -10.728  -4.981  -4.651  1.00  0.00     0.031 A 
ATOM     47  C   UNL     1      -9.687  -9.751   0.890  1.00  0.00     0.031 A 
ATOM     48  C   UNL     1     -11.242  -6.325  -4.616  1.00  0.00     0.049 A 
ATOM     49  C   UNL     1     -10.650  -9.943  -0.199  1.00  0.00     0.074 A 
ATOM     50  C   UNL     1     -10.732  -7.534  -5.047  1.00  0.00     0.029 A 
ATOM     51  N   UNL     1     -12.193  -6.610  -3.658  1.00  0.00    -0.354 N 
ATOM     52  N   UNL     1     -11.852  -9.456  -0.122  1.00  0.00    -0.248 NA
ATOM     53  C   UNL     1     -10.397 -10.814  -1.340  1.00  0.00     0.031 C 
ATOM     54  C   UNL     1     -11.001  -8.428  -3.992  1.00  0.00     0.029 A 
ATOM     55  C   UNL     1     -11.990  -7.887  -3.181  1.00  0.00     0.049 A 
ATOM     56  H   UNL     1     -12.904  -5.997  -3.361  1.00  0.00     0.167 HD
ATOM     57  C   UNL     1     -12.256  -9.474  -1.421  1.00  0.00     0.074 A 
ATOM     58  C   UNL     1     -11.501 -10.548  -2.041  1.00  0.00     0.031 C 
ATOM     59  C   UNL     1     -12.613  -8.274  -1.940  1.00  0.00     0.031 A 
BRANCH  46  60
ATOM     60  C   UNL     1     -11.543  -3.776  -4.258  1.00  0.00    -0.014 A 
ATOM     61  C   UNL     1     -12.084  -2.964  -5.260  1.00  0.00     0.009 A 
ATOM     62  C   UNL     1     -11.702  -3.371  -2.916  1.00  0.00     0.009 A 
ATOM     63  C   UNL     1     -12.696  -1.749  -4.929  1.00  0.00     0.001 A 
ATOM     64  C   UNL     1     -12.273  -2.143  -2.590  1.00  0.00     0.001 A 
ATOM     65  C   UNL     1     -12.763  -1.326  -3.600  1.00  0.00     0.000 A 
ENDBRANCH  46  60
BRANCH  47  66
ATOM     66  C   UNL     1      -9.829 -10.997   1.831  1.00  0.00    -0.014 A 
ATOM     67  C   UNL     1     -11.040 -11.780   1.804  1.00  0.00     0.009 A 
ATOM     68  C   UNL     1      -8.729 -11.680   2.367  1.00  0.00     0.009 A 
ATOM     69  C   UNL     1     -11.115 -13.148   2.150  1.00  0.00     0.001 A 
ATOM     70  C   UNL     1      -8.813 -13.053   2.755  1.00  0.00     0.001 A 
ATOM     71  C   UNL     1      -9.987 -13.796   2.611  1.00  0.00     0.000 A 
ENDBRANCH  47  66
BRANCH  59  72
ATOM     72  C   UNL     1     -13.433  -7.350  -1.058  1.00  0.00    -0.014 A 
ATOM     73  C   UNL     1     -13.120  -7.000   0.274  1.00  0.00     0.009 A 
ATOM     74  C   UNL     1     -14.629  -6.846  -1.586  1.00  0.00     0.009 A 
ATOM     75  C   UNL     1     -13.991  -6.232   1.058  1.00  0.00     0.001 A 
ATOM     76  C   UNL     1     -15.479  -6.042  -0.820  1.00  0.00     0.001 A 
ATOM     77  C   UNL     1     -15.169  -5.748   0.506  1.00  0.00     0.000 A 
ENDBRANCH  59  72
ENDBRANCH  33  34
ENDBRANCH  26  28
ENDBRANCH  25  26
ENDBRANCH  24  25
ENDBRANCH   1  24
TORSDOF 15
