REMARK SMILES C[C@H]([NH2+]Cc1ccc(F)c(F)c1)[C@H](C)C(=O)OCCOCCOC(=O)c1ccc(-c2c3nc(c(-c4ccccc4)c4ccc([nH]4)c(-c4ccccc4)c4nc(c(-c5ccccc5)c5ccc2[nH]5)C=C4)C=C3)cc1
REMARK SMILES IDX 19 1 18 2 17 3 15 4 16 5 13 6 14 7 2 8 1 9 3 10 4 13 5 14
REMARK SMILES IDX 6 15 12 16 7 17 10 18 8 19 11 20 9 21 20 22 21 23 22 24
REMARK SMILES IDX 23 25 24 26 25 27 26 28 27 29 73 30 28 31 72 32 29 33 30 34
REMARK SMILES IDX 31 35 66 36 32 37 71 38 65 39 67 40 33 41 70 42 64 43 63 44
REMARK SMILES IDX 34 46 56 47 41 48 55 49 42 50 45 51 54 52 68 53 43 54 44 55
REMARK SMILES IDX 53 57 69 58 46 59 35 60 36 61 40 62 37 63 39 64 38 65 57 66
REMARK SMILES IDX 58 67 62 68 59 69 61 70 60 71 47 72 48 73 52 74 49 75 51 76
REMARK SMILES IDX 50 77
REMARK H PARENT 3 11 3 12 67 45 45 56
REMARK Flexibility Score: inf
ROOT
ATOM      1  C   UNL     1      -2.029  -0.099  -5.785  1.00  0.00     0.202 C 
ENDROOT
BRANCH   1   2
ATOM      2  C   UNL     1      -2.672   0.737  -4.677  1.00  0.00     0.261 C 
BRANCH   2   3
ATOM      3  O   UNL     1      -1.791   0.865  -3.546  1.00  0.00    -0.463 OA
BRANCH   3   4
ATOM      4  C   UNL     1      -2.289   0.466  -2.344  1.00  0.00     0.314 C 
ATOM      5  O   UNL     1      -3.434   0.076  -2.153  1.00  0.00    -0.252 OA
BRANCH   4   6
ATOM      6  C   UNL     1      -1.276   0.626  -1.223  1.00  0.00     0.154 C 
ATOM      7  C   UNL     1       0.184   0.542  -1.685  1.00  0.00     0.026 C 
BRANCH   6   8
ATOM      8  C   UNL     1      -1.628   1.895  -0.411  1.00  0.00     0.193 C 
ATOM      9  C   UNL     1      -1.651   3.168  -1.269  1.00  0.00     0.076 C 
BRANCH   8  10
ATOM     10  N   UNL     1      -0.657   2.032   0.683  1.00  0.00    -0.340 N 
ATOM     11  H   UNL     1       0.155   2.540   0.332  1.00  0.00     0.346 HD
ATOM     12  H   UNL     1      -0.424   1.088   0.993  1.00  0.00     0.346 HD
BRANCH  10  13
ATOM     13  C   UNL     1      -1.176   2.743   1.846  1.00  0.00     0.297 C 
BRANCH  13  14
ATOM     14  C   UNL     1      -0.063   2.923   2.853  1.00  0.00     0.009 A 
ATOM     15  C   UNL     1       0.487   4.193   3.095  1.00  0.00     0.013 A 
ATOM     16  C   UNL     1       0.477   1.806   3.513  1.00  0.00     0.052 A 
ATOM     17  C   UNL     1       1.553   4.343   3.985  1.00  0.00     0.043 A 
ATOM     18  C   UNL     1       1.541   1.965   4.394  1.00  0.00     0.159 A 
ATOM     19  C   UNL     1       2.075   3.226   4.628  1.00  0.00     0.158 A 
ATOM     20  F   UNL     1       2.054   0.889   5.006  1.00  0.00    -0.204 F 
ATOM     21  F   UNL     1       3.104   3.377   5.473  1.00  0.00    -0.204 F 
ENDBRANCH  13  14
ENDBRANCH  10  13
ENDBRANCH   8  10
ENDBRANCH   6   8
ENDBRANCH   4   6
ENDBRANCH   3   4
ENDBRANCH   2   3
ENDBRANCH   1   2
BRANCH   1  22
ATOM     22  O   UNL     1      -1.888  -1.492  -5.513  1.00  0.00    -0.374 OA
BRANCH  22  23
ATOM     23  C   UNL     1      -0.884  -1.887  -4.579  1.00  0.00     0.202 C 
BRANCH  23  24
ATOM     24  C   UNL     1       0.565  -1.835  -5.080  1.00  0.00     0.261 C 
BRANCH  24  25
ATOM     25  O   UNL     1       1.029  -0.489  -5.308  1.00  0.00    -0.460 OA
BRANCH  25  26
ATOM     26  C   UNL     1       1.308  -0.195  -6.598  1.00  0.00     0.338 C 
ATOM     27  O   UNL     1       1.241  -0.948  -7.564  1.00  0.00    -0.246 OA
BRANCH  26  28
ATOM     28  C   UNL     1       1.585   1.242  -6.759  1.00  0.00     0.060 A 
ATOM     29  C   UNL     1       0.828   1.950  -7.703  1.00  0.00     0.016 A 
ATOM     30  C   UNL     1       2.657   1.855  -6.106  1.00  0.00     0.016 A 
ATOM     31  C   UNL     1       1.175   3.256  -8.041  1.00  0.00     0.010 A 
ATOM     32  C   UNL     1       3.011   3.163  -6.456  1.00  0.00     0.010 A 
ATOM     33  C   UNL     1       2.299   3.853  -7.455  1.00  0.00    -0.014 A 
BRANCH  33  34
ATOM     34  C   UNL     1       2.841   5.114  -8.016  1.00  0.00     0.031 A 
ATOM     35  C   UNL     1       3.984   5.039  -8.993  1.00  0.00     0.074 A 
ATOM     36  C   UNL     1       2.316   6.308  -7.688  1.00  0.00     0.049 A 
ATOM     37  N   UNL     1       4.669   6.007  -9.546  1.00  0.00    -0.248 NA
ATOM     38  C   UNL     1       4.406   3.689  -9.405  1.00  0.00     0.031 C 
ATOM     39  C   UNL     1       1.163   6.518  -6.814  1.00  0.00     0.029 A 
ATOM     40  N   UNL     1       2.696   7.574  -8.056  1.00  0.00    -0.354 N 
ATOM     41  C   UNL     1       5.607   5.386 -10.361  1.00  0.00     0.074 A 
ATOM     42  C   UNL     1       5.418   3.959 -10.217  1.00  0.00     0.031 C 
ATOM     43  C   UNL     1       0.936   7.839  -6.705  1.00  0.00     0.029 A 
ATOM     44  C   UNL     1       1.949   8.565  -7.468  1.00  0.00     0.049 A 
ATOM     45  H   UNL     1       3.434   7.755  -8.682  1.00  0.00     0.167 HD
ATOM     46  C   UNL     1       6.542   5.950 -11.162  1.00  0.00     0.031 A 
ATOM     47  C   UNL     1       2.086   9.904  -7.519  1.00  0.00     0.031 A 
ATOM     48  C   UNL     1       6.745   7.366 -11.299  1.00  0.00     0.049 A 
ATOM     49  C   UNL     1       3.199  10.507  -8.337  1.00  0.00     0.074 A 
ATOM     50  C   UNL     1       7.682   8.034 -12.068  1.00  0.00     0.029 A 
ATOM     51  N   UNL     1       5.995   8.333 -10.650  1.00  0.00    -0.354 N 
ATOM     52  N   UNL     1       4.090   9.909  -9.088  1.00  0.00    -0.248 NA
ATOM     53  C   UNL     1       3.321  11.973  -8.311  1.00  0.00     0.031 C 
ATOM     54  C   UNL     1       7.524   9.407 -11.854  1.00  0.00     0.029 A 
ATOM     55  C   UNL     1       6.456   9.592 -10.991  1.00  0.00     0.049 A 
ATOM     56  H   UNL     1       5.245   8.152 -10.038  1.00  0.00     0.167 HD
ATOM     57  C   UNL     1       4.853  10.924  -9.653  1.00  0.00     0.074 A 
ATOM     58  C   UNL     1       4.319  12.176  -9.160  1.00  0.00     0.031 C 
ATOM     59  C   UNL     1       5.900  10.828 -10.508  1.00  0.00     0.031 A 
BRANCH  46  60
ATOM     60  C   UNL     1       7.441   5.025 -11.930  1.00  0.00    -0.014 A 
ATOM     61  C   UNL     1       6.972   4.323 -13.051  1.00  0.00     0.009 A 
ATOM     62  C   UNL     1       8.784   4.882 -11.549  1.00  0.00     0.009 A 
ATOM     63  C   UNL     1       7.826   3.475 -13.760  1.00  0.00     0.001 A 
ATOM     64  C   UNL     1       9.641   4.052 -12.273  1.00  0.00     0.001 A 
ATOM     65  C   UNL     1       9.159   3.343 -13.373  1.00  0.00     0.000 A 
ENDBRANCH  46  60
BRANCH  47  66
ATOM     66  C   UNL     1       1.166  10.782  -6.750  1.00  0.00    -0.014 A 
ATOM     67  C   UNL     1       0.237  11.599  -7.412  1.00  0.00     0.009 A 
ATOM     68  C   UNL     1       1.241  10.836  -5.349  1.00  0.00     0.009 A 
ATOM     69  C   UNL     1      -0.577  12.473  -6.689  1.00  0.00     0.001 A 
ATOM     70  C   UNL     1       0.407  11.692  -4.627  1.00  0.00     0.001 A 
ATOM     71  C   UNL     1      -0.494  12.517  -5.298  1.00  0.00     0.000 A 
ENDBRANCH  47  66
BRANCH  59  72
ATOM     72  C   UNL     1       6.500  12.108 -11.016  1.00  0.00    -0.014 A 
ATOM     73  C   UNL     1       7.328  12.900 -10.207  1.00  0.00     0.009 A 
ATOM     74  C   UNL     1       6.276  12.493 -12.348  1.00  0.00     0.009 A 
ATOM     75  C   UNL     1       7.899  14.068 -10.716  1.00  0.00     0.001 A 
ATOM     76  C   UNL     1       6.868  13.647 -12.861  1.00  0.00     0.001 A 
ATOM     77  C   UNL     1       7.673  14.438 -12.043  1.00  0.00     0.000 A 
ENDBRANCH  59  72
ENDBRANCH  33  34
ENDBRANCH  26  28
ENDBRANCH  25  26
ENDBRANCH  24  25
ENDBRANCH  23  24
ENDBRANCH  22  23
ENDBRANCH   1  22
TORSDOF 18
