REMARK SMILES CCC[C@H](C)C[N@H+]1[C@@H]2CC[C@H]1C[C@H](CC(=O)OCCOCCOC(=O)c1ccc(-c3c4nc(c(-c5ccccc5)c5ccc([nH]5)c(-c5ccccc5)c5nc(c(-c6ccccc6)c6ccc3[nH]6)C=C5)C=C4)cc1)C2
REMARK SMILES IDX 18 1 17 2 15 3 16 4 14 5 13 6 7 7 8 8 11 9 9 11 74 12 10 13
REMARK SMILES IDX 12 14 6 15 4 16 5 17 3 18 2 19 1 20 19 21 20 22 21 23 22 24
REMARK SMILES IDX 23 25 24 26 25 27 26 28 27 29 73 30 28 31 72 32 29 33 30 34
REMARK SMILES IDX 31 35 66 36 32 37 71 38 65 39 67 40 33 41 70 42 64 43 63 44
REMARK SMILES IDX 34 46 56 47 41 48 55 49 42 50 45 51 54 52 68 53 43 54 44 55
REMARK SMILES IDX 53 57 69 58 46 59 35 60 36 61 40 62 37 63 39 64 38 65 57 66
REMARK SMILES IDX 58 67 62 68 59 69 61 70 60 71 47 72 48 73 52 74 49 75 51 76
REMARK SMILES IDX 50 77
REMARK H PARENT 7 10 67 45 45 56
REMARK Flexibility Score: inf
ROOT
ATOM      1  C   UNL     1       0.929   7.521  -7.641  1.00  0.00     0.261 C 
ENDROOT
BRANCH   1   2
ATOM      2  O   UNL     1       0.982   6.369  -6.777  1.00  0.00    -0.463 OA
BRANCH   2   3
ATOM      3  C   UNL     1       0.630   5.180  -7.326  1.00  0.00     0.306 C 
ATOM      4  O   UNL     1       0.182   5.032  -8.455  1.00  0.00    -0.252 OA
BRANCH   3   5
ATOM      5  C   UNL     1       0.790   4.032  -6.355  1.00  0.00     0.126 C 
BRANCH   5   6
ATOM      6  C   UNL     1       2.113   3.923  -5.561  1.00  0.00     0.012 C 
ATOM      7  N   UNL     1       2.578   3.427  -2.661  1.00  0.00    -0.330 N 
ATOM      8  C   UNL     1       2.987   2.407  -3.635  1.00  0.00     0.184 C 
ATOM      9  C   UNL     1       3.083   4.670  -3.267  1.00  0.00     0.184 C 
ATOM     10  H   UNL     1       2.958   3.213  -1.739  1.00  0.00     0.348 HD
ATOM     11  C   UNL     1       4.458   2.776  -3.858  1.00  0.00     0.071 C 
ATOM     12  C   UNL     1       2.187   2.501  -4.943  1.00  0.00     0.069 C 
ATOM     13  C   UNL     1       4.521   4.280  -3.606  1.00  0.00     0.071 C 
ATOM     14  C   UNL     1       2.278   5.060  -4.521  1.00  0.00     0.069 C 
BRANCH   7  15
ATOM     15  C   UNL     1       1.149   3.498  -2.337  1.00  0.00     0.265 C 
BRANCH  15  16
ATOM     16  C   UNL     1       0.576   2.313  -1.542  1.00  0.00     0.041 C 
ATOM     17  C   UNL     1       1.118   2.282  -0.114  1.00  0.00     0.013 C 
BRANCH  16  18
ATOM     18  C   UNL     1      -0.973   2.302  -1.577  1.00  0.00     0.009 C 
BRANCH  18  19
ATOM     19  C   UNL     1      -1.740   3.443  -0.894  1.00  0.00    -0.003 C 
ATOM     20  C   UNL     1      -1.652   4.803  -1.573  1.00  0.00     0.004 C 
ENDBRANCH  18  19
ENDBRANCH  16  18
ENDBRANCH  15  16
ENDBRANCH   7  15
ENDBRANCH   5   6
ENDBRANCH   3   5
ENDBRANCH   2   3
ENDBRANCH   1   2
BRANCH   1  21
ATOM     21  C   UNL     1       2.327   8.114  -7.826  1.00  0.00     0.202 C 
BRANCH  21  22
ATOM     22  O   UNL     1       3.183   7.399  -8.720  1.00  0.00    -0.374 OA
BRANCH  22  23
ATOM     23  C   UNL     1       3.788   6.211  -8.216  1.00  0.00     0.202 C 
BRANCH  23  24
ATOM     24  C   UNL     1       5.085   6.414  -7.426  1.00  0.00     0.261 C 
BRANCH  24  25
ATOM     25  O   UNL     1       4.866   7.177  -6.226  1.00  0.00    -0.460 OA
BRANCH  25  26
ATOM     26  C   UNL     1       5.324   8.448  -6.279  1.00  0.00     0.338 C 
ATOM     27  O   UNL     1       5.982   8.960  -7.177  1.00  0.00    -0.246 OA
BRANCH  26  28
ATOM     28  C   UNL     1       4.791   9.241  -5.155  1.00  0.00     0.060 A 
ATOM     29  C   UNL     1       4.284  10.511  -5.458  1.00  0.00     0.016 A 
ATOM     30  C   UNL     1       4.857   8.805  -3.828  1.00  0.00     0.016 A 
ATOM     31  C   UNL     1       3.913  11.379  -4.435  1.00  0.00     0.010 A 
ATOM     32  C   UNL     1       4.487   9.681  -2.800  1.00  0.00     0.010 A 
ATOM     33  C   UNL     1       4.059  10.988  -3.098  1.00  0.00    -0.014 A 
BRANCH  33  34
ATOM     34  C   UNL     1       3.932  12.016  -2.034  1.00  0.00     0.031 A 
ATOM     35  C   UNL     1       5.181  12.642  -1.472  1.00  0.00     0.074 A 
ATOM     36  C   UNL     1       2.725  12.445  -1.625  1.00  0.00     0.049 A 
ATOM     37  N   UNL     1       5.303  13.586  -0.574  1.00  0.00    -0.248 NA
ATOM     38  C   UNL     1       6.462  12.139  -1.996  1.00  0.00     0.031 C 
ATOM     39  C   UNL     1       1.439  11.961  -2.123  1.00  0.00     0.029 A 
ATOM     40  N   UNL     1       2.390  13.401  -0.698  1.00  0.00    -0.354 N 
ATOM     41  C   UNL     1       6.670  13.788  -0.423  1.00  0.00     0.074 A 
ATOM     42  C   UNL     1       7.337  12.848  -1.297  1.00  0.00     0.031 C 
ATOM     43  C   UNL     1       0.452  12.626  -1.497  1.00  0.00     0.029 A 
ATOM     44  C   UNL     1       1.036  13.562  -0.539  1.00  0.00     0.049 A 
ATOM     45  H   UNL     1       3.058  13.921  -0.195  1.00  0.00     0.167 HD
ATOM     46  C   UNL     1       7.316  14.682   0.363  1.00  0.00     0.031 A 
ATOM     47  C   UNL     1       0.346  14.367   0.292  1.00  0.00     0.031 A 
ATOM     48  C   UNL     1       6.662  15.615   1.240  1.00  0.00     0.049 A 
ATOM     49  C   UNL     1       1.088  15.300   1.212  1.00  0.00     0.074 A 
ATOM     50  C   UNL     1       7.234  16.568   2.066  1.00  0.00     0.029 A 
ATOM     51  N   UNL     1       5.290  15.709   1.409  1.00  0.00    -0.354 N 
ATOM     52  N   UNL     1       2.379  15.497   1.325  1.00  0.00    -0.248 NA
ATOM     53  C   UNL     1       0.273  16.128   2.113  1.00  0.00     0.031 C 
ATOM     54  C   UNL     1       6.208  17.204   2.773  1.00  0.00     0.029 A 
ATOM     55  C   UNL     1       4.997  16.685   2.346  1.00  0.00     0.049 A 
ATOM     56  H   UNL     1       4.623  15.162   0.934  1.00  0.00     0.167 HD
ATOM     57  C   UNL     1       2.529  16.491   2.285  1.00  0.00     0.074 A 
ATOM     58  C   UNL     1       1.198  16.863   2.716  1.00  0.00     0.031 C 
ATOM     59  C   UNL     1       3.668  17.047   2.764  1.00  0.00     0.031 A 
BRANCH  46  60
ATOM     60  C   UNL     1       8.818  14.669   0.331  1.00  0.00    -0.014 A 
ATOM     61  C   UNL     1       9.528  15.161  -0.775  1.00  0.00     0.009 A 
ATOM     62  C   UNL     1       9.533  14.184   1.437  1.00  0.00     0.009 A 
ATOM     63  C   UNL     1      10.925  15.138  -0.785  1.00  0.00     0.001 A 
ATOM     64  C   UNL     1      10.928  14.186   1.436  1.00  0.00     0.001 A 
ATOM     65  C   UNL     1      11.623  14.655   0.322  1.00  0.00     0.000 A 
ENDBRANCH  46  60
BRANCH  47  66
ATOM     66  C   UNL     1      -1.139  14.322   0.307  1.00  0.00    -0.014 A 
ATOM     67  C   UNL     1      -1.896  15.397  -0.182  1.00  0.00     0.009 A 
ATOM     68  C   UNL     1      -1.808  13.206   0.835  1.00  0.00     0.009 A 
ATOM     69  C   UNL     1      -3.291  15.364  -0.122  1.00  0.00     0.001 A 
ATOM     70  C   UNL     1      -3.203  13.165   0.870  1.00  0.00     0.001 A 
ATOM     71  C   UNL     1      -3.943  14.248   0.400  1.00  0.00     0.000 A 
ENDBRANCH  47  66
BRANCH  59  72
ATOM     72  C   UNL     1       3.527  18.145   3.781  1.00  0.00    -0.014 A 
ATOM     73  C   UNL     1       3.145  17.872   5.103  1.00  0.00     0.009 A 
ATOM     74  C   UNL     1       3.826  19.468   3.419  1.00  0.00     0.009 A 
ATOM     75  C   UNL     1       3.035  18.907   6.034  1.00  0.00     0.001 A 
ATOM     76  C   UNL     1       3.742  20.497   4.358  1.00  0.00     0.001 A 
ATOM     77  C   UNL     1       3.338  20.217   5.662  1.00  0.00     0.000 A 
ENDBRANCH  59  72
ENDBRANCH  33  34
ENDBRANCH  26  28
ENDBRANCH  25  26
ENDBRANCH  24  25
ENDBRANCH  23  24
ENDBRANCH  22  23
ENDBRANCH  21  22
ENDBRANCH   1  21
TORSDOF 19
