REMARK SMILES Cc1cccc(OCC(=O)Nc2cc(C(=O)OCCOCCOC(=O)c3ccc(-c4c5nc(c(-c6ccccc6)c6ccc([nH]6)c(-c6ccccc6)c6nc(c(-c7ccccc7)c7ccc4[nH]7)C=C6)C=C5)cc3)c(Cl)cc2Cl)c1
REMARK SMILES IDX 19 1 18 2 17 3 15 4 16 5 14 6 12 7 13 8 77 9 76 10 78 11
REMARK SMILES IDX 74 12 75 13 11 14 9 15 10 16 8 18 7 19 6 20 1 21 2 22 3 23
REMARK SMILES IDX 79 24 4 25 5 26 20 27 21 28 22 29 23 30 24 31 25 32 26 33
REMARK SMILES IDX 27 34 73 35 28 36 72 37 29 38 30 39 31 40 66 41 32 42 71 43
REMARK SMILES IDX 65 44 67 45 33 46 70 47 64 48 63 49 34 51 56 52 41 53 55 54
REMARK SMILES IDX 42 55 45 56 54 57 68 58 43 59 44 60 53 62 69 63 46 64 35 65
REMARK SMILES IDX 36 66 40 67 37 68 39 69 38 70 57 71 58 72 62 73 59 74 61 75
REMARK SMILES IDX 60 76 47 77 48 78 52 79 49 80 51 81 50 82
REMARK H PARENT 11 17 67 50 45 61
REMARK Flexibility Score: inf
ROOT
ATOM      1  C   UNL     1      -4.758  -0.481   2.246  1.00  0.00     0.202 C 
ENDROOT
BRANCH   1   2
ATOM      2  C   UNL     1      -4.949   0.488   1.151  1.00  0.00     0.261 C 
BRANCH   2   3
ATOM      3  O   UNL     1      -4.357   1.728   1.516  1.00  0.00    -0.460 OA
BRANCH   3   4
ATOM      4  C   UNL     1      -5.194   2.710   1.965  1.00  0.00     0.339 C 
ATOM      5  O   UNL     1      -6.386   2.762   1.860  1.00  0.00    -0.246 OA
BRANCH   4   6
ATOM      6  C   UNL     1      -4.292   3.652   2.669  1.00  0.00     0.080 A 
ATOM      7  C   UNL     1      -1.972   4.294   3.074  1.00  0.00     0.061 A 
ATOM      8  C   UNL     1      -2.921   3.652   2.305  1.00  0.00     0.045 A 
ATOM      9  C   UNL     1      -2.433   4.986   4.215  1.00  0.00     0.066 A 
ATOM     10  C   UNL     1      -3.797   5.055   4.542  1.00  0.00     0.044 A 
ATOM     11  Cl  UNL     1      -1.322   5.756   5.293  1.00  0.00    -0.082 Cl
ATOM     12  C   UNL     1      -4.738   4.381   3.769  1.00  0.00     0.057 A 
ATOM     13  Cl  UNL     1      -6.379   4.431   4.301  1.00  0.00    -0.083 Cl
BRANCH   7  14
ATOM     14  N   UNL     1      -0.585   4.152   2.857  1.00  0.00    -0.322 N 
ATOM     15  C   UNL     1       0.243   3.699   1.859  1.00  0.00     0.262 C 
ATOM     16  O   UNL     1       1.423   3.554   2.201  1.00  0.00    -0.271 OA
ATOM     17  H   UNL     1      -0.068   4.464   3.635  1.00  0.00     0.170 HD
BRANCH  15  18
ATOM     18  C   UNL     1      -0.171   3.569   0.358  1.00  0.00     0.329 C 
BRANCH  18  19
ATOM     19  O   UNL     1       0.347   2.740  -0.681  1.00  0.00    -0.484 OA
BRANCH  19  20
ATOM     20  C   UNL     1       0.852   1.506  -0.411  1.00  0.00     0.120 A 
ATOM     21  C   UNL     1       3.953  -0.187   0.872  1.00  0.00     0.044 C 
ATOM     22  C   UNL     1       2.525  -0.002   0.464  1.00  0.00    -0.047 A 
ATOM     23  C   UNL     1       1.835  -1.110  -0.032  1.00  0.00     0.003 A 
ATOM     24  C   UNL     1       1.978   1.291   0.356  1.00  0.00     0.049 A 
ATOM     25  C   UNL     1       0.798  -0.886  -0.910  1.00  0.00     0.004 A 
ATOM     26  C   UNL     1       0.413   0.431  -1.180  1.00  0.00     0.046 A 
ENDBRANCH  19  20
ENDBRANCH  18  19
ENDBRANCH  15  18
ENDBRANCH   7  14
ENDBRANCH   4   6
ENDBRANCH   3   4
ENDBRANCH   2   3
ENDBRANCH   1   2
BRANCH   1  27
ATOM     27  O   UNL     1      -5.938  -0.334   3.011  1.00  0.00    -0.374 OA
BRANCH  27  28
ATOM     28  C   UNL     1      -6.018  -1.205   4.114  1.00  0.00     0.202 C 
BRANCH  28  29
ATOM     29  C   UNL     1      -5.820  -2.679   3.729  1.00  0.00     0.261 C 
BRANCH  29  30
ATOM     30  O   UNL     1      -6.770  -3.038   2.697  1.00  0.00    -0.460 OA
BRANCH  30  31
ATOM     31  C   UNL     1      -6.270  -3.367   1.470  1.00  0.00     0.338 C 
ATOM     32  O   UNL     1      -5.268  -4.035   1.267  1.00  0.00    -0.246 OA
BRANCH  31  33
ATOM     33  C   UNL     1      -6.911  -2.503   0.424  1.00  0.00     0.060 A 
ATOM     34  C   UNL     1      -6.311  -2.376  -0.846  1.00  0.00     0.016 A 
ATOM     35  C   UNL     1      -7.857  -1.567   0.831  1.00  0.00     0.016 A 
ATOM     36  C   UNL     1      -6.511  -1.214  -1.612  1.00  0.00     0.010 A 
ATOM     37  C   UNL     1      -7.987  -0.395   0.111  1.00  0.00     0.010 A 
ATOM     38  C   UNL     1      -7.269  -0.178  -1.080  1.00  0.00    -0.014 A 
BRANCH  38  39
ATOM     39  C   UNL     1      -7.346   1.197  -1.597  1.00  0.00     0.031 A 
ATOM     40  C   UNL     1      -8.646   1.659  -2.086  1.00  0.00     0.074 A 
ATOM     41  C   UNL     1      -6.361   2.110  -1.405  1.00  0.00     0.049 A 
ATOM     42  N   UNL     1      -8.806   2.711  -2.806  1.00  0.00    -0.248 NA
ATOM     43  C   UNL     1      -9.896   0.944  -1.839  1.00  0.00     0.031 C 
ATOM     44  C   UNL     1      -6.361   3.574  -1.415  1.00  0.00     0.029 A 
ATOM     45  N   UNL     1      -5.021   1.855  -1.202  1.00  0.00    -0.354 N 
ATOM     46  C   UNL     1     -10.128   3.046  -2.678  1.00  0.00     0.074 A 
ATOM     47  C   UNL     1     -10.787   1.827  -2.288  1.00  0.00     0.031 C 
ATOM     48  C   UNL     1      -5.101   4.027  -1.604  1.00  0.00     0.029 A 
ATOM     49  C   UNL     1      -4.275   2.853  -1.817  1.00  0.00     0.049 A 
ATOM     50  H   UNL     1      -4.653   1.090  -0.703  1.00  0.00     0.167 HD
ATOM     51  C   UNL     1     -10.457   4.367  -2.677  1.00  0.00     0.031 A 
ATOM     52  C   UNL     1      -3.432   2.510  -2.823  1.00  0.00     0.031 A 
ATOM     53  C   UNL     1      -9.280   5.215  -2.952  1.00  0.00     0.049 A 
ATOM     54  C   UNL     1      -3.881   3.319  -3.994  1.00  0.00     0.074 A 
ATOM     55  C   UNL     1      -8.577   6.156  -2.215  1.00  0.00     0.029 A 
ATOM     56  N   UNL     1      -8.468   4.910  -4.048  1.00  0.00    -0.354 N 
ATOM     57  N   UNL     1      -5.146   3.567  -4.221  1.00  0.00    -0.248 NA
ATOM     58  C   UNL     1      -2.973   4.130  -4.796  1.00  0.00     0.031 C 
ATOM     59  C   UNL     1      -7.325   6.384  -2.867  1.00  0.00     0.029 A 
ATOM     60  C   UNL     1      -7.264   5.579  -3.997  1.00  0.00     0.049 A 
ATOM     61  H   UNL     1      -8.725   4.291  -4.769  1.00  0.00     0.167 HD
ATOM     62  C   UNL     1      -5.218   4.692  -4.990  1.00  0.00     0.074 A 
ATOM     63  C   UNL     1      -3.844   4.958  -5.399  1.00  0.00     0.031 C 
ATOM     64  C   UNL     1      -6.325   5.479  -5.109  1.00  0.00     0.031 A 
BRANCH  51  65
ATOM     65  C   UNL     1     -11.782   4.903  -2.176  1.00  0.00    -0.014 A 
ATOM     66  C   UNL     1     -11.949   6.288  -2.007  1.00  0.00     0.009 A 
ATOM     67  C   UNL     1     -12.896   4.117  -1.825  1.00  0.00     0.009 A 
ATOM     68  C   UNL     1     -13.138   6.843  -1.510  1.00  0.00     0.001 A 
ATOM     69  C   UNL     1     -14.089   4.660  -1.328  1.00  0.00     0.001 A 
ATOM     70  C   UNL     1     -14.210   6.029  -1.172  1.00  0.00     0.000 A 
ENDBRANCH  51  65
BRANCH  52  71
ATOM     71  C   UNL     1      -3.015   1.068  -2.705  1.00  0.00    -0.014 A 
ATOM     72  C   UNL     1      -2.522   0.661  -1.435  1.00  0.00     0.009 A 
ATOM     73  C   UNL     1      -3.381   0.047  -3.581  1.00  0.00     0.009 A 
ATOM     74  C   UNL     1      -2.480  -0.676  -1.018  1.00  0.00     0.001 A 
ATOM     75  C   UNL     1      -3.311  -1.306  -3.170  1.00  0.00     0.001 A 
ATOM     76  C   UNL     1      -2.889  -1.665  -1.887  1.00  0.00     0.000 A 
ENDBRANCH  52  71
BRANCH  64  77
ATOM     77  C   UNL     1      -6.668   6.178  -6.396  1.00  0.00    -0.014 A 
ATOM     78  C   UNL     1      -5.902   6.091  -7.563  1.00  0.00     0.009 A 
ATOM     79  C   UNL     1      -7.939   6.784  -6.510  1.00  0.00     0.009 A 
ATOM     80  C   UNL     1      -6.375   6.590  -8.778  1.00  0.00     0.001 A 
ATOM     81  C   UNL     1      -8.440   7.227  -7.731  1.00  0.00     0.001 A 
ATOM     82  C   UNL     1      -7.651   7.137  -8.865  1.00  0.00     0.000 A 
ENDBRANCH  64  77
ENDBRANCH  38  39
ENDBRANCH  31  33
ENDBRANCH  30  31
ENDBRANCH  29  30
ENDBRANCH  28  29
ENDBRANCH  27  28
ENDBRANCH   1  27
TORSDOF 18
