REMARK SMILES Cc1ccccc1OCC(=O)N1C[C@H](O)C[C@H]1C(=O)OCCOCCOC(=O)c1ccc(-c2c3nc(c(-c4ccccc4)c4ccc([nH]4)c(-c4ccccc4)c4nc(c(-c5ccccc5)c5ccc2[nH]5)C=C4)C=C3)cc1
REMARK SMILES IDX 22 1 21 2 20 3 18 4 19 5 17 6 12 7 13 8 14 9 16 10 10 11
REMARK SMILES IDX 11 12 9 13 8 14 7 15 1 16 2 17 3 18 4 19 6 20 5 21 15 22
REMARK SMILES IDX 23 24 24 25 25 26 26 27 27 28 28 29 29 30 30 31 76 32 31 33
REMARK SMILES IDX 75 34 32 35 33 36 34 37 69 38 35 39 74 40 68 41 70 42 36 43
REMARK SMILES IDX 73 44 67 45 66 46 37 48 59 49 44 50 58 51 45 52 48 53 57 54
REMARK SMILES IDX 71 55 46 56 47 57 56 59 72 60 49 61 38 62 39 63 43 64 40 65
REMARK SMILES IDX 42 66 41 67 60 68 61 69 65 70 62 71 64 72 63 73 50 74 51 75
REMARK SMILES IDX 55 76 52 77 54 78 53 79
REMARK H PARENT 15 23 70 47 48 58
REMARK Flexibility Score: inf
ROOT
ATOM      1  C   UNL     1       3.795  -0.692   2.032  1.00  0.00     0.202 C 
ENDROOT
BRANCH   1   2
ATOM      2  C   UNL     1       2.956  -0.661   3.288  1.00  0.00     0.261 C 
BRANCH   2   3
ATOM      3  O   UNL     1       2.531   0.665   3.645  1.00  0.00    -0.462 OA
BRANCH   3   4
ATOM      4  C   UNL     1       3.460   1.623   3.938  1.00  0.00     0.329 C 
ATOM      5  O   UNL     1       4.544   1.441   4.472  1.00  0.00    -0.250 OA
BRANCH   4   6
ATOM      6  C   UNL     1       2.899   3.010   3.660  1.00  0.00     0.198 C 
ATOM      7  N   UNL     1       1.910   3.024   2.567  1.00  0.00    -0.323 N 
ATOM      8  C   UNL     1       0.606   3.441   3.038  1.00  0.00     0.152 C 
ATOM      9  C   UNL     1       0.919   4.212   4.325  1.00  0.00     0.136 C 
ATOM     10  C   UNL     1       2.153   3.520   4.897  1.00  0.00     0.070 C 
BRANCH   7  11
ATOM     11  C   UNL     1       2.308   2.650   1.312  1.00  0.00     0.261 C 
ATOM     12  O   UNL     1       3.404   2.108   1.164  1.00  0.00    -0.271 OA
BRANCH  11  13
ATOM     13  C   UNL     1       1.556   3.049   0.043  1.00  0.00     0.329 C 
BRANCH  13  14
ATOM     14  O   UNL     1       0.429   2.503  -0.578  1.00  0.00    -0.484 OA
BRANCH  14  15
ATOM     15  C   UNL     1      -0.014   1.256  -0.274  1.00  0.00     0.122 A 
ATOM     16  C   UNL     1       2.010  -0.138  -1.073  1.00  0.00     0.048 C 
ATOM     17  C   UNL     1       0.649   0.036  -0.465  1.00  0.00    -0.009 A 
ATOM     18  C   UNL     1      -0.071  -1.158  -0.232  1.00  0.00     0.007 A 
ATOM     19  C   UNL     1      -1.424  -1.141   0.108  1.00  0.00     0.001 A 
ATOM     20  C   UNL     1      -1.378   1.257   0.050  1.00  0.00     0.047 A 
ATOM     21  C   UNL     1      -2.084   0.072   0.232  1.00  0.00     0.004 A 
ENDBRANCH  14  15
ENDBRANCH  13  14
ENDBRANCH  11  13
ENDBRANCH   7  11
BRANCH   9  22
ATOM     22  O   UNL     1       1.225   5.574   4.030  1.00  0.00    -0.391 OA
ATOM     23  H   UNL     1       1.974   5.612   3.415  1.00  0.00     0.211 HD
ENDBRANCH   9  22
ENDBRANCH   4   6
ENDBRANCH   3   4
ENDBRANCH   2   3
ENDBRANCH   1   2
BRANCH   1  24
ATOM     24  O   UNL     1       5.033  -0.035   2.242  1.00  0.00    -0.374 OA
BRANCH  24  25
ATOM     25  C   UNL     1       5.763   0.387   1.097  1.00  0.00     0.202 C 
BRANCH  25  26
ATOM     26  C   UNL     1       5.898  -0.660  -0.014  1.00  0.00     0.261 C 
BRANCH  26  27
ATOM     27  O   UNL     1       6.772  -1.747   0.369  1.00  0.00    -0.460 OA
BRANCH  27  28
ATOM     28  C   UNL     1       6.178  -2.797   1.013  1.00  0.00     0.338 C 
ATOM     29  O   UNL     1       5.351  -3.533   0.519  1.00  0.00    -0.246 OA
BRANCH  28  30
ATOM     30  C   UNL     1       6.498  -2.743   2.477  1.00  0.00     0.060 A 
ATOM     31  C   UNL     1       5.725  -3.477   3.397  1.00  0.00     0.016 A 
ATOM     32  C   UNL     1       7.256  -1.670   2.918  1.00  0.00     0.016 A 
ATOM     33  C   UNL     1       5.563  -3.006   4.713  1.00  0.00     0.010 A 
ATOM     34  C   UNL     1       6.913  -1.105   4.125  1.00  0.00     0.010 A 
ATOM     35  C   UNL     1       6.077  -1.759   5.046  1.00  0.00    -0.014 A 
BRANCH  35  36
ATOM     36  C   UNL     1       5.914  -1.010   6.301  1.00  0.00     0.031 A 
ATOM     37  C   UNL     1       7.178  -0.659   7.006  1.00  0.00     0.074 A 
ATOM     38  C   UNL     1       4.760  -0.388   6.656  1.00  0.00     0.049 A 
ATOM     39  N   UNL     1       7.229   0.002   8.105  1.00  0.00    -0.248 NA
ATOM     40  C   UNL     1       8.520  -1.033   6.535  1.00  0.00     0.031 C 
ATOM     41  C   UNL     1       4.598   0.819   7.482  1.00  0.00     0.029 A 
ATOM     42  N   UNL     1       3.432  -0.702   6.347  1.00  0.00    -0.354 N 
ATOM     43  C   UNL     1       8.514   0.455   8.257  1.00  0.00     0.074 A 
ATOM     44  C   UNL     1       9.305  -0.293   7.321  1.00  0.00     0.031 C 
ATOM     45  C   UNL     1       3.313   0.947   7.859  1.00  0.00     0.029 A 
ATOM     46  C   UNL     1       2.625  -0.247   7.407  1.00  0.00     0.049 A 
ATOM     47  H   UNL     1       3.118  -1.160   5.534  1.00  0.00     0.167 HD
ATOM     48  C   UNL     1       8.718   1.516   9.078  1.00  0.00     0.031 A 
ATOM     49  C   UNL     1       1.928  -1.130   8.175  1.00  0.00     0.031 A 
ATOM     50  C   UNL     1       7.524   1.782   9.884  1.00  0.00     0.049 A 
ATOM     51  C   UNL     1       2.469  -1.095   9.579  1.00  0.00     0.074 A 
ATOM     52  C   UNL     1       6.563   2.776   9.877  1.00  0.00     0.029 A 
ATOM     53  N   UNL     1       6.997   0.732  10.639  1.00  0.00    -0.354 N 
ATOM     54  N   UNL     1       3.669  -0.658   9.855  1.00  0.00    -0.248 NA
ATOM     55  C   UNL     1       1.715  -1.444  10.777  1.00  0.00     0.031 C 
ATOM     56  C   UNL     1       5.404   2.256  10.532  1.00  0.00     0.029 A 
ATOM     57  C   UNL     1       5.682   0.973  10.982  1.00  0.00     0.049 A 
ATOM     58  H   UNL     1       7.499  -0.076  10.893  1.00  0.00     0.167 HD
ATOM     59  C   UNL     1       3.823  -0.559  11.201  1.00  0.00     0.074 A 
ATOM     60  C   UNL     1       2.594  -1.114  11.743  1.00  0.00     0.031 C 
ATOM     61  C   UNL     1       4.934  -0.008  11.768  1.00  0.00     0.031 A 
BRANCH  48  62
ATOM     62  C   UNL     1       9.935   2.402   9.033  1.00  0.00    -0.014 A 
ATOM     63  C   UNL     1      10.063   3.439   9.973  1.00  0.00     0.009 A 
ATOM     64  C   UNL     1      10.934   2.344   8.040  1.00  0.00     0.009 A 
ATOM     65  C   UNL     1      11.132   4.346   9.935  1.00  0.00     0.001 A 
ATOM     66  C   UNL     1      12.023   3.226   8.015  1.00  0.00     0.001 A 
ATOM     67  C   UNL     1      12.119   4.232   8.963  1.00  0.00     0.000 A 
ENDBRANCH  48  62
BRANCH  49  68
ATOM     68  C   UNL     1       1.455  -2.301   7.373  1.00  0.00    -0.014 A 
ATOM     69  C   UNL     1       0.434  -2.046   6.427  1.00  0.00     0.009 A 
ATOM     70  C   UNL     1       2.302  -3.398   7.149  1.00  0.00     0.009 A 
ATOM     71  C   UNL     1       0.379  -2.749   5.216  1.00  0.00     0.001 A 
ATOM     72  C   UNL     1       2.232  -4.106   5.938  1.00  0.00     0.001 A 
ATOM     73  C   UNL     1       1.309  -3.750   4.955  1.00  0.00     0.000 A 
ENDBRANCH  49  68
BRANCH  61  74
ATOM     74  C   UNL     1       5.388  -0.322  13.165  1.00  0.00    -0.014 A 
ATOM     75  C   UNL     1       4.945  -1.441  13.883  1.00  0.00     0.009 A 
ATOM     76  C   UNL     1       6.442   0.424  13.730  1.00  0.00     0.009 A 
ATOM     77  C   UNL     1       5.481  -1.759  15.134  1.00  0.00     0.001 A 
ATOM     78  C   UNL     1       7.024   0.072  14.947  1.00  0.00     0.001 A 
ATOM     79  C   UNL     1       6.527  -1.009  15.660  1.00  0.00     0.000 A 
ENDBRANCH  61  74
ENDBRANCH  35  36
ENDBRANCH  28  30
ENDBRANCH  27  28
ENDBRANCH  26  27
ENDBRANCH  25  26
ENDBRANCH  24  25
ENDBRANCH   1  24
TORSDOF 19
