REMARK SMILES CCc1ccc(S(=O)(=O)c2nnn(-c3ccc(C(=O)OCCOCCOC(=O)c4ccc(-c5c6nc(c(-c7ccccc7)c7ccc([nH]7)c(-c7ccccc7)c7nc(c(-c8ccccc8)c8ccc5[nH]8)C=C7)C=C6)cc4)cc3)c2C)cc1
REMARK SMILES IDX 22 1 21 2 20 3 18 4 19 5 17 6 14 7 15 8 78 9 16 10 77 11
REMARK SMILES IDX 13 12 10 13 11 14 79 15 12 16 80 17 7 18 8 19 9 20 6 21 3 22
REMARK SMILES IDX 4 23 82 24 5 25 81 26 2 27 1 28 23 29 24 30 25 31 26 32
REMARK SMILES IDX 27 33 28 34 29 35 30 36 76 37 31 38 75 39 32 40 33 41 34 42
REMARK SMILES IDX 69 43 35 44 74 45 68 46 70 47 36 48 73 49 67 50 66 51 37 53
REMARK SMILES IDX 59 54 44 55 58 56 45 57 48 58 57 59 71 60 46 61 47 62 56 64
REMARK SMILES IDX 72 65 49 66 38 67 39 68 43 69 40 70 42 71 41 72 60 73 61 74
REMARK SMILES IDX 65 75 62 76 64 77 63 78 50 79 51 80 55 81 52 82 54 83 53 84
REMARK H PARENT 70 52 48 63
REMARK Flexibility Score: inf
ROOT
ATOM      1  C   UNL     1       6.279  14.005  -3.875  1.00  0.00     0.202 C 
ENDROOT
BRANCH   1   2
ATOM      2  C   UNL     1       6.396  12.703  -3.082  1.00  0.00     0.261 C 
BRANCH   2   3
ATOM      3  O   UNL     1       5.965  11.561  -3.833  1.00  0.00    -0.460 OA
BRANCH   3   4
ATOM      4  C   UNL     1       4.785  11.040  -3.420  1.00  0.00     0.338 C 
ATOM      5  O   UNL     1       4.104  11.407  -2.479  1.00  0.00    -0.246 OA
BRANCH   4   6
ATOM      6  C   UNL     1       4.324  10.015  -4.376  1.00  0.00     0.060 A 
ATOM      7  C   UNL     1       3.318   7.865  -5.789  1.00  0.00     0.067 A 
ATOM      8  C   UNL     1       2.437   8.867  -5.377  1.00  0.00     0.029 A 
ATOM      9  C   UNL     1       4.705   8.016  -5.644  1.00  0.00     0.029 A 
ATOM     10  C   UNL     1       2.947   9.931  -4.637  1.00  0.00     0.018 A 
ATOM     11  C   UNL     1       5.214   9.101  -4.939  1.00  0.00     0.018 A 
BRANCH   7  12
ATOM     12  N   UNL     1       2.799   6.614  -6.177  1.00  0.00    -0.216 N 
ATOM     13  C   UNL     1       2.365   4.493  -6.367  1.00  0.00     0.205 A 
ATOM     14  N   UNL     1       1.462   5.193  -7.120  1.00  0.00    -0.117 NA
ATOM     15  C   UNL     1       3.180   5.377  -5.682  1.00  0.00     0.081 A 
ATOM     16  N   UNL     1       1.681   6.488  -6.925  1.00  0.00    -0.061 NA
ATOM     17  C   UNL     1       4.115   5.176  -4.545  1.00  0.00     0.070 C 
BRANCH  13  18
ATOM     18  S   UNL     1       2.327   2.773  -6.216  1.00  0.00     0.227 S 
ATOM     19  O   UNL     1       3.727   2.394  -6.299  1.00  0.00    -0.217 OA
ATOM     20  O   UNL     1       1.337   2.306  -7.162  1.00  0.00    -0.217 OA
BRANCH  18  21
ATOM     21  C   UNL     1       1.762   2.376  -4.584  1.00  0.00     0.073 A 
ATOM     22  C   UNL     1       1.006   1.659  -1.973  1.00  0.00    -0.048 A 
ATOM     23  C   UNL     1       1.591   0.718  -2.830  1.00  0.00     0.005 A 
ATOM     24  C   UNL     1       0.797   2.964  -2.453  1.00  0.00     0.005 A 
ATOM     25  C   UNL     1       1.979   1.074  -4.124  1.00  0.00     0.021 A 
ATOM     26  C   UNL     1       1.162   3.323  -3.753  1.00  0.00     0.021 A 
BRANCH  22  27
ATOM     27  C   UNL     1       0.539   1.335  -0.571  1.00  0.00     0.032 C 
ATOM     28  C   UNL     1       1.003   0.009   0.018  1.00  0.00     0.009 C 
ENDBRANCH  22  27
ENDBRANCH  18  21
ENDBRANCH  13  18
ENDBRANCH   7  12
ENDBRANCH   4   6
ENDBRANCH   3   4
ENDBRANCH   2   3
ENDBRANCH   1   2
BRANCH   1  29
ATOM     29  O   UNL     1       4.993  14.449  -4.304  1.00  0.00    -0.374 OA
BRANCH  29  30
ATOM     30  C   UNL     1       4.234  13.709  -5.254  1.00  0.00     0.202 C 
BRANCH  30  31
ATOM     31  C   UNL     1       4.705  13.658  -6.700  1.00  0.00     0.261 C 
BRANCH  31  32
ATOM     32  O   UNL     1       6.021  13.142  -6.802  1.00  0.00    -0.460 OA
BRANCH  32  33
ATOM     33  C   UNL     1       6.969  14.100  -6.918  1.00  0.00     0.338 C 
ATOM     34  O   UNL     1       6.822  15.303  -6.826  1.00  0.00    -0.246 OA
BRANCH  33  35
ATOM     35  C   UNL     1       8.229  13.457  -7.315  1.00  0.00     0.060 A 
ATOM     36  C   UNL     1       9.234  14.344  -7.699  1.00  0.00     0.016 A 
ATOM     37  C   UNL     1       8.210  12.115  -7.720  1.00  0.00     0.016 A 
ATOM     38  C   UNL     1       9.989  13.997  -8.789  1.00  0.00     0.010 A 
ATOM     39  C   UNL     1       8.973  11.766  -8.802  1.00  0.00     0.010 A 
ATOM     40  C   UNL     1       9.734  12.764  -9.398  1.00  0.00    -0.014 A 
BRANCH  40  41
ATOM     41  C   UNL     1      10.305  12.522 -10.696  1.00  0.00     0.031 A 
ATOM     42  C   UNL     1      11.740  12.221 -10.621  1.00  0.00     0.074 A 
ATOM     43  C   UNL     1       9.579  12.524 -11.827  1.00  0.00     0.049 A 
ATOM     44  N   UNL     1      12.701  13.024 -10.918  1.00  0.00    -0.248 NA
ATOM     45  C   UNL     1      12.153  10.990  -9.934  1.00  0.00     0.031 C 
ATOM     46  C   UNL     1       8.128  12.587 -12.014  1.00  0.00     0.029 A 
ATOM     47  N   UNL     1      10.037  12.369 -13.092  1.00  0.00    -0.354 N 
ATOM     48  C   UNL     1      13.862  12.328 -10.628  1.00  0.00     0.074 A 
ATOM     49  C   UNL     1      13.469  11.183  -9.845  1.00  0.00     0.031 C 
ATOM     50  C   UNL     1       7.830  12.213 -13.283  1.00  0.00     0.029 A 
ATOM     51  C   UNL     1       9.070  12.022 -14.020  1.00  0.00     0.049 A 
ATOM     52  H   UNL     1      10.984  12.493 -13.333  1.00  0.00     0.167 HD
ATOM     53  C   UNL     1      15.024  12.604 -11.275  1.00  0.00     0.031 A 
ATOM     54  C   UNL     1       9.309  11.542 -15.267  1.00  0.00     0.031 A 
ATOM     55  C   UNL     1      14.945  13.836 -12.017  1.00  0.00     0.049 A 
ATOM     56  C   UNL     1      10.697  11.935 -15.630  1.00  0.00     0.074 A 
ATOM     57  C   UNL     1      14.757  15.161 -11.676  1.00  0.00     0.029 A 
ATOM     58  N   UNL     1      14.634  13.736 -13.354  1.00  0.00    -0.354 N 
ATOM     59  N   UNL     1      11.043  13.175 -15.830  1.00  0.00    -0.248 NA
ATOM     60  C   UNL     1      11.789  11.041 -15.263  1.00  0.00     0.031 C 
ATOM     61  C   UNL     1      13.899  15.682 -12.689  1.00  0.00     0.029 A 
ATOM     62  C   UNL     1      13.670  14.674 -13.628  1.00  0.00     0.049 A 
ATOM     63  H   UNL     1      15.031  13.106 -13.998  1.00  0.00     0.167 HD
ATOM     64  C   UNL     1      12.264  13.314 -15.181  1.00  0.00     0.074 A 
ATOM     65  C   UNL     1      12.721  11.945 -14.936  1.00  0.00     0.031 C 
ATOM     66  C   UNL     1      12.639  14.507 -14.629  1.00  0.00     0.031 A 
BRANCH  53  67
ATOM     67  C   UNL     1      16.051  11.556 -11.578  1.00  0.00    -0.014 A 
ATOM     68  C   UNL     1      17.282  11.958 -12.116  1.00  0.00     0.009 A 
ATOM     69  C   UNL     1      15.749  10.180 -11.618  1.00  0.00     0.009 A 
ATOM     70  C   UNL     1      18.137  11.034 -12.724  1.00  0.00     0.001 A 
ATOM     71  C   UNL     1      16.618   9.251 -12.186  1.00  0.00     0.001 A 
ATOM     72  C   UNL     1      17.801   9.684 -12.765  1.00  0.00     0.000 A 
ENDBRANCH  53  67
BRANCH  54  73
ATOM     73  C   UNL     1       8.548  10.504 -15.998  1.00  0.00    -0.014 A 
ATOM     74  C   UNL     1       8.725  10.297 -17.375  1.00  0.00     0.009 A 
ATOM     75  C   UNL     1       7.826   9.529 -15.283  1.00  0.00     0.009 A 
ATOM     76  C   UNL     1       8.223   9.145 -18.003  1.00  0.00     0.001 A 
ATOM     77  C   UNL     1       7.327   8.380 -15.907  1.00  0.00     0.001 A 
ATOM     78  C   UNL     1       7.536   8.182 -17.266  1.00  0.00     0.000 A 
ENDBRANCH  54  73
BRANCH  66  79
ATOM     79  C   UNL     1      11.750  15.703 -14.882  1.00  0.00    -0.014 A 
ATOM     80  C   UNL     1      10.417  15.774 -14.433  1.00  0.00     0.009 A 
ATOM     81  C   UNL     1      12.319  16.853 -15.446  1.00  0.00     0.009 A 
ATOM     82  C   UNL     1       9.669  16.948 -14.577  1.00  0.00     0.001 A 
ATOM     83  C   UNL     1      11.579  18.031 -15.572  1.00  0.00     0.001 A 
ATOM     84  C   UNL     1      10.253  18.077 -15.144  1.00  0.00     0.000 A 
ENDBRANCH  66  79
ENDBRANCH  40  41
ENDBRANCH  33  35
ENDBRANCH  32  33
ENDBRANCH  31  32
ENDBRANCH  30  31
ENDBRANCH  29  30
ENDBRANCH   1  29
TORSDOF 18
