REMARK SMILES COc1ccc(-c2ccc(CCC(=O)OCCOCCOC(=O)c3ccc(-c4c5nc(c(-c6ccccc6)c6ccc([nH]6)c(-c6ccccc6)c6nc(c(-c7ccccc7)c7ccc4[nH]7)C=C6)C=C5)cc3)n2-c2ccc(C(C)=O)cc2)cc1
REMARK SMILES IDX 17 1 16 2 15 3 13 4 14 5 12 6 11 7 10 8 7 9 8 10 72 11 9 12
REMARK SMILES IDX 6 13 3 14 4 15 83 16 5 17 82 18 2 19 1 20 73 21 74 22 81 23
REMARK SMILES IDX 75 24 80 25 76 26 77 27 78 28 79 29 18 30 19 31 20 32 21 33
REMARK SMILES IDX 22 34 23 35 24 36 25 37 71 38 26 39 70 40 27 41 28 42 29 43
REMARK SMILES IDX 64 44 30 45 69 46 63 47 65 48 31 49 68 50 62 51 61 52 32 54
REMARK SMILES IDX 54 55 39 56 53 57 40 58 43 59 52 60 66 61 41 62 42 63 51 65
REMARK SMILES IDX 67 66 44 67 33 68 34 69 38 70 35 71 37 72 36 73 55 74 56 75
REMARK SMILES IDX 60 76 57 77 59 78 58 79 45 80 46 81 50 82 47 83 49 84 48 85
REMARK H PARENT 65 53 43 64
REMARK Flexibility Score: inf
ROOT
ATOM      1  C   UNL     1       5.633 -10.655   3.084  1.00  0.00     0.202 C 
ENDROOT
BRANCH   1   2
ATOM      2  C   UNL     1       6.070 -10.097   1.725  1.00  0.00     0.261 C 
BRANCH   2   3
ATOM      3  O   UNL     1       4.944  -9.614   0.963  1.00  0.00    -0.463 OA
BRANCH   3   4
ATOM      4  C   UNL     1       4.457 -10.416  -0.014  1.00  0.00     0.306 C 
ATOM      5  O   UNL     1       4.970 -11.469  -0.373  1.00  0.00    -0.252 OA
BRANCH   4   6
ATOM      6  C   UNL     1       3.179  -9.873  -0.623  1.00  0.00     0.129 C 
BRANCH   6   7
ATOM      7  C   UNL     1       2.001  -9.598   0.322  1.00  0.00     0.066 C 
BRANCH   7   8
ATOM      8  C   UNL     1       2.088  -8.293   1.072  1.00  0.00     0.024 A 
ATOM      9  C   UNL     1       1.913  -6.072   1.476  1.00  0.00     0.053 A 
ATOM     10  C   UNL     1       2.792  -6.604   2.399  1.00  0.00     0.029 A 
ATOM     11  N   UNL     1       1.408  -7.130   0.721  1.00  0.00    -0.314 N 
ATOM     12  C   UNL     1       2.856  -7.987   2.179  1.00  0.00     0.024 A 
BRANCH   9  13
ATOM     13  C   UNL     1       1.505  -4.675   1.373  1.00  0.00    -0.001 A 
ATOM     14  C   UNL     1       0.771  -1.982   1.174  1.00  0.00     0.118 A 
ATOM     15  C   UNL     1      -0.166  -2.935   1.573  1.00  0.00     0.047 A 
ATOM     16  C   UNL     1       2.088  -2.365   0.922  1.00  0.00     0.047 A 
ATOM     17  C   UNL     1       0.196  -4.280   1.668  1.00  0.00     0.014 A 
ATOM     18  C   UNL     1       2.453  -3.708   1.022  1.00  0.00     0.014 A 
BRANCH  14  19
ATOM     19  O   UNL     1       0.323  -0.691   1.112  1.00  0.00    -0.497 OA
ATOM     20  C   UNL     1       0.854   0.055   0.019  1.00  0.00     0.278 C 
ENDBRANCH  14  19
ENDBRANCH   9  13
BRANCH  11  21
ATOM     21  C   UNL     1       0.368  -7.046  -0.235  1.00  0.00     0.046 A 
ATOM     22  C   UNL     1      -0.770  -7.845  -0.077  1.00  0.00     0.027 A 
ATOM     23  C   UNL     1       0.476  -6.165  -1.309  1.00  0.00     0.027 A 
ATOM     24  C   UNL     1      -1.806  -7.771  -1.012  1.00  0.00     0.014 A 
ATOM     25  C   UNL     1      -0.553  -6.113  -2.250  1.00  0.00     0.014 A 
ATOM     26  C   UNL     1      -1.702  -6.913  -2.114  1.00  0.00     0.017 A 
BRANCH  26  27
ATOM     27  C   UNL     1      -2.751  -6.799  -3.175  1.00  0.00     0.159 C 
ATOM     28  C   UNL     1      -4.065  -7.528  -3.060  1.00  0.00     0.093 C 
ATOM     29  O   UNL     1      -2.534  -6.085  -4.155  1.00  0.00    -0.295 OA
ENDBRANCH  26  27
ENDBRANCH  11  21
ENDBRANCH   7   8
ENDBRANCH   6   7
ENDBRANCH   4   6
ENDBRANCH   3   4
ENDBRANCH   2   3
ENDBRANCH   1   2
BRANCH   1  30
ATOM     30  O   UNL     1       5.053 -11.961   3.049  1.00  0.00    -0.374 OA
BRANCH  30  31
ATOM     31  C   UNL     1       3.687 -12.052   2.666  1.00  0.00     0.202 C 
BRANCH  31  32
ATOM     32  C   UNL     1       2.667 -11.915   3.784  1.00  0.00     0.261 C 
BRANCH  32  33
ATOM     33  O   UNL     1       2.576 -10.574   4.253  1.00  0.00    -0.460 OA
BRANCH  33  34
ATOM     34  C   UNL     1       3.334 -10.323   5.343  1.00  0.00     0.338 C 
ATOM     35  O   UNL     1       4.295 -10.950   5.739  1.00  0.00    -0.246 OA
BRANCH  34  36
ATOM     36  C   UNL     1       2.666  -9.298   6.150  1.00  0.00     0.060 A 
ATOM     37  C   UNL     1       3.264  -9.020   7.379  1.00  0.00     0.016 A 
ATOM     38  C   UNL     1       1.352  -8.906   5.850  1.00  0.00     0.016 A 
ATOM     39  C   UNL     1       2.479  -8.516   8.388  1.00  0.00     0.010 A 
ATOM     40  C   UNL     1       0.552  -8.441   6.871  1.00  0.00     0.010 A 
ATOM     41  C   UNL     1       1.118  -8.286   8.139  1.00  0.00    -0.014 A 
BRANCH  41  42
ATOM     42  C   UNL     1       0.371  -7.596   9.189  1.00  0.00     0.031 A 
ATOM     43  C   UNL     1       0.630  -6.078   9.031  1.00  0.00     0.074 A 
ATOM     44  C   UNL     1      -0.262  -8.405  10.102  1.00  0.00     0.049 A 
ATOM     45  N   UNL     1       0.601  -5.153   9.929  1.00  0.00    -0.248 NA
ATOM     46  C   UNL     1       1.053  -5.501   7.712  1.00  0.00     0.031 C 
ATOM     47  C   UNL     1      -0.427  -9.880   9.981  1.00  0.00     0.029 A 
ATOM     48  N   UNL     1      -0.889  -8.186  11.313  1.00  0.00    -0.354 N 
ATOM     49  C   UNL     1       0.790  -3.910   9.287  1.00  0.00     0.074 A 
ATOM     50  C   UNL     1       1.165  -4.192   7.940  1.00  0.00     0.031 C 
ATOM     51  C   UNL     1      -0.995 -10.410  11.092  1.00  0.00     0.029 A 
ATOM     52  C   UNL     1      -1.272  -9.353  12.046  1.00  0.00     0.049 A 
ATOM     53  H   UNL     1      -1.062  -7.278  11.652  1.00  0.00     0.167 HD
ATOM     54  C   UNL     1       0.467  -2.734   9.896  1.00  0.00     0.031 A 
ATOM     55  C   UNL     1      -1.724  -9.444  13.343  1.00  0.00     0.031 A 
ATOM     56  C   UNL     1       0.135  -2.991  11.256  1.00  0.00     0.049 A 
ATOM     57  C   UNL     1      -1.924  -8.049  13.749  1.00  0.00     0.074 A 
ATOM     58  C   UNL     1       0.914  -3.393  12.310  1.00  0.00     0.029 A 
ATOM     59  N   UNL     1      -1.180  -3.309  11.498  1.00  0.00    -0.354 N 
ATOM     60  N   UNL     1      -2.904  -7.296  13.352  1.00  0.00    -0.248 NA
ATOM     61  C   UNL     1      -0.893  -7.403  14.570  1.00  0.00     0.031 C 
ATOM     62  C   UNL     1       0.136  -4.420  12.876  1.00  0.00     0.029 A 
ATOM     63  C   UNL     1      -1.176  -4.346  12.393  1.00  0.00     0.049 A 
ATOM     64  H   UNL     1      -1.971  -2.875  11.105  1.00  0.00     0.167 HD
ATOM     65  C   UNL     1      -2.378  -6.044  13.532  1.00  0.00     0.074 A 
ATOM     66  C   UNL     1      -1.372  -6.162  14.568  1.00  0.00     0.031 C 
ATOM     67  C   UNL     1      -2.350  -5.172  12.489  1.00  0.00     0.031 A 
BRANCH  54  68
ATOM     68  C   UNL     1       0.132  -1.381   9.347  1.00  0.00    -0.014 A 
ATOM     69  C   UNL     1      -0.104  -0.358  10.299  1.00  0.00     0.009 A 
ATOM     70  C   UNL     1      -0.315  -1.162   8.042  1.00  0.00     0.009 A 
ATOM     71  C   UNL     1      -0.900   0.748  10.008  1.00  0.00     0.001 A 
ATOM     72  C   UNL     1      -1.075  -0.023   7.737  1.00  0.00     0.001 A 
ATOM     73  C   UNL     1      -1.405   0.903   8.727  1.00  0.00     0.000 A 
ENDBRANCH  54  68
BRANCH  55  74
ATOM     74  C   UNL     1      -2.008 -10.457  14.442  1.00  0.00    -0.014 A 
ATOM     75  C   UNL     1      -2.242 -11.826  14.300  1.00  0.00     0.009 A 
ATOM     76  C   UNL     1      -2.044  -9.989  15.793  1.00  0.00     0.009 A 
ATOM     77  C   UNL     1      -2.413 -12.661  15.438  1.00  0.00     0.001 A 
ATOM     78  C   UNL     1      -2.166 -10.809  16.920  1.00  0.00     0.001 A 
ATOM     79  C   UNL     1      -2.340 -12.162  16.741  1.00  0.00     0.000 A 
ENDBRANCH  55  74
BRANCH  67  80
ATOM     80  C   UNL     1      -3.364  -5.421  11.383  1.00  0.00    -0.014 A 
ATOM     81  C   UNL     1      -4.732  -5.420  11.700  1.00  0.00     0.009 A 
ATOM     82  C   UNL     1      -3.017  -5.759  10.060  1.00  0.00     0.009 A 
ATOM     83  C   UNL     1      -5.710  -5.754  10.754  1.00  0.00     0.001 A 
ATOM     84  C   UNL     1      -3.995  -6.102   9.108  1.00  0.00     0.001 A 
ATOM     85  C   UNL     1      -5.343  -6.099   9.457  1.00  0.00     0.000 A 
ENDBRANCH  67  80
ENDBRANCH  41  42
ENDBRANCH  34  36
ENDBRANCH  33  34
ENDBRANCH  32  33
ENDBRANCH  31  32
ENDBRANCH  30  31
ENDBRANCH   1  30
TORSDOF 20
