REMARK SMILES CCC[C@H](c1ccccc1)[C@@](C)(O)C(=O)OCCOCCOC(=O)c1ccc(-c2c3nc(c(-c4ccccc4)c4ccc([nH]4)c(-c4ccccc4)c4nc(c(-c5ccccc5)c5ccc2[nH]5)C=C4)C=C3)cc1
REMARK SMILES IDX 18 1 17 2 16 3 14 4 15 5 11 6 12 7 4 8 3 9 2 10 1 11 5 12
REMARK SMILES IDX 6 13 10 14 7 15 9 16 8 17 13 18 19 20 20 21 21 22 22 23
REMARK SMILES IDX 23 24 24 25 25 26 26 27 72 28 27 29 71 30 28 31 29 32 30 33
REMARK SMILES IDX 65 34 31 35 70 36 64 37 66 38 32 39 69 40 63 41 62 42 33 44
REMARK SMILES IDX 55 45 40 46 54 47 41 48 44 49 53 50 67 51 42 52 43 53 52 55
REMARK SMILES IDX 68 56 45 57 34 58 35 59 39 60 36 61 38 62 37 63 56 64 57 65
REMARK SMILES IDX 61 66 58 67 60 68 59 69 46 70 47 71 51 72 48 73 50 74 49 75
REMARK H PARENT 13 19 66 43 44 54
REMARK Flexibility Score: inf
ROOT
ATOM      1  C   UNL     1      -0.756   6.600  -3.893  1.00  0.00     0.202 C 
ENDROOT
BRANCH   1   2
ATOM      2  C   UNL     1       0.743   6.393  -3.639  1.00  0.00     0.261 C 
BRANCH   2   3
ATOM      3  O   UNL     1       1.189   5.049  -3.858  1.00  0.00    -0.461 OA
BRANCH   3   4
ATOM      4  C   UNL     1       1.043   4.284  -2.738  1.00  0.00     0.338 C 
ATOM      5  O   UNL     1       0.590   4.740  -1.698  1.00  0.00    -0.249 OA
BRANCH   4   6
ATOM      6  C   UNL     1       1.468   2.815  -2.947  1.00  0.00     0.165 C 
ATOM      7  C   UNL     1       2.974   2.740  -3.230  1.00  0.00     0.055 C 
BRANCH   6   8
ATOM      8  C   UNL     1       1.030   1.911  -1.729  1.00  0.00     0.062 C 
BRANCH   8   9
ATOM      9  C   UNL     1      -0.534   1.678  -1.719  1.00  0.00     0.012 C 
BRANCH   9  10
ATOM     10  C   UNL     1      -1.426   2.039  -0.515  1.00  0.00    -0.003 C 
ATOM     11  C   UNL     1      -1.502   3.494  -0.085  1.00  0.00     0.004 C 
ENDBRANCH   9  10
ENDBRANCH   8   9
BRANCH   8  12
ATOM     12  C   UNL     1       1.616   2.142  -0.335  1.00  0.00    -0.041 A 
ATOM     13  C   UNL     1       1.429   1.146   0.638  1.00  0.00     0.004 A 
ATOM     14  C   UNL     1       2.213   3.340   0.084  1.00  0.00     0.004 A 
ATOM     15  C   UNL     1       1.652   1.410   1.992  1.00  0.00     0.000 A 
ATOM     16  C   UNL     1       2.408   3.619   1.438  1.00  0.00     0.000 A 
ATOM     17  C   UNL     1       2.098   2.664   2.395  1.00  0.00     0.000 A 
ENDBRANCH   8  12
ENDBRANCH   6   8
BRANCH   6  18
ATOM     18  O   UNL     1       0.833   2.302  -4.145  1.00  0.00    -0.378 OA
ATOM     19  H   UNL     1       1.097   1.379  -4.281  1.00  0.00     0.212 HD
ENDBRANCH   6  18
ENDBRANCH   4   6
ENDBRANCH   3   4
ENDBRANCH   2   3
ENDBRANCH   1   2
BRANCH   1  20
ATOM     20  O   UNL     1      -1.724   5.786  -3.236  1.00  0.00    -0.374 OA
BRANCH  20  21
ATOM     21  C   UNL     1      -1.946   4.471  -3.747  1.00  0.00     0.202 C 
BRANCH  21  22
ATOM     22  C   UNL     1      -2.833   4.300  -4.979  1.00  0.00     0.261 C 
BRANCH  22  23
ATOM     23  O   UNL     1      -2.242   4.893  -6.137  1.00  0.00    -0.460 OA
BRANCH  23  24
ATOM     24  C   UNL     1      -2.731   6.119  -6.449  1.00  0.00     0.338 C 
ATOM     25  O   UNL     1      -3.678   6.693  -5.962  1.00  0.00    -0.246 OA
BRANCH  24  26
ATOM     26  C   UNL     1      -1.748   6.765  -7.340  1.00  0.00     0.060 A 
ATOM     27  C   UNL     1      -1.344   8.072  -7.027  1.00  0.00     0.016 A 
ATOM     28  C   UNL     1      -1.209   6.084  -8.431  1.00  0.00     0.016 A 
ATOM     29  C   UNL     1      -0.432   8.729  -7.841  1.00  0.00     0.010 A 
ATOM     30  C   UNL     1      -0.316   6.749  -9.261  1.00  0.00     0.010 A 
ATOM     31  C   UNL     1       0.035   8.084  -8.990  1.00  0.00    -0.014 A 
BRANCH  31  32
ATOM     32  C   UNL     1       0.677   8.864 -10.061  1.00  0.00     0.031 A 
ATOM     33  C   UNL     1      -0.194   9.310 -11.198  1.00  0.00     0.074 A 
ATOM     34  C   UNL     1       1.994   9.116 -10.040  1.00  0.00     0.049 A 
ATOM     35  N   UNL     1       0.143   9.841 -12.341  1.00  0.00    -0.248 NA
ATOM     36  C   UNL     1      -1.645   9.107 -11.028  1.00  0.00     0.031 C 
ATOM     37  C   UNL     1       2.908   8.771  -8.953  1.00  0.00     0.029 A 
ATOM     38  N   UNL     1       2.792   9.701 -10.986  1.00  0.00    -0.354 N 
ATOM     39  C   UNL     1      -1.049  10.009 -13.036  1.00  0.00     0.074 A 
ATOM     40  C   UNL     1      -2.113   9.504 -12.200  1.00  0.00     0.031 C 
ATOM     41  C   UNL     1       4.155   9.129  -9.307  1.00  0.00     0.029 A 
ATOM     42  C   UNL     1       4.125   9.680 -10.660  1.00  0.00     0.049 A 
ATOM     43  H   UNL     1       2.444  10.098 -11.817  1.00  0.00     0.167 HD
ATOM     44  C   UNL     1      -1.232  10.535 -14.267  1.00  0.00     0.031 A 
ATOM     45  C   UNL     1       5.195  10.030 -11.398  1.00  0.00     0.031 A 
ATOM     46  C   UNL     1      -0.157  11.015 -15.088  1.00  0.00     0.049 A 
ATOM     47  C   UNL     1       4.973  10.540 -12.798  1.00  0.00     0.074 A 
ATOM     48  C   UNL     1      -0.219  11.582 -16.346  1.00  0.00     0.029 A 
ATOM     49  N   UNL     1       1.182  10.972 -14.727  1.00  0.00    -0.354 N 
ATOM     50  N   UNL     1       3.845  10.714 -13.447  1.00  0.00    -0.248 NA
ATOM     51  C   UNL     1       6.171  10.904 -13.568  1.00  0.00     0.031 C 
ATOM     52  C   UNL     1       1.089  11.829 -16.771  1.00  0.00     0.029 A 
ATOM     53  C   UNL     1       1.960  11.481 -15.749  1.00  0.00     0.049 A 
ATOM     54  H   UNL     1       1.526  10.631 -13.870  1.00  0.00     0.167 HD
ATOM     55  C   UNL     1       4.194  11.242 -14.683  1.00  0.00     0.074 A 
ATOM     56  C   UNL     1       5.638  11.363 -14.692  1.00  0.00     0.031 C 
ATOM     57  C   UNL     1       3.395  11.601 -15.718  1.00  0.00     0.031 A 
BRANCH  44  58
ATOM     58  C   UNL     1      -2.635  10.571 -14.804  1.00  0.00    -0.014 A 
ATOM     59  C   UNL     1      -3.608  11.423 -14.258  1.00  0.00     0.009 A 
ATOM     60  C   UNL     1      -2.984   9.748 -15.885  1.00  0.00     0.009 A 
ATOM     61  C   UNL     1      -4.911  11.423 -14.761  1.00  0.00     0.001 A 
ATOM     62  C   UNL     1      -4.278   9.773 -16.407  1.00  0.00     0.001 A 
ATOM     63  C   UNL     1      -5.243  10.603 -15.839  1.00  0.00     0.000 A 
ENDBRANCH  44  58
BRANCH  45  64
ATOM     64  C   UNL     1       6.564   9.888 -10.840  1.00  0.00    -0.014 A 
ATOM     65  C   UNL     1       7.335  11.022 -10.545  1.00  0.00     0.009 A 
ATOM     66  C   UNL     1       7.112   8.617 -10.603  1.00  0.00     0.009 A 
ATOM     67  C   UNL     1       8.634  10.887 -10.049  1.00  0.00     0.001 A 
ATOM     68  C   UNL     1       8.400   8.485 -10.079  1.00  0.00     0.001 A 
ATOM     69  C   UNL     1       9.163   9.619  -9.811  1.00  0.00     0.000 A 
ENDBRANCH  45  64
BRANCH  57  70
ATOM     70  C   UNL     1       4.053  12.214 -16.922  1.00  0.00    -0.014 A 
ATOM     71  C   UNL     1       4.792  11.440 -17.827  1.00  0.00     0.009 A 
ATOM     72  C   UNL     1       3.850  13.577 -17.193  1.00  0.00     0.009 A 
ATOM     73  C   UNL     1       5.335  12.026 -18.972  1.00  0.00     0.001 A 
ATOM     74  C   UNL     1       4.367  14.152 -18.353  1.00  0.00     0.001 A 
ATOM     75  C   UNL     1       5.114  13.378 -19.238  1.00  0.00     0.000 A 
ENDBRANCH  57  70
ENDBRANCH  31  32
ENDBRANCH  24  26
ENDBRANCH  23  24
ENDBRANCH  22  23
ENDBRANCH  21  22
ENDBRANCH  20  21
ENDBRANCH   1  20
TORSDOF 19
