REMARK SMILES N#Cc1ccccc1Cn1cccc1C(=O)OCCOCCOC(=O)c1ccc(-c2c3nc(c(-c4ccccc4)c4ccc([nH]4)c(-c4ccccc4)c4nc(c(-c5ccccc5)c5ccc2[nH]5)C=C4)C=C3)cc1
REMARK SMILES IDX 19 1 18 2 17 3 15 4 16 5 14 6 10 7 11 8 12 9 13 10 9 11 8 12
REMARK SMILES IDX 3 13 4 14 5 15 7 16 6 17 2 18 1 19 20 20 21 21 22 22 23 23
REMARK SMILES IDX 24 24 25 25 26 26 27 27 73 28 28 29 72 30 29 31 30 32 31 33
REMARK SMILES IDX 66 34 32 35 71 36 65 37 67 38 33 39 70 40 64 41 63 42 34 44
REMARK SMILES IDX 56 45 41 46 55 47 42 48 45 49 54 50 68 51 43 52 44 53 53 55
REMARK SMILES IDX 69 56 46 57 35 58 36 59 40 60 37 61 39 62 38 63 57 64 58 65
REMARK SMILES IDX 62 66 59 67 61 68 60 69 47 70 48 71 52 72 49 73 51 74 50 75
REMARK H PARENT 67 43 45 54
REMARK Flexibility Score: inf
ROOT
ATOM      1  C   UNL     1      -4.751  -1.858  -2.427  1.00  0.00     0.202 C 
ENDROOT
BRANCH   1   2
ATOM      2  C   UNL     1      -4.390  -3.019  -1.501  1.00  0.00     0.261 C 
BRANCH   2   3
ATOM      3  O   UNL     1      -2.964  -3.123  -1.322  1.00  0.00    -0.459 OA
BRANCH   3   4
ATOM      4  C   UNL     1      -2.402  -4.203  -1.926  1.00  0.00     0.355 C 
ATOM      5  O   UNL     1      -3.030  -5.115  -2.449  1.00  0.00    -0.244 OA
BRANCH   4   6
ATOM      6  C   UNL     1      -0.965  -4.050  -2.054  1.00  0.00     0.127 A 
ATOM      7  N   UNL     1      -0.019  -3.506  -1.196  1.00  0.00    -0.338 N 
ATOM      8  C   UNL     1       1.227  -3.893  -1.656  1.00  0.00     0.087 A 
ATOM      9  C   UNL     1       1.107  -4.375  -2.933  1.00  0.00     0.020 A 
ATOM     10  C   UNL     1      -0.268  -4.483  -3.181  1.00  0.00     0.035 A 
BRANCH   7  11
ATOM     11  C   UNL     1      -0.225  -2.824   0.092  1.00  0.00     0.159 C 
BRANCH  11  12
ATOM     12  C   UNL     1       0.389  -1.425   0.153  1.00  0.00    -0.010 A 
ATOM     13  C   UNL     1      -0.377  -0.251   0.307  1.00  0.00     0.057 A 
ATOM     14  C   UNL     1       0.253   1.011   0.345  1.00  0.00     0.020 A 
ATOM     15  C   UNL     1       1.636   1.129   0.226  1.00  0.00     0.001 A 
ATOM     16  C   UNL     1       1.792  -1.272   0.113  1.00  0.00     0.007 A 
ATOM     17  C   UNL     1       2.406  -0.017   0.119  1.00  0.00     0.000 A 
BRANCH  13  18
ATOM     18  C   UNL     1      -1.803  -0.277   0.488  1.00  0.00     0.099 C 
ATOM     19  N   UNL     1      -2.947  -0.264   0.667  1.00  0.00    -0.192 NA
ENDBRANCH  13  18
ENDBRANCH  11  12
ENDBRANCH   7  11
ENDBRANCH   4   6
ENDBRANCH   3   4
ENDBRANCH   2   3
ENDBRANCH   1   2
BRANCH   1  20
ATOM     20  O   UNL     1      -4.364  -1.983  -3.799  1.00  0.00    -0.374 OA
BRANCH  20  21
ATOM     21  C   UNL     1      -2.995  -1.815  -4.146  1.00  0.00     0.202 C 
BRANCH  21  22
ATOM     22  C   UNL     1      -2.408  -0.413  -4.143  1.00  0.00     0.261 C 
BRANCH  22  23
ATOM     23  O   UNL     1      -2.614   0.289  -2.929  1.00  0.00    -0.460 OA
BRANCH  23  24
ATOM     24  C   UNL     1      -3.708   1.084  -2.986  1.00  0.00     0.338 C 
ATOM     25  O   UNL     1      -4.684   0.970  -3.707  1.00  0.00    -0.246 OA
BRANCH  24  26
ATOM     26  C   UNL     1      -3.458   2.281  -2.194  1.00  0.00     0.060 A 
ATOM     27  C   UNL     1      -4.559   3.090  -1.904  1.00  0.00     0.016 A 
ATOM     28  C   UNL     1      -2.134   2.716  -2.031  1.00  0.00     0.016 A 
ATOM     29  C   UNL     1      -4.330   4.403  -1.564  1.00  0.00     0.010 A 
ATOM     30  C   UNL     1      -1.905   4.032  -1.717  1.00  0.00     0.010 A 
ATOM     31  C   UNL     1      -3.007   4.866  -1.522  1.00  0.00    -0.014 A 
BRANCH  31  32
ATOM     32  C   UNL     1      -2.771   6.216  -1.026  1.00  0.00     0.031 A 
ATOM     33  C   UNL     1      -2.799   6.173   0.513  1.00  0.00     0.074 A 
ATOM     34  C   UNL     1      -2.622   7.188  -1.985  1.00  0.00     0.049 A 
ATOM     35  N   UNL     1      -3.104   7.117   1.334  1.00  0.00    -0.248 NA
ATOM     36  C   UNL     1      -2.543   4.901   1.264  1.00  0.00     0.031 C 
ATOM     37  C   UNL     1      -2.609   6.951  -3.454  1.00  0.00     0.029 A 
ATOM     38  N   UNL     1      -2.450   8.557  -1.952  1.00  0.00    -0.354 N 
ATOM     39  C   UNL     1      -2.861   6.657   2.643  1.00  0.00     0.074 A 
ATOM     40  C   UNL     1      -2.649   5.249   2.549  1.00  0.00     0.031 C 
ATOM     41  C   UNL     1      -2.549   8.116  -4.144  1.00  0.00     0.029 A 
ATOM     42  C   UNL     1      -2.483   9.226  -3.213  1.00  0.00     0.049 A 
ATOM     43  H   UNL     1      -2.314   9.044  -1.107  1.00  0.00     0.167 HD
ATOM     44  C   UNL     1      -2.662   7.530   3.672  1.00  0.00     0.031 A 
ATOM     45  C   UNL     1      -2.494  10.577  -3.465  1.00  0.00     0.031 A 
ATOM     46  C   UNL     1      -2.840   8.861   3.191  1.00  0.00     0.049 A 
ATOM     47  C   UNL     1      -2.203  11.195  -2.168  1.00  0.00     0.074 A 
ATOM     48  C   UNL     1      -3.947   9.499   2.691  1.00  0.00     0.029 A 
ATOM     49  N   UNL     1      -1.697   9.467   2.719  1.00  0.00    -0.354 N 
ATOM     50  N   UNL     1      -1.038  11.206  -1.597  1.00  0.00    -0.248 NA
ATOM     51  C   UNL     1      -3.308  11.803  -1.416  1.00  0.00     0.031 C 
ATOM     52  C   UNL     1      -3.438  10.081   1.514  1.00  0.00     0.029 A 
ATOM     53  C   UNL     1      -2.038  10.100   1.557  1.00  0.00     0.049 A 
ATOM     54  H   UNL     1      -0.806   9.447   3.137  1.00  0.00     0.167 HD
ATOM     55  C   UNL     1      -1.382  11.407  -0.287  1.00  0.00     0.074 A 
ATOM     56  C   UNL     1      -2.656  12.105  -0.296  1.00  0.00     0.031 C 
ATOM     57  C   UNL     1      -1.004  10.476   0.631  1.00  0.00     0.031 A 
BRANCH  44  58
ATOM     58  C   UNL     1      -1.985   7.379   5.000  1.00  0.00    -0.014 A 
ATOM     59  C   UNL     1      -2.052   8.497   5.869  1.00  0.00     0.009 A 
ATOM     60  C   UNL     1      -1.017   6.410   5.269  1.00  0.00     0.009 A 
ATOM     61  C   UNL     1      -1.099   8.716   6.860  1.00  0.00     0.001 A 
ATOM     62  C   UNL     1      -0.086   6.607   6.300  1.00  0.00     0.001 A 
ATOM     63  C   UNL     1      -0.101   7.775   7.063  1.00  0.00     0.000 A 
ENDBRANCH  44  58
BRANCH  45  64
ATOM     64  C   UNL     1      -2.746  11.586  -4.571  1.00  0.00    -0.014 A 
ATOM     65  C   UNL     1      -2.997  11.323  -5.917  1.00  0.00     0.009 A 
ATOM     66  C   UNL     1      -2.849  12.964  -4.201  1.00  0.00     0.009 A 
ATOM     67  C   UNL     1      -3.423  12.357  -6.791  1.00  0.00     0.001 A 
ATOM     68  C   UNL     1      -3.330  13.974  -5.037  1.00  0.00     0.001 A 
ATOM     69  C   UNL     1      -3.635  13.665  -6.343  1.00  0.00     0.000 A 
ENDBRANCH  45  64
BRANCH  57  70
ATOM     70  C   UNL     1       0.265   9.694   0.317  1.00  0.00    -0.014 A 
ATOM     71  C   UNL     1       1.441  10.400  -0.000  1.00  0.00     0.009 A 
ATOM     72  C   UNL     1       0.327   8.291   0.230  1.00  0.00     0.009 A 
ATOM     73  C   UNL     1       2.615   9.747  -0.399  1.00  0.00     0.001 A 
ATOM     74  C   UNL     1       1.504   7.630  -0.174  1.00  0.00     0.001 A 
ATOM     75  C   UNL     1       2.648   8.360  -0.486  1.00  0.00     0.000 A 
ENDBRANCH  57  70
ENDBRANCH  31  32
ENDBRANCH  24  26
ENDBRANCH  23  24
ENDBRANCH  22  23
ENDBRANCH  21  22
ENDBRANCH  20  21
ENDBRANCH   1  20
TORSDOF 17
