REMARK SMILES CN1C(=O)C[C@@H](C(=O)OCCOCCOC(=O)c2ccc(-c3c4nc(c(-c5ccccc5)c5ccc([nH]5)c(-c5ccccc5)c5nc(c(-c6ccccc6)c6ccc3[nH]6)C=C5)C=C4)cc2)C12CCN(C(=O)c1ccccc1-n1cccn1)CC2
REMARK SMILES IDX 12 1 11 2 10 3 9 4 7 5 8 6 6 7 1 8 2 9 3 10 66 11 4 12 5 13
REMARK SMILES IDX 67 14 84 15 68 16 83 17 69 18 70 19 71 20 72 21 73 22 77 23
REMARK SMILES IDX 74 24 76 25 75 26 78 27 79 28 82 29 80 30 81 31 13 32 14 33
REMARK SMILES IDX 15 34 16 35 17 36 18 37 19 38 65 39 20 40 64 41 21 42 22 43
REMARK SMILES IDX 23 44 58 45 24 46 63 47 57 48 59 49 25 50 62 51 56 52 55 53
REMARK SMILES IDX 26 55 48 56 33 57 47 58 34 59 37 60 46 61 60 62 35 63 36 64
REMARK SMILES IDX 45 66 61 67 38 68 27 69 28 70 32 71 29 72 31 73 30 74 49 75
REMARK SMILES IDX 50 76 54 77 51 78 53 79 52 80 39 81 40 82 44 83 41 84 43 85
REMARK SMILES IDX 42 86
REMARK H PARENT 59 54 37 65
REMARK Flexibility Score: inf
ROOT
ATOM      1  O   UNL     1      -3.128   2.660   5.496  1.00  0.00    -0.374 OA
ENDROOT
BRANCH   1   2
ATOM      2  C   UNL     1      -3.488   1.604   4.607  1.00  0.00     0.202 C 
BRANCH   2   3
ATOM      3  C   UNL     1      -3.419   1.914   3.106  1.00  0.00     0.261 C 
BRANCH   3   4
ATOM      4  O   UNL     1      -2.085   2.035   2.564  1.00  0.00    -0.463 OA
BRANCH   4   5
ATOM      5  C   UNL     1      -1.696   3.290   2.235  1.00  0.00     0.311 C 
ATOM      6  O   UNL     1      -2.323   4.304   2.530  1.00  0.00    -0.252 OA
BRANCH   5   7
ATOM      7  C   UNL     1      -0.461   3.376   1.356  1.00  0.00     0.134 C 
ATOM      8  C   UNL     1       0.941   0.122   0.110  1.00  0.00     0.147 C 
ATOM      9  N   UNL     1       0.306   1.408   0.336  1.00  0.00    -0.339 N 
ATOM     10  C   UNL     1      -0.617   1.942  -0.549  1.00  0.00     0.223 C 
ATOM     11  C   UNL     1       0.689   2.338   1.409  1.00  0.00     0.060 C 
ATOM     12  O   UNL     1      -1.055   1.412  -1.556  1.00  0.00    -0.275 OA
ATOM     13  C   UNL     1      -0.955   3.335  -0.096  1.00  0.00     0.118 C 
ATOM     14  C   UNL     1       0.901   1.625   2.755  1.00  0.00     0.051 C 
ATOM     15  C   UNL     1       2.037   3.030   1.017  1.00  0.00     0.051 C 
ATOM     16  C   UNL     1       1.448   2.559   3.825  1.00  0.00     0.122 C 
ATOM     17  C   UNL     1       2.647   3.881   2.136  1.00  0.00     0.122 C 
ATOM     18  N   UNL     1       2.711   3.146   3.393  1.00  0.00    -0.338 N 
ATOM     19  C   UNL     1       3.889   3.182   4.143  1.00  0.00     0.256 C 
ATOM     20  O   UNL     1       4.891   3.809   3.809  1.00  0.00    -0.269 OA
BRANCH  19  21
ATOM     21  C   UNL     1       3.951   2.450   5.429  1.00  0.00     0.065 A 
ATOM     22  C   UNL     1       4.020   3.250   6.582  1.00  0.00     0.016 A 
ATOM     23  C   UNL     1       3.833   1.056   5.550  1.00  0.00     0.077 A 
ATOM     24  C   UNL     1       3.918   2.672   7.847  1.00  0.00     0.001 A 
ATOM     25  C   UNL     1       3.674   0.492   6.829  1.00  0.00     0.029 A 
ATOM     26  C   UNL     1       3.724   1.298   7.969  1.00  0.00     0.002 A 
BRANCH  23  27
ATOM     27  N   UNL     1       3.864   0.184   4.431  1.00  0.00    -0.240 N 
ATOM     28  C   UNL     1       4.496   0.359   3.219  1.00  0.00     0.115 A 
ATOM     29  N   UNL     1       3.215  -1.013   4.473  1.00  0.00    -0.177 NA
ATOM     30  C   UNL     1       4.198  -0.733   2.440  1.00  0.00     0.042 A 
ATOM     31  C   UNL     1       3.404  -1.542   3.263  1.00  0.00     0.135 A 
ENDBRANCH  23  27
ENDBRANCH  19  21
ENDBRANCH   5   7
ENDBRANCH   4   5
ENDBRANCH   3   4
ENDBRANCH   2   3
ENDBRANCH   1   2
BRANCH   1  32
ATOM     32  C   UNL     1      -1.737   2.931   5.661  1.00  0.00     0.202 C 
BRANCH  32  33
ATOM     33  C   UNL     1      -0.962   1.877   6.455  1.00  0.00     0.261 C 
BRANCH  33  34
ATOM     34  O   UNL     1      -0.894   0.649   5.710  1.00  0.00    -0.460 OA
BRANCH  34  35
ATOM     35  C   UNL     1      -0.739  -0.445   6.488  1.00  0.00     0.338 C 
ATOM     36  O   UNL     1      -0.380  -0.474   7.655  1.00  0.00    -0.246 OA
BRANCH  35  37
ATOM     37  C   UNL     1      -1.294  -1.615   5.790  1.00  0.00     0.060 A 
ATOM     38  C   UNL     1      -2.600  -2.005   6.110  1.00  0.00     0.016 A 
ATOM     39  C   UNL     1      -0.506  -2.391   4.940  1.00  0.00     0.016 A 
ATOM     40  C   UNL     1      -3.099  -3.216   5.632  1.00  0.00     0.010 A 
ATOM     41  C   UNL     1      -1.014  -3.603   4.454  1.00  0.00     0.010 A 
ATOM     42  C   UNL     1      -2.294  -4.046   4.838  1.00  0.00    -0.014 A 
BRANCH  42  43
ATOM     43  C   UNL     1      -2.737  -5.438   4.561  1.00  0.00     0.031 A 
ATOM     44  C   UNL     1      -2.188  -6.564   5.399  1.00  0.00     0.074 A 
ATOM     45  C   UNL     1      -3.665  -5.700   3.622  1.00  0.00     0.049 A 
ATOM     46  N   UNL     1      -2.486  -7.839   5.373  1.00  0.00    -0.248 NA
ATOM     47  C   UNL     1      -1.171  -6.203   6.399  1.00  0.00     0.031 C 
ATOM     48  C   UNL     1      -4.305  -4.706   2.764  1.00  0.00     0.029 A 
ATOM     49  N   UNL     1      -4.236  -6.891   3.245  1.00  0.00    -0.354 N 
ATOM     50  C   UNL     1      -1.696  -8.430   6.353  1.00  0.00     0.074 A 
ATOM     51  C   UNL     1      -0.881  -7.383   6.928  1.00  0.00     0.031 C 
ATOM     52  C   UNL     1      -5.192  -5.326   1.966  1.00  0.00     0.029 A 
ATOM     53  C   UNL     1      -5.167  -6.762   2.243  1.00  0.00     0.049 A 
ATOM     54  H   UNL     1      -4.001  -7.755   3.654  1.00  0.00     0.167 HD
ATOM     55  C   UNL     1      -1.658  -9.725   6.750  1.00  0.00     0.031 A 
ATOM     56  C   UNL     1      -5.913  -7.693   1.619  1.00  0.00     0.031 A 
ATOM     57  C   UNL     1      -2.452 -10.778   6.178  1.00  0.00     0.049 A 
ATOM     58  C   UNL     1      -5.804  -9.137   2.030  1.00  0.00     0.074 A 
ATOM     59  C   UNL     1      -2.491 -12.117   6.526  1.00  0.00     0.029 A 
ATOM     60  N   UNL     1      -3.341 -10.611   5.129  1.00  0.00    -0.354 N 
ATOM     61  N   UNL     1      -5.080  -9.673   2.982  1.00  0.00    -0.248 NA
ATOM     62  C   UNL     1      -6.624 -10.103   1.282  1.00  0.00     0.031 C 
ATOM     63  C   UNL     1      -3.370 -12.770   5.655  1.00  0.00     0.029 A 
ATOM     64  C   UNL     1      -3.914 -11.828   4.798  1.00  0.00     0.049 A 
ATOM     65  H   UNL     1      -3.537  -9.755   4.684  1.00  0.00     0.167 HD
ATOM     66  C   UNL     1      -5.374 -11.031   2.964  1.00  0.00     0.074 A 
ATOM     67  C   UNL     1      -6.352 -11.236   1.915  1.00  0.00     0.031 C 
ATOM     68  C   UNL     1      -4.881 -12.020   3.749  1.00  0.00     0.031 A 
BRANCH  55  69
ATOM     69  C   UNL     1      -0.696 -10.074   7.850  1.00  0.00    -0.014 A 
ATOM     70  C   UNL     1      -0.942  -9.694   9.179  1.00  0.00     0.009 A 
ATOM     71  C   UNL     1       0.465 -10.806   7.556  1.00  0.00     0.009 A 
ATOM     72  C   UNL     1      -0.025 -10.007  10.185  1.00  0.00     0.001 A 
ATOM     73  C   UNL     1       1.367 -11.139   8.568  1.00  0.00     0.001 A 
ATOM     74  C   UNL     1       1.127 -10.731   9.879  1.00  0.00     0.000 A 
ENDBRANCH  55  69
BRANCH  56  75
ATOM     75  C   UNL     1      -6.844  -7.291   0.533  1.00  0.00    -0.014 A 
ATOM     76  C   UNL     1      -8.232  -7.314   0.735  1.00  0.00     0.009 A 
ATOM     77  C   UNL     1      -6.346  -6.891  -0.717  1.00  0.00     0.009 A 
ATOM     78  C   UNL     1      -9.103  -6.960  -0.299  1.00  0.00     0.001 A 
ATOM     79  C   UNL     1      -7.218  -6.515  -1.741  1.00  0.00     0.001 A 
ATOM     80  C   UNL     1      -8.595  -6.557  -1.533  1.00  0.00     0.000 A 
ENDBRANCH  56  75
BRANCH  68  81
ATOM     81  C   UNL     1      -5.407 -13.409   3.522  1.00  0.00    -0.014 A 
ATOM     82  C   UNL     1      -5.008 -14.164   2.409  1.00  0.00     0.009 A 
ATOM     83  C   UNL     1      -6.280 -13.984   4.459  1.00  0.00     0.009 A 
ATOM     84  C   UNL     1      -5.495 -15.460   2.224  1.00  0.00     0.001 A 
ATOM     85  C   UNL     1      -6.747 -15.288   4.283  1.00  0.00     0.001 A 
ATOM     86  C   UNL     1      -6.361 -16.022   3.163  1.00  0.00     0.000 A 
ENDBRANCH  68  81
ENDBRANCH  42  43
ENDBRANCH  35  37
ENDBRANCH  34  35
ENDBRANCH  33  34
ENDBRANCH  32  33
ENDBRANCH   1  32
TORSDOF 16
