REMARK SMILES C[C@@H](C(=O)OCCOCCOC(=O)c1ccc(-c2c3nc(c(-c4ccccc4)c4ccc([nH]4)c(-c4ccccc4)c4nc(c(-c5ccccc5)c5ccc2[nH]5)C=C4)C=C3)cc1)c1ccc(C[C@@H]2CCC[C@@H]2O)cc1Br
REMARK SMILES IDX 7 1 6 2 5 3 3 4 4 5 2 6 1 7 62 8 63 9 74 10 64 11 73 12
REMARK SMILES IDX 75 13 65 14 66 15 67 16 68 17 71 18 69 19 70 20 72 21 8 23
REMARK SMILES IDX 9 24 10 25 11 26 12 27 13 28 14 29 15 30 61 31 16 32 60 33
REMARK SMILES IDX 17 34 18 35 19 36 54 37 20 38 59 39 53 40 55 41 21 42 58 43
REMARK SMILES IDX 52 44 51 45 22 47 44 48 29 49 43 50 30 51 33 52 42 53 56 54
REMARK SMILES IDX 31 55 32 56 41 58 57 59 34 60 23 61 24 62 28 63 25 64 27 65
REMARK SMILES IDX 26 66 45 67 46 68 50 69 47 70 49 71 48 72 35 73 36 74 40 75
REMARK SMILES IDX 37 76 39 77 38 78
REMARK H PARENT 72 22 55 46 33 57
REMARK Flexibility Score: inf
ROOT
ATOM      1  C   UNL     1      -7.261   2.517  11.117  1.00  0.00     0.202 C 
ENDROOT
BRANCH   1   2
ATOM      2  C   UNL     1      -7.570   3.634  10.115  1.00  0.00     0.261 C 
BRANCH   2   3
ATOM      3  O   UNL     1      -8.780   3.330   9.389  1.00  0.00    -0.463 OA
BRANCH   3   4
ATOM      4  C   UNL     1      -8.720   3.484   8.038  1.00  0.00     0.313 C 
ATOM      5  O   UNL     1      -7.778   4.006   7.450  1.00  0.00    -0.252 OA
BRANCH   4   6
ATOM      6  C   UNL     1      -9.958   2.919   7.320  1.00  0.00     0.127 C 
ATOM      7  C   UNL     1     -10.923   2.123   8.207  1.00  0.00     0.025 C 
BRANCH   6   8
ATOM      8  C   UNL     1      -9.505   2.128   6.091  1.00  0.00    -0.020 A 
ATOM      9  C   UNL     1      -8.926   0.854   6.261  1.00  0.00     0.006 A 
ATOM     10  C   UNL     1      -9.498   2.671   4.796  1.00  0.00     0.022 A 
ATOM     11  C   UNL     1      -8.278   0.195   5.213  1.00  0.00     0.004 A 
ATOM     12  C   UNL     1      -8.860   2.000   3.744  1.00  0.00     0.019 A 
ATOM     13  Br  UNL     1     -10.298   4.342   4.369  1.00  0.00    -0.050 Br
ATOM     14  C   UNL     1      -8.191   0.787   3.955  1.00  0.00    -0.047 A 
BRANCH  14  15
ATOM     15  C   UNL     1      -7.377   0.160   2.850  1.00  0.00     0.041 C 
BRANCH  15  16
ATOM     16  C   UNL     1      -5.841   0.350   2.885  1.00  0.00     0.022 C 
ATOM     17  C   UNL     1      -5.122  -0.360   4.039  1.00  0.00     0.007 C 
ATOM     18  C   UNL     1      -5.303   1.782   2.975  1.00  0.00     0.117 C 
ATOM     19  C   UNL     1      -4.755   0.712   5.069  1.00  0.00     0.003 C 
ATOM     20  C   UNL     1      -5.150   2.053   4.467  1.00  0.00     0.032 C 
BRANCH  18  21
ATOM     21  O   UNL     1      -6.111   2.728   2.303  1.00  0.00    -0.393 OA
ATOM     22  H   UNL     1      -7.001   2.724   2.688  1.00  0.00     0.210 HD
ENDBRANCH  18  21
ENDBRANCH  15  16
ENDBRANCH  14  15
ENDBRANCH   6   8
ENDBRANCH   4   6
ENDBRANCH   3   4
ENDBRANCH   2   3
ENDBRANCH   1   2
BRANCH   1  23
ATOM     23  O   UNL     1      -6.732   1.310  10.558  1.00  0.00    -0.374 OA
BRANCH  23  24
ATOM     24  C   UNL     1      -7.630   0.507   9.798  1.00  0.00     0.202 C 
BRANCH  24  25
ATOM     25  C   UNL     1      -8.511  -0.462  10.594  1.00  0.00     0.261 C 
BRANCH  25  26
ATOM     26  O   UNL     1      -9.310   0.219  11.575  1.00  0.00    -0.460 OA
BRANCH  26  27
ATOM     27  C   UNL     1      -8.891   0.042  12.849  1.00  0.00     0.338 C 
ATOM     28  O   UNL     1      -8.013  -0.715  13.245  1.00  0.00    -0.246 OA
BRANCH  27  29
ATOM     29  C   UNL     1      -9.529   1.029  13.735  1.00  0.00     0.060 A 
ATOM     30  C   UNL     1      -8.686   1.786  14.558  1.00  0.00     0.016 A 
ATOM     31  C   UNL     1     -10.917   1.171  13.815  1.00  0.00     0.016 A 
ATOM     32  C   UNL     1      -9.228   2.647  15.507  1.00  0.00     0.010 A 
ATOM     33  C   UNL     1     -11.460   2.031  14.776  1.00  0.00     0.010 A 
ATOM     34  C   UNL     1     -10.618   2.741  15.650  1.00  0.00    -0.014 A 
BRANCH  34  35
ATOM     35  C   UNL     1     -11.174   3.460  16.821  1.00  0.00     0.031 A 
ATOM     36  C   UNL     1     -11.576   2.668  18.035  1.00  0.00     0.074 A 
ATOM     37  C   UNL     1     -11.268   4.801  16.826  1.00  0.00     0.049 A 
ATOM     38  N   UNL     1     -12.062   3.089  19.175  1.00  0.00    -0.248 NA
ATOM     39  C   UNL     1     -11.402   1.208  17.956  1.00  0.00     0.031 C 
ATOM     40  C   UNL     1     -10.865   5.682  15.731  1.00  0.00     0.029 A 
ATOM     41  N   UNL     1     -11.730   5.654  17.795  1.00  0.00    -0.354 N 
ATOM     42  C   UNL     1     -12.257   1.948  19.944  1.00  0.00     0.074 A 
ATOM     43  C   UNL     1     -11.863   0.816  19.134  1.00  0.00     0.031 C 
ATOM     44  C   UNL     1     -11.097   6.956  16.092  1.00  0.00     0.029 A 
ATOM     45  C   UNL     1     -11.690   6.976  17.428  1.00  0.00     0.049 A 
ATOM     46  H   UNL     1     -12.060   5.348  18.671  1.00  0.00     0.167 HD
ATOM     47  C   UNL     1     -12.718   1.851  21.213  1.00  0.00     0.031 A 
ATOM     48  C   UNL     1     -12.097   8.075  18.091  1.00  0.00     0.031 A 
ATOM     49  C   UNL     1     -13.120   2.973  22.017  1.00  0.00     0.049 A 
ATOM     50  C   UNL     1     -12.681   7.933  19.471  1.00  0.00     0.074 A 
ATOM     51  C   UNL     1     -13.584   2.978  23.321  1.00  0.00     0.029 A 
ATOM     52  N   UNL     1     -13.114   4.291  21.588  1.00  0.00    -0.354 N 
ATOM     53  N   UNL     1     -12.833   6.852  20.197  1.00  0.00    -0.248 NA
ATOM     54  C   UNL     1     -13.144   9.166  20.124  1.00  0.00     0.031 C 
ATOM     55  C   UNL     1     -13.910   4.294  23.663  1.00  0.00     0.029 A 
ATOM     56  C   UNL     1     -13.596   5.114  22.591  1.00  0.00     0.049 A 
ATOM     57  H   UNL     1     -12.813   4.596  20.702  1.00  0.00     0.167 HD
ATOM     58  C   UNL     1     -13.382   7.277  21.401  1.00  0.00     0.074 A 
ATOM     59  C   UNL     1     -13.524   8.716  21.311  1.00  0.00     0.031 C 
ATOM     60  C   UNL     1     -13.733   6.544  22.485  1.00  0.00     0.031 A 
BRANCH  47  61
ATOM     61  C   UNL     1     -12.845   0.473  21.798  1.00  0.00    -0.014 A 
ATOM     62  C   UNL     1     -11.714  -0.266  22.179  1.00  0.00     0.009 A 
ATOM     63  C   UNL     1     -14.118  -0.082  21.996  1.00  0.00     0.009 A 
ATOM     64  C   UNL     1     -11.856  -1.546  22.719  1.00  0.00     0.001 A 
ATOM     65  C   UNL     1     -14.259  -1.351  22.560  1.00  0.00     0.001 A 
ATOM     66  C   UNL     1     -13.127  -2.085  22.913  1.00  0.00     0.000 A 
ENDBRANCH  47  61
BRANCH  48  67
ATOM     67  C   UNL     1     -11.985   9.414  17.455  1.00  0.00    -0.014 A 
ATOM     68  C   UNL     1     -11.068  10.361  17.936  1.00  0.00     0.009 A 
ATOM     69  C   UNL     1     -12.813   9.758  16.376  1.00  0.00     0.009 A 
ATOM     70  C   UNL     1     -11.001  11.633  17.364  1.00  0.00     0.001 A 
ATOM     71  C   UNL     1     -12.725  11.022  15.789  1.00  0.00     0.001 A 
ATOM     72  C   UNL     1     -11.825  11.961  16.289  1.00  0.00     0.000 A 
ENDBRANCH  48  67
BRANCH  60  73
ATOM     73  C   UNL     1     -14.273   7.287  23.674  1.00  0.00    -0.014 A 
ATOM     74  C   UNL     1     -15.566   7.832  23.667  1.00  0.00     0.009 A 
ATOM     75  C   UNL     1     -13.491   7.403  24.834  1.00  0.00     0.009 A 
ATOM     76  C   UNL     1     -16.052   8.508  24.788  1.00  0.00     0.001 A 
ATOM     77  C   UNL     1     -13.990   8.055  25.962  1.00  0.00     0.001 A 
ATOM     78  C   UNL     1     -15.266   8.614  25.936  1.00  0.00     0.000 A 
ENDBRANCH  60  73
ENDBRANCH  34  35
ENDBRANCH  27  29
ENDBRANCH  26  27
ENDBRANCH  25  26
ENDBRANCH  24  25
ENDBRANCH  23  24
ENDBRANCH   1  23
TORSDOF 18
