REMARK SMILES COc1ccc(C2=NN=C[C@@H]2C(=O)OCCOCCOC(=O)c2ccc(-c3c4nc(c(-c5ccccc5)c5ccc([nH]5)c(-c5ccccc5)c5nc(c(-c6ccccc6)c6ccc3[nH]6)C=C5)C=C4)cc2)cc1OC
REMARK SMILES IDX 17 1 16 2 15 3 14 4 12 5 13 6 11 7 7 8 8 9 9 10 10 11 6 12
REMARK SMILES IDX 3 13 4 14 72 15 5 16 71 17 2 18 1 19 73 20 74 21 18 22 19 23
REMARK SMILES IDX 20 24 21 25 22 26 23 27 24 28 70 29 25 30 69 31 26 32 27 33
REMARK SMILES IDX 28 34 63 35 29 36 68 37 62 38 64 39 30 40 67 41 61 42 60 43
REMARK SMILES IDX 31 45 53 46 38 47 52 48 39 49 42 50 51 51 65 52 40 53 41 54
REMARK SMILES IDX 50 56 66 57 43 58 32 59 33 60 37 61 34 62 36 63 35 64 54 65
REMARK SMILES IDX 55 66 59 67 56 68 58 69 57 70 44 71 45 72 49 73 46 74 48 75
REMARK SMILES IDX 47 76
REMARK H PARENT 64 44 42 55
REMARK Flexibility Score: inf
ROOT
ATOM      1  O   UNL     1       0.353   6.022   5.595  1.00  0.00    -0.374 OA
ENDROOT
BRANCH   1   2
ATOM      2  C   UNL     1       1.744   5.890   5.877  1.00  0.00     0.202 C 
BRANCH   2   3
ATOM      3  C   UNL     1       2.694   5.429   4.772  1.00  0.00     0.261 C 
BRANCH   3   4
ATOM      4  O   UNL     1       2.654   6.285   3.622  1.00  0.00    -0.462 OA
BRANCH   4   5
ATOM      5  C   UNL     1       1.944   5.768   2.587  1.00  0.00     0.320 C 
ATOM      6  O   UNL     1       1.383   4.678   2.616  1.00  0.00    -0.251 OA
BRANCH   5   7
ATOM      7  C   UNL     1       1.777   6.719   1.448  1.00  0.00     0.194 C 
ATOM      8  C   UNL     1       2.237   6.143   0.157  1.00  0.00     0.090 C 
ATOM      9  N   UNL     1       3.105   6.888  -0.456  1.00  0.00    -0.154 NA
ATOM     10  N   UNL     1       3.338   8.046   0.353  1.00  0.00    -0.162 NA
ATOM     11  C   UNL     1       2.631   7.931   1.429  1.00  0.00     0.130 C 
BRANCH   8  12
ATOM     12  C   UNL     1       1.831   4.798  -0.249  1.00  0.00     0.003 A 
ATOM     13  C   UNL     1       1.144   2.131  -0.655  1.00  0.00     0.160 A 
ATOM     14  C   UNL     1       0.157   3.131  -0.695  1.00  0.00     0.051 A 
ATOM     15  C   UNL     1       2.479   2.466  -0.387  1.00  0.00     0.161 A 
ATOM     16  C   UNL     1       0.495   4.470  -0.470  1.00  0.00     0.014 A 
ATOM     17  C   UNL     1       2.814   3.809  -0.201  1.00  0.00     0.060 A 
BRANCH  13  18
ATOM     18  O   UNL     1       0.797   0.868  -1.057  1.00  0.00    -0.493 OA
ATOM     19  C   UNL     1       0.090   0.134  -0.059  1.00  0.00     0.278 C 
ENDBRANCH  13  18
BRANCH  15  20
ATOM     20  O   UNL     1       3.567   1.643  -0.295  1.00  0.00    -0.493 OA
ATOM     21  C   UNL     1       3.344   0.264  -0.052  1.00  0.00     0.278 C 
ENDBRANCH  15  20
ENDBRANCH   8  12
ENDBRANCH   5   7
ENDBRANCH   4   5
ENDBRANCH   3   4
ENDBRANCH   2   3
ENDBRANCH   1   2
BRANCH   1  22
ATOM     22  C   UNL     1      -0.142   7.003   4.692  1.00  0.00     0.202 C 
BRANCH  22  23
ATOM     23  C   UNL     1       0.013   8.480   5.017  1.00  0.00     0.261 C 
BRANCH  23  24
ATOM     24  O   UNL     1       1.367   8.852   5.219  1.00  0.00    -0.460 OA
BRANCH  24  25
ATOM     25  C   UNL     1       1.681   8.987   6.523  1.00  0.00     0.338 C 
ATOM     26  O   UNL     1       1.034   8.579   7.486  1.00  0.00    -0.246 OA
BRANCH  25  27
ATOM     27  C   UNL     1       2.851   9.847   6.659  1.00  0.00     0.060 A 
ATOM     28  C   UNL     1       3.253  10.120   7.968  1.00  0.00     0.016 A 
ATOM     29  C   UNL     1       3.267  10.622   5.566  1.00  0.00     0.016 A 
ATOM     30  C   UNL     1       3.854  11.329   8.214  1.00  0.00     0.010 A 
ATOM     31  C   UNL     1       3.857  11.834   5.817  1.00  0.00     0.010 A 
ATOM     32  C   UNL     1       4.047  12.208   7.143  1.00  0.00    -0.014 A 
BRANCH  32  33
ATOM     33  C   UNL     1       4.564  13.519   7.444  1.00  0.00     0.031 A 
ATOM     34  C   UNL     1       5.998  13.480   7.785  1.00  0.00     0.074 A 
ATOM     35  C   UNL     1       3.824  14.637   7.348  1.00  0.00     0.049 A 
ATOM     36  N   UNL     1       6.522  13.628   8.954  1.00  0.00    -0.248 NA
ATOM     37  C   UNL     1       6.932  13.008   6.750  1.00  0.00     0.031 C 
ATOM     38  C   UNL     1       2.491  14.811   6.767  1.00  0.00     0.029 A 
ATOM     39  N   UNL     1       4.180  15.905   7.676  1.00  0.00    -0.354 N 
ATOM     40  C   UNL     1       7.888  13.475   8.761  1.00  0.00     0.074 A 
ATOM     41  C   UNL     1       8.054  12.888   7.457  1.00  0.00     0.031 C 
ATOM     42  C   UNL     1       2.268  16.132   6.562  1.00  0.00     0.029 A 
ATOM     43  C   UNL     1       3.375  16.890   7.125  1.00  0.00     0.049 A 
ATOM     44  H   UNL     1       4.948  16.109   8.258  1.00  0.00     0.167 HD
ATOM     45  C   UNL     1       8.780  14.121   9.559  1.00  0.00     0.031 A 
ATOM     46  C   UNL     1       3.657  18.216   7.081  1.00  0.00     0.031 A 
ATOM     47  C   UNL     1       8.162  14.586  10.776  1.00  0.00     0.049 A 
ATOM     48  C   UNL     1       4.702  18.482   8.100  1.00  0.00     0.074 A 
ATOM     49  C   UNL     1       7.521  13.975  11.835  1.00  0.00     0.029 A 
ATOM     50  N   UNL     1       7.795  15.910  10.820  1.00  0.00    -0.354 N 
ATOM     51  N   UNL     1       4.489  18.393   9.381  1.00  0.00    -0.248 NA
ATOM     52  C   UNL     1       6.096  18.379   7.693  1.00  0.00     0.031 C 
ATOM     53  C   UNL     1       6.450  14.854  12.174  1.00  0.00     0.029 A 
ATOM     54  C   UNL     1       6.536  15.982  11.357  1.00  0.00     0.049 A 
ATOM     55  H   UNL     1       8.340  16.673  10.518  1.00  0.00     0.167 HD
ATOM     56  C   UNL     1       5.626  17.780   9.887  1.00  0.00     0.074 A 
ATOM     57  C   UNL     1       6.620  17.885   8.819  1.00  0.00     0.031 C 
ATOM     58  C   UNL     1       5.563  16.992  11.001  1.00  0.00     0.031 A 
BRANCH  45  59
ATOM     59  C   UNL     1      10.049  14.730   9.017  1.00  0.00    -0.014 A 
ATOM     60  C   UNL     1      10.902  15.398   9.911  1.00  0.00     0.009 A 
ATOM     61  C   UNL     1      10.294  14.927   7.643  1.00  0.00     0.009 A 
ATOM     62  C   UNL     1      11.887  16.280   9.452  1.00  0.00     0.001 A 
ATOM     63  C   UNL     1      11.303  15.773   7.181  1.00  0.00     0.001 A 
ATOM     64  C   UNL     1      12.080  16.474   8.088  1.00  0.00     0.000 A 
ENDBRANCH  45  59
BRANCH  46  65
ATOM     65  C   UNL     1       3.334  19.200   6.024  1.00  0.00    -0.014 A 
ATOM     66  C   UNL     1       3.447  20.579   6.267  1.00  0.00     0.009 A 
ATOM     67  C   UNL     1       3.194  18.783   4.688  1.00  0.00     0.009 A 
ATOM     68  C   UNL     1       3.461  21.500   5.210  1.00  0.00     0.001 A 
ATOM     69  C   UNL     1       3.207  19.702   3.633  1.00  0.00     0.001 A 
ATOM     70  C   UNL     1       3.356  21.059   3.893  1.00  0.00     0.000 A 
ENDBRANCH  46  65
BRANCH  58  71
ATOM     71  C   UNL     1       4.278  16.995  11.794  1.00  0.00    -0.014 A 
ATOM     72  C   UNL     1       3.042  16.577  11.268  1.00  0.00     0.009 A 
ATOM     73  C   UNL     1       4.351  17.291  13.163  1.00  0.00     0.009 A 
ATOM     74  C   UNL     1       1.909  16.487  12.086  1.00  0.00     0.001 A 
ATOM     75  C   UNL     1       3.226  17.181  13.983  1.00  0.00     0.001 A 
ATOM     76  C   UNL     1       2.004  16.785  13.444  1.00  0.00     0.000 A 
ENDBRANCH  58  71
ENDBRANCH  32  33
ENDBRANCH  25  27
ENDBRANCH  24  25
ENDBRANCH  23  24
ENDBRANCH  22  23
ENDBRANCH   1  22
TORSDOF 17
