REMARK SMILES CC[C@@](C)(NC(=O)[C@H]1Cc2[nH]cnc2C[NH2+]1)C(=O)OCCOCCOC(=O)c1ccc(-c2c3nc(c(-c4ccccc4)c4ccc([nH]4)c(-c4ccccc4)c4nc(c(-c5ccccc5)c5ccc2[nH]5)C=C4)C=C3)cc1
REMARK SMILES IDX 22 1 21 2 20 3 19 4 17 5 18 6 3 7 4 8 2 9 1 10 5 11 6 12
REMARK SMILES IDX 7 14 8 15 9 16 16 17 10 18 15 19 11 22 14 23 12 24 13 26
REMARK SMILES IDX 23 27 24 28 25 29 26 30 27 31 28 32 29 33 75 34 30 35 74 36
REMARK SMILES IDX 31 37 32 38 33 39 68 40 34 41 73 42 67 43 69 44 35 45 72 46
REMARK SMILES IDX 66 47 65 48 36 50 58 51 43 52 57 53 44 54 47 55 56 56 70 57
REMARK SMILES IDX 45 58 46 59 55 61 71 62 48 63 37 64 38 65 42 66 39 67 41 68
REMARK SMILES IDX 40 69 59 70 60 71 64 72 61 73 63 74 62 75 49 76 50 77 54 78
REMARK SMILES IDX 51 79 53 80 52 81
REMARK H PARENT 5 13 16 20 16 21 11 25 69 49 47 60
REMARK Flexibility Score: inf
ROOT
ATOM      1  O   UNL     1       4.407  -3.305  -0.612  1.00  0.00    -0.374 OA
ENDROOT
BRANCH   1   2
ATOM      2  C   UNL     1       5.182  -2.859   1.134  1.00  0.00     0.202 C 
BRANCH   2   3
ATOM      3  C   UNL     1       4.691  -1.817   2.364  1.00  0.00     0.261 C 
BRANCH   3   4
ATOM      4  O   UNL     1       3.360  -1.966   2.895  1.00  0.00    -0.462 OA
BRANCH   4   5
ATOM      5  C   UNL     1       2.514  -0.950   2.552  1.00  0.00     0.331 C 
ATOM      6  O   UNL     1       2.812   0.234   2.669  1.00  0.00    -0.249 OA
BRANCH   5   7
ATOM      7  C   UNL     1       1.132  -1.480   2.047  1.00  0.00     0.135 C 
ATOM      8  C   UNL     1       0.129  -1.014   3.126  1.00  0.00     0.047 C 
BRANCH   7   9
ATOM      9  C   UNL     1       0.634  -0.922   0.676  1.00  0.00     0.037 C 
ATOM     10  C   UNL     1       0.998   0.513   0.336  1.00  0.00     0.007 C 
ENDBRANCH   7   9
BRANCH   7  11
ATOM     11  N   UNL     1       1.020  -2.962   1.971  1.00  0.00    -0.335 N 
ATOM     12  C   UNL     1       1.671  -3.842   1.137  1.00  0.00     0.279 C 
ATOM     13  H   UNL     1       0.392  -3.371   2.609  1.00  0.00     0.164 HD
ATOM     14  O   UNL     1       0.908  -4.713   0.726  1.00  0.00    -0.268 OA
BRANCH  12  15
ATOM     15  C   UNL     1       3.276  -3.683   0.871  1.00  0.00     0.278 C 
ATOM     16  C   UNL     1       4.771  -4.936   0.338  1.00  0.00     0.131 C 
ATOM     17  N   UNL     1       3.459  -1.863   0.270  1.00  0.00    -0.331 N 
ATOM     18  C   UNL     1       6.234  -4.166  -0.529  1.00  0.00     0.050 A 
ATOM     19  C   UNL     1       5.023  -1.440  -0.691  1.00  0.00     0.320 C 
ATOM     20  H   UNL     1       3.430  -1.261   1.093  1.00  0.00     0.347 HD
ATOM     21  H   UNL     1       2.694  -1.721  -0.389  1.00  0.00     0.347 HD
ATOM     22  N   UNL     1       7.469  -4.693  -0.716  1.00  0.00    -0.348 N 
ATOM     23  C   UNL     1       6.327  -2.744  -1.003  1.00  0.00     0.116 A 
ATOM     24  C   UNL     1       8.280  -3.636  -1.079  1.00  0.00     0.197 A 
ATOM     25  H   UNL     1       7.733  -5.636  -0.615  1.00  0.00     0.167 HD
ATOM     26  N   UNL     1       7.651  -2.481  -1.251  1.00  0.00    -0.236 NA
ENDBRANCH  12  15
ENDBRANCH   7  11
ENDBRANCH   5   7
ENDBRANCH   4   5
ENDBRANCH   3   4
ENDBRANCH   2   3
ENDBRANCH   1   2
BRANCH   1  27
ATOM     27  C   UNL     1       3.212  -3.977  -1.453  1.00  0.00     0.202 C 
BRANCH  27  28
ATOM     28  C   UNL     1       2.723  -5.519  -1.486  1.00  0.00     0.261 C 
BRANCH  28  29
ATOM     29  O   UNL     1       2.472  -6.096  -0.180  1.00  0.00    -0.460 OA
BRANCH  29  30
ATOM     30  C   UNL     1       3.198  -7.101   0.312  1.00  0.00     0.338 C 
ATOM     31  O   UNL     1       3.882  -7.891  -0.352  1.00  0.00    -0.246 OA
BRANCH  30  32
ATOM     32  C   UNL     1       3.320  -6.888   1.820  1.00  0.00     0.060 A 
ATOM     33  C   UNL     1       4.520  -7.422   2.315  1.00  0.00     0.016 A 
ATOM     34  C   UNL     1       2.133  -7.204   2.459  1.00  0.00     0.016 A 
ATOM     35  C   UNL     1       4.469  -8.732   2.655  1.00  0.00     0.010 A 
ATOM     36  C   UNL     1       2.040  -8.507   2.855  1.00  0.00     0.010 A 
ATOM     37  C   UNL     1       3.197  -9.279   2.731  1.00  0.00    -0.014 A 
BRANCH  37  38
ATOM     38  C   UNL     1       3.125 -10.707   2.618  1.00  0.00     0.031 A 
ATOM     39  C   UNL     1       3.707 -11.364   3.796  1.00  0.00     0.074 A 
ATOM     40  C   UNL     1       2.526 -11.242   1.540  1.00  0.00     0.049 A 
ATOM     41  N   UNL     1       4.632 -12.260   3.853  1.00  0.00    -0.248 NA
ATOM     42  C   UNL     1       3.344 -10.767   5.099  1.00  0.00     0.031 C 
ATOM     43  C   UNL     1       1.787 -10.545   0.478  1.00  0.00     0.029 A 
ATOM     44  N   UNL     1       2.269 -12.546   1.280  1.00  0.00    -0.354 N 
ATOM     45  C   UNL     1       4.807 -12.483   5.213  1.00  0.00     0.074 A 
ATOM     46  C   UNL     1       4.196 -11.383   5.908  1.00  0.00     0.031 C 
ATOM     47  C   UNL     1       0.920 -11.408  -0.088  1.00  0.00     0.029 A 
ATOM     48  C   UNL     1       1.127 -12.714   0.511  1.00  0.00     0.049 A 
ATOM     49  H   UNL     1       2.829 -13.290   1.601  1.00  0.00     0.167 HD
ATOM     50  C   UNL     1       5.091 -13.722   5.687  1.00  0.00     0.031 A 
ATOM     51  C   UNL     1       0.318 -13.797   0.520  1.00  0.00     0.031 A 
ATOM     52  C   UNL     1       5.720 -14.551   4.697  1.00  0.00     0.049 A 
ATOM     53  C   UNL     1       1.052 -14.897   1.196  1.00  0.00     0.074 A 
ATOM     54  C   UNL     1       6.885 -14.453   3.963  1.00  0.00     0.029 A 
ATOM     55  N   UNL     1       4.937 -15.481   4.055  1.00  0.00    -0.354 N 
ATOM     56  N   UNL     1       2.111 -15.472   0.701  1.00  0.00    -0.248 NA
ATOM     57  C   UNL     1       0.882 -15.053   2.635  1.00  0.00     0.031 C 
ATOM     58  C   UNL     1       6.576 -15.010   2.690  1.00  0.00     0.029 A 
ATOM     59  C   UNL     1       5.250 -15.448   2.719  1.00  0.00     0.049 A 
ATOM     60  H   UNL     1       4.270 -16.068   4.479  1.00  0.00     0.167 HD
ATOM     61  C   UNL     1       2.944 -15.695   1.791  1.00  0.00     0.074 A 
ATOM     62  C   UNL     1       2.087 -15.531   2.962  1.00  0.00     0.031 C 
ATOM     63  C   UNL     1       4.304 -15.694   1.651  1.00  0.00     0.031 A 
BRANCH  50  64
ATOM     64  C   UNL     1       4.364 -14.263   6.891  1.00  0.00    -0.014 A 
ATOM     65  C   UNL     1       4.764 -15.492   7.427  1.00  0.00     0.009 A 
ATOM     66  C   UNL     1       3.141 -13.733   7.361  1.00  0.00     0.009 A 
ATOM     67  C   UNL     1       3.961 -16.166   8.354  1.00  0.00     0.001 A 
ATOM     68  C   UNL     1       2.363 -14.375   8.321  1.00  0.00     0.001 A 
ATOM     69  C   UNL     1       2.763 -15.609   8.800  1.00  0.00     0.000 A 
ENDBRANCH  50  64
BRANCH  51  70
ATOM     70  C   UNL     1      -1.148 -13.803   0.322  1.00  0.00    -0.014 A 
ATOM     71  C   UNL     1      -1.818 -14.995   0.021  1.00  0.00     0.009 A 
ATOM     72  C   UNL     1      -1.932 -12.672   0.631  1.00  0.00     0.009 A 
ATOM     73  C   UNL     1      -3.217 -15.056   0.044  1.00  0.00     0.001 A 
ATOM     74  C   UNL     1      -3.328 -12.729   0.641  1.00  0.00     0.001 A 
ATOM     75  C   UNL     1      -3.971 -13.927   0.359  1.00  0.00     0.000 A 
ENDBRANCH  51  70
BRANCH  63  76
ATOM     76  C   UNL     1       4.858 -15.658   0.245  1.00  0.00    -0.014 A 
ATOM     77  C   UNL     1       4.646 -14.572  -0.624  1.00  0.00     0.009 A 
ATOM     78  C   UNL     1       5.748 -16.664  -0.157  1.00  0.00     0.009 A 
ATOM     79  C   UNL     1       5.277 -14.513  -1.871  1.00  0.00     0.001 A 
ATOM     80  C   UNL     1       6.395 -16.594  -1.394  1.00  0.00     0.001 A 
ATOM     81  C   UNL     1       6.155 -15.523  -2.253  1.00  0.00     0.000 A 
ENDBRANCH  63  76
ENDBRANCH  37  38
ENDBRANCH  30  32
ENDBRANCH  29  30
ENDBRANCH  28  29
ENDBRANCH  27  28
ENDBRANCH   1  27
TORSDOF 17
