REMARK SMILES C=C(C)COc1ccc2nc(C)n(-c3cccc(C(=O)OCCOCCOC(=O)c4ccc(-c5c6nc(c(-c7ccccc7)c7ccc([nH]7)c(-c7ccccc7)c7nc(c(-c8ccccc8)c8ccc5[nH]8)C=C7)C=C6)cc4)c3)c(=O)c2c1
REMARK SMILES IDX 23 1 22 2 21 3 19 4 20 5 18 6 14 7 15 8 78 9 16 10 17 11
REMARK SMILES IDX 13 12 6 13 7 14 82 15 8 16 81 17 9 18 79 19 10 20 80 21
REMARK SMILES IDX 11 22 12 23 5 24 4 25 2 26 1 27 3 28 24 29 25 30 26 31 27 32
REMARK SMILES IDX 28 33 29 34 30 35 31 36 77 37 32 38 76 39 33 40 34 41 35 42
REMARK SMILES IDX 70 43 36 44 75 45 69 46 71 47 37 48 74 49 68 50 67 51 38 53
REMARK SMILES IDX 60 54 45 55 59 56 46 57 49 58 58 59 72 60 47 61 48 62 57 64
REMARK SMILES IDX 73 65 50 66 39 67 40 68 44 69 41 70 43 71 42 72 61 73 62 74
REMARK SMILES IDX 66 75 63 76 65 77 64 78 51 79 52 80 56 81 53 82 55 83 54 84
REMARK H PARENT 71 52 49 63
REMARK Flexibility Score: inf
ROOT
ATOM      1  C   UNL     1      -2.566   1.796 -12.931  1.00  0.00     0.202 C 
ENDROOT
BRANCH   1   2
ATOM      2  C   UNL     1      -1.181   1.213 -12.629  1.00  0.00     0.261 C 
BRANCH   2   3
ATOM      3  O   UNL     1      -0.548   1.889 -11.530  1.00  0.00    -0.460 OA
BRANCH   3   4
ATOM      4  C   UNL     1       0.549   2.618 -11.859  1.00  0.00     0.338 C 
ATOM      5  O   UNL     1       1.111   2.643 -12.941  1.00  0.00    -0.246 OA
BRANCH   4   6
ATOM      6  C   UNL     1       0.870   3.566 -10.764  1.00  0.00     0.062 A 
ATOM      7  C   UNL     1       0.892   4.231  -8.427  1.00  0.00     0.051 A 
ATOM      8  C   UNL     1       1.408   5.480  -8.806  1.00  0.00     0.027 A 
ATOM      9  C   UNL     1       0.636   3.268  -9.417  1.00  0.00     0.042 A 
ATOM     10  C   UNL     1       1.636   5.778 -10.150  1.00  0.00     0.003 A 
ATOM     11  C   UNL     1       1.364   4.824 -11.127  1.00  0.00     0.016 A 
BRANCH   7  12
ATOM     12  N   UNL     1       0.645   3.930  -7.050  1.00  0.00    -0.264 N 
ATOM     13  C   UNL     1       1.298   1.137  -3.130  1.00  0.00     0.120 A 
ATOM     14  C   UNL     1       0.559   2.066  -2.397  1.00  0.00     0.049 A 
ATOM     15  C   UNL     1       1.545   1.351  -4.482  1.00  0.00     0.062 A 
ATOM     16  C   UNL     1       0.023   3.186  -3.028  1.00  0.00     0.033 A 
ATOM     17  C   UNL     1       1.001   2.484  -5.105  1.00  0.00     0.070 A 
ATOM     18  C   UNL     1       0.245   3.404  -4.386  1.00  0.00     0.078 A 
ATOM     19  C   UNL     1       1.218   2.753  -6.537  1.00  0.00     0.266 A 
ATOM     20  N   UNL     1      -0.308   4.539  -4.972  1.00  0.00    -0.234 NA
ATOM     21  O   UNL     1       1.901   1.955  -7.178  1.00  0.00    -0.268 OA
ATOM     22  C   UNL     1      -0.112   4.758  -6.234  1.00  0.00     0.113 A 
ATOM     23  C   UNL     1      -0.827   5.976  -6.787  1.00  0.00     0.088 C 
BRANCH  13  24
ATOM     24  O   UNL     1       1.873   0.057  -2.515  1.00  0.00    -0.489 OA
BRANCH  24  25
ATOM     25  C   UNL     1       0.912  -0.964  -2.191  1.00  0.00     0.260 C 
BRANCH  25  26
ATOM     26  C   UNL     1       0.232  -0.715  -0.860  1.00  0.00    -0.043 C 
ATOM     27  C   UNL     1       0.913  -0.372   0.247  1.00  0.00     0.011 C 
ATOM     28  C   UNL     1      -1.267  -0.817  -0.866  1.00  0.00     0.042 C 
ENDBRANCH  25  26
ENDBRANCH  24  25
ENDBRANCH  13  24
ENDBRANCH   7  12
ENDBRANCH   4   6
ENDBRANCH   3   4
ENDBRANCH   2   3
ENDBRANCH   1   2
BRANCH   1  29
ATOM     29  O   UNL     1      -2.626   3.168 -13.319  1.00  0.00    -0.374 OA
BRANCH  29  30
ATOM     30  C   UNL     1      -2.502   4.155 -12.296  1.00  0.00     0.202 C 
BRANCH  30  31
ATOM     31  C   UNL     1      -3.727   4.412 -11.409  1.00  0.00     0.261 C 
BRANCH  31  32
ATOM     32  O   UNL     1      -4.071   3.277 -10.598  1.00  0.00    -0.460 OA
BRANCH  32  33
ATOM     33  C   UNL     1      -5.172   2.596 -11.000  1.00  0.00     0.338 C 
ATOM     34  O   UNL     1      -5.914   2.868 -11.931  1.00  0.00    -0.246 OA
BRANCH  33  35
ATOM     35  C   UNL     1      -5.261   1.330 -10.245  1.00  0.00     0.060 A 
ATOM     36  C   UNL     1      -5.140   1.307  -8.855  1.00  0.00     0.016 A 
ATOM     37  C   UNL     1      -5.491   0.146 -10.958  1.00  0.00     0.016 A 
ATOM     38  C   UNL     1      -5.271   0.092  -8.179  1.00  0.00     0.010 A 
ATOM     39  C   UNL     1      -5.633  -1.065 -10.278  1.00  0.00     0.010 A 
ATOM     40  C   UNL     1      -5.538  -1.099  -8.881  1.00  0.00    -0.014 A 
BRANCH  40  41
ATOM     41  C   UNL     1      -5.828  -2.342  -8.122  1.00  0.00     0.031 A 
ATOM     42  C   UNL     1      -4.853  -3.479  -8.070  1.00  0.00     0.074 A 
ATOM     43  C   UNL     1      -6.988  -2.419  -7.441  1.00  0.00     0.049 A 
ATOM     44  N   UNL     1      -4.885  -4.547  -7.312  1.00  0.00    -0.248 NA
ATOM     45  C   UNL     1      -3.698  -3.419  -8.978  1.00  0.00     0.031 C 
ATOM     46  C   UNL     1      -8.031  -1.392  -7.450  1.00  0.00     0.029 A 
ATOM     47  N   UNL     1      -7.472  -3.380  -6.588  1.00  0.00    -0.354 N 
ATOM     48  C   UNL     1      -3.746  -5.274  -7.633  1.00  0.00     0.074 A 
ATOM     49  C   UNL     1      -3.073  -4.556  -8.694  1.00  0.00     0.031 C 
ATOM     50  C   UNL     1      -9.000  -1.745  -6.594  1.00  0.00     0.029 A 
ATOM     51  C   UNL     1      -8.668  -3.039  -6.002  1.00  0.00     0.049 A 
ATOM     52  H   UNL     1      -7.007  -4.230  -6.412  1.00  0.00     0.167 HD
ATOM     53  C   UNL     1      -3.295  -6.421  -7.072  1.00  0.00     0.031 A 
ATOM     54  C   UNL     1      -9.408  -3.678  -5.075  1.00  0.00     0.031 A 
ATOM     55  C   UNL     1      -3.987  -7.142  -6.033  1.00  0.00     0.049 A 
ATOM     56  C   UNL     1      -8.900  -4.968  -4.492  1.00  0.00     0.074 A 
ATOM     57  C   UNL     1      -3.590  -8.298  -5.383  1.00  0.00     0.029 A 
ATOM     58  N   UNL     1      -5.219  -6.790  -5.502  1.00  0.00    -0.354 N 
ATOM     59  N   UNL     1      -7.775  -5.596  -4.736  1.00  0.00    -0.248 NA
ATOM     60  C   UNL     1      -9.749  -5.627  -3.489  1.00  0.00     0.031 C 
ATOM     61  C   UNL     1      -4.613  -8.688  -4.518  1.00  0.00     0.029 A 
ATOM     62  C   UNL     1      -5.607  -7.723  -4.554  1.00  0.00     0.049 A 
ATOM     63  H   UNL     1      -5.739  -5.995  -5.759  1.00  0.00     0.167 HD
ATOM     64  C   UNL     1      -7.764  -6.701  -3.895  1.00  0.00     0.074 A 
ATOM     65  C   UNL     1      -8.988  -6.650  -3.122  1.00  0.00     0.031 C 
ATOM     66  C   UNL     1      -6.820  -7.666  -3.776  1.00  0.00     0.031 A 
BRANCH  53  67
ATOM     67  C   UNL     1      -1.980  -6.979  -7.548  1.00  0.00    -0.014 A 
ATOM     68  C   UNL     1      -1.933  -8.234  -8.178  1.00  0.00     0.009 A 
ATOM     69  C   UNL     1      -0.772  -6.325  -7.256  1.00  0.00     0.009 A 
ATOM     70  C   UNL     1      -0.709  -8.832  -8.483  1.00  0.00     0.001 A 
ATOM     71  C   UNL     1       0.451  -6.911  -7.592  1.00  0.00     0.001 A 
ATOM     72  C   UNL     1       0.482  -8.168  -8.192  1.00  0.00     0.000 A 
ENDBRANCH  53  67
BRANCH  54  73
ATOM     73  C   UNL     1     -10.677  -3.060  -4.602  1.00  0.00    -0.014 A 
ATOM     74  C   UNL     1     -11.766  -2.904  -5.476  1.00  0.00     0.009 A 
ATOM     75  C   UNL     1     -10.790  -2.571  -3.291  1.00  0.00     0.009 A 
ATOM     76  C   UNL     1     -12.925  -2.247  -5.060  1.00  0.00     0.001 A 
ATOM     77  C   UNL     1     -11.966  -1.948  -2.865  1.00  0.00     0.001 A 
ATOM     78  C   UNL     1     -13.027  -1.775  -3.753  1.00  0.00     0.000 A 
ENDBRANCH  54  73
BRANCH  66  79
ATOM     79  C   UNL     1      -7.030  -8.750  -2.750  1.00  0.00    -0.014 A 
ATOM     80  C   UNL     1      -6.135  -8.865  -1.672  1.00  0.00     0.009 A 
ATOM     81  C   UNL     1      -8.025  -9.727  -2.907  1.00  0.00     0.009 A 
ATOM     82  C   UNL     1      -6.214  -9.944  -0.790  1.00  0.00     0.001 A 
ATOM     83  C   UNL     1      -8.127 -10.785  -2.000  1.00  0.00     0.001 A 
ATOM     84  C   UNL     1      -7.213 -10.901  -0.952  1.00  0.00     0.000 A 
ENDBRANCH  66  79
ENDBRANCH  40  41
ENDBRANCH  33  35
ENDBRANCH  32  33
ENDBRANCH  31  32
ENDBRANCH  30  31
ENDBRANCH  29  30
ENDBRANCH   1  29
TORSDOF 18
