REMARK SMILES CC[C@H](C)CN(CC)c1nc(C(=O)OCCOCCOC(=O)c2ccc(-c3c4nc(c(-c5ccccc5)c5ccc([nH]5)c(-c5ccccc5)c5nc(c(-c6ccccc6)c6ccc3[nH]6)C=C5)C=C4)cc2)cc2ccccc12
REMARK SMILES IDX 16 1 15 2 14 3 12 4 13 5 11 6 9 7 10 8 77 9 72 10 76 11
REMARK SMILES IDX 71 12 73 13 75 14 74 15 6 16 5 17 3 18 4 19 2 20 1 21 7 22
REMARK SMILES IDX 8 23 17 24 18 25 19 26 20 27 21 28 22 29 23 30 24 31 70 32
REMARK SMILES IDX 25 33 69 34 26 35 27 36 28 37 63 38 29 39 68 40 62 41 64 42
REMARK SMILES IDX 30 43 67 44 61 45 60 46 31 48 53 49 38 50 52 51 39 52 42 53
REMARK SMILES IDX 51 54 65 55 40 56 41 57 50 59 66 60 43 61 32 62 33 63 37 64
REMARK SMILES IDX 34 65 36 66 35 67 54 68 55 69 59 70 56 71 58 72 57 73 44 74
REMARK SMILES IDX 45 75 49 76 46 77 48 78 47 79
REMARK H PARENT 64 47 42 58
REMARK Flexibility Score: inf
ROOT
ATOM      1  C   UNL     1      -1.077   4.658   8.020  1.00  0.00     0.202 C 
ENDROOT
BRANCH   1   2
ATOM      2  C   UNL     1       0.341   4.882   7.483  1.00  0.00     0.261 C 
BRANCH   2   3
ATOM      3  O   UNL     1       0.476   4.483   6.110  1.00  0.00    -0.459 OA
BRANCH   3   4
ATOM      4  C   UNL     1       1.141   3.311   5.954  1.00  0.00     0.357 C 
ATOM      5  O   UNL     1       1.696   2.673   6.840  1.00  0.00    -0.244 OA
BRANCH   4   6
ATOM      6  C   UNL     1       0.986   2.751   4.589  1.00  0.00     0.151 A 
ATOM      7  C   UNL     1       1.403   2.919   2.312  1.00  0.00     0.137 A 
ATOM      8  N   UNL     1       1.216   3.534   3.506  1.00  0.00    -0.223 NA
ATOM      9  C   UNL     1       1.512   1.496   2.261  1.00  0.00     0.024 A 
ATOM     10  C   UNL     1       1.014   0.744   3.342  1.00  0.00    -0.012 A 
ATOM     11  C   UNL     1       2.157   0.750   1.250  1.00  0.00     0.012 A 
ATOM     12  C   UNL     1       0.743   1.391   4.530  1.00  0.00     0.045 A 
ATOM     13  C   UNL     1       0.885  -0.652   3.260  1.00  0.00     0.009 A 
ATOM     14  C   UNL     1       2.066  -0.643   1.177  1.00  0.00     0.001 A 
ATOM     15  C   UNL     1       1.376  -1.339   2.157  1.00  0.00     0.001 A 
BRANCH   7  16
ATOM     16  N   UNL     1       1.507   3.720   1.156  1.00  0.00    -0.356 N 
BRANCH  16  17
ATOM     17  C   UNL     1       0.440   3.672   0.104  1.00  0.00     0.121 C 
BRANCH  17  18
ATOM     18  C   UNL     1       0.387   2.382  -0.743  1.00  0.00     0.005 C 
ATOM     19  C   UNL     1      -0.750   1.467  -0.268  1.00  0.00     0.009 C 
BRANCH  18  20
ATOM     20  C   UNL     1       0.290   2.604  -2.268  1.00  0.00     0.002 C 
ATOM     21  C   UNL     1       0.714   1.345  -3.033  1.00  0.00     0.004 C 
ENDBRANCH  18  20
ENDBRANCH  17  18
ENDBRANCH  16  17
BRANCH  16  22
ATOM     22  C   UNL     1       2.087   5.061   1.384  1.00  0.00     0.114 C 
ATOM     23  C   UNL     1       1.100   6.093   1.933  1.00  0.00     0.027 C 
ENDBRANCH  16  22
ENDBRANCH   7  16
ENDBRANCH   4   6
ENDBRANCH   3   4
ENDBRANCH   2   3
ENDBRANCH   1   2
BRANCH   1  24
ATOM     24  O   UNL     1      -1.609   3.337   7.941  1.00  0.00    -0.374 OA
BRANCH  24  25
ATOM     25  C   UNL     1      -2.120   2.903   6.680  1.00  0.00     0.202 C 
BRANCH  25  26
ATOM     26  C   UNL     1      -3.476   3.462   6.235  1.00  0.00     0.261 C 
BRANCH  26  27
ATOM     27  O   UNL     1      -3.415   4.872   5.956  1.00  0.00    -0.460 OA
BRANCH  27  28
ATOM     28  C   UNL     1      -4.091   5.653   6.832  1.00  0.00     0.338 C 
ATOM     29  O   UNL     1      -4.795   5.292   7.758  1.00  0.00    -0.246 OA
BRANCH  28  30
ATOM     30  C   UNL     1      -3.712   7.064   6.632  1.00  0.00     0.060 A 
ATOM     31  C   UNL     1      -3.262   7.779   7.750  1.00  0.00     0.016 A 
ATOM     32  C   UNL     1      -3.857   7.695   5.396  1.00  0.00     0.016 A 
ATOM     33  C   UNL     1      -3.004   9.143   7.649  1.00  0.00     0.010 A 
ATOM     34  C   UNL     1      -3.608   9.067   5.298  1.00  0.00     0.010 A 
ATOM     35  C   UNL     1      -3.215   9.802   6.431  1.00  0.00    -0.014 A 
BRANCH  35  36
ATOM     36  C   UNL     1      -3.159  11.281   6.378  1.00  0.00     0.031 A 
ATOM     37  C   UNL     1      -4.444  12.061   6.408  1.00  0.00     0.074 A 
ATOM     38  C   UNL     1      -1.979  11.923   6.323  1.00  0.00     0.049 A 
ATOM     39  N   UNL     1      -4.632  13.354   6.328  1.00  0.00    -0.248 NA
ATOM     40  C   UNL     1      -5.684  11.278   6.546  1.00  0.00     0.031 C 
ATOM     41  C   UNL     1      -0.665  11.282   6.335  1.00  0.00     0.029 A 
ATOM     42  N   UNL     1      -1.701  13.264   6.238  1.00  0.00    -0.354 N 
ATOM     43  C   UNL     1      -6.007  13.539   6.394  1.00  0.00     0.074 A 
ATOM     44  C   UNL     1      -6.608  12.226   6.495  1.00  0.00     0.031 C 
ATOM     45  C   UNL     1       0.282  12.232   6.253  1.00  0.00     0.029 A 
ATOM     46  C   UNL     1      -0.360  13.540   6.146  1.00  0.00     0.049 A 
ATOM     47  H   UNL     1      -2.397  13.960   6.244  1.00  0.00     0.167 HD
ATOM     48  C   UNL     1      -6.707  14.698   6.377  1.00  0.00     0.031 A 
ATOM     49  C   UNL     1       0.276  14.714   5.971  1.00  0.00     0.031 A 
ATOM     50  C   UNL     1      -6.110  16.001   6.263  1.00  0.00     0.049 A 
ATOM     51  C   UNL     1      -0.530  15.982   5.873  1.00  0.00     0.074 A 
ATOM     52  C   UNL     1      -6.733  17.237   6.251  1.00  0.00     0.029 A 
ATOM     53  N   UNL     1      -4.751  16.237   6.133  1.00  0.00    -0.354 N 
ATOM     54  N   UNL     1      -1.828  16.148   5.959  1.00  0.00    -0.248 NA
ATOM     55  C   UNL     1       0.222  17.228   5.659  1.00  0.00     0.031 C 
ATOM     56  C   UNL     1      -5.755  18.217   6.056  1.00  0.00     0.029 A 
ATOM     57  C   UNL     1      -4.517  17.596   6.010  1.00  0.00     0.049 A 
ATOM     58  H   UNL     1      -4.054  15.541   6.128  1.00  0.00     0.167 HD
ATOM     59  C   UNL     1      -2.046  17.515   5.841  1.00  0.00     0.074 A 
ATOM     60  C   UNL     1      -0.745  18.134   5.689  1.00  0.00     0.031 C 
ATOM     61  C   UNL     1      -3.217  18.197   5.859  1.00  0.00     0.031 A 
BRANCH  48  62
ATOM     62  C   UNL     1      -8.206  14.602   6.445  1.00  0.00    -0.014 A 
ATOM     63  C   UNL     1      -8.861  14.227   7.629  1.00  0.00     0.009 A 
ATOM     64  C   UNL     1      -8.975  14.922   5.316  1.00  0.00     0.009 A 
ATOM     65  C   UNL     1     -10.255  14.144   7.669  1.00  0.00     0.001 A 
ATOM     66  C   UNL     1     -10.368  14.866   5.367  1.00  0.00     0.001 A 
ATOM     67  C   UNL     1     -11.007  14.468   6.540  1.00  0.00     0.000 A 
ENDBRANCH  48  62
BRANCH  49  68
ATOM     68  C   UNL     1       1.757  14.749   5.854  1.00  0.00    -0.014 A 
ATOM     69  C   UNL     1       2.542  15.322   6.865  1.00  0.00     0.009 A 
ATOM     70  C   UNL     1       2.392  14.221   4.718  1.00  0.00     0.009 A 
ATOM     71  C   UNL     1       3.931  15.388   6.730  1.00  0.00     0.001 A 
ATOM     72  C   UNL     1       3.782  14.263   4.599  1.00  0.00     0.001 A 
ATOM     73  C   UNL     1       4.550  14.854   5.601  1.00  0.00     0.000 A 
ENDBRANCH  49  68
BRANCH  61  74
ATOM     74  C   UNL     1      -3.144  19.695   5.753  1.00  0.00    -0.014 A 
ATOM     75  C   UNL     1      -2.816  20.328   4.545  1.00  0.00     0.009 A 
ATOM     76  C   UNL     1      -3.452  20.484   6.873  1.00  0.00     0.009 A 
ATOM     77  C   UNL     1      -2.765  21.722   4.470  1.00  0.00     0.001 A 
ATOM     78  C   UNL     1      -3.429  21.877   6.787  1.00  0.00     0.001 A 
ATOM     79  C   UNL     1      -3.076  22.494   5.588  1.00  0.00     0.000 A 
ENDBRANCH  61  74
ENDBRANCH  35  36
ENDBRANCH  28  30
ENDBRANCH  27  28
ENDBRANCH  26  27
ENDBRANCH  25  26
ENDBRANCH  24  25
ENDBRANCH   1  24
TORSDOF 19
