REMARK SMILES O=C(OCCOCCOC(=O)c1cc(F)ccc1N1CCCc2ccccc21)c1ccc(-c2c3nc(c(-c4ccccc4)c4ccc([nH]4)c(-c4ccccc4)c4nc(c(-c5ccccc5)c5ccc2[nH]5)C=C4)C=C3)cc1
REMARK SMILES IDX 5 1 4 2 3 3 2 4 1 5 29 6 30 7 76 8 31 9 75 10 32 11 33 12
REMARK SMILES IDX 34 13 69 14 35 15 74 16 68 17 70 18 36 19 73 20 67 21 66 22
REMARK SMILES IDX 37 24 59 25 44 26 58 27 45 28 48 29 57 30 71 31 46 32 47 33
REMARK SMILES IDX 56 35 72 36 49 37 38 38 39 39 43 40 40 41 42 42 41 43 60 44
REMARK SMILES IDX 61 45 65 46 62 47 64 48 63 49 50 50 51 51 55 52 52 53 54 54
REMARK SMILES IDX 53 55 6 56 7 57 8 58 9 59 10 60 11 61 12 62 13 63 18 64
REMARK SMILES IDX 14 65 17 66 15 67 16 68 19 69 20 70 28 71 21 72 23 73 27 74
REMARK SMILES IDX 22 75 24 76 26 77 25 78
REMARK H PARENT 70 23 48 34
REMARK Flexibility Score: inf
ROOT
ATOM      1  C   UNL     1       3.820   0.286  -1.168  1.00  0.00     0.202 C 
ENDROOT
BRANCH   1   2
ATOM      2  C   UNL     1       2.872  -0.538  -0.274  1.00  0.00     0.261 C 
BRANCH   2   3
ATOM      3  O   UNL     1       1.573   0.044  -0.059  1.00  0.00    -0.460 OA
BRANCH   3   4
ATOM      4  C   UNL     1       1.155   0.432   1.178  1.00  0.00     0.338 C 
ATOM      5  O   UNL     1       0.007   0.244   1.556  1.00  0.00    -0.246 OA
BRANCH   4   6
ATOM      6  C   UNL     1       2.126   1.154   2.039  1.00  0.00     0.060 A 
ATOM      7  C   UNL     1       3.209   1.797   1.468  1.00  0.00     0.016 A 
ATOM      8  C   UNL     1       1.957   1.267   3.414  1.00  0.00     0.016 A 
ATOM      9  C   UNL     1       4.258   2.291   2.196  1.00  0.00     0.010 A 
ATOM     10  C   UNL     1       2.895   1.997   4.157  1.00  0.00     0.010 A 
ATOM     11  C   UNL     1       4.066   2.489   3.546  1.00  0.00    -0.014 A 
BRANCH  11  12
ATOM     12  C   UNL     1       5.127   3.203   4.275  1.00  0.00     0.031 A 
ATOM     13  C   UNL     1       5.806   2.492   5.396  1.00  0.00     0.074 A 
ATOM     14  C   UNL     1       5.522   4.426   3.863  1.00  0.00     0.049 A 
ATOM     15  N   UNL     1       6.626   2.963   6.292  1.00  0.00    -0.248 NA
ATOM     16  C   UNL     1       5.506   1.056   5.539  1.00  0.00     0.031 C 
ATOM     17  C   UNL     1       5.021   5.142   2.679  1.00  0.00     0.029 A 
ATOM     18  N   UNL     1       6.464   5.277   4.374  1.00  0.00    -0.354 N 
ATOM     19  C   UNL     1       6.875   1.904   7.152  1.00  0.00     0.074 A 
ATOM     20  C   UNL     1       6.123   0.767   6.673  1.00  0.00     0.031 C 
ATOM     21  C   UNL     1       5.696   6.291   2.531  1.00  0.00     0.029 A 
ATOM     22  C   UNL     1       6.583   6.453   3.669  1.00  0.00     0.049 A 
ATOM     23  H   UNL     1       7.005   5.068   5.169  1.00  0.00     0.167 HD
ATOM     24  C   UNL     1       7.653   1.903   8.257  1.00  0.00     0.031 A 
ATOM     25  C   UNL     1       7.290   7.560   3.952  1.00  0.00     0.031 A 
ATOM     26  C   UNL     1       8.394   3.056   8.685  1.00  0.00     0.049 A 
ATOM     27  C   UNL     1       8.075   7.562   5.232  1.00  0.00     0.074 A 
ATOM     28  C   UNL     1       9.183   3.213   9.807  1.00  0.00     0.029 A 
ATOM     29  N   UNL     1       8.438   4.257   7.985  1.00  0.00    -0.354 N 
ATOM     30  N   UNL     1       8.234   6.593   6.104  1.00  0.00    -0.248 NA
ATOM     31  C   UNL     1       8.763   8.809   5.578  1.00  0.00     0.031 C 
ATOM     32  C   UNL     1       9.661   4.528   9.813  1.00  0.00     0.029 A 
ATOM     33  C   UNL     1       9.230   5.167   8.658  1.00  0.00     0.049 A 
ATOM     34  H   UNL     1       7.973   4.432   7.135  1.00  0.00     0.167 HD
ATOM     35  C   UNL     1       9.069   7.100   7.086  1.00  0.00     0.074 A 
ATOM     36  C   UNL     1       9.392   8.459   6.691  1.00  0.00     0.031 C 
ATOM     37  C   UNL     1       9.530   6.505   8.214  1.00  0.00     0.031 A 
BRANCH  24  38
ATOM     38  C   UNL     1       7.633   0.658   9.095  1.00  0.00    -0.014 A 
ATOM     39  C   UNL     1       8.197  -0.549   8.651  1.00  0.00     0.009 A 
ATOM     40  C   UNL     1       6.968   0.681  10.331  1.00  0.00     0.009 A 
ATOM     41  C   UNL     1       8.046  -1.718   9.402  1.00  0.00     0.001 A 
ATOM     42  C   UNL     1       6.849  -0.480  11.095  1.00  0.00     0.001 A 
ATOM     43  C   UNL     1       7.374  -1.681  10.623  1.00  0.00     0.000 A 
ENDBRANCH  24  38
BRANCH  25  44
ATOM     44  C   UNL     1       7.237   8.756   3.066  1.00  0.00    -0.014 A 
ATOM     45  C   UNL     1       8.390   9.209   2.406  1.00  0.00     0.009 A 
ATOM     46  C   UNL     1       6.040   9.470   2.890  1.00  0.00     0.009 A 
ATOM     47  C   UNL     1       8.353  10.367   1.622  1.00  0.00     0.001 A 
ATOM     48  C   UNL     1       5.997  10.607   2.078  1.00  0.00     0.001 A 
ATOM     49  C   UNL     1       7.157  11.062   1.456  1.00  0.00     0.000 A 
ENDBRANCH  25  44
BRANCH  37  50
ATOM     50  C   UNL     1      10.487   7.304   9.048  1.00  0.00    -0.014 A 
ATOM     51  C   UNL     1      10.062   8.409   9.801  1.00  0.00     0.009 A 
ATOM     52  C   UNL     1      11.833   6.910   9.104  1.00  0.00     0.009 A 
ATOM     53  C   UNL     1      10.980   9.129  10.565  1.00  0.00     0.001 A 
ATOM     54  C   UNL     1      12.739   7.609   9.899  1.00  0.00     0.001 A 
ATOM     55  C   UNL     1      12.314   8.724  10.619  1.00  0.00     0.000 A 
ENDBRANCH  37  50
ENDBRANCH  11  12
ENDBRANCH   4   6
ENDBRANCH   3   4
ENDBRANCH   2   3
ENDBRANCH   1   2
BRANCH   1  56
ATOM     56  O   UNL     1       3.493   1.629  -1.483  1.00  0.00    -0.374 OA
BRANCH  56  57
ATOM     57  C   UNL     1       2.409   1.837  -2.364  1.00  0.00     0.202 C 
BRANCH  57  58
ATOM     58  C   UNL     1       2.920   1.987  -3.788  1.00  0.00     0.261 C 
BRANCH  58  59
ATOM     59  O   UNL     1       3.561   0.770  -4.211  1.00  0.00    -0.460 OA
BRANCH  59  60
ATOM     60  C   UNL     1       4.918   0.662  -4.043  1.00  0.00     0.340 C 
ATOM     61  O   UNL     1       5.679   1.507  -3.636  1.00  0.00    -0.246 OA
BRANCH  60  62
ATOM     62  C   UNL     1       5.277  -0.715  -4.480  1.00  0.00     0.086 A 
ATOM     63  C   UNL     1       4.746  -1.057  -5.741  1.00  0.00     0.057 A 
ATOM     64  C   UNL     1       6.067  -1.647  -3.756  1.00  0.00     0.056 A 
ATOM     65  C   UNL     1       4.991  -2.301  -6.288  1.00  0.00     0.124 A 
ATOM     66  C   UNL     1       6.319  -2.893  -4.377  1.00  0.00     0.030 A 
ATOM     67  F   UNL     1       4.455  -2.613  -7.474  1.00  0.00    -0.207 F 
ATOM     68  C   UNL     1       5.783  -3.219  -5.624  1.00  0.00     0.041 A 
BRANCH  64  69
ATOM     69  N   UNL     1       6.597  -1.481  -2.442  1.00  0.00    -0.341 N 
ATOM     70  C   UNL     1       5.869  -2.249  -1.403  1.00  0.00     0.123 C 
ATOM     71  C   UNL     1       7.954  -1.165  -2.150  1.00  0.00     0.044 A 
ATOM     72  C   UNL     1       6.747  -3.119  -0.519  1.00  0.00     0.027 C 
ATOM     73  C   UNL     1       8.564  -1.523  -0.923  1.00  0.00    -0.024 A 
ATOM     74  C   UNL     1       8.762  -0.524  -3.103  1.00  0.00     0.026 A 
ATOM     75  C   UNL     1       7.785  -2.235   0.146  1.00  0.00     0.039 C 
ATOM     76  C   UNL     1       9.920  -1.244  -0.679  1.00  0.00     0.006 A 
ATOM     77  C   UNL     1      10.119  -0.275  -2.866  1.00  0.00     0.002 A 
ATOM     78  C   UNL     1      10.699  -0.637  -1.656  1.00  0.00     0.000 A 
ENDBRANCH  64  69
ENDBRANCH  60  62
ENDBRANCH  59  60
ENDBRANCH  58  59
ENDBRANCH  57  58
ENDBRANCH  56  57
ENDBRANCH   1  56
TORSDOF 15
