REMARK SMILES O=C(C[C@H]1C(=O)Nc2ccccc21)OCCOCCOC(=O)c1ccc(-c2c3nc(c(-c4ccccc4)c4ccc([nH]4)c(-c4ccccc4)c4nc(c(-c5ccccc5)c5ccc2[nH]5)C=C4)C=C3)cc1
REMARK SMILES IDX 18 1 17 2 16 3 15 4 14 5 2 6 1 7 3 8 4 9 5 10 13 11 6 12
REMARK SMILES IDX 7 13 8 14 12 15 9 17 11 18 10 19 19 20 20 21 21 22 22 23
REMARK SMILES IDX 23 24 24 25 70 26 25 27 69 28 26 29 27 30 28 31 63 32 29 33
REMARK SMILES IDX 68 34 62 35 64 36 30 37 67 38 61 39 60 40 31 42 53 43 38 44
REMARK SMILES IDX 52 45 39 46 42 47 51 48 65 49 40 50 41 51 50 53 66 54 43 55
REMARK SMILES IDX 32 56 33 57 37 58 34 59 36 60 35 61 54 62 55 63 59 64 56 65
REMARK SMILES IDX 58 66 57 67 44 68 45 69 49 70 46 71 48 72 47 73
REMARK H PARENT 7 16 64 41 42 52
REMARK Flexibility Score: inf
ROOT
ATOM      1  C   UNL     1       3.225  -0.220  -3.051  1.00  0.00     0.202 C 
ENDROOT
BRANCH   1   2
ATOM      2  O   UNL     1       2.584   0.062  -1.802  1.00  0.00    -0.374 OA
BRANCH   2   3
ATOM      3  C   UNL     1       3.167   1.040  -0.958  1.00  0.00     0.202 C 
BRANCH   3   4
ATOM      4  C   UNL     1       4.415   0.649  -0.176  1.00  0.00     0.261 C 
BRANCH   4   5
ATOM      5  O   UNL     1       5.395  -0.100  -0.902  1.00  0.00    -0.463 OA
BRANCH   5   6
ATOM      6  C   UNL     1       5.494  -1.451  -0.837  1.00  0.00     0.307 C 
ATOM      7  O   UNL     1       6.464  -2.022  -1.331  1.00  0.00    -0.252 OA
BRANCH   6   8
ATOM      8  C   UNL     1       4.356  -2.233  -0.236  1.00  0.00     0.141 C 
BRANCH   8   9
ATOM      9  C   UNL     1       4.281  -2.290   1.289  1.00  0.00     0.122 C 
ATOM     10  C   UNL     1       3.915  -3.738   1.661  1.00  0.00     0.232 C 
ATOM     11  C   UNL     1       5.579  -2.105   2.032  1.00  0.00    -0.011 A 
ATOM     12  O   UNL     1       2.883  -4.320   1.372  1.00  0.00    -0.274 OA
ATOM     13  N   UNL     1       4.991  -4.277   2.348  1.00  0.00    -0.325 N 
ATOM     14  C   UNL     1       5.971  -3.326   2.572  1.00  0.00     0.045 A 
ATOM     15  C   UNL     1       6.347  -0.971   2.247  1.00  0.00     0.007 A 
ATOM     16  H   UNL     1       5.050  -5.215   2.639  1.00  0.00     0.169 HD
ATOM     17  C   UNL     1       7.155  -3.487   3.256  1.00  0.00     0.026 A 
ATOM     18  C   UNL     1       7.548  -1.105   2.946  1.00  0.00     0.000 A 
ATOM     19  C   UNL     1       7.957  -2.357   3.430  1.00  0.00     0.002 A 
ENDBRANCH   8   9
ENDBRANCH   6   8
ENDBRANCH   5   6
ENDBRANCH   4   5
ENDBRANCH   3   4
ENDBRANCH   2   3
ENDBRANCH   1   2
BRANCH   1  20
ATOM     20  C   UNL     1       3.285   0.909  -4.085  1.00  0.00     0.261 C 
BRANCH  20  21
ATOM     21  O   UNL     1       4.282   1.888  -3.741  1.00  0.00    -0.460 OA
BRANCH  21  22
ATOM     22  C   UNL     1       3.819   3.119  -3.430  1.00  0.00     0.338 C 
ATOM     23  O   UNL     1       2.659   3.506  -3.424  1.00  0.00    -0.246 OA
BRANCH  22  24
ATOM     24  C   UNL     1       4.928   3.907  -2.879  1.00  0.00     0.060 A 
ATOM     25  C   UNL     1       4.845   4.378  -1.559  1.00  0.00     0.016 A 
ATOM     26  C   UNL     1       6.005   4.242  -3.696  1.00  0.00     0.016 A 
ATOM     27  C   UNL     1       5.830   5.226  -1.061  1.00  0.00     0.010 A 
ATOM     28  C   UNL     1       6.978   5.104  -3.204  1.00  0.00     0.010 A 
ATOM     29  C   UNL     1       6.873   5.628  -1.902  1.00  0.00    -0.014 A 
BRANCH  29  30
ATOM     30  C   UNL     1       7.757   6.751  -1.533  1.00  0.00     0.031 A 
ATOM     31  C   UNL     1       7.472   8.095  -2.136  1.00  0.00     0.074 A 
ATOM     32  C   UNL     1       8.839   6.554  -0.765  1.00  0.00     0.049 A 
ATOM     33  N   UNL     1       8.217   9.167  -2.166  1.00  0.00    -0.248 NA
ATOM     34  C   UNL     1       6.177   8.235  -2.822  1.00  0.00     0.031 C 
ATOM     35  C   UNL     1       9.187   5.301  -0.099  1.00  0.00     0.029 A 
ATOM     36  N   UNL     1       9.870   7.404  -0.460  1.00  0.00    -0.354 N 
ATOM     37  C   UNL     1       7.501  10.095  -2.910  1.00  0.00     0.074 A 
ATOM     38  C   UNL     1       6.271   9.456  -3.322  1.00  0.00     0.031 C 
ATOM     39  C   UNL     1      10.380   5.451   0.502  1.00  0.00     0.029 A 
ATOM     40  C   UNL     1      10.894   6.789   0.216  1.00  0.00     0.049 A 
ATOM     41  H   UNL     1       9.876   8.359  -0.702  1.00  0.00     0.167 HD
ATOM     42  C   UNL     1       7.848  11.363  -3.231  1.00  0.00     0.031 A 
ATOM     43  C   UNL     1      12.127   7.239   0.517  1.00  0.00     0.031 A 
ATOM     44  C   UNL     1       9.087  11.974  -2.832  1.00  0.00     0.049 A 
ATOM     45  C   UNL     1      12.522   8.630   0.102  1.00  0.00     0.074 A 
ATOM     46  C   UNL     1       9.529  13.262  -3.067  1.00  0.00     0.029 A 
ATOM     47  N   UNL     1      10.090  11.325  -2.127  1.00  0.00    -0.354 N 
ATOM     48  N   UNL     1      11.831   9.519  -0.571  1.00  0.00    -0.248 NA
ATOM     49  C   UNL     1      13.865   9.082   0.492  1.00  0.00     0.031 C 
ATOM     50  C   UNL     1      10.829  13.372  -2.564  1.00  0.00     0.029 A 
ATOM     51  C   UNL     1      11.166  12.176  -1.948  1.00  0.00     0.049 A 
ATOM     52  H   UNL     1      10.043  10.397  -1.802  1.00  0.00     0.167 HD
ATOM     53  C   UNL     1      12.640  10.646  -0.659  1.00  0.00     0.074 A 
ATOM     54  C   UNL     1      13.873  10.328   0.034  1.00  0.00     0.031 C 
ATOM     55  C   UNL     1      12.383  11.838  -1.252  1.00  0.00     0.031 A 
BRANCH  42  56
ATOM     56  C   UNL     1       6.901  12.136  -4.107  1.00  0.00    -0.014 A 
ATOM     57  C   UNL     1       5.630  12.530  -3.657  1.00  0.00     0.009 A 
ATOM     58  C   UNL     1       7.287  12.468  -5.416  1.00  0.00     0.009 A 
ATOM     59  C   UNL     1       4.748  13.191  -4.516  1.00  0.00     0.001 A 
ATOM     60  C   UNL     1       6.417  13.160  -6.260  1.00  0.00     0.001 A 
ATOM     61  C   UNL     1       5.143  13.508  -5.815  1.00  0.00     0.000 A 
ENDBRANCH  42  56
BRANCH  43  62
ATOM     62  C   UNL     1      13.079   6.340   1.219  1.00  0.00    -0.014 A 
ATOM     63  C   UNL     1      13.421   6.567   2.560  1.00  0.00     0.009 A 
ATOM     64  C   UNL     1      13.621   5.225   0.560  1.00  0.00     0.009 A 
ATOM     65  C   UNL     1      14.294   5.702   3.223  1.00  0.00     0.001 A 
ATOM     66  C   UNL     1      14.471   4.345   1.234  1.00  0.00     0.001 A 
ATOM     67  C   UNL     1      14.811   4.587   2.563  1.00  0.00     0.000 A 
ENDBRANCH  43  62
BRANCH  55  68
ATOM     68  C   UNL     1      13.429  12.913  -1.137  1.00  0.00    -0.014 A 
ATOM     69  C   UNL     1      14.625  12.857  -1.868  1.00  0.00     0.009 A 
ATOM     70  C   UNL     1      13.167  14.043  -0.345  1.00  0.00     0.009 A 
ATOM     71  C   UNL     1      15.547  13.904  -1.790  1.00  0.00     0.001 A 
ATOM     72  C   UNL     1      14.076  15.101  -0.294  1.00  0.00     0.001 A 
ATOM     73  C   UNL     1      15.268  15.027  -1.012  1.00  0.00     0.000 A 
ENDBRANCH  55  68
ENDBRANCH  29  30
ENDBRANCH  22  24
ENDBRANCH  21  22
ENDBRANCH  20  21
ENDBRANCH   1  20
TORSDOF 15
