REMARK SMILES O=C(OCCOCCOC(=O)c1ccc2c(=O)n3cc(C(=O)c4cc(F)ccc4O)cc(Cl)c3nc2c1)c1ccc(-c2c3nc(c(-c4ccccc4)c4ccc([nH]4)c(-c4ccccc4)c4nc(c(-c5ccccc5)c5ccc2[nH]5)C=C4)C=C3)cc1
REMARK SMILES IDX 7 1 6 2 5 3 4 4 3 5 2 6 1 7 38 8 39 9 85 10 40 11 84 12
REMARK SMILES IDX 41 13 42 14 43 15 78 16 44 17 83 18 77 19 79 20 45 21 82 22
REMARK SMILES IDX 76 23 75 24 46 26 68 27 53 28 67 29 54 30 57 31 66 32 80 33
REMARK SMILES IDX 55 34 56 35 65 37 81 38 58 39 47 40 48 41 52 42 49 43 51 44
REMARK SMILES IDX 50 45 69 46 70 47 74 48 71 49 73 50 72 51 59 52 60 53 64 54
REMARK SMILES IDX 61 55 63 56 62 57 8 58 9 59 10 60 11 61 12 62 13 63 37 64
REMARK SMILES IDX 14 65 36 66 15 67 35 68 16 69 34 70 17 71 18 72 32 73 19 74
REMARK SMILES IDX 31 75 33 76 20 77 21 78 22 79 23 80 24 81 29 82 25 83 28 84
REMARK SMILES IDX 26 85 27 86 30 87
REMARK H PARENT 79 25 57 36 30 88
REMARK Flexibility Score: inf
ROOT
ATOM      1  C   UNL     1       2.698  -1.689   1.014  1.00  0.00     0.202 C 
ENDROOT
BRANCH   1   2
ATOM      2  O   UNL     1       4.029  -1.206   0.810  1.00  0.00    -0.374 OA
BRANCH   2   3
ATOM      3  C   UNL     1       4.393  -0.050   1.563  1.00  0.00     0.202 C 
BRANCH   3   4
ATOM      4  C   UNL     1       4.249   1.254   0.776  1.00  0.00     0.261 C 
BRANCH   4   5
ATOM      5  O   UNL     1       2.894   1.450   0.345  1.00  0.00    -0.460 OA
BRANCH   5   6
ATOM      6  C   UNL     1       2.286   1.081  -0.804  1.00  0.00     0.338 C 
ATOM      7  O   UNL     1       1.095   1.369  -0.928  1.00  0.00    -0.246 OA
BRANCH   6   8
ATOM      8  C   UNL     1       2.926   0.315  -1.929  1.00  0.00     0.060 A 
ATOM      9  C   UNL     1       2.145   0.156  -3.092  1.00  0.00     0.016 A 
ATOM     10  C   UNL     1       4.172  -0.315  -1.908  1.00  0.00     0.016 A 
ATOM     11  C   UNL     1       2.582  -0.622  -4.170  1.00  0.00     0.010 A 
ATOM     12  C   UNL     1       4.612  -1.103  -2.967  1.00  0.00     0.010 A 
ATOM     13  C   UNL     1       3.820  -1.260  -4.101  1.00  0.00    -0.014 A 
BRANCH  13  14
ATOM     14  C   UNL     1       4.409  -1.971  -5.246  1.00  0.00     0.031 A 
ATOM     15  C   UNL     1       4.447  -3.464  -5.290  1.00  0.00     0.074 A 
ATOM     16  C   UNL     1       5.072  -1.221  -6.143  1.00  0.00     0.049 A 
ATOM     17  N   UNL     1       4.974  -4.239  -6.201  1.00  0.00    -0.248 NA
ATOM     18  C   UNL     1       3.838  -4.184  -4.161  1.00  0.00     0.031 C 
ATOM     19  C   UNL     1       5.163   0.241  -6.098  1.00  0.00     0.029 A 
ATOM     20  N   UNL     1       5.831  -1.574  -7.224  1.00  0.00    -0.354 N 
ATOM     21  C   UNL     1       4.753  -5.538  -5.764  1.00  0.00     0.074 A 
ATOM     22  C   UNL     1       4.080  -5.449  -4.487  1.00  0.00     0.031 C 
ATOM     23  C   UNL     1       5.951   0.659  -7.098  1.00  0.00     0.029 A 
ATOM     24  C   UNL     1       6.423  -0.502  -7.843  1.00  0.00     0.049 A 
ATOM     25  H   UNL     1       5.941  -2.504  -7.528  1.00  0.00     0.167 HD
ATOM     26  C   UNL     1       5.082  -6.689  -6.394  1.00  0.00     0.031 A 
ATOM     27  C   UNL     1       7.256  -0.459  -8.897  1.00  0.00     0.031 A 
ATOM     28  C   UNL     1       5.781  -6.728  -7.653  1.00  0.00     0.049 A 
ATOM     29  C   UNL     1       7.596  -1.744  -9.587  1.00  0.00     0.074 A 
ATOM     30  C   UNL     1       6.064  -7.825  -8.446  1.00  0.00     0.029 A 
ATOM     31  N   UNL     1       6.332  -5.621  -8.285  1.00  0.00    -0.354 N 
ATOM     32  N   UNL     1       7.243  -2.964  -9.258  1.00  0.00    -0.248 NA
ATOM     33  C   UNL     1       8.415  -1.655 -10.800  1.00  0.00     0.031 C 
ATOM     34  C   UNL     1       6.851  -7.393  -9.515  1.00  0.00     0.029 A 
ATOM     35  C   UNL     1       6.996  -6.016  -9.433  1.00  0.00     0.049 A 
ATOM     36  H   UNL     1       6.261  -4.693  -7.964  1.00  0.00     0.167 HD
ATOM     37  C   UNL     1       7.780  -3.791 -10.232  1.00  0.00     0.074 A 
ATOM     38  C   UNL     1       8.474  -2.930 -11.171  1.00  0.00     0.031 C 
ATOM     39  C   UNL     1       7.699  -5.140 -10.338  1.00  0.00     0.031 A 
BRANCH  26  40
ATOM     40  C   UNL     1       4.690  -7.999  -5.763  1.00  0.00    -0.014 A 
ATOM     41  C   UNL     1       5.681  -8.914  -5.369  1.00  0.00     0.009 A 
ATOM     42  C   UNL     1       3.343  -8.387  -5.673  1.00  0.00     0.009 A 
ATOM     43  C   UNL     1       5.335 -10.190  -4.917  1.00  0.00     0.001 A 
ATOM     44  C   UNL     1       2.998  -9.654  -5.194  1.00  0.00     0.001 A 
ATOM     45  C   UNL     1       3.994 -10.558  -4.828  1.00  0.00     0.000 A 
ENDBRANCH  26  40
BRANCH  27  46
ATOM     46  C   UNL     1       7.721   0.868  -9.371  1.00  0.00    -0.014 A 
ATOM     47  C   UNL     1       8.638   1.618  -8.615  1.00  0.00     0.009 A 
ATOM     48  C   UNL     1       7.113   1.463 -10.486  1.00  0.00     0.009 A 
ATOM     49  C   UNL     1       8.904   2.950  -8.942  1.00  0.00     0.001 A 
ATOM     50  C   UNL     1       7.400   2.787 -10.824  1.00  0.00     0.001 A 
ATOM     51  C   UNL     1       8.282   3.534 -10.044  1.00  0.00     0.000 A 
ENDBRANCH  27  46
BRANCH  39  52
ATOM     52  C   UNL     1       8.393  -5.788 -11.502  1.00  0.00    -0.014 A 
ATOM     53  C   UNL     1       7.634  -6.386 -12.521  1.00  0.00     0.009 A 
ATOM     54  C   UNL     1       9.788  -5.925 -11.517  1.00  0.00     0.009 A 
ATOM     55  C   UNL     1       8.258  -7.135 -13.518  1.00  0.00     0.001 A 
ATOM     56  C   UNL     1      10.412  -6.650 -12.533  1.00  0.00     0.001 A 
ATOM     57  C   UNL     1       9.646  -7.266 -13.523  1.00  0.00     0.000 A 
ENDBRANCH  39  52
ENDBRANCH  13  14
ENDBRANCH   6   8
ENDBRANCH   5   6
ENDBRANCH   4   5
ENDBRANCH   3   4
ENDBRANCH   2   3
ENDBRANCH   1   2
BRANCH   1  58
ATOM     58  C   UNL     1       2.748  -3.104   1.591  1.00  0.00     0.261 C 
BRANCH  58  59
ATOM     59  O   UNL     1       3.278  -3.038   2.922  1.00  0.00    -0.460 OA
BRANCH  59  60
ATOM     60  C   UNL     1       4.630  -3.093   3.016  1.00  0.00     0.338 C 
ATOM     61  O   UNL     1       5.427  -3.458   2.171  1.00  0.00    -0.246 OA
BRANCH  60  62
ATOM     62  C   UNL     1       5.005  -2.424   4.277  1.00  0.00     0.062 A 
ATOM     63  C   UNL     1       4.205  -2.555   5.417  1.00  0.00     0.016 A 
ATOM     64  C   UNL     1       6.134  -1.591   4.286  1.00  0.00     0.045 A 
ATOM     65  C   UNL     1       4.541  -1.857   6.569  1.00  0.00     0.017 A 
ATOM     66  C   UNL     1       6.461  -0.865   5.429  1.00  0.00     0.079 A 
ATOM     67  C   UNL     1       5.666  -1.024   6.562  1.00  0.00     0.066 A 
ATOM     68  N   UNL     1       7.568  -0.007   5.403  1.00  0.00    -0.228 NA
ATOM     69  C   UNL     1       6.075  -0.335   7.787  1.00  0.00     0.265 A 
ATOM     70  C   UNL     1       7.940   0.569   6.506  1.00  0.00     0.159 A 
ATOM     71  O   UNL     1       5.389  -0.462   8.800  1.00  0.00    -0.268 OA
ATOM     72  N   UNL     1       7.260   0.396   7.716  1.00  0.00    -0.266 N 
ATOM     73  C   UNL     1       9.147   1.470   6.568  1.00  0.00     0.085 A 
ATOM     74  C   UNL     1       7.763   0.900   8.906  1.00  0.00     0.109 A 
ATOM     75  C   UNL     1       9.608   1.901   7.751  1.00  0.00     0.038 A 
ATOM     76  Cl  UNL     1       9.902   1.936   5.094  1.00  0.00    -0.080 Cl
ATOM     77  C   UNL     1       8.935   1.548   8.982  1.00  0.00     0.041 A 
BRANCH  77  78
ATOM     78  C   UNL     1       9.473   1.975  10.314  1.00  0.00     0.198 C 
ATOM     79  O   UNL     1      10.221   2.941  10.431  1.00  0.00    -0.288 OA
BRANCH  78  80
ATOM     80  C   UNL     1       8.999   1.285  11.538  1.00  0.00     0.067 A 
ATOM     81  C   UNL     1       8.964  -0.113  11.616  1.00  0.00     0.055 A 
ATOM     82  C   UNL     1       8.482   2.055  12.586  1.00  0.00     0.126 A 
ATOM     83  C   UNL     1       8.335  -0.713  12.701  1.00  0.00     0.124 A 
ATOM     84  C   UNL     1       7.847   1.441  13.663  1.00  0.00     0.050 A 
ATOM     85  F   UNL     1       8.254  -2.049  12.755  1.00  0.00    -0.207 F 
ATOM     86  C   UNL     1       7.761   0.049  13.714  1.00  0.00     0.043 A 
BRANCH  82  87
ATOM     87  O   UNL     1       8.542   3.421  12.593  1.00  0.00    -0.507 OA
ATOM     88  H   UNL     1       8.960   3.876  11.888  1.00  0.00     0.293 HD
ENDBRANCH  82  87
ENDBRANCH  78  80
ENDBRANCH  77  78
ENDBRANCH  60  62
ENDBRANCH  59  60
ENDBRANCH  58  59
ENDBRANCH   1  58
TORSDOF 17
