REMARK SMILES C[C@H](Oc1ccc(C(=O)NCc2ccccc2)cc1)C(=O)OCCOCCOC(=O)c1ccc(-c2c3nc(c(-c4ccccc4)c4ccc([nH]4)c(-c4ccccc4)c4nc(c(-c5ccccc5)c5ccc2[nH]5)C=C4)C=C3)cc1
REMARK SMILES IDX 23 1 22 2 20 3 21 4 2 5 1 6 3 7 4 8 5 9 19 10 6 11 18 12
REMARK SMILES IDX 7 13 8 14 9 15 10 16 11 18 12 19 13 20 17 21 14 22 16 23
REMARK SMILES IDX 15 24 24 25 25 26 26 27 27 28 28 29 29 30 30 31 31 32 32 33
REMARK SMILES IDX 78 34 33 35 77 36 34 37 35 38 36 39 71 40 37 41 76 42 70 43
REMARK SMILES IDX 72 44 38 45 75 46 69 47 68 48 39 50 61 51 46 52 60 53 47 54
REMARK SMILES IDX 50 55 59 56 73 57 48 58 49 59 58 61 74 62 51 63 40 64 41 65
REMARK SMILES IDX 45 66 42 67 44 68 43 69 62 70 63 71 67 72 64 73 66 74 65 75
REMARK SMILES IDX 52 76 53 77 57 78 54 79 56 80 55 81
REMARK H PARENT 10 17 72 49 50 60
REMARK Flexibility Score: inf
ROOT
ATOM      1  C   UNL     1      -3.025  -0.436   1.928  1.00  0.00     0.261 C 
ENDROOT
BRANCH   1   2
ATOM      2  O   UNL     1      -1.626  -0.114   1.867  1.00  0.00    -0.461 OA
BRANCH   2   3
ATOM      3  C   UNL     1      -0.762  -1.080   2.297  1.00  0.00     0.347 C 
ATOM      4  O   UNL     1      -1.091  -2.170   2.749  1.00  0.00    -0.248 OA
BRANCH   3   5
ATOM      5  C   UNL     1       0.689  -0.601   2.224  1.00  0.00     0.279 C 
ATOM      6  C   UNL     1       0.899   0.301   3.443  1.00  0.00     0.066 C 
BRANCH   5   7
ATOM      7  O   UNL     1       0.904   0.031   0.955  1.00  0.00    -0.479 OA
BRANCH   7   8
ATOM      8  C   UNL     1       2.099   0.630   0.680  1.00  0.00     0.120 A 
ATOM      9  C   UNL     1       3.258   0.533   1.437  1.00  0.00     0.047 A 
ATOM     10  C   UNL     1       2.100   1.455  -0.448  1.00  0.00     0.047 A 
ATOM     11  C   UNL     1       4.348   1.366   1.156  1.00  0.00     0.017 A 
ATOM     12  C   UNL     1       3.202   2.273  -0.746  1.00  0.00     0.017 A 
ATOM     13  C   UNL     1       4.325   2.271   0.081  1.00  0.00     0.040 A 
BRANCH  13  14
ATOM     14  C   UNL     1       5.444   3.257   0.028  1.00  0.00     0.251 C 
ATOM     15  O   UNL     1       6.052   3.498   1.074  1.00  0.00    -0.269 OA
ATOM     16  N   UNL     1       5.845   3.940  -1.082  1.00  0.00    -0.348 N 
ATOM     17  H   UNL     1       6.519   4.628  -0.883  1.00  0.00     0.164 HD
BRANCH  16  18
ATOM     18  C   UNL     1       5.503   3.880  -2.485  1.00  0.00     0.152 C 
BRANCH  18  19
ATOM     19  C   UNL     1       4.918   5.195  -2.943  1.00  0.00    -0.029 A 
ATOM     20  C   UNL     1       5.593   5.989  -3.882  1.00  0.00     0.005 A 
ATOM     21  C   UNL     1       3.705   5.667  -2.420  1.00  0.00     0.005 A 
ATOM     22  C   UNL     1       5.060   7.214  -4.292  1.00  0.00     0.000 A 
ATOM     23  C   UNL     1       3.167   6.885  -2.838  1.00  0.00     0.000 A 
ATOM     24  C   UNL     1       3.845   7.659  -3.775  1.00  0.00     0.000 A 
ENDBRANCH  18  19
ENDBRANCH  16  18
ENDBRANCH  13  14
ENDBRANCH   7   8
ENDBRANCH   5   7
ENDBRANCH   3   5
ENDBRANCH   2   3
ENDBRANCH   1   2
BRANCH   1  25
ATOM     25  C   UNL     1      -3.613  -0.667   0.536  1.00  0.00     0.202 C 
BRANCH  25  26
ATOM     26  O   UNL     1      -3.140  -1.825  -0.148  1.00  0.00    -0.374 OA
BRANCH  26  27
ATOM     27  C   UNL     1      -1.888  -1.708  -0.825  1.00  0.00     0.202 C 
BRANCH  27  28
ATOM     28  C   UNL     1      -1.941  -1.037  -2.203  1.00  0.00     0.261 C 
BRANCH  28  29
ATOM     29  O   UNL     1      -2.219   0.373  -2.102  1.00  0.00    -0.460 OA
BRANCH  29  30
ATOM     30  C   UNL     1      -3.440   0.749  -2.545  1.00  0.00     0.338 C 
ATOM     31  O   UNL     1      -4.285   0.044  -3.083  1.00  0.00    -0.246 OA
BRANCH  30  32
ATOM     32  C   UNL     1      -3.719   2.140  -2.147  1.00  0.00     0.060 A 
ATOM     33  C   UNL     1      -4.936   2.398  -1.503  1.00  0.00     0.016 A 
ATOM     34  C   UNL     1      -2.851   3.186  -2.467  1.00  0.00     0.016 A 
ATOM     35  C   UNL     1      -5.315   3.710  -1.225  1.00  0.00     0.010 A 
ATOM     36  C   UNL     1      -3.237   4.503  -2.195  1.00  0.00     0.010 A 
ATOM     37  C   UNL     1      -4.486   4.772  -1.607  1.00  0.00    -0.014 A 
BRANCH  37  38
ATOM     38  C   UNL     1      -4.994   6.163  -1.527  1.00  0.00     0.031 A 
ATOM     39  C   UNL     1      -5.535   6.816  -2.769  1.00  0.00     0.074 A 
ATOM     40  C   UNL     1      -5.000   6.828  -0.358  1.00  0.00     0.049 A 
ATOM     41  N   UNL     1      -6.003   8.027  -2.932  1.00  0.00    -0.248 NA
ATOM     42  C   UNL     1      -5.549   5.994  -3.990  1.00  0.00     0.031 C 
ATOM     43  C   UNL     1      -4.548   6.292   0.924  1.00  0.00     0.029 A 
ATOM     44  N   UNL     1      -5.404   8.107  -0.067  1.00  0.00    -0.354 N 
ATOM     45  C   UNL     1      -6.360   8.116  -4.272  1.00  0.00     0.074 A 
ATOM     46  C   UNL     1      -6.029   6.847  -4.884  1.00  0.00     0.031 C 
ATOM     47  C   UNL     1      -4.694   7.240   1.867  1.00  0.00     0.029 A 
ATOM     48  C   UNL     1      -5.218   8.455   1.248  1.00  0.00     0.049 A 
ATOM     49  H   UNL     1      -5.790   8.717  -0.737  1.00  0.00     0.167 HD
ATOM     50  C   UNL     1      -6.918   9.157  -4.934  1.00  0.00     0.031 A 
ATOM     51  C   UNL     1      -5.430   9.628   1.876  1.00  0.00     0.031 A 
ATOM     52  C   UNL     1      -7.238  10.423  -4.332  1.00  0.00     0.049 A 
ATOM     53  C   UNL     1      -5.979  10.796   1.101  1.00  0.00     0.074 A 
ATOM     54  C   UNL     1      -7.817  11.535  -4.919  1.00  0.00     0.029 A 
ATOM     55  N   UNL     1      -6.998  10.748  -3.007  1.00  0.00    -0.354 N 
ATOM     56  N   UNL     1      -6.333  10.858  -0.160  1.00  0.00    -0.248 NA
ATOM     57  C   UNL     1      -6.164  12.053   1.840  1.00  0.00     0.031 C 
ATOM     58  C   UNL     1      -7.881  12.551  -3.959  1.00  0.00     0.029 A 
ATOM     59  C   UNL     1      -7.394  12.052  -2.762  1.00  0.00     0.049 A 
ATOM     60  H   UNL     1      -6.605  10.141  -2.338  1.00  0.00     0.167 HD
ATOM     61  C   UNL     1      -6.809  12.149  -0.357  1.00  0.00     0.074 A 
ATOM     62  C   UNL     1      -6.710  12.832   0.916  1.00  0.00     0.031 C 
ATOM     63  C   UNL     1      -7.291  12.717  -1.490  1.00  0.00     0.031 A 
BRANCH  50  64
ATOM     64  C   UNL     1      -7.187   8.978  -6.402  1.00  0.00    -0.014 A 
ATOM     65  C   UNL     1      -8.228   8.154  -6.858  1.00  0.00     0.009 A 
ATOM     66  C   UNL     1      -6.407   9.671  -7.341  1.00  0.00     0.009 A 
ATOM     67  C   UNL     1      -8.461   8.003  -8.227  1.00  0.00     0.001 A 
ATOM     68  C   UNL     1      -6.660   9.539  -8.707  1.00  0.00     0.001 A 
ATOM     69  C   UNL     1      -7.681   8.699  -9.149  1.00  0.00     0.000 A 
ENDBRANCH  50  64
BRANCH  51  70
ATOM     70  C   UNL     1      -5.104   9.768   3.319  1.00  0.00    -0.014 A 
ATOM     71  C   UNL     1      -6.122   9.911   4.273  1.00  0.00     0.009 A 
ATOM     72  C   UNL     1      -3.767   9.780   3.746  1.00  0.00     0.009 A 
ATOM     73  C   UNL     1      -5.807  10.087   5.623  1.00  0.00     0.001 A 
ATOM     74  C   UNL     1      -3.455   9.929   5.099  1.00  0.00     0.001 A 
ATOM     75  C   UNL     1      -4.475  10.092   6.035  1.00  0.00     0.000 A 
ENDBRANCH  51  70
BRANCH  63  76
ATOM     76  C   UNL     1      -7.785  14.133  -1.397  1.00  0.00    -0.014 A 
ATOM     77  C   UNL     1      -6.895  15.211  -1.276  1.00  0.00     0.009 A 
ATOM     78  C   UNL     1      -9.162  14.393  -1.478  1.00  0.00     0.009 A 
ATOM     79  C   UNL     1      -7.378  16.520  -1.208  1.00  0.00     0.001 A 
ATOM     80  C   UNL     1      -9.640  15.703  -1.437  1.00  0.00     0.001 A 
ATOM     81  C   UNL     1      -8.748  16.765  -1.294  1.00  0.00     0.000 A 
ENDBRANCH  63  76
ENDBRANCH  37  38
ENDBRANCH  30  32
ENDBRANCH  29  30
ENDBRANCH  28  29
ENDBRANCH  27  28
ENDBRANCH  26  27
ENDBRANCH  25  26
ENDBRANCH   1  25
TORSDOF 19
