REMARK SMILES CCc1ccnc(C(=O)c2[nH]c3ccc(OC(F)(F)F)cc3c2CC(=O)OCCOCCOC(=O)c2ccc(-c3c4nc(c(-c5ccccc5)c5ccc([nH]5)c(-c5ccccc5)c5nc(c(-c6ccccc6)c6ccc3[nH]6)C=C5)C=C4)cc2)c1
REMARK SMILES IDX 29 1 28 2 27 3 25 4 26 5 24 6 23 7 10 8 11 9 12 10 22 12
REMARK SMILES IDX 13 13 21 14 14 15 15 16 8 17 9 18 7 19 3 20 4 21 84 22 5 23
REMARK SMILES IDX 6 24 2 25 1 26 16 27 17 28 18 29 19 30 20 31 30 32 31 33
REMARK SMILES IDX 32 34 33 35 34 36 35 37 36 38 37 39 83 40 38 41 82 42 39 43
REMARK SMILES IDX 40 44 41 45 76 46 42 47 81 48 75 49 77 50 43 51 80 52 74 53
REMARK SMILES IDX 73 54 44 56 66 57 51 58 65 59 52 60 55 61 64 62 78 63 53 64
REMARK SMILES IDX 54 65 63 67 79 68 56 69 45 70 46 71 50 72 47 73 49 74 48 75
REMARK SMILES IDX 67 76 68 77 72 78 69 79 71 80 70 81 57 82 58 83 62 84 59 85
REMARK SMILES IDX 61 86 60 87
REMARK H PARENT 11 11 77 55 55 66
REMARK Flexibility Score: inf
ROOT
ATOM      1  C   UNL     1       4.646  -3.580   8.339  1.00  0.00     0.202 C 
ENDROOT
BRANCH   1   2
ATOM      2  C   UNL     1       5.876  -2.828   7.820  1.00  0.00     0.261 C 
BRANCH   2   3
ATOM      3  O   UNL     1       5.541  -1.946   6.725  1.00  0.00    -0.463 OA
BRANCH   3   4
ATOM      4  C   UNL     1       6.459  -1.903   5.722  1.00  0.00     0.310 C 
ATOM      5  O   UNL     1       7.553  -2.463   5.775  1.00  0.00    -0.252 OA
BRANCH   4   6
ATOM      6  C   UNL     1       6.080  -1.059   4.525  1.00  0.00     0.161 C 
BRANCH   6   7
ATOM      7  C   UNL     1       4.695  -0.468   4.455  1.00  0.00     0.000 A 
ATOM      8  C   UNL     1       3.552  -1.045   3.893  1.00  0.00     0.093 A 
ATOM      9  N   UNL     1       2.525  -0.141   4.076  1.00  0.00    -0.352 N 
ATOM     10  C   UNL     1       3.020   1.082   4.457  1.00  0.00     0.046 A 
ATOM     11  H   UNL     1       1.570  -0.345   3.951  1.00  0.00     0.167 HD
ATOM     12  C   UNL     1       4.371   0.901   4.735  1.00  0.00     0.008 A 
ATOM     13  C   UNL     1       2.387   2.326   4.563  1.00  0.00     0.030 A 
ATOM     14  C   UNL     1       5.127   2.024   5.131  1.00  0.00     0.057 A 
ATOM     15  C   UNL     1       3.175   3.434   4.910  1.00  0.00     0.049 A 
ATOM     16  C   UNL     1       4.536   3.294   5.176  1.00  0.00     0.130 A 
BRANCH   8  17
ATOM     17  C   UNL     1       3.436  -2.348   3.242  1.00  0.00     0.227 C 
ATOM     18  O   UNL     1       4.284  -3.225   3.390  1.00  0.00    -0.285 OA
BRANCH  17  19
ATOM     19  C   UNL     1       2.289  -2.641   2.325  1.00  0.00     0.113 A 
ATOM     20  C   UNL     1       0.863  -2.070   0.472  1.00  0.00    -0.044 A 
ATOM     21  C   UNL     1       0.345  -3.369   0.552  1.00  0.00     0.024 A 
ATOM     22  C   UNL     1       1.871  -1.711   1.373  1.00  0.00     0.036 A 
ATOM     23  C   UNL     1       0.819  -4.229   1.530  1.00  0.00     0.112 A 
ATOM     24  N   UNL     1       1.765  -3.889   2.428  1.00  0.00    -0.253 NA
BRANCH  20  25
ATOM     25  C   UNL     1       0.355  -1.163  -0.625  1.00  0.00     0.032 C 
ATOM     26  C   UNL     1       0.732   0.309  -0.517  1.00  0.00     0.009 C 
ENDBRANCH  20  25
ENDBRANCH  17  19
ENDBRANCH   8  17
BRANCH  16  27
ATOM     27  O   UNL     1       5.408   4.301   5.483  1.00  0.00    -0.406 OA
BRANCH  27  28
ATOM     28  C   UNL     1       5.004   5.629   5.200  1.00  0.00     0.573 C 
ATOM     29  F   UNL     1       4.578   5.758   3.924  1.00  0.00    -0.132 F 
ATOM     30  F   UNL     1       4.027   6.025   6.043  1.00  0.00    -0.132 F 
ATOM     31  F   UNL     1       6.064   6.450   5.370  1.00  0.00    -0.132 F 
ENDBRANCH  27  28
ENDBRANCH  16  27
ENDBRANCH   6   7
ENDBRANCH   4   6
ENDBRANCH   3   4
ENDBRANCH   2   3
ENDBRANCH   1   2
BRANCH   1  32
ATOM     32  O   UNL     1       4.163  -4.640   7.507  1.00  0.00    -0.374 OA
BRANCH  32  33
ATOM     33  C   UNL     1       3.592  -4.249   6.258  1.00  0.00     0.202 C 
BRANCH  33  34
ATOM     34  C   UNL     1       2.117  -3.841   6.314  1.00  0.00     0.261 C 
BRANCH  34  35
ATOM     35  O   UNL     1       1.873  -2.829   7.305  1.00  0.00    -0.460 OA
BRANCH  35  36
ATOM     36  C   UNL     1       1.143  -3.258   8.359  1.00  0.00     0.338 C 
ATOM     37  O   UNL     1       0.524  -4.310   8.457  1.00  0.00    -0.246 OA
BRANCH  36  38
ATOM     38  C   UNL     1       1.287  -2.341   9.501  1.00  0.00     0.060 A 
ATOM     39  C   UNL     1       1.637  -2.916  10.727  1.00  0.00     0.016 A 
ATOM     40  C   UNL     1       0.994  -0.977   9.411  1.00  0.00     0.016 A 
ATOM     41  C   UNL     1       1.616  -2.147  11.885  1.00  0.00     0.010 A 
ATOM     42  C   UNL     1       0.973  -0.204  10.579  1.00  0.00     0.010 A 
ATOM     43  C   UNL     1       1.235  -0.800  11.825  1.00  0.00    -0.014 A 
BRANCH  43  44
ATOM     44  C   UNL     1       0.971  -0.094  13.102  1.00  0.00     0.031 A 
ATOM     45  C   UNL     1      -0.442  -0.013  13.613  1.00  0.00     0.074 A 
ATOM     46  C   UNL     1       1.990   0.362  13.849  1.00  0.00     0.049 A 
ATOM     47  N   UNL     1      -0.881   0.403  14.774  1.00  0.00    -0.248 NA
ATOM     48  C   UNL     1      -1.501  -0.468  12.697  1.00  0.00     0.031 C 
ATOM     49  C   UNL     1       3.402   0.315  13.471  1.00  0.00     0.029 A 
ATOM     50  N   UNL     1       1.993   0.929  15.098  1.00  0.00    -0.354 N 
ATOM     51  C   UNL     1      -2.261   0.249  14.732  1.00  0.00     0.074 A 
ATOM     52  C   UNL     1      -2.592  -0.258  13.419  1.00  0.00     0.031 C 
ATOM     53  C   UNL     1       4.139   0.810  14.479  1.00  0.00     0.029 A 
ATOM     54  C   UNL     1       3.251   1.218  15.566  1.00  0.00     0.049 A 
ATOM     55  H   UNL     1       1.172   1.111  15.610  1.00  0.00     0.167 HD
ATOM     56  C   UNL     1      -3.171   0.492  15.705  1.00  0.00     0.031 A 
ATOM     57  C   UNL     1       3.642   1.739  16.744  1.00  0.00     0.031 A 
ATOM     58  C   UNL     1      -2.844   1.014  17.005  1.00  0.00     0.049 A 
ATOM     59  C   UNL     1       2.608   2.040  17.794  1.00  0.00     0.074 A 
ATOM     60  C   UNL     1      -3.691   1.292  18.064  1.00  0.00     0.029 A 
ATOM     61  N   UNL     1      -1.562   1.341  17.420  1.00  0.00    -0.354 N 
ATOM     62  N   UNL     1       1.311   1.850  17.757  1.00  0.00    -0.248 NA
ATOM     63  C   UNL     1       3.098   2.609  19.058  1.00  0.00     0.031 C 
ATOM     64  C   UNL     1      -2.925   1.833  19.104  1.00  0.00     0.029 A 
ATOM     65  C   UNL     1      -1.596   1.840  18.711  1.00  0.00     0.049 A 
ATOM     66  H   UNL     1      -0.748   1.234  16.877  1.00  0.00     0.167 HD
ATOM     67  C   UNL     1       0.833   2.253  18.997  1.00  0.00     0.074 A 
ATOM     68  C   UNL     1       1.982   2.679  19.770  1.00  0.00     0.031 C 
ATOM     69  C   UNL     1      -0.442   2.269  19.457  1.00  0.00     0.031 A 
BRANCH  56  70
ATOM     70  C   UNL     1      -4.614   0.221  15.382  1.00  0.00    -0.014 A 
ATOM     71  C   UNL     1      -5.100  -1.092  15.270  1.00  0.00     0.009 A 
ATOM     72  C   UNL     1      -5.504   1.291  15.205  1.00  0.00     0.009 A 
ATOM     73  C   UNL     1      -6.441  -1.326  14.954  1.00  0.00     0.001 A 
ATOM     74  C   UNL     1      -6.849   1.054  14.914  1.00  0.00     0.001 A 
ATOM     75  C   UNL     1      -7.314  -0.253  14.780  1.00  0.00     0.000 A 
ENDBRANCH  56  70
BRANCH  57  76
ATOM     76  C   UNL     1       5.084   1.991  17.001  1.00  0.00    -0.014 A 
ATOM     77  C   UNL     1       5.798   1.212  17.924  1.00  0.00     0.009 A 
ATOM     78  C   UNL     1       5.752   3.023  16.325  1.00  0.00     0.009 A 
ATOM     79  C   UNL     1       7.146   1.475  18.179  1.00  0.00     0.001 A 
ATOM     80  C   UNL     1       7.106   3.268  16.562  1.00  0.00     0.001 A 
ATOM     81  C   UNL     1       7.800   2.499  17.495  1.00  0.00     0.000 A 
ENDBRANCH  57  76
BRANCH  69  82
ATOM     82  C   UNL     1      -0.651   2.743  20.868  1.00  0.00    -0.014 A 
ATOM     83  C   UNL     1      -0.521   4.099  21.207  1.00  0.00     0.009 A 
ATOM     84  C   UNL     1      -1.003   1.821  21.867  1.00  0.00     0.009 A 
ATOM     85  C   UNL     1      -0.700   4.516  22.527  1.00  0.00     0.001 A 
ATOM     86  C   UNL     1      -1.208   2.246  23.180  1.00  0.00     0.001 A 
ATOM     87  C   UNL     1      -1.045   3.590  23.511  1.00  0.00     0.000 A 
ENDBRANCH  69  82
ENDBRANCH  43  44
ENDBRANCH  36  38
ENDBRANCH  35  36
ENDBRANCH  34  35
ENDBRANCH  33  34
ENDBRANCH  32  33
ENDBRANCH   1  32
TORSDOF 20
