REMARK SMILES Cc1cnc(NC(=O)NC[C@H]2CC[C@H](C(=O)OCCOCCOC(=O)c3ccc(-c4c5nc(c(-c6ccccc6)c6ccc([nH]6)c(-c6ccccc6)c6nc(c(-c7ccccc7)c7ccc4[nH]7)C=C6)C=C5)cc3)O2)s1
REMARK SMILES IDX 19 1 18 2 17 3 15 4 16 5 14 6 11 7 12 8 74 9 13 10 10 11
REMARK SMILES IDX 9 12 6 13 7 14 8 16 5 18 1 19 2 20 3 21 75 22 4 23 20 24
REMARK SMILES IDX 21 25 22 26 23 27 24 28 25 29 26 30 27 31 73 32 28 33 72 34
REMARK SMILES IDX 29 35 30 36 31 37 66 38 32 39 71 40 65 41 67 42 33 43 70 44
REMARK SMILES IDX 64 45 63 46 34 48 56 49 41 50 55 51 42 52 45 53 54 54 68 55
REMARK SMILES IDX 43 56 44 57 53 59 69 60 46 61 35 62 36 63 40 64 37 65 39 66
REMARK SMILES IDX 38 67 57 68 58 69 62 70 59 71 61 72 60 73 47 74 48 75 52 76
REMARK SMILES IDX 49 77 51 78 50 79
REMARK H PARENT 6 15 9 17 67 47 45 58
REMARK Flexibility Score: inf
ROOT
ATOM      1  C   UNL     1      -4.268   3.045  -4.607  1.00  0.00     0.202 C 
ENDROOT
BRANCH   1   2
ATOM      2  C   UNL     1      -3.696   1.933  -3.723  1.00  0.00     0.261 C 
BRANCH   2   3
ATOM      3  O   UNL     1      -2.377   2.265  -3.255  1.00  0.00    -0.461 OA
BRANCH   3   4
ATOM      4  C   UNL     1      -1.366   1.447  -3.666  1.00  0.00     0.335 C 
ATOM      5  O   UNL     1      -1.520   0.433  -4.338  1.00  0.00    -0.249 OA
BRANCH   4   6
ATOM      6  C   UNL     1       0.008   1.932  -3.179  1.00  0.00     0.228 C 
ATOM      7  C   UNL     1       0.440   2.304  -0.914  1.00  0.00     0.138 C 
ATOM      8  C   UNL     1      -0.163   3.577  -1.492  1.00  0.00     0.037 C 
ATOM      9  O   UNL     1       0.339   1.298  -1.932  1.00  0.00    -0.361 OA
ATOM     10  C   UNL     1       0.138   3.434  -2.959  1.00  0.00     0.047 C 
BRANCH   7  11
ATOM     11  C   UNL     1       1.898   2.503  -0.455  1.00  0.00     0.149 C 
BRANCH  11  12
ATOM     12  N   UNL     1       2.923   1.865  -1.270  1.00  0.00    -0.335 N 
ATOM     13  N   UNL     1       4.325   3.455  -2.378  1.00  0.00    -0.284 N 
ATOM     14  C   UNL     1       3.953   2.214  -2.047  1.00  0.00     0.321 C 
ATOM     15  H   UNL     1       4.980   3.479  -3.112  1.00  0.00     0.174 HD
ATOM     16  O   UNL     1       4.546   1.284  -2.608  1.00  0.00    -0.248 OA
ATOM     17  H   UNL     1       2.829   0.885  -1.239  1.00  0.00     0.165 HD
BRANCH  13  18
ATOM     18  C   UNL     1       3.993   4.687  -1.919  1.00  0.00     0.190 A 
ATOM     19  C   UNL     1       2.278   7.227   0.343  1.00  0.00     0.058 C 
ATOM     20  C   UNL     1       3.091   6.491  -0.654  1.00  0.00     0.023 A 
ATOM     21  C   UNL     1       3.291   6.754  -1.995  1.00  0.00     0.128 A 
ATOM     22  S   UNL     1       3.954   5.058  -0.254  1.00  0.00    -0.102 S 
ATOM     23  N   UNL     1       3.866   5.725  -2.712  1.00  0.00    -0.228 NA
ENDBRANCH  13  18
ENDBRANCH  11  12
ENDBRANCH   7  11
ENDBRANCH   4   6
ENDBRANCH   3   4
ENDBRANCH   2   3
ENDBRANCH   1   2
BRANCH   1  24
ATOM     24  O   UNL     1      -3.648   3.224  -5.880  1.00  0.00    -0.374 OA
BRANCH  24  25
ATOM     25  C   UNL     1      -2.394   3.902  -5.909  1.00  0.00     0.202 C 
BRANCH  25  26
ATOM     26  C   UNL     1      -2.445   5.431  -5.785  1.00  0.00     0.261 C 
BRANCH  26  27
ATOM     27  O   UNL     1      -3.002   5.869  -4.531  1.00  0.00    -0.460 OA
BRANCH  27  28
ATOM     28  C   UNL     1      -4.192   6.503  -4.636  1.00  0.00     0.338 C 
ATOM     29  O   UNL     1      -4.779   6.816  -5.668  1.00  0.00    -0.246 OA
BRANCH  28  30
ATOM     30  C   UNL     1      -4.827   6.654  -3.317  1.00  0.00     0.060 A 
ATOM     31  C   UNL     1      -6.108   6.113  -3.157  1.00  0.00     0.016 A 
ATOM     32  C   UNL     1      -4.243   7.406  -2.294  1.00  0.00     0.016 A 
ATOM     33  C   UNL     1      -6.836   6.372  -1.999  1.00  0.00     0.010 A 
ATOM     34  C   UNL     1      -4.979   7.669  -1.131  1.00  0.00     0.010 A 
ATOM     35  C   UNL     1      -6.294   7.187  -0.995  1.00  0.00    -0.014 A 
BRANCH  35  36
ATOM     36  C   UNL     1      -7.173   7.638   0.113  1.00  0.00     0.031 A 
ATOM     37  C   UNL     1      -7.798   9.007   0.049  1.00  0.00     0.074 A 
ATOM     38  C   UNL     1      -7.480   6.810   1.127  1.00  0.00     0.049 A 
ATOM     39  N   UNL     1      -8.637   9.574   0.879  1.00  0.00    -0.248 NA
ATOM     40  C   UNL     1      -7.432   9.845  -1.104  1.00  0.00     0.031 C 
ATOM     41  C   UNL     1      -6.977   5.446   1.288  1.00  0.00     0.029 A 
ATOM     42  N   UNL     1      -8.301   6.997   2.211  1.00  0.00    -0.354 N 
ATOM     43  C   UNL     1      -8.909  10.827   0.343  1.00  0.00     0.074 A 
ATOM     44  C   UNL     1      -8.113  10.955  -0.858  1.00  0.00     0.031 C 
ATOM     45  C   UNL     1      -7.503   4.918   2.407  1.00  0.00     0.029 A 
ATOM     46  C   UNL     1      -8.360   5.912   3.050  1.00  0.00     0.049 A 
ATOM     47  H   UNL     1      -8.801   7.830   2.371  1.00  0.00     0.167 HD
ATOM     48  C   UNL     1      -9.755  11.782   0.799  1.00  0.00     0.031 A 
ATOM     49  C   UNL     1      -9.022   5.741   4.211  1.00  0.00     0.031 A 
ATOM     50  C   UNL     1     -10.536  11.672   2.002  1.00  0.00     0.049 A 
ATOM     51  C   UNL     1      -9.900   6.846   4.735  1.00  0.00     0.074 A 
ATOM     52  C   UNL     1     -11.414  12.592   2.549  1.00  0.00     0.029 A 
ATOM     53  N   UNL     1     -10.531  10.574   2.847  1.00  0.00    -0.354 N 
ATOM     54  N   UNL     1     -10.158   8.018   4.208  1.00  0.00    -0.248 NA
ATOM     55  C   UNL     1     -10.588   6.595   6.010  1.00  0.00     0.031 C 
ATOM     56  C   UNL     1     -11.906  12.069   3.750  1.00  0.00     0.029 A 
ATOM     57  C   UNL     1     -11.375  10.801   3.921  1.00  0.00     0.049 A 
ATOM     58  H   UNL     1     -10.005   9.754   2.705  1.00  0.00     0.167 HD
ATOM     59  C   UNL     1     -11.056   8.633   5.073  1.00  0.00     0.074 A 
ATOM     60  C   UNL     1     -11.312   7.697   6.147  1.00  0.00     0.031 C 
ATOM     61  C   UNL     1     -11.617   9.864   4.986  1.00  0.00     0.031 A 
BRANCH  48  62
ATOM     62  C   UNL     1      -9.864  13.047  -0.005  1.00  0.00    -0.014 A 
ATOM     63  C   UNL     1     -10.537  13.065  -1.238  1.00  0.00     0.009 A 
ATOM     64  C   UNL     1      -9.323  14.242   0.491  1.00  0.00     0.009 A 
ATOM     65  C   UNL     1     -10.640  14.250  -1.969  1.00  0.00     0.001 A 
ATOM     66  C   UNL     1      -9.450  15.431  -0.230  1.00  0.00     0.001 A 
ATOM     67  C   UNL     1     -10.101  15.432  -1.463  1.00  0.00     0.000 A 
ENDBRANCH  48  62
BRANCH  49  68
ATOM     68  C   UNL     1      -8.866   4.477   4.978  1.00  0.00    -0.014 A 
ATOM     69  C   UNL     1      -9.930   3.572   5.102  1.00  0.00     0.009 A 
ATOM     70  C   UNL     1      -7.650   4.188   5.617  1.00  0.00     0.009 A 
ATOM     71  C   UNL     1      -9.789   2.418   5.877  1.00  0.00     0.001 A 
ATOM     72  C   UNL     1      -7.502   3.019   6.366  1.00  0.00     0.001 A 
ATOM     73  C   UNL     1      -8.575   2.141   6.504  1.00  0.00     0.000 A 
ENDBRANCH  49  68
BRANCH  61  74
ATOM     74  C   UNL     1     -12.584  10.255   6.069  1.00  0.00    -0.014 A 
ATOM     75  C   UNL     1     -12.143  10.559   7.366  1.00  0.00     0.009 A 
ATOM     76  C   UNL     1     -13.954  10.347   5.777  1.00  0.00     0.009 A 
ATOM     77  C   UNL     1     -13.059  10.910   8.360  1.00  0.00     0.001 A 
ATOM     78  C   UNL     1     -14.865  10.725   6.766  1.00  0.00     0.001 A 
ATOM     79  C   UNL     1     -14.418  10.995   8.058  1.00  0.00     0.000 A 
ENDBRANCH  61  74
ENDBRANCH  35  36
ENDBRANCH  28  30
ENDBRANCH  27  28
ENDBRANCH  26  27
ENDBRANCH  25  26
ENDBRANCH  24  25
ENDBRANCH   1  24
TORSDOF 17
