REMARK SMILES COc1cccc(/C=C2/C(=O)N(c3cccc(C(=O)OCCOCCOC(=O)c4ccc(-c5c6nc(c(-c7ccccc7)c7ccc([nH]7)c(-c7ccccc7)c7nc(c(-c8ccccc8)c8ccc5[nH]8)C=C7)C=C6)cc4)c3)N=C2C)c1
REMARK SMILES IDX 22 1 21 2 20 3 18 4 19 5 17 6 13 7 14 8 77 9 15 10 16 11
REMARK SMILES IDX 12 12 8 13 9 14 10 15 79 16 11 17 78 18 80 19 7 20 3 21 4 22
REMARK SMILES IDX 81 23 5 24 6 25 2 26 1 27 23 28 24 29 25 30 26 31 27 32
REMARK SMILES IDX 28 33 29 34 30 35 76 36 31 37 75 38 32 39 33 40 34 41 69 42
REMARK SMILES IDX 35 43 74 44 68 45 70 46 36 47 73 48 67 49 66 50 37 52 59 53
REMARK SMILES IDX 44 54 58 55 45 56 48 57 57 58 71 59 46 60 47 61 56 63 72 64
REMARK SMILES IDX 49 65 38 66 39 67 43 68 40 69 42 70 41 71 60 72 61 73 65 74
REMARK SMILES IDX 62 75 64 76 63 77 50 78 51 79 55 80 52 81 54 82 53 83
REMARK H PARENT 70 51 48 62
REMARK Flexibility Score: inf
ROOT
ATOM      1  C   UNL     1      12.730   0.156   0.440  1.00  0.00     0.202 C 
ENDROOT
BRANCH   1   2
ATOM      2  C   UNL     1      12.380   1.530  -0.143  1.00  0.00     0.261 C 
BRANCH   2   3
ATOM      3  O   UNL     1      11.349   1.448  -1.139  1.00  0.00    -0.460 OA
BRANCH   3   4
ATOM      4  C   UNL     1      11.756   1.694  -2.412  1.00  0.00     0.338 C 
ATOM      5  O   UNL     1      12.852   2.086  -2.770  1.00  0.00    -0.246 OA
BRANCH   4   6
ATOM      6  C   UNL     1      10.728   1.195  -3.354  1.00  0.00     0.062 A 
ATOM      7  C   UNL     1       8.424   0.799  -3.989  1.00  0.00     0.070 A 
ATOM      8  C   UNL     1       8.877   0.008  -5.056  1.00  0.00     0.028 A 
ATOM      9  C   UNL     1       9.361   1.386  -3.129  1.00  0.00     0.044 A 
ATOM     10  C   UNL     1      10.242  -0.145  -5.304  1.00  0.00     0.003 A 
ATOM     11  C   UNL     1      11.169   0.453  -4.456  1.00  0.00     0.016 A 
BRANCH   7  12
ATOM     12  N   UNL     1       7.041   0.998  -3.803  1.00  0.00    -0.196 N 
ATOM     13  C   UNL     1       4.053   2.609  -2.841  1.00  0.00     0.024 C 
ATOM     14  C   UNL     1       4.990   1.758  -3.278  1.00  0.00     0.065 C 
ATOM     15  C   UNL     1       6.430   2.090  -3.181  1.00  0.00     0.280 C 
ATOM     16  C   UNL     1       4.963   0.431  -3.922  1.00  0.00     0.071 C 
ATOM     17  O   UNL     1       6.898   3.103  -2.685  1.00  0.00    -0.267 OA
ATOM     18  N   UNL     1       6.160   0.022  -4.252  1.00  0.00    -0.169 NA
ATOM     19  C   UNL     1       3.741  -0.393  -4.158  1.00  0.00     0.069 C 
BRANCH  13  20
ATOM     20  C   UNL     1       2.618   2.349  -2.837  1.00  0.00    -0.021 A 
ATOM     21  C   UNL     1       0.737   1.106  -1.945  1.00  0.00     0.119 A 
ATOM     22  C   UNL     1      -0.096   1.724  -2.879  1.00  0.00     0.046 A 
ATOM     23  C   UNL     1       2.092   1.431  -1.918  1.00  0.00     0.054 A 
ATOM     24  C   UNL     1       0.412   2.679  -3.762  1.00  0.00     0.004 A 
ATOM     25  C   UNL     1       1.771   2.992  -3.743  1.00  0.00     0.008 A 
BRANCH  21  26
ATOM     26  O   UNL     1       0.139   0.167  -1.152  1.00  0.00    -0.497 OA
ATOM     27  C   UNL     1       0.783  -0.110   0.087  1.00  0.00     0.278 C 
ENDBRANCH  21  26
ENDBRANCH  13  20
ENDBRANCH   7  12
ENDBRANCH   4   6
ENDBRANCH   3   4
ENDBRANCH   2   3
ENDBRANCH   1   2
BRANCH   1  28
ATOM     28  O   UNL     1      13.215  -0.840  -0.458  1.00  0.00    -0.374 OA
BRANCH  28  29
ATOM     29  C   UNL     1      12.256  -1.514  -1.273  1.00  0.00     0.202 C 
BRANCH  29  30
ATOM     30  C   UNL     1      11.390  -2.594  -0.610  1.00  0.00     0.261 C 
BRANCH  30  31
ATOM     31  O   UNL     1      10.552  -2.076   0.438  1.00  0.00    -0.460 OA
BRANCH  31  32
ATOM     32  C   UNL     1      10.928  -2.428   1.692  1.00  0.00     0.338 C 
ATOM     33  O   UNL     1      11.840  -3.168   2.015  1.00  0.00    -0.246 OA
BRANCH  32  34
ATOM     34  C   UNL     1      10.171  -1.631   2.674  1.00  0.00     0.060 A 
ATOM     35  C   UNL     1      10.898  -0.828   3.562  1.00  0.00     0.016 A 
ATOM     36  C   UNL     1       8.781  -1.713   2.764  1.00  0.00     0.016 A 
ATOM     37  C   UNL     1      10.236  -0.117   4.561  1.00  0.00     0.010 A 
ATOM     38  C   UNL     1       8.120  -1.006   3.774  1.00  0.00     0.010 A 
ATOM     39  C   UNL     1       8.844  -0.220   4.689  1.00  0.00    -0.014 A 
BRANCH  39  40
ATOM     40  C   UNL     1       8.154   0.436   5.827  1.00  0.00     0.031 A 
ATOM     41  C   UNL     1       7.692  -0.391   6.994  1.00  0.00     0.074 A 
ATOM     42  C   UNL     1       7.947   1.765   5.818  1.00  0.00     0.049 A 
ATOM     43  N   UNL     1       7.025  -0.021   8.057  1.00  0.00    -0.248 NA
ATOM     44  C   UNL     1       8.023  -1.825   6.958  1.00  0.00     0.031 C 
ATOM     45  C   UNL     1       8.382   2.681   4.764  1.00  0.00     0.029 A 
ATOM     46  N   UNL     1       7.309   2.573   6.725  1.00  0.00    -0.354 N 
ATOM     47  C   UNL     1       6.846  -1.174   8.812  1.00  0.00     0.074 A 
ATOM     48  C   UNL     1       7.451  -2.261   8.071  1.00  0.00     0.031 C 
ATOM     49  C   UNL     1       7.992   3.927   5.083  1.00  0.00     0.029 A 
ATOM     50  C   UNL     1       7.244   3.889   6.337  1.00  0.00     0.049 A 
ATOM     51  H   UNL     1       6.933   2.241   7.572  1.00  0.00     0.167 HD
ATOM     52  C   UNL     1       6.237  -1.313  10.013  1.00  0.00     0.031 A 
ATOM     53  C   UNL     1       6.628   4.939   6.912  1.00  0.00     0.031 A 
ATOM     54  C   UNL     1       5.624  -0.233  10.742  1.00  0.00     0.049 A 
ATOM     55  C   UNL     1       5.881   4.739   8.205  1.00  0.00     0.074 A 
ATOM     56  C   UNL     1       5.003  -0.272  11.979  1.00  0.00     0.029 A 
ATOM     57  N   UNL     1       5.544   1.077  10.296  1.00  0.00    -0.354 N 
ATOM     58  N   UNL     1       5.750   3.651   8.925  1.00  0.00    -0.248 NA
ATOM     59  C   UNL     1       5.202   5.916   8.765  1.00  0.00     0.031 C 
ATOM     60  C   UNL     1       4.485   0.998  12.248  1.00  0.00     0.029 A 
ATOM     61  C   UNL     1       4.848   1.846  11.214  1.00  0.00     0.049 A 
ATOM     62  H   UNL     1       5.925   1.411   9.452  1.00  0.00     0.167 HD
ATOM     63  C   UNL     1       4.998   4.018  10.034  1.00  0.00     0.074 A 
ATOM     64  C   UNL     1       4.721   5.434   9.903  1.00  0.00     0.031 C 
ATOM     65  C   UNL     1       4.573   3.252  11.069  1.00  0.00     0.031 A 
BRANCH  52  66
ATOM     66  C   UNL     1       6.165  -2.695  10.604  1.00  0.00    -0.014 A 
ATOM     67  C   UNL     1       7.308  -3.340  11.103  1.00  0.00     0.009 A 
ATOM     68  C   UNL     1       4.921  -3.338  10.714  1.00  0.00     0.009 A 
ATOM     69  C   UNL     1       7.209  -4.612  11.672  1.00  0.00     0.001 A 
ATOM     70  C   UNL     1       4.822  -4.596  11.311  1.00  0.00     0.001 A 
ATOM     71  C   UNL     1       5.967  -5.236  11.782  1.00  0.00     0.000 A 
ENDBRANCH  52  66
BRANCH  53  72
ATOM     72  C   UNL     1       6.654   6.274   6.256  1.00  0.00    -0.014 A 
ATOM     73  C   UNL     1       7.326   7.354   6.849  1.00  0.00     0.009 A 
ATOM     74  C   UNL     1       5.979   6.481   5.042  1.00  0.00     0.009 A 
ATOM     75  C   UNL     1       7.294   8.619   6.256  1.00  0.00     0.001 A 
ATOM     76  C   UNL     1       5.979   7.738   4.434  1.00  0.00     0.001 A 
ATOM     77  C   UNL     1       6.625   8.808   5.048  1.00  0.00     0.000 A 
ENDBRANCH  53  72
BRANCH  65  78
ATOM     78  C   UNL     1       3.790   3.936  12.158  1.00  0.00    -0.014 A 
ATOM     79  C   UNL     1       2.483   4.399  11.940  1.00  0.00     0.009 A 
ATOM     80  C   UNL     1       4.358   4.084  13.434  1.00  0.00     0.009 A 
ATOM     81  C   UNL     1       1.776   5.030  12.966  1.00  0.00     0.001 A 
ATOM     82  C   UNL     1       3.636   4.685  14.467  1.00  0.00     0.001 A 
ATOM     83  C   UNL     1       2.351   5.167  14.229  1.00  0.00     0.000 A 
ENDBRANCH  65  78
ENDBRANCH  39  40
ENDBRANCH  32  34
ENDBRANCH  31  32
ENDBRANCH  30  31
ENDBRANCH  29  30
ENDBRANCH  28  29
ENDBRANCH   1  28
TORSDOF 17
