REMARK SMILES C[C@@H](C(=O)OCCOCCOC(=O)c1ccc(-c2c3nc(c(-c4ccccc4)c4ccc([nH]4)c(-c4ccccc4)c4nc(c(-c5ccccc5)c5ccc2[nH]5)C=C4)C=C3)cc1)c1ccc(C[C@H]2CCC[C@H]2O)cc1-c1ccc(O)cc1
REMARK SMILES IDX 7 1 6 2 5 3 3 4 4 5 2 6 1 7 62 8 63 9 74 10 64 11 73 12
REMARK SMILES IDX 65 13 75 14 76 15 81 16 77 17 80 18 78 19 79 20 66 22 67 23
REMARK SMILES IDX 68 24 71 25 69 26 70 27 72 28 8 30 9 31 10 32 11 33 12 34
REMARK SMILES IDX 13 35 14 36 15 37 61 38 16 39 60 40 17 41 18 42 19 43 54 44
REMARK SMILES IDX 20 45 59 46 53 47 55 48 21 49 58 50 52 51 51 52 22 54 44 55
REMARK SMILES IDX 29 56 43 57 30 58 33 59 42 60 56 61 31 62 32 63 41 65 57 66
REMARK SMILES IDX 34 67 23 68 24 69 28 70 25 71 27 72 26 73 45 74 46 75 50 76
REMARK SMILES IDX 47 77 49 78 48 79 35 80 36 81 40 82 37 83 39 84 38 85
REMARK H PARENT 79 21 72 29 55 53 33 64
REMARK Flexibility Score: inf
ROOT
ATOM      1  C   UNL     1       3.104  -2.571  -3.539  1.00  0.00     0.202 C 
ENDROOT
BRANCH   1   2
ATOM      2  C   UNL     1       2.618  -1.256  -4.167  1.00  0.00     0.261 C 
BRANCH   2   3
ATOM      3  O   UNL     1       2.031  -0.378  -3.194  1.00  0.00    -0.463 OA
BRANCH   3   4
ATOM      4  C   UNL     1       0.676  -0.238  -3.288  1.00  0.00     0.313 C 
ATOM      5  O   UNL     1       0.017  -0.609  -4.252  1.00  0.00    -0.252 OA
BRANCH   4   6
ATOM      6  C   UNL     1       0.109   0.545  -2.109  1.00  0.00     0.127 C 
ATOM      7  C   UNL     1       0.799   0.443  -0.742  1.00  0.00     0.025 C 
BRANCH   6   8
ATOM      8  C   UNL     1      -1.406   0.404  -1.971  1.00  0.00    -0.026 A 
ATOM      9  C   UNL     1      -2.121   1.597  -2.202  1.00  0.00     0.005 A 
ATOM     10  C   UNL     1      -2.132  -0.770  -1.632  1.00  0.00    -0.014 A 
ATOM     11  C   UNL     1      -3.497   1.664  -2.046  1.00  0.00     0.004 A 
ATOM     12  C   UNL     1      -3.520  -0.646  -1.415  1.00  0.00     0.012 A 
ATOM     13  C   UNL     1      -4.198   0.564  -1.572  1.00  0.00    -0.047 A 
BRANCH  10  14
ATOM     14  C   UNL     1      -1.618  -2.151  -1.534  1.00  0.00    -0.018 A 
ATOM     15  C   UNL     1      -1.418  -2.917  -2.698  1.00  0.00     0.012 A 
ATOM     16  C   UNL     1      -1.520  -2.810  -0.294  1.00  0.00     0.012 A 
ATOM     17  C   UNL     1      -1.039  -4.262  -2.633  1.00  0.00     0.047 A 
ATOM     18  C   UNL     1      -1.192  -4.170  -0.225  1.00  0.00     0.047 A 
ATOM     19  C   UNL     1      -0.906  -4.867  -1.393  1.00  0.00     0.115 A 
BRANCH  19  20
ATOM     20  O   UNL     1      -0.404  -6.130  -1.293  1.00  0.00    -0.508 OA
ATOM     21  H   UNL     1      -0.204  -6.617  -2.068  1.00  0.00     0.293 HD
ENDBRANCH  19  20
ENDBRANCH  10  14
BRANCH  13  22
ATOM     22  C   UNL     1      -5.645   0.685  -1.189  1.00  0.00     0.041 C 
BRANCH  22  23
ATOM     23  C   UNL     1      -5.923   1.185   0.238  1.00  0.00     0.022 C 
ATOM     24  C   UNL     1      -5.276   0.380   1.379  1.00  0.00     0.007 C 
ATOM     25  C   UNL     1      -5.594   2.649   0.576  1.00  0.00     0.117 C 
ATOM     26  C   UNL     1      -5.119   1.361   2.546  1.00  0.00     0.003 C 
ATOM     27  C   UNL     1      -5.759   2.671   2.090  1.00  0.00     0.032 C 
BRANCH  25  28
ATOM     28  O   UNL     1      -4.271   3.063   0.280  1.00  0.00    -0.393 OA
ATOM     29  H   UNL     1      -3.642   2.509   0.768  1.00  0.00     0.210 HD
ENDBRANCH  25  28
ENDBRANCH  22  23
ENDBRANCH  13  22
ENDBRANCH   6   8
ENDBRANCH   4   6
ENDBRANCH   3   4
ENDBRANCH   2   3
ENDBRANCH   1   2
BRANCH   1  30
ATOM     30  O   UNL     1       2.229  -3.216  -2.608  1.00  0.00    -0.374 OA
BRANCH  30  31
ATOM     31  C   UNL     1       2.026  -2.480  -1.401  1.00  0.00     0.202 C 
BRANCH  31  32
ATOM     32  C   UNL     1       1.934  -3.334  -0.139  1.00  0.00     0.261 C 
BRANCH  32  33
ATOM     33  O   UNL     1       3.235  -3.754   0.232  1.00  0.00    -0.460 OA
BRANCH  33  34
ATOM     34  C   UNL     1       3.693  -4.756  -0.555  1.00  0.00     0.338 C 
ATOM     35  O   UNL     1       3.048  -5.626  -1.115  1.00  0.00    -0.246 OA
BRANCH  34  36
ATOM     36  C   UNL     1       5.099  -4.423  -0.818  1.00  0.00     0.060 A 
ATOM     37  C   UNL     1       5.634  -4.764  -2.063  1.00  0.00     0.016 A 
ATOM     38  C   UNL     1       5.845  -3.706   0.127  1.00  0.00     0.016 A 
ATOM     39  C   UNL     1       6.956  -4.449  -2.340  1.00  0.00     0.010 A 
ATOM     40  C   UNL     1       7.153  -3.368  -0.157  1.00  0.00     0.010 A 
ATOM     41  C   UNL     1       7.719  -3.794  -1.366  1.00  0.00    -0.014 A 
BRANCH  41  42
ATOM     42  C   UNL     1       9.180  -3.747  -1.482  1.00  0.00     0.031 A 
ATOM     43  C   UNL     1       9.961  -4.764  -0.703  1.00  0.00     0.074 A 
ATOM     44  C   UNL     1       9.763  -2.787  -2.211  1.00  0.00     0.049 A 
ATOM     45  N   UNL     1      11.252  -4.885  -0.565  1.00  0.00    -0.248 NA
ATOM     46  C   UNL     1       9.176  -5.766   0.044  1.00  0.00     0.031 C 
ATOM     47  C   UNL     1       9.059  -1.764  -2.986  1.00  0.00     0.029 A 
ATOM     48  N   UNL     1      11.086  -2.511  -2.403  1.00  0.00    -0.354 N 
ATOM     49  C   UNL     1      11.431  -5.962   0.294  1.00  0.00     0.074 A 
ATOM     50  C   UNL     1      10.123  -6.432   0.682  1.00  0.00     0.031 C 
ATOM     51  C   UNL     1       9.966  -0.967  -3.575  1.00  0.00     0.029 A 
ATOM     52  C   UNL     1      11.303  -1.410  -3.191  1.00  0.00     0.049 A 
ATOM     53  H   UNL     1      11.813  -3.049  -2.014  1.00  0.00     0.167 HD
ATOM     54  C   UNL     1      12.592  -6.511   0.712  1.00  0.00     0.031 A 
ATOM     55  C   UNL     1      12.463  -0.831  -3.544  1.00  0.00     0.031 A 
ATOM     56  C   UNL     1      13.878  -6.011   0.315  1.00  0.00     0.049 A 
ATOM     57  C   UNL     1      13.743  -1.446  -3.046  1.00  0.00     0.074 A 
ATOM     58  C   UNL     1      15.132  -6.494   0.636  1.00  0.00     0.029 A 
ATOM     59  N   UNL     1      14.064  -4.898  -0.494  1.00  0.00    -0.354 N 
ATOM     60  N   UNL     1      13.910  -2.498  -2.278  1.00  0.00    -0.248 NA
ATOM     61  C   UNL     1      14.991  -0.805  -3.474  1.00  0.00     0.031 C 
ATOM     62  C   UNL     1      16.079  -5.641   0.060  1.00  0.00     0.029 A 
ATOM     63  C   UNL     1      15.414  -4.663  -0.667  1.00  0.00     0.049 A 
ATOM     64  H   UNL     1      13.341  -4.357  -0.887  1.00  0.00     0.167 HD
ATOM     65  C   UNL     1      15.282  -2.664  -2.153  1.00  0.00     0.074 A 
ATOM     66  C   UNL     1      15.898  -1.610  -2.938  1.00  0.00     0.031 C 
ATOM     67  C   UNL     1      15.978  -3.598  -1.458  1.00  0.00     0.031 A 
BRANCH  54  68
ATOM     68  C   UNL     1      12.507  -7.678   1.654  1.00  0.00    -0.014 A 
ATOM     69  C   UNL     1      12.011  -8.924   1.234  1.00  0.00     0.009 A 
ATOM     70  C   UNL     1      12.920  -7.529   2.986  1.00  0.00     0.009 A 
ATOM     71  C   UNL     1      11.896  -9.983   2.137  1.00  0.00     0.001 A 
ATOM     72  C   UNL     1      12.832  -8.598   3.880  1.00  0.00     0.001 A 
ATOM     73  C   UNL     1      12.311  -9.821   3.458  1.00  0.00     0.000 A 
ENDBRANCH  54  68
BRANCH  55  74
ATOM     74  C   UNL     1      12.462   0.368  -4.419  1.00  0.00    -0.014 A 
ATOM     75  C   UNL     1      12.918   0.282  -5.743  1.00  0.00     0.009 A 
ATOM     76  C   UNL     1      11.990   1.602  -3.944  1.00  0.00     0.009 A 
ATOM     77  C   UNL     1      12.923   1.412  -6.565  1.00  0.00     0.001 A 
ATOM     78  C   UNL     1      11.970   2.723  -4.776  1.00  0.00     0.001 A 
ATOM     79  C   UNL     1      12.445   2.629  -6.083  1.00  0.00     0.000 A 
ENDBRANCH  55  74
BRANCH  67  80
ATOM     80  C   UNL     1      17.474  -3.534  -1.551  1.00  0.00    -0.014 A 
ATOM     81  C   UNL     1      18.201  -2.532  -0.892  1.00  0.00     0.009 A 
ATOM     82  C   UNL     1      18.163  -4.523  -2.269  1.00  0.00     0.009 A 
ATOM     83  C   UNL     1      19.593  -2.502  -0.981  1.00  0.00     0.001 A 
ATOM     84  C   UNL     1      19.556  -4.509  -2.329  1.00  0.00     0.001 A 
ATOM     85  C   UNL     1      20.269  -3.493  -1.694  1.00  0.00     0.000 A 
ENDBRANCH  67  80
ENDBRANCH  41  42
ENDBRANCH  34  36
ENDBRANCH  33  34
ENDBRANCH  32  33
ENDBRANCH  31  32
ENDBRANCH  30  31
ENDBRANCH   1  30
TORSDOF 20
