REMARK SMILES O=C(OCCOCCOC(=O)[C@H]1C[N@H+](Cc2ccc(Cl)c(Cl)c2)CC12CCCCC2)c1ccc(-c2c3nc(c(-c4ccccc4)c4ccc([nH]4)c(-c4ccccc4)c4nc(c(-c5ccccc5)c5ccc2[nH]5)C=C4)C=C3)cc1
REMARK SMILES IDX 6 1 5 2 4 3 3 4 2 5 1 6 31 7 32 8 78 9 33 10 77 11 34 12
REMARK SMILES IDX 35 13 36 14 71 15 37 16 76 17 70 18 72 19 38 20 75 21 69 22
REMARK SMILES IDX 68 23 39 25 61 26 46 27 60 28 47 29 50 30 59 31 73 32 48 33
REMARK SMILES IDX 49 34 58 36 74 37 51 38 40 39 41 40 45 41 42 42 44 43 43 44
REMARK SMILES IDX 62 45 63 46 67 47 64 48 66 49 65 50 52 51 53 52 57 53 54 54
REMARK SMILES IDX 56 55 55 56 7 57 8 58 9 59 10 60 11 61 12 62 13 63 25 64
REMARK SMILES IDX 14 65 24 66 26 67 30 68 27 70 29 71 28 72 15 73 16 74 17 75
REMARK SMILES IDX 23 76 18 77 21 78 19 79 22 80 20 81
REMARK H PARENT 72 24 50 35 14 69
REMARK Flexibility Score: inf
ROOT
ATOM      1  O   UNL     1       3.272  -1.092  -1.348  1.00  0.00    -0.374 OA
ENDROOT
BRANCH   1   2
ATOM      2  C   UNL     1       3.833  -0.957  -0.061  1.00  0.00     0.202 C 
BRANCH   2   3
ATOM      3  C   UNL     1       3.295   0.197   0.770  1.00  0.00     0.261 C 
BRANCH   3   4
ATOM      4  O   UNL     1       1.874   0.329   0.604  1.00  0.00    -0.460 OA
BRANCH   4   5
ATOM      5  C   UNL     1       1.306   1.138  -0.331  1.00  0.00     0.338 C 
ATOM      6  O   UNL     1       0.093   1.181  -0.491  1.00  0.00    -0.246 OA
BRANCH   5   7
ATOM      7  C   UNL     1       2.177   2.056  -1.094  1.00  0.00     0.060 A 
ATOM      8  C   UNL     1       3.127   1.568  -1.986  1.00  0.00     0.016 A 
ATOM      9  C   UNL     1       2.029   3.430  -0.951  1.00  0.00     0.016 A 
ATOM     10  C   UNL     1       4.090   2.376  -2.530  1.00  0.00     0.010 A 
ATOM     11  C   UNL     1       2.841   4.274  -1.710  1.00  0.00     0.010 A 
ATOM     12  C   UNL     1       3.877   3.739  -2.498  1.00  0.00    -0.014 A 
BRANCH  12  13
ATOM     13  C   UNL     1       4.718   4.580  -3.358  1.00  0.00     0.031 A 
ATOM     14  C   UNL     1       5.517   5.653  -2.715  1.00  0.00     0.074 A 
ATOM     15  C   UNL     1       4.741   4.352  -4.687  1.00  0.00     0.049 A 
ATOM     16  N   UNL     1       6.051   6.710  -3.252  1.00  0.00    -0.248 NA
ATOM     17  C   UNL     1       5.707   5.536  -1.260  1.00  0.00     0.031 C 
ATOM     18  C   UNL     1       4.090   3.228  -5.379  1.00  0.00     0.029 A 
ATOM     19  N   UNL     1       5.333   5.053  -5.700  1.00  0.00    -0.354 N 
ATOM     20  C   UNL     1       6.558   7.438  -2.188  1.00  0.00     0.074 A 
ATOM     21  C   UNL     1       6.289   6.692  -0.980  1.00  0.00     0.031 C 
ATOM     22  C   UNL     1       4.342   3.305  -6.691  1.00  0.00     0.029 A 
ATOM     23  C   UNL     1       5.039   4.552  -6.946  1.00  0.00     0.049 A 
ATOM     24  H   UNL     1       5.912   5.836  -5.552  1.00  0.00     0.167 HD
ATOM     25  C   UNL     1       7.155   8.649  -2.243  1.00  0.00     0.031 A 
ATOM     26  C   UNL     1       5.227   5.095  -8.160  1.00  0.00     0.031 A 
ATOM     27  C   UNL     1       7.381   9.333  -3.487  1.00  0.00     0.049 A 
ATOM     28  C   UNL     1       5.833   6.464  -8.199  1.00  0.00     0.074 A 
ATOM     29  C   UNL     1       7.931  10.579  -3.711  1.00  0.00     0.029 A 
ATOM     30  N   UNL     1       7.060   8.800  -4.734  1.00  0.00    -0.354 N 
ATOM     31  N   UNL     1       6.225   7.215  -7.194  1.00  0.00    -0.248 NA
ATOM     32  C   UNL     1       6.004   7.074  -9.519  1.00  0.00     0.031 C 
ATOM     33  C   UNL     1       7.899  10.817  -5.090  1.00  0.00     0.029 A 
ATOM     34  C   UNL     1       7.391   9.694  -5.732  1.00  0.00     0.049 A 
ATOM     35  H   UNL     1       6.656   7.915  -4.881  1.00  0.00     0.167 HD
ATOM     36  C   UNL     1       6.715   8.380  -7.758  1.00  0.00     0.074 A 
ATOM     37  C   UNL     1       6.572   8.230  -9.197  1.00  0.00     0.031 C 
ATOM     38  C   UNL     1       7.237   9.474  -7.151  1.00  0.00     0.031 A 
BRANCH  25  39
ATOM     39  C   UNL     1       7.462   9.308  -0.929  1.00  0.00    -0.014 A 
ATOM     40  C   UNL     1       8.422   8.793  -0.041  1.00  0.00     0.009 A 
ATOM     41  C   UNL     1       6.696  10.414  -0.527  1.00  0.00     0.009 A 
ATOM     42  C   UNL     1       8.556   9.326   1.244  1.00  0.00     0.001 A 
ATOM     43  C   UNL     1       6.857  10.968   0.745  1.00  0.00     0.001 A 
ATOM     44  C   UNL     1       7.772  10.411   1.636  1.00  0.00     0.000 A 
ENDBRANCH  25  39
BRANCH  26  45
ATOM     45  C   UNL     1       4.759   4.379  -9.377  1.00  0.00    -0.014 A 
ATOM     46  C   UNL     1       5.679   3.845 -10.290  1.00  0.00     0.009 A 
ATOM     47  C   UNL     1       3.387   4.161  -9.599  1.00  0.00     0.009 A 
ATOM     48  C   UNL     1       5.237   3.118 -11.400  1.00  0.00     0.001 A 
ATOM     49  C   UNL     1       2.949   3.408 -10.692  1.00  0.00     0.001 A 
ATOM     50  C   UNL     1       3.874   2.893 -11.596  1.00  0.00     0.000 A 
ENDBRANCH  26  45
BRANCH  38  51
ATOM     51  C   UNL     1       7.753  10.555  -8.050  1.00  0.00    -0.014 A 
ATOM     52  C   UNL     1       6.884  11.436  -8.707  1.00  0.00     0.009 A 
ATOM     53  C   UNL     1       9.140  10.741  -8.156  1.00  0.00     0.009 A 
ATOM     54  C   UNL     1       7.400  12.484  -9.467  1.00  0.00     0.001 A 
ATOM     55  C   UNL     1       9.651  11.807  -8.891  1.00  0.00     0.001 A 
ATOM     56  C   UNL     1       8.781  12.675  -9.549  1.00  0.00     0.000 A 
ENDBRANCH  38  51
ENDBRANCH  12  13
ENDBRANCH   5   7
ENDBRANCH   4   5
ENDBRANCH   3   4
ENDBRANCH   2   3
ENDBRANCH   1   2
BRANCH   1  57
ATOM     57  C   UNL     1       2.244  -2.048  -1.532  1.00  0.00     0.202 C 
BRANCH  57  58
ATOM     58  C   UNL     1       2.844  -3.207  -2.321  1.00  0.00     0.261 C 
BRANCH  58  59
ATOM     59  O   UNL     1       3.681  -3.973  -1.442  1.00  0.00    -0.463 OA
BRANCH  59  60
ATOM     60  C   UNL     1       4.964  -3.548  -1.198  1.00  0.00     0.315 C 
ATOM     61  O   UNL     1       5.607  -2.752  -1.865  1.00  0.00    -0.252 OA
BRANCH  60  62
ATOM     62  C   UNL     1       5.431  -4.275   0.038  1.00  0.00     0.166 C 
ATOM     63  C   UNL     1       6.234  -5.473  -0.421  1.00  0.00     0.278 C 
ATOM     64  C   UNL     1       6.195  -3.663   1.252  1.00  0.00     0.038 C 
ATOM     65  N   UNL     1       6.816  -6.000   0.802  1.00  0.00    -0.330 N 
ATOM     66  C   UNL     1       7.158  -4.834   1.625  1.00  0.00     0.270 C 
ATOM     67  C   UNL     1       7.004  -2.368   1.009  1.00  0.00     0.014 C 
ATOM     68  C   UNL     1       5.183  -3.374   2.397  1.00  0.00     0.014 C 
ATOM     69  H   UNL     1       7.670  -6.522   0.605  1.00  0.00     0.348 HD
ATOM     70  C   UNL     1       7.569  -1.731   2.294  1.00  0.00     0.001 C 
ATOM     71  C   UNL     1       5.799  -2.845   3.681  1.00  0.00     0.001 C 
ATOM     72  C   UNL     1       6.527  -1.546   3.397  1.00  0.00     0.000 C 
BRANCH  65  73
ATOM     73  C   UNL     1       6.094  -7.112   1.439  1.00  0.00     0.299 C 
BRANCH  73  74
ATOM     74  C   UNL     1       4.768  -6.830   2.122  1.00  0.00     0.008 A 
ATOM     75  C   UNL     1       3.577  -6.683   1.391  1.00  0.00     0.011 A 
ATOM     76  C   UNL     1       4.720  -6.651   3.516  1.00  0.00     0.031 A 
ATOM     77  C   UNL     1       2.409  -6.224   2.012  1.00  0.00     0.022 A 
ATOM     78  C   UNL     1       3.544  -6.221   4.146  1.00  0.00     0.060 A 
ATOM     79  C   UNL     1       2.396  -5.973   3.386  1.00  0.00     0.059 A 
ATOM     80  Cl  UNL     1       3.609  -5.929   5.847  1.00  0.00    -0.083 Cl
ATOM     81  Cl  UNL     1       0.957  -5.302   4.068  1.00  0.00    -0.083 Cl
ENDBRANCH  73  74
ENDBRANCH  65  73
ENDBRANCH  60  62
ENDBRANCH  59  60
ENDBRANCH  58  59
ENDBRANCH  57  58
ENDBRANCH   1  57
TORSDOF 16
