REMARK SMILES C[C@@H]1[C@@H](C(=O)OCCOCCOC(=O)c2ccc(-c3c4nc(c(-c5ccccc5)c5ccc([nH]5)c(-c5ccccc5)c5nc(c(-c6ccccc6)c6ccc3[nH]6)C=C5)C=C4)cc2)CCN1C(=O)N1CCC[C@H]2CCC[C@@H]21
REMARK SMILES IDX 9 1 8 2 7 3 6 4 4 5 5 6 3 7 1 8 2 9 65 10 63 11 64 12 66 13
REMARK SMILES IDX 67 14 68 15 69 16 76 17 70 18 72 19 75 20 71 21 73 22 74 23
REMARK SMILES IDX 10 24 11 25 12 26 13 27 14 28 15 29 16 30 62 31 17 32 61 33
REMARK SMILES IDX 18 34 19 35 20 36 55 37 21 38 60 39 54 40 56 41 22 42 59 43
REMARK SMILES IDX 53 44 52 45 23 47 45 48 30 49 44 50 31 51 34 52 43 53 57 54
REMARK SMILES IDX 32 55 33 56 42 58 58 59 35 60 24 61 25 62 29 63 26 64 28 65
REMARK SMILES IDX 27 66 46 67 47 68 51 69 48 70 50 71 49 72 36 73 37 74 41 75
REMARK SMILES IDX 38 76 40 77 39 78
REMARK H PARENT 56 46 34 57
REMARK Flexibility Score: inf
ROOT
ATOM      1  O   UNL     1      -0.120   2.405  -4.475  1.00  0.00    -0.374 OA
ENDROOT
BRANCH   1   2
ATOM      2  C   UNL     1      -1.544   2.397  -4.392  1.00  0.00     0.202 C 
BRANCH   2   3
ATOM      3  C   UNL     1      -2.188   1.233  -3.633  1.00  0.00     0.261 C 
BRANCH   3   4
ATOM      4  O   UNL     1      -1.847   1.248  -2.236  1.00  0.00    -0.463 OA
BRANCH   4   5
ATOM      5  C   UNL     1      -0.896   0.337  -1.885  1.00  0.00     0.311 C 
ATOM      6  O   UNL     1      -0.407  -0.475  -2.656  1.00  0.00    -0.252 OA
BRANCH   5   7
ATOM      7  C   UNL     1      -0.425   0.578  -0.461  1.00  0.00     0.123 C 
ATOM      8  C   UNL     1       1.640   0.249   0.951  1.00  0.00     0.032 C 
ATOM      9  C   UNL     1       0.761  -0.345  -0.153  1.00  0.00     0.098 C 
ATOM     10  N   UNL     1       0.101  -1.594   0.253  1.00  0.00    -0.321 N 
ATOM     11  C   UNL     1      -1.456   0.176   0.588  1.00  0.00     0.039 C 
ATOM     12  C   UNL     1      -1.247  -1.327   0.742  1.00  0.00     0.122 C 
BRANCH  10  13
ATOM     13  C   UNL     1       0.355  -2.851  -0.290  1.00  0.00     0.320 C 
ATOM     14  O   UNL     1      -0.468  -3.763  -0.239  1.00  0.00    -0.248 OA
BRANCH  13  15
ATOM     15  N   UNL     1       1.530  -2.965  -0.998  1.00  0.00    -0.321 N 
ATOM     16  C   UNL     1       2.821  -2.864  -0.329  1.00  0.00     0.121 C 
ATOM     17  C   UNL     1       1.591  -3.660  -2.272  1.00  0.00     0.090 C 
ATOM     18  C   UNL     1       3.857  -2.156  -1.208  1.00  0.00     0.022 C 
ATOM     19  C   UNL     1       2.493  -2.836  -3.197  1.00  0.00     0.012 C 
ATOM     20  C   UNL     1       0.335  -3.815  -3.126  1.00  0.00     0.025 C 
ATOM     21  C   UNL     1       3.906  -2.739  -2.631  1.00  0.00     0.007 C 
ATOM     22  C   UNL     1       2.334  -3.528  -4.540  1.00  0.00     0.006 C 
ATOM     23  C   UNL     1       0.865  -3.971  -4.560  1.00  0.00     0.002 C 
ENDBRANCH  13  15
ENDBRANCH  10  13
ENDBRANCH   5   7
ENDBRANCH   4   5
ENDBRANCH   3   4
ENDBRANCH   2   3
ENDBRANCH   1   2
BRANCH   1  24
ATOM     24  C   UNL     1       0.609   2.898  -3.352  1.00  0.00     0.202 C 
BRANCH  24  25
ATOM     25  C   UNL     1       0.654   4.420  -3.174  1.00  0.00     0.261 C 
BRANCH  25  26
ATOM     26  O   UNL     1      -0.639   4.955  -2.837  1.00  0.00    -0.460 OA
BRANCH  26  27
ATOM     27  C   UNL     1      -1.196   5.734  -3.792  1.00  0.00     0.338 C 
ATOM     28  O   UNL     1      -0.684   6.102  -4.842  1.00  0.00    -0.246 OA
BRANCH  27  29
ATOM     29  C   UNL     1      -2.623   5.956  -3.498  1.00  0.00     0.060 A 
ATOM     30  C   UNL     1      -3.544   5.648  -4.508  1.00  0.00     0.016 A 
ATOM     31  C   UNL     1      -3.049   6.523  -2.295  1.00  0.00     0.016 A 
ATOM     32  C   UNL     1      -4.890   5.960  -4.343  1.00  0.00     0.010 A 
ATOM     33  C   UNL     1      -4.401   6.846  -2.135  1.00  0.00     0.010 A 
ATOM     34  C   UNL     1      -5.319   6.601  -3.173  1.00  0.00    -0.014 A 
BRANCH  34  35
ATOM     35  C   UNL     1      -6.691   7.156  -3.112  1.00  0.00     0.031 A 
ATOM     36  C   UNL     1      -6.902   8.613  -3.422  1.00  0.00     0.074 A 
ATOM     37  C   UNL     1      -7.742   6.368  -2.826  1.00  0.00     0.049 A 
ATOM     38  N   UNL     1      -8.011   9.307  -3.427  1.00  0.00    -0.248 NA
ATOM     39  C   UNL     1      -5.702   9.389  -3.776  1.00  0.00     0.031 C 
ATOM     40  C   UNL     1      -7.676   4.933  -2.554  1.00  0.00     0.029 A 
ATOM     41  N   UNL     1      -9.075   6.672  -2.718  1.00  0.00    -0.354 N 
ATOM     42  C   UNL     1      -7.643  10.600  -3.779  1.00  0.00     0.074 A 
ATOM     43  C   UNL     1      -6.207  10.601  -3.953  1.00  0.00     0.031 C 
ATOM     44  C   UNL     1      -8.917   4.480  -2.306  1.00  0.00     0.029 A 
ATOM     45  C   UNL     1      -9.857   5.598  -2.374  1.00  0.00     0.049 A 
ATOM     46  H   UNL     1      -9.437   7.574  -2.873  1.00  0.00     0.167 HD
ATOM     47  C   UNL     1      -8.430  11.688  -3.949  1.00  0.00     0.031 A 
ATOM     48  C   UNL     1     -11.179   5.528  -2.126  1.00  0.00     0.031 A 
ATOM     49  C   UNL     1      -9.856  11.695  -3.764  1.00  0.00     0.049 A 
ATOM     50  C   UNL     1     -12.021   6.770  -2.245  1.00  0.00     0.074 A 
ATOM     51  C   UNL     1     -10.742  12.746  -3.924  1.00  0.00     0.029 A 
ATOM     52  N   UNL     1     -10.603  10.597  -3.371  1.00  0.00    -0.354 N 
ATOM     53  N   UNL     1     -11.665   7.981  -2.600  1.00  0.00    -0.248 NA
ATOM     54  C   UNL     1     -13.452   6.631  -1.933  1.00  0.00     0.031 C 
ATOM     55  C   UNL     1     -12.020  12.296  -3.578  1.00  0.00     0.029 A 
ATOM     56  C   UNL     1     -11.937  10.951  -3.256  1.00  0.00     0.049 A 
ATOM     57  H   UNL     1     -10.240   9.698  -3.199  1.00  0.00     0.167 HD
ATOM     58  C   UNL     1     -12.828   8.740  -2.581  1.00  0.00     0.074 A 
ATOM     59  C   UNL     1     -13.903   7.851  -2.191  1.00  0.00     0.031 C 
ATOM     60  C   UNL     1     -12.993  10.055  -2.865  1.00  0.00     0.031 A 
BRANCH  47  61
ATOM     61  C   UNL     1      -7.753  12.976  -4.325  1.00  0.00    -0.014 A 
ATOM     62  C   UNL     1      -7.238  13.178  -5.615  1.00  0.00     0.009 A 
ATOM     63  C   UNL     1      -7.654  14.011  -3.382  1.00  0.00     0.009 A 
ATOM     64  C   UNL     1      -6.609  14.381  -5.943  1.00  0.00     0.001 A 
ATOM     65  C   UNL     1      -7.048  15.221  -3.720  1.00  0.00     0.001 A 
ATOM     66  C   UNL     1      -6.519  15.403  -4.997  1.00  0.00     0.000 A 
ENDBRANCH  47  61
BRANCH  48  67
ATOM     67  C   UNL     1     -11.793   4.238  -1.720  1.00  0.00    -0.014 A 
ATOM     68  C   UNL     1     -12.655   3.550  -2.588  1.00  0.00     0.009 A 
ATOM     69  C   UNL     1     -11.534   3.697  -0.451  1.00  0.00     0.009 A 
ATOM     70  C   UNL     1     -13.263   2.360  -2.183  1.00  0.00     0.001 A 
ATOM     71  C   UNL     1     -12.122   2.494  -0.059  1.00  0.00     0.001 A 
ATOM     72  C   UNL     1     -12.993   1.830  -0.922  1.00  0.00     0.000 A 
ENDBRANCH  48  67
BRANCH  60  73
ATOM     73  C   UNL     1     -14.390  10.604  -2.796  1.00  0.00    -0.014 A 
ATOM     74  C   UNL     1     -15.025  10.829  -1.565  1.00  0.00     0.009 A 
ATOM     75  C   UNL     1     -15.063  10.941  -3.981  1.00  0.00     0.009 A 
ATOM     76  C   UNL     1     -16.319  11.351  -1.525  1.00  0.00     0.001 A 
ATOM     77  C   UNL     1     -16.346  11.487  -3.937  1.00  0.00     0.001 A 
ATOM     78  C   UNL     1     -16.976  11.684  -2.709  1.00  0.00     0.000 A 
ENDBRANCH  60  73
ENDBRANCH  34  35
ENDBRANCH  27  29
ENDBRANCH  26  27
ENDBRANCH  25  26
ENDBRANCH  24  25
ENDBRANCH   1  24
TORSDOF 16
