REMARK SMILES C[C@@H]1CCN(c2cncc(C(=O)OCCOCCOC(=O)c3ccc(-c4c5nc(c(-c6ccccc6)c6ccc([nH]6)c(-c6ccccc6)c6nc(c(-c7ccccc7)c7ccc4[nH]7)C=C6)C=C5)cc3)n2)[C@H](C)C1
REMARK SMILES IDX 17 1 16 2 15 3 14 4 13 5 11 6 12 7 10 8 6 9 7 10 70 11 8 12
REMARK SMILES IDX 9 13 5 14 1 15 2 16 3 17 73 18 4 19 71 20 72 21 18 22 19 23
REMARK SMILES IDX 20 24 21 25 22 26 23 27 69 28 24 29 68 30 25 31 26 32 27 33
REMARK SMILES IDX 62 34 28 35 67 36 61 37 63 38 29 39 66 40 60 41 59 42 30 44
REMARK SMILES IDX 52 45 37 46 51 47 38 48 41 49 50 50 64 51 39 52 40 53 49 55
REMARK SMILES IDX 65 56 42 57 31 58 32 59 36 60 33 61 35 62 34 63 53 64 54 65
REMARK SMILES IDX 58 66 55 67 57 68 56 69 43 70 44 71 48 72 45 73 47 74 46 75
REMARK H PARENT 63 43 41 54
REMARK Flexibility Score: inf
ROOT
ATOM      1  C   UNL     1       6.662   6.336  -4.012  1.00  0.00     0.202 C 
ENDROOT
BRANCH   1   2
ATOM      2  O   UNL     1       6.482   7.725  -3.725  1.00  0.00    -0.374 OA
BRANCH   2   3
ATOM      3  C   UNL     1       5.880   8.039  -2.468  1.00  0.00     0.202 C 
BRANCH   3   4
ATOM      4  C   UNL     1       4.347   8.049  -2.468  1.00  0.00     0.261 C 
BRANCH   4   5
ATOM      5  O   UNL     1       3.826   6.726  -2.688  1.00  0.00    -0.458 OA
BRANCH   5   6
ATOM      6  C   UNL     1       3.248   6.516  -3.897  1.00  0.00     0.358 C 
ATOM      7  O   UNL     1       2.996   7.363  -4.742  1.00  0.00    -0.244 OA
BRANCH   6   8
ATOM      8  C   UNL     1       3.139   5.064  -4.164  1.00  0.00     0.169 A 
ATOM      9  C   UNL     1       2.828   2.884  -3.440  1.00  0.00     0.148 A 
ATOM     10  C   UNL     1       3.146   2.480  -4.746  1.00  0.00     0.157 A 
ATOM     11  N   UNL     1       2.848   4.208  -3.146  1.00  0.00    -0.221 NA
ATOM     12  N   UNL     1       3.452   3.323  -5.769  1.00  0.00    -0.258 NA
ATOM     13  C   UNL     1       3.425   4.632  -5.447  1.00  0.00     0.147 A 
BRANCH   9  14
ATOM     14  N   UNL     1       2.450   1.995  -2.451  1.00  0.00    -0.353 N 
ATOM     15  C   UNL     1       0.920  -0.510  -0.051  1.00  0.00     0.008 C 
ATOM     16  C   UNL     1       0.549   0.056  -1.422  1.00  0.00    -0.011 C 
ATOM     17  C   UNL     1       1.587  -0.297  -2.499  1.00  0.00     0.025 C 
ATOM     18  C   UNL     1       0.285   1.571  -1.393  1.00  0.00     0.028 C 
ATOM     19  C   UNL     1       2.833   0.586  -2.434  1.00  0.00     0.118 C 
ATOM     20  C   UNL     1       1.535   2.470  -1.406  1.00  0.00     0.081 C 
ATOM     21  C   UNL     1       2.243   2.580  -0.058  1.00  0.00     0.031 C 
ENDBRANCH   9  14
ENDBRANCH   6   8
ENDBRANCH   5   6
ENDBRANCH   4   5
ENDBRANCH   3   4
ENDBRANCH   2   3
ENDBRANCH   1   2
BRANCH   1  22
ATOM     22  C   UNL     1       7.927   5.701  -3.425  1.00  0.00     0.261 C 
BRANCH  22  23
ATOM     23  O   UNL     1       7.840   5.597  -1.993  1.00  0.00    -0.460 OA
BRANCH  23  24
ATOM     24  C   UNL     1       8.641   6.442  -1.308  1.00  0.00     0.338 C 
ATOM     25  O   UNL     1       9.494   7.191  -1.765  1.00  0.00    -0.246 OA
BRANCH  24  26
ATOM     26  C   UNL     1       8.239   6.476   0.110  1.00  0.00     0.060 A 
ATOM     27  C   UNL     1       8.078   7.735   0.703  1.00  0.00     0.016 A 
ATOM     28  C   UNL     1       8.077   5.312   0.865  1.00  0.00     0.016 A 
ATOM     29  C   UNL     1       7.807   7.836   2.066  1.00  0.00     0.010 A 
ATOM     30  C   UNL     1       7.811   5.415   2.235  1.00  0.00     0.010 A 
ATOM     31  C   UNL     1       7.710   6.677   2.847  1.00  0.00    -0.014 A 
BRANCH  31  32
ATOM     32  C   UNL     1       7.641   6.794   4.323  1.00  0.00     0.031 A 
ATOM     33  C   UNL     1       8.893   6.598   5.132  1.00  0.00     0.074 A 
ATOM     34  C   UNL     1       6.484   7.103   4.936  1.00  0.00     0.049 A 
ATOM     35  N   UNL     1       9.057   6.641   6.430  1.00  0.00    -0.248 NA
ATOM     36  C   UNL     1      10.125   6.315   4.378  1.00  0.00     0.031 C 
ATOM     37  C   UNL     1       5.212   7.359   4.263  1.00  0.00     0.029 A 
ATOM     38  N   UNL     1       6.198   7.251   6.270  1.00  0.00    -0.354 N 
ATOM     39  C   UNL     1      10.405   6.385   6.648  1.00  0.00     0.074 A 
ATOM     40  C   UNL     1      11.009   6.159   5.353  1.00  0.00     0.031 C 
ATOM     41  C   UNL     1       4.277   7.630   5.191  1.00  0.00     0.029 A 
ATOM     42  C   UNL     1       4.879   7.535   6.520  1.00  0.00     0.049 A 
ATOM     43  H   UNL     1       6.875   7.162   6.979  1.00  0.00     0.167 HD
ATOM     44  C   UNL     1      11.082   6.347   7.820  1.00  0.00     0.031 A 
ATOM     45  C   UNL     1       4.227   7.684   7.689  1.00  0.00     0.031 A 
ATOM     46  C   UNL     1      10.483   6.559   9.111  1.00  0.00     0.049 A 
ATOM     47  C   UNL     1       4.987   7.560   8.982  1.00  0.00     0.074 A 
ATOM     48  C   UNL     1      11.091   6.557  10.354  1.00  0.00     0.029 A 
ATOM     49  N   UNL     1       9.136   6.802   9.323  1.00  0.00    -0.354 N 
ATOM     50  N   UNL     1       6.266   7.345   9.173  1.00  0.00    -0.248 NA
ATOM     51  C   UNL     1       4.210   7.707  10.222  1.00  0.00     0.031 C 
ATOM     52  C   UNL     1      10.101   6.745  11.324  1.00  0.00     0.029 A 
ATOM     53  C   UNL     1       8.887   6.923  10.680  1.00  0.00     0.049 A 
ATOM     54  H   UNL     1       8.456   6.878   8.615  1.00  0.00     0.167 HD
ATOM     55  C   UNL     1       6.451   7.358  10.550  1.00  0.00     0.074 A 
ATOM     56  C   UNL     1       5.157   7.616  11.146  1.00  0.00     0.031 C 
ATOM     57  C   UNL     1       7.593   7.177  11.258  1.00  0.00     0.031 A 
BRANCH  44  58
ATOM     58  C   UNL     1      12.550   6.030   7.759  1.00  0.00    -0.014 A 
ATOM     59  C   UNL     1      13.478   6.961   7.266  1.00  0.00     0.009 A 
ATOM     60  C   UNL     1      13.014   4.792   8.231  1.00  0.00     0.009 A 
ATOM     61  C   UNL     1      14.838   6.644   7.217  1.00  0.00     0.001 A 
ATOM     62  C   UNL     1      14.376   4.489   8.206  1.00  0.00     0.001 A 
ATOM     63  C   UNL     1      15.286   5.412   7.691  1.00  0.00     0.000 A 
ENDBRANCH  44  58
BRANCH  45  64
ATOM     64  C   UNL     1       2.764   7.948   7.696  1.00  0.00    -0.014 A 
ATOM     65  C   UNL     1       2.263   9.194   8.102  1.00  0.00     0.009 A 
ATOM     66  C   UNL     1       1.860   6.943   7.316  1.00  0.00     0.009 A 
ATOM     67  C   UNL     1       0.885   9.420   8.149  1.00  0.00     0.001 A 
ATOM     68  C   UNL     1       0.485   7.182   7.337  1.00  0.00     0.001 A 
ATOM     69  C   UNL     1      -0.002   8.416   7.763  1.00  0.00     0.000 A 
ENDBRANCH  45  64
BRANCH  57  70
ATOM     70  C   UNL     1       7.501   7.286  12.755  1.00  0.00    -0.014 A 
ATOM     71  C   UNL     1       6.893   6.282  13.524  1.00  0.00     0.009 A 
ATOM     72  C   UNL     1       8.070   8.392  13.406  1.00  0.00     0.009 A 
ATOM     73  C   UNL     1       6.828   6.400  14.914  1.00  0.00     0.001 A 
ATOM     74  C   UNL     1       8.029   8.493  14.798  1.00  0.00     0.001 A 
ATOM     75  C   UNL     1       7.400   7.502  15.550  1.00  0.00     0.000 A 
ENDBRANCH  57  70
ENDBRANCH  31  32
ENDBRANCH  24  26
ENDBRANCH  23  24
ENDBRANCH  22  23
ENDBRANCH   1  22
TORSDOF 15
