REMARK SMILES O=C(OCCOCCOC(=O)c1cc(-c2ccn(C(F)F)c(=O)c2)ccc1O)c1ccc(-c2c3nc(c(-c4ccccc4)c4ccc([nH]4)c(-c4ccccc4)c4nc(c(-c5ccccc5)c5ccc2[nH]5)C=C4)C=C3)cc1
REMARK SMILES IDX 6 1 5 2 4 3 3 4 2 5 1 6 29 7 30 8 76 9 31 10 75 11 32 12
REMARK SMILES IDX 33 13 34 14 69 15 35 16 74 17 68 18 70 19 36 20 73 21 67 22
REMARK SMILES IDX 66 23 37 25 59 26 44 27 58 28 45 29 48 30 57 31 71 32 46 33
REMARK SMILES IDX 47 34 56 36 72 37 49 38 38 39 39 40 43 41 40 42 42 43 41 44
REMARK SMILES IDX 60 45 61 46 65 47 62 48 64 49 63 50 50 51 51 52 55 53 52 54
REMARK SMILES IDX 54 55 53 56 7 57 8 58 9 59 10 60 11 61 12 62 13 63 27 64
REMARK SMILES IDX 14 65 26 66 25 67 28 68 15 70 16 71 24 72 17 73 22 74 18 75
REMARK SMILES IDX 23 76 19 77 20 78 21 79
REMARK H PARENT 70 24 48 35 28 69
REMARK Flexibility Score: inf
ROOT
ATOM      1  O   UNL     1       4.161  -0.870   1.266  1.00  0.00    -0.374 OA
ENDROOT
BRANCH   1   2
ATOM      2  C   UNL     1       4.526   0.502   1.405  1.00  0.00     0.202 C 
BRANCH   2   3
ATOM      3  C   UNL     1       4.375   1.298   0.108  1.00  0.00     0.261 C 
BRANCH   3   4
ATOM      4  O   UNL     1       3.014   1.288  -0.352  1.00  0.00    -0.460 OA
BRANCH   4   5
ATOM      5  C   UNL     1       2.399   0.464  -1.229  1.00  0.00     0.338 C 
ATOM      6  O   UNL     1       1.222   0.707  -1.500  1.00  0.00    -0.246 OA
BRANCH   5   7
ATOM      7  C   UNL     1       3.009  -0.755  -1.865  1.00  0.00     0.060 A 
ATOM      8  C   UNL     1       2.215  -1.419  -2.823  1.00  0.00     0.016 A 
ATOM      9  C   UNL     1       4.237  -1.336  -1.544  1.00  0.00     0.016 A 
ATOM     10  C   UNL     1       2.620  -2.625  -3.404  1.00  0.00     0.010 A 
ATOM     11  C   UNL     1       4.640  -2.547  -2.096  1.00  0.00     0.010 A 
ATOM     12  C   UNL     1       3.835  -3.197  -3.028  1.00  0.00    -0.014 A 
BRANCH  12  13
ATOM     13  C   UNL     1       4.399  -4.374  -3.705  1.00  0.00     0.031 A 
ATOM     14  C   UNL     1       4.372  -5.723  -3.066  1.00  0.00     0.074 A 
ATOM     15  C   UNL     1       5.107  -4.136  -4.822  1.00  0.00     0.049 A 
ATOM     16  N   UNL     1       4.855  -6.849  -3.521  1.00  0.00    -0.248 NA
ATOM     17  C   UNL     1       3.748  -5.824  -1.738  1.00  0.00     0.031 C 
ATOM     18  C   UNL     1       5.268  -2.815  -5.437  1.00  0.00     0.029 A 
ATOM     19  N   UNL     1       5.858  -4.968  -5.604  1.00  0.00    -0.354 N 
ATOM     20  C   UNL     1       4.585  -7.796  -2.543  1.00  0.00     0.074 A 
ATOM     21  C   UNL     1       3.934  -7.107  -1.451  1.00  0.00     0.031 C 
ATOM     22  C   UNL     1       6.084  -2.923  -6.492  1.00  0.00     0.029 A 
ATOM     23  C   UNL     1       6.502  -4.314  -6.623  1.00  0.00     0.049 A 
ATOM     24  H   UNL     1       5.929  -5.938  -5.451  1.00  0.00     0.167 HD
ATOM     25  C   UNL     1       4.858  -9.122  -2.579  1.00  0.00     0.031 A 
ATOM     26  C   UNL     1       7.337  -4.785  -7.566  1.00  0.00     0.031 A 
ATOM     27  C   UNL     1       5.543  -9.754  -3.679  1.00  0.00     0.049 A 
ATOM     28  C   UNL     1       7.611  -6.255  -7.602  1.00  0.00     0.074 A 
ATOM     29  C   UNL     1       5.760 -11.103  -3.896  1.00  0.00     0.029 A 
ATOM     30  N   UNL     1       6.150  -9.075  -4.727  1.00  0.00    -0.354 N 
ATOM     31  N   UNL     1       7.197  -7.181  -6.769  1.00  0.00    -0.248 NA
ATOM     32  C   UNL     1       8.431  -6.757  -8.709  1.00  0.00     0.031 C 
ATOM     33  C   UNL     1       6.569 -11.233  -5.027  1.00  0.00     0.029 A 
ATOM     34  C   UNL     1       6.792  -9.973  -5.562  1.00  0.00     0.049 A 
ATOM     35  H   UNL     1       6.128  -8.099  -4.857  1.00  0.00     0.167 HD
ATOM     36  C   UNL     1       7.693  -8.380  -7.254  1.00  0.00     0.074 A 
ATOM     37  C   UNL     1       8.428  -8.063  -8.465  1.00  0.00     0.031 C 
ATOM     38  C   UNL     1       7.546  -9.628  -6.745  1.00  0.00     0.031 A 
BRANCH  25  39
ATOM     39  C   UNL     1       4.422  -9.983  -1.423  1.00  0.00    -0.014 A 
ATOM     40  C   UNL     1       5.380 -10.674  -0.662  1.00  0.00     0.009 A 
ATOM     41  C   UNL     1       3.062 -10.206  -1.151  1.00  0.00     0.009 A 
ATOM     42  C   UNL     1       4.989 -11.575   0.332  1.00  0.00     0.001 A 
ATOM     43  C   UNL     1       2.673 -11.085  -0.136  1.00  0.00     0.001 A 
ATOM     44  C   UNL     1       3.636 -11.777   0.597  1.00  0.00     0.000 A 
ENDBRANCH  25  39
BRANCH  26  45
ATOM     45  C   UNL     1       7.853  -3.828  -8.576  1.00  0.00    -0.014 A 
ATOM     46  C   UNL     1       8.806  -2.858  -8.219  1.00  0.00     0.009 A 
ATOM     47  C   UNL     1       7.242  -3.750  -9.835  1.00  0.00     0.009 A 
ATOM     48  C   UNL     1       9.099  -1.802  -9.086  1.00  0.00     0.001 A 
ATOM     49  C   UNL     1       7.554  -2.705 -10.708  1.00  0.00     0.001 A 
ATOM     50  C   UNL     1       8.468  -1.723 -10.326  1.00  0.00     0.000 A 
ENDBRANCH  26  45
BRANCH  38  51
ATOM     51  C   UNL     1       8.220 -10.757  -7.470  1.00  0.00    -0.014 A 
ATOM     52  C   UNL     1       7.447 -11.726  -8.129  1.00  0.00     0.009 A 
ATOM     53  C   UNL     1       9.610 -10.930  -7.388  1.00  0.00     0.009 A 
ATOM     54  C   UNL     1       8.049 -12.864  -8.665  1.00  0.00     0.001 A 
ATOM     55  C   UNL     1      10.213 -12.055  -7.953  1.00  0.00     0.001 A 
ATOM     56  C   UNL     1       9.431 -13.026  -8.578  1.00  0.00     0.000 A 
ENDBRANCH  38  51
ENDBRANCH  12  13
ENDBRANCH   5   7
ENDBRANCH   4   5
ENDBRANCH   3   4
ENDBRANCH   2   3
ENDBRANCH   1   2
BRANCH   1  57
ATOM     57  C   UNL     1       2.828  -1.197   1.672  1.00  0.00     0.202 C 
BRANCH  57  58
ATOM     58  C   UNL     1       2.879  -2.124   2.884  1.00  0.00     0.261 C 
BRANCH  58  59
ATOM     59  O   UNL     1       3.421  -1.388   3.987  1.00  0.00    -0.460 OA
BRANCH  59  60
ATOM     60  C   UNL     1       4.760  -1.485   4.179  1.00  0.00     0.342 C 
ATOM     61  O   UNL     1       5.536  -2.256   3.638  1.00  0.00    -0.246 OA
BRANCH  60  62
ATOM     62  C   UNL     1       5.191  -0.318   4.977  1.00  0.00     0.102 A 
ATOM     63  C   UNL     1       6.315   0.396   4.526  1.00  0.00     0.028 A 
ATOM     64  C   UNL     1       4.477   0.130   6.093  1.00  0.00     0.130 A 
ATOM     65  C   UNL     1       6.687   1.583   5.161  1.00  0.00    -0.017 A 
ATOM     66  C   UNL     1       4.858   1.301   6.741  1.00  0.00     0.048 A 
ATOM     67  C   UNL     1       5.952   2.028   6.270  1.00  0.00     0.012 A 
BRANCH  64  68
ATOM     68  O   UNL     1       3.415  -0.584   6.572  1.00  0.00    -0.507 OA
ATOM     69  H   UNL     1       3.150  -1.374   6.144  1.00  0.00     0.293 HD
ENDBRANCH  64  68
BRANCH  65  70
ATOM     70  C   UNL     1       7.846   2.377   4.721  1.00  0.00    -0.011 A 
ATOM     71  C   UNL     1       9.163   2.196   5.295  1.00  0.00     0.027 A 
ATOM     72  C   UNL     1       7.641   3.378   3.847  1.00  0.00     0.080 A 
ATOM     73  C   UNL     1      10.140   3.072   5.038  1.00  0.00     0.095 A 
ATOM     74  C   UNL     1       8.734   4.339   3.520  1.00  0.00     0.255 A 
ATOM     75  N   UNL     1       9.932   4.143   4.189  1.00  0.00    -0.258 N 
ATOM     76  O   UNL     1       8.497   5.242   2.725  1.00  0.00    -0.269 OA
BRANCH  75  77
ATOM     77  C   UNL     1      10.961   5.133   3.998  1.00  0.00     0.451 C 
ATOM     78  F   UNL     1      11.306   5.245   2.693  1.00  0.00    -0.185 F 
ATOM     79  F   UNL     1      10.542   6.349   4.428  1.00  0.00    -0.185 F 
ENDBRANCH  75  77
ENDBRANCH  65  70
ENDBRANCH  60  62
ENDBRANCH  59  60
ENDBRANCH  58  59
ENDBRANCH  57  58
ENDBRANCH   1  57
TORSDOF 17
