REMARK SMILES Cc1nc(C)c(C(=O)N[C@@H](Cc2ccccc2)C(=O)OCCOCCOC(=O)c2ccc(-c3c4nc(c(-c5ccccc5)c5ccc([nH]5)c(-c5ccccc5)c5nc(c(-c6ccccc6)c6ccc3[nH]6)C=C5)C=C4)cc2)s1
REMARK SMILES IDX 23 1 22 2 21 3 20 4 18 5 19 6 10 7 9 8 7 9 8 10 6 12 1 13
REMARK SMILES IDX 2 14 3 15 77 16 4 17 5 18 11 19 12 20 13 21 17 22 14 23
REMARK SMILES IDX 16 24 15 25 24 26 25 27 26 28 27 29 28 30 29 31 30 32 76 33
REMARK SMILES IDX 31 34 75 35 32 36 33 37 34 38 69 39 35 40 74 41 68 42 70 43
REMARK SMILES IDX 36 44 73 45 67 46 66 47 37 49 59 50 44 51 58 52 45 53 48 54
REMARK SMILES IDX 57 55 71 56 46 57 47 58 56 60 72 61 49 62 38 63 39 64 43 65
REMARK SMILES IDX 40 66 42 67 41 68 60 69 61 70 65 71 62 72 64 73 63 74 50 75
REMARK SMILES IDX 51 76 55 77 52 78 54 79 53 80
REMARK H PARENT 9 11 70 48 48 59
REMARK Flexibility Score: inf
ROOT
ATOM      1  O   UNL     1       1.269  -4.268  -4.096  1.00  0.00    -0.374 OA
ENDROOT
BRANCH   1   2
ATOM      2  C   UNL     1       1.373  -5.644  -3.735  1.00  0.00     0.202 C 
BRANCH   2   3
ATOM      3  C   UNL     1       1.946  -5.939  -2.345  1.00  0.00     0.261 C 
BRANCH   3   4
ATOM      4  O   UNL     1       1.190  -5.292  -1.310  1.00  0.00    -0.462 OA
BRANCH   4   5
ATOM      5  C   UNL     1       1.919  -4.681  -0.332  1.00  0.00     0.329 C 
ATOM      6  O   UNL     1       3.136  -4.766  -0.212  1.00  0.00    -0.250 OA
BRANCH   5   7
ATOM      7  C   UNL     1       1.028  -3.962   0.696  1.00  0.00     0.197 C 
BRANCH   7   8
ATOM      8  N   UNL     1      -0.343  -3.715   0.220  1.00  0.00    -0.338 N 
ATOM      9  C   UNL     1      -1.048  -2.587  -0.129  1.00  0.00     0.263 C 
ATOM     10  O   UNL     1      -2.210  -2.804  -0.486  1.00  0.00    -0.268 OA
ATOM     11  H   UNL     1      -0.873  -4.541   0.133  1.00  0.00     0.164 HD
BRANCH   9  12
ATOM     12  C   UNL     1      -0.507  -1.237  -0.077  1.00  0.00     0.115 A 
ATOM     13  C   UNL     1       1.937   1.800  -0.098  1.00  0.00     0.079 C 
ATOM     14  C   UNL     1       0.831   0.804  -0.103  1.00  0.00     0.091 A 
ATOM     15  N   UNL     1      -0.428   1.106   0.102  1.00  0.00    -0.246 NA
ATOM     16  S   UNL     1       1.133  -0.848  -0.414  1.00  0.00    -0.113 S 
ATOM     17  C   UNL     1      -1.212  -0.042   0.073  1.00  0.00     0.061 A 
ATOM     18  C   UNL     1      -2.681   0.169   0.214  1.00  0.00     0.068 C 
ENDBRANCH   9  12
ENDBRANCH   7   8
BRANCH   7  19
ATOM     19  C   UNL     1       1.049  -4.753   2.017  1.00  0.00     0.072 C 
BRANCH  19  20
ATOM     20  C   UNL     1       0.487  -6.153   1.924  1.00  0.00    -0.045 A 
ATOM     21  C   UNL     1      -0.869  -6.392   2.178  1.00  0.00     0.004 A 
ATOM     22  C   UNL     1       1.312  -7.228   1.561  1.00  0.00     0.004 A 
ATOM     23  C   UNL     1      -1.391  -7.681   2.065  1.00  0.00     0.000 A 
ATOM     24  C   UNL     1       0.787  -8.515   1.443  1.00  0.00     0.000 A 
ATOM     25  C   UNL     1      -0.565  -8.741   1.694  1.00  0.00     0.000 A 
ENDBRANCH  19  20
ENDBRANCH   7  19
ENDBRANCH   5   7
ENDBRANCH   4   5
ENDBRANCH   3   4
ENDBRANCH   2   3
ENDBRANCH   1   2
BRANCH   1  26
ATOM     26  C   UNL     1       0.251  -3.493  -3.459  1.00  0.00     0.202 C 
BRANCH  26  27
ATOM     27  C   UNL     1      -1.202  -3.792  -3.853  1.00  0.00     0.261 C 
BRANCH  27  28
ATOM     28  O   UNL     1      -1.626  -5.118  -3.484  1.00  0.00    -0.460 OA
BRANCH  28  29
ATOM     29  C   UNL     1      -2.016  -5.895  -4.522  1.00  0.00     0.338 C 
ATOM     30  O   UNL     1      -2.080  -5.581  -5.704  1.00  0.00    -0.246 OA
BRANCH  29  31
ATOM     31  C   UNL     1      -2.228  -7.285  -4.086  1.00  0.00     0.060 A 
ATOM     32  C   UNL     1      -1.463  -8.282  -4.706  1.00  0.00     0.016 A 
ATOM     33  C   UNL     1      -3.249  -7.624  -3.197  1.00  0.00     0.016 A 
ATOM     34  C   UNL     1      -1.751  -9.626  -4.477  1.00  0.00     0.010 A 
ATOM     35  C   UNL     1      -3.543  -8.975  -2.976  1.00  0.00     0.010 A 
ATOM     36  C   UNL     1      -2.820  -9.981  -3.643  1.00  0.00    -0.014 A 
BRANCH  36  37
ATOM     37  C   UNL     1      -3.260 -11.397  -3.584  1.00  0.00     0.031 A 
ATOM     38  C   UNL     1      -4.411 -11.848  -4.442  1.00  0.00     0.074 A 
ATOM     39  C   UNL     1      -2.614 -12.285  -2.808  1.00  0.00     0.049 A 
ATOM     40  N   UNL     1      -4.953 -13.036  -4.545  1.00  0.00    -0.248 NA
ATOM     41  C   UNL     1      -5.032 -10.826  -5.301  1.00  0.00     0.031 C 
ATOM     42  C   UNL     1      -1.456 -11.990  -1.966  1.00  0.00     0.029 A 
ATOM     43  N   UNL     1      -2.846 -13.623  -2.607  1.00  0.00    -0.354 N 
ATOM     44  C   UNL     1      -5.976 -12.905  -5.476  1.00  0.00     0.074 A 
ATOM     45  C   UNL     1      -5.998 -11.518  -5.889  1.00  0.00     0.031 C 
ATOM     46  C   UNL     1      -1.079 -13.116  -1.336  1.00  0.00     0.029 A 
ATOM     47  C   UNL     1      -1.986 -14.200  -1.708  1.00  0.00     0.049 A 
ATOM     48  H   UNL     1      -3.562 -14.120  -3.064  1.00  0.00     0.167 HD
ATOM     49  C   UNL     1      -6.820 -13.852  -5.950  1.00  0.00     0.031 A 
ATOM     50  C   UNL     1      -1.944 -15.458  -1.226  1.00  0.00     0.031 A 
ATOM     51  C   UNL     1      -6.815 -15.229  -5.534  1.00  0.00     0.049 A 
ATOM     52  C   UNL     1      -2.946 -16.473  -1.706  1.00  0.00     0.074 A 
ATOM     53  C   UNL     1      -7.626 -16.264  -5.966  1.00  0.00     0.029 A 
ATOM     54  N   UNL     1      -5.960 -15.761  -4.582  1.00  0.00    -0.354 N 
ATOM     55  N   UNL     1      -3.894 -16.339  -2.602  1.00  0.00    -0.248 NA
ATOM     56  C   UNL     1      -2.868 -17.814  -1.108  1.00  0.00     0.031 C 
ATOM     57  C   UNL     1      -7.294 -17.413  -5.239  1.00  0.00     0.029 A 
ATOM     58  C   UNL     1      -6.242 -17.103  -4.392  1.00  0.00     0.049 A 
ATOM     59  H   UNL     1      -5.257 -15.259  -4.111  1.00  0.00     0.167 HD
ATOM     60  C   UNL     1      -4.508 -17.583  -2.692  1.00  0.00     0.074 A 
ATOM     61  C   UNL     1      -3.817 -18.461  -1.771  1.00  0.00     0.031 C 
ATOM     62  C   UNL     1      -5.550 -17.964  -3.470  1.00  0.00     0.031 A 
BRANCH  49  63
ATOM     63  C   UNL     1      -7.847 -13.420  -6.957  1.00  0.00    -0.014 A 
ATOM     64  C   UNL     1      -7.489 -13.137  -8.284  1.00  0.00     0.009 A 
ATOM     65  C   UNL     1      -9.197 -13.331  -6.582  1.00  0.00     0.009 A 
ATOM     66  C   UNL     1      -8.460 -12.745  -9.208  1.00  0.00     0.001 A 
ATOM     67  C   UNL     1     -10.168 -12.961  -7.513  1.00  0.00     0.001 A 
ATOM     68  C   UNL     1      -9.798 -12.661  -8.823  1.00  0.00     0.000 A 
ENDBRANCH  49  63
BRANCH  50  69
ATOM     69  C   UNL     1      -0.928 -15.830  -0.208  1.00  0.00    -0.014 A 
ATOM     70  C   UNL     1       0.129 -16.693  -0.534  1.00  0.00     0.009 A 
ATOM     71  C   UNL     1      -1.027 -15.342   1.104  1.00  0.00     0.009 A 
ATOM     72  C   UNL     1       1.053 -17.078   0.441  1.00  0.00     0.001 A 
ATOM     73  C   UNL     1      -0.088 -15.708   2.070  1.00  0.00     0.001 A 
ATOM     74  C   UNL     1       0.946 -16.582   1.740  1.00  0.00     0.000 A 
ENDBRANCH  50  69
BRANCH  62  75
ATOM     75  C   UNL     1      -5.988 -19.398  -3.380  1.00  0.00    -0.014 A 
ATOM     76  C   UNL     1      -6.703 -19.871  -2.269  1.00  0.00     0.009 A 
ATOM     77  C   UNL     1      -5.717 -20.277  -4.440  1.00  0.00     0.009 A 
ATOM     78  C   UNL     1      -7.112 -21.205  -2.209  1.00  0.00     0.001 A 
ATOM     79  C   UNL     1      -6.149 -21.603  -4.389  1.00  0.00     0.001 A 
ATOM     80  C   UNL     1      -6.838 -22.068  -3.270  1.00  0.00     0.000 A 
ENDBRANCH  62  75
ENDBRANCH  36  37
ENDBRANCH  29  31
ENDBRANCH  28  29
ENDBRANCH  27  28
ENDBRANCH  26  27
ENDBRANCH   1  26
TORSDOF 18
