REMARK SMILES CCc1ccc2c(CC(=O)OCCOCCOC(=O)c3ccc(-c4c5nc(c(-c6ccccc6)c6ccc([nH]6)c(-c6ccccc6)c6nc(c(-c7ccccc7)c7ccc4[nH]7)C=C6)C=C5)cc3)c(C(=O)c3cc(C)ccn3)[nH]c2c1
REMARK SMILES IDX 13 1 12 2 11 3 9 4 10 5 8 6 7 7 3 8 4 9 80 10 5 11 79 12
REMARK SMILES IDX 6 13 78 14 68 15 2 17 1 18 69 19 70 20 71 21 72 22 77 23
REMARK SMILES IDX 73 24 76 25 74 26 75 27 14 28 15 29 16 30 17 31 18 32 19 33
REMARK SMILES IDX 20 34 21 35 67 36 22 37 66 38 23 39 24 40 25 41 60 42 26 43
REMARK SMILES IDX 65 44 59 45 61 46 27 47 64 48 58 49 57 50 28 52 50 53 35 54
REMARK SMILES IDX 49 55 36 56 39 57 48 58 62 59 37 60 38 61 47 63 63 64 40 65
REMARK SMILES IDX 29 66 30 67 34 68 31 69 33 70 32 71 51 72 52 73 56 74 53 75
REMARK SMILES IDX 55 76 54 77 41 78 42 79 46 80 43 81 45 82 44 83
REMARK H PARENT 78 16 61 51 39 62
REMARK Flexibility Score: inf
ROOT
ATOM      1  C   UNL     1       5.640  -7.489  -4.933  1.00  0.00     0.202 C 
ENDROOT
BRANCH   1   2
ATOM      2  C   UNL     1       5.345  -6.114  -5.550  1.00  0.00     0.261 C 
BRANCH   2   3
ATOM      3  O   UNL     1       4.031  -5.603  -5.239  1.00  0.00    -0.463 OA
BRANCH   3   4
ATOM      4  C   UNL     1       3.356  -5.081  -6.301  1.00  0.00     0.310 C 
ATOM      5  O   UNL     1       3.857  -4.918  -7.413  1.00  0.00    -0.252 OA
BRANCH   4   6
ATOM      6  C   UNL     1       1.890  -4.785  -6.069  1.00  0.00     0.161 C 
BRANCH   6   7
ATOM      7  C   UNL     1       1.394  -4.591  -4.659  1.00  0.00     0.000 A 
ATOM      8  C   UNL     1       0.970  -1.158  -2.231  1.00  0.00    -0.046 A 
ATOM      9  C   UNL     1       1.730  -0.994  -3.394  1.00  0.00     0.004 A 
ATOM     10  C   UNL     1       0.514  -2.439  -1.875  1.00  0.00     0.030 A 
ATOM     11  C   UNL     1       1.998  -2.074  -4.247  1.00  0.00     0.011 A 
ATOM     12  C   UNL     1       0.768  -3.501  -2.756  1.00  0.00     0.046 A 
ATOM     13  C   UNL     1       1.470  -3.345  -3.945  1.00  0.00     0.004 A 
ATOM     14  N   UNL     1       0.393  -4.821  -2.686  1.00  0.00    -0.352 N 
ATOM     15  C   UNL     1       0.600  -5.458  -3.893  1.00  0.00     0.093 A 
ATOM     16  H   UNL     1       0.025  -5.254  -1.882  1.00  0.00     0.167 HD
BRANCH   8  17
ATOM     17  C   UNL     1       0.577   0.050  -1.411  1.00  0.00     0.032 C 
ATOM     18  C   UNL     1       1.118   0.032   0.009  1.00  0.00     0.009 C 
ENDBRANCH   8  17
BRANCH  15  19
ATOM     19  C   UNL     1       0.057  -6.773  -4.252  1.00  0.00     0.227 C 
ATOM     20  O   UNL     1       0.150  -7.250  -5.381  1.00  0.00    -0.285 OA
BRANCH  19  21
ATOM     21  C   UNL     1      -0.595  -7.623  -3.205  1.00  0.00     0.113 A 
ATOM     22  C   UNL     1      -1.795  -7.264  -2.606  1.00  0.00     0.036 A 
ATOM     23  N   UNL     1       0.086  -8.754  -2.885  1.00  0.00    -0.253 NA
ATOM     24  C   UNL     1      -2.302  -8.097  -1.600  1.00  0.00    -0.047 A 
ATOM     25  C   UNL     1      -0.412  -9.532  -1.908  1.00  0.00     0.112 A 
ATOM     26  C   UNL     1      -3.607  -7.809  -0.922  1.00  0.00     0.044 C 
ATOM     27  C   UNL     1      -1.586  -9.245  -1.241  1.00  0.00     0.023 A 
ENDBRANCH  19  21
ENDBRANCH  15  19
ENDBRANCH   6   7
ENDBRANCH   4   6
ENDBRANCH   3   4
ENDBRANCH   2   3
ENDBRANCH   1   2
BRANCH   1  28
ATOM     28  O   UNL     1       4.730  -8.549  -5.219  1.00  0.00    -0.374 OA
BRANCH  28  29
ATOM     29  C   UNL     1       3.384  -8.388  -4.779  1.00  0.00     0.202 C 
BRANCH  29  30
ATOM     30  C   UNL     1       3.154  -8.356  -3.267  1.00  0.00     0.261 C 
BRANCH  30  31
ATOM     31  O   UNL     1       4.033  -7.495  -2.544  1.00  0.00    -0.460 OA
BRANCH  31  32
ATOM     32  C   UNL     1       4.587  -8.061  -1.456  1.00  0.00     0.338 C 
ATOM     33  O   UNL     1       4.384  -9.170  -0.979  1.00  0.00    -0.246 OA
BRANCH  32  34
ATOM     34  C   UNL     1       5.600  -7.152  -0.928  1.00  0.00     0.060 A 
ATOM     35  C   UNL     1       6.940  -7.526  -1.056  1.00  0.00     0.016 A 
ATOM     36  C   UNL     1       5.221  -6.011  -0.218  1.00  0.00     0.016 A 
ATOM     37  C   UNL     1       7.914  -6.788  -0.398  1.00  0.00     0.010 A 
ATOM     38  C   UNL     1       6.200  -5.270   0.438  1.00  0.00     0.010 A 
ATOM     39  C   UNL     1       7.540  -5.690   0.391  1.00  0.00    -0.014 A 
BRANCH  39  40
ATOM     40  C   UNL     1       8.546  -5.093   1.292  1.00  0.00     0.031 A 
ATOM     41  C   UNL     1       8.568  -5.511   2.733  1.00  0.00     0.074 A 
ATOM     42  C   UNL     1       9.458  -4.237   0.806  1.00  0.00     0.049 A 
ATOM     43  N   UNL     1       9.412  -5.184   3.677  1.00  0.00    -0.248 NA
ATOM     44  C   UNL     1       7.493  -6.417   3.172  1.00  0.00     0.031 C 
ATOM     45  C   UNL     1       9.529  -3.778  -0.580  1.00  0.00     0.029 A 
ATOM     46  N   UNL     1      10.505  -3.611   1.428  1.00  0.00    -0.354 N 
ATOM     47  C   UNL     1       8.969  -5.840   4.819  1.00  0.00     0.074 A 
ATOM     48  C   UNL     1       7.763  -6.552   4.461  1.00  0.00     0.031 C 
ATOM     49  C   UNL     1      10.575  -2.945  -0.707  1.00  0.00     0.029 A 
ATOM     50  C   UNL     1      11.230  -2.802   0.591  1.00  0.00     0.049 A 
ATOM     51  H   UNL     1      10.717  -3.730   2.382  1.00  0.00     0.167 HD
ATOM     52  C   UNL     1       9.525  -5.853   6.053  1.00  0.00     0.031 A 
ATOM     53  C   UNL     1      12.304  -2.033   0.848  1.00  0.00     0.031 A 
ATOM     54  C   UNL     1      10.716  -5.128   6.401  1.00  0.00     0.049 A 
ATOM     55  C   UNL     1      12.891  -2.041   2.231  1.00  0.00     0.074 A 
ATOM     56  C   UNL     1      11.385  -5.090   7.612  1.00  0.00     0.029 A 
ATOM     57  N   UNL     1      11.412  -4.299   5.532  1.00  0.00    -0.354 N 
ATOM     58  N   UNL     1      12.497  -2.707   3.290  1.00  0.00    -0.248 NA
ATOM     59  C   UNL     1      14.080  -1.207   2.448  1.00  0.00     0.031 C 
ATOM     60  C   UNL     1      12.455  -4.196   7.489  1.00  0.00     0.029 A 
ATOM     61  C   UNL     1      12.485  -3.720   6.187  1.00  0.00     0.049 A 
ATOM     62  H   UNL     1      11.176  -4.145   4.589  1.00  0.00     0.167 HD
ATOM     63  C   UNL     1      13.398  -2.388   4.297  1.00  0.00     0.074 A 
ATOM     64  C   UNL     1      14.368  -1.481   3.713  1.00  0.00     0.031 C 
ATOM     65  C   UNL     1      13.425  -2.807   5.586  1.00  0.00     0.031 A 
BRANCH  52  66
ATOM     66  C   UNL     1       8.813  -6.644   7.116  1.00  0.00    -0.014 A 
ATOM     67  C   UNL     1       8.781  -8.048   7.088  1.00  0.00     0.009 A 
ATOM     68  C   UNL     1       8.151  -5.972   8.155  1.00  0.00     0.009 A 
ATOM     69  C   UNL     1       8.061  -8.759   8.051  1.00  0.00     0.001 A 
ATOM     70  C   UNL     1       7.456  -6.686   9.133  1.00  0.00     0.001 A 
ATOM     71  C   UNL     1       7.401  -8.078   9.073  1.00  0.00     0.000 A 
ENDBRANCH  52  66
BRANCH  53  72
ATOM     72  C   UNL     1      12.883  -1.206  -0.240  1.00  0.00    -0.014 A 
ATOM     73  C   UNL     1      14.102  -1.555  -0.839  1.00  0.00     0.009 A 
ATOM     74  C   UNL     1      12.187  -0.084  -0.719  1.00  0.00     0.009 A 
ATOM     75  C   UNL     1      14.616  -0.791  -1.889  1.00  0.00     0.001 A 
ATOM     76  C   UNL     1      12.691   0.663  -1.785  1.00  0.00     0.001 A 
ATOM     77  C   UNL     1      13.907   0.311  -2.366  1.00  0.00     0.000 A 
ENDBRANCH  53  72
BRANCH  65  78
ATOM     78  C   UNL     1      14.547  -2.297   6.444  1.00  0.00    -0.014 A 
ATOM     79  C   UNL     1      14.568  -0.969   6.899  1.00  0.00     0.009 A 
ATOM     80  C   UNL     1      15.575  -3.168   6.834  1.00  0.00     0.009 A 
ATOM     81  C   UNL     1      15.618  -0.516   7.700  1.00  0.00     0.001 A 
ATOM     82  C   UNL     1      16.608  -2.720   7.658  1.00  0.00     0.001 A 
ATOM     83  C   UNL     1      16.634  -1.392   8.082  1.00  0.00     0.000 A 
ENDBRANCH  65  78
ENDBRANCH  39  40
ENDBRANCH  32  34
ENDBRANCH  31  32
ENDBRANCH  30  31
ENDBRANCH  29  30
ENDBRANCH  28  29
ENDBRANCH   1  28
TORSDOF 18
