REMARK SMILES CC[N@@H+]1CCO[C@H](C[N@H+]2CCCCC[C@@H]2C(=O)OCCOCCOC(=O)c2ccc(-c3c4nc(c(-c5ccccc5)c5ccc([nH]5)c(-c5ccccc5)c5nc(c(-c6ccccc6)c6ccc3[nH]6)C=C5)C=C4)cc2)C1
REMARK SMILES IDX 20 1 19 2 18 3 16 4 17 5 15 6 9 7 8 9 7 10 3 11 4 12 75 13
REMARK SMILES IDX 5 15 6 16 2 17 1 18 10 19 11 20 14 22 13 23 12 24 21 26
REMARK SMILES IDX 22 27 23 28 24 29 25 30 26 31 27 32 28 33 74 34 29 35 73 36
REMARK SMILES IDX 30 37 31 38 32 39 67 40 33 41 72 42 66 43 68 44 34 45 71 46
REMARK SMILES IDX 65 47 64 48 35 50 57 51 42 52 56 53 43 54 46 55 55 56 69 57
REMARK SMILES IDX 44 58 45 59 54 61 70 62 47 63 36 64 37 65 41 66 38 67 40 68
REMARK SMILES IDX 39 69 58 70 59 71 63 72 60 73 62 74 61 75 48 76 49 77 53 78
REMARK SMILES IDX 50 79 52 80 51 81
REMARK H PARENT 9 8 3 14 68 49 46 60
REMARK Flexibility Score: 100.00
ROOT
ATOM      1  C   UNL     1      -4.945  -4.570  -5.690  1.00  0.00     0.202 C 
ENDROOT
BRANCH   1   2
ATOM      2  C   UNL     1      -4.128  -3.407  -5.120  1.00  0.00     0.261 C 
BRANCH   2   3
ATOM      3  O   UNL     1      -2.720  -3.542  -5.373  1.00  0.00    -0.459 OA
BRANCH   3   4
ATOM      4  C   UNL     1      -1.960  -3.867  -4.293  1.00  0.00     0.364 C 
ATOM      5  O   UNL     1      -2.406  -4.070  -3.165  1.00  0.00    -0.245 OA
BRANCH   4   6
ATOM      6  C   UNL     1      -0.452  -3.945  -4.611  1.00  0.00     0.295 C 
BRANCH   6   7
ATOM      7  N   UNL     1       0.173  -2.649  -4.270  1.00  0.00    -0.321 N 
ATOM      8  H   UNL     1      -0.436  -1.964  -4.717  1.00  0.00     0.348 HD
BRANCH   7   9
ATOM      9  C   UNL     1       0.169  -2.381  -2.804  1.00  0.00     0.301 C 
BRANCH   9  10
ATOM     10  C   UNL     1       0.915  -3.364  -1.853  1.00  0.00     0.228 C 
ATOM     11  N   UNL     1       1.380  -1.966   0.264  1.00  0.00    -0.331 N 
ATOM     12  C   UNL     1       2.805  -2.098  -0.099  1.00  0.00     0.291 C 
ATOM     13  C   UNL     1       0.645  -3.091  -0.349  1.00  0.00     0.300 C 
ATOM     14  H   UNL     1       1.293  -2.011   1.279  1.00  0.00     0.348 HD
ATOM     15  C   UNL     1       3.052  -2.314  -1.601  1.00  0.00     0.222 C 
ATOM     16  O   UNL     1       2.329  -3.437  -2.117  1.00  0.00    -0.361 OA
BRANCH  11  17
ATOM     17  C   UNL     1       0.807  -0.660  -0.072  1.00  0.00     0.258 C 
ATOM     18  C   UNL     1       1.167   0.402   0.957  1.00  0.00     0.071 C 
ENDBRANCH  11  17
ENDBRANCH   9  10
ENDBRANCH   7   9
BRANCH   7  19
ATOM     19  C   UNL     1       1.488  -2.408  -4.862  1.00  0.00     0.262 C 
BRANCH  19  20
ATOM     20  C   UNL     1       1.365  -1.840  -6.277  1.00  0.00     0.061 CG0
ATOM     21  G   UNL     1       1.134  -2.881  -7.361  1.00  0.00     0.000 G0
ENDBRANCH  19  20
ENDBRANCH   7  19
ENDBRANCH   6   7
BRANCH   6  22
ATOM     22  C   UNL     1      -0.144  -4.580  -5.983  1.00  0.00     0.077 C 
BRANCH  22  23
ATOM     23  C   UNL     1      -0.160  -3.666  -7.201  1.00  0.00     0.007 C 
BRANCH  23  24
ATOM     24  C   UNL     1       1.134  -2.881  -7.361  1.00  0.00     0.006 CG0
ATOM     25  G   UNL     1       1.365  -1.840  -6.277  1.00  0.00     0.000 G0
ENDBRANCH  23  24
ENDBRANCH  22  23
ENDBRANCH   6  22
ENDBRANCH   4   6
ENDBRANCH   3   4
ENDBRANCH   2   3
ENDBRANCH   1   2
BRANCH   1  26
ATOM     26  O   UNL     1      -4.752  -5.855  -5.107  1.00  0.00    -0.374 OA
BRANCH  26  27
ATOM     27  C   UNL     1      -3.547  -6.559  -5.399  1.00  0.00     0.202 C 
BRANCH  27  28
ATOM     28  C   UNL     1      -3.376  -7.090  -6.827  1.00  0.00     0.261 C 
BRANCH  28  29
ATOM     29  O   UNL     1      -3.256  -6.031  -7.795  1.00  0.00    -0.460 OA
BRANCH  29  30
ATOM     30  C   UNL     1      -4.215  -6.034  -8.749  1.00  0.00     0.338 C 
ATOM     31  O   UNL     1      -5.090  -6.874  -8.919  1.00  0.00    -0.246 OA
BRANCH  30  32
ATOM     32  C   UNL     1      -4.204  -4.773  -9.508  1.00  0.00     0.060 A 
ATOM     33  C   UNL     1      -5.389  -4.026  -9.525  1.00  0.00     0.016 A 
ATOM     34  C   UNL     1      -3.116  -4.400 -10.299  1.00  0.00     0.016 A 
ATOM     35  C   UNL     1      -5.518  -2.941 -10.387  1.00  0.00     0.010 A 
ATOM     36  C   UNL     1      -3.251  -3.316 -11.175  1.00  0.00     0.010 A 
ATOM     37  C   UNL     1      -4.469  -2.615 -11.256  1.00  0.00    -0.014 A 
BRANCH  37  38
ATOM     38  C   UNL     1      -4.732  -1.675 -12.372  1.00  0.00     0.031 A 
ATOM     39  C   UNL     1      -5.086  -2.235 -13.724  1.00  0.00     0.074 A 
ATOM     40  C   UNL     1      -4.726  -0.345 -12.176  1.00  0.00     0.049 A 
ATOM     41  N   UNL     1      -5.375  -1.605 -14.834  1.00  0.00    -0.248 NA
ATOM     42  C   UNL     1      -5.127  -3.703 -13.837  1.00  0.00     0.031 C 
ATOM     43  C   UNL     1      -4.457   0.323 -10.904  1.00  0.00     0.029 A 
ATOM     44  N   UNL     1      -4.963   0.682 -13.055  1.00  0.00    -0.354 N 
ATOM     45  C   UNL     1      -5.627  -2.596 -15.775  1.00  0.00     0.074 A 
ATOM     46  C   UNL     1      -5.431  -3.868 -15.116  1.00  0.00     0.031 C 
ATOM     47  C   UNL     1      -4.543   1.652 -11.085  1.00  0.00     0.029 A 
ATOM     48  C   UNL     1      -4.846   1.927 -12.489  1.00  0.00     0.049 A 
ATOM     49  H   UNL     1      -5.195   0.539 -14.001  1.00  0.00     0.167 HD
ATOM     50  C   UNL     1      -5.996  -2.462 -17.071  1.00  0.00     0.031 A 
ATOM     51  C   UNL     1      -4.956   3.149 -13.044  1.00  0.00     0.031 A 
ATOM     52  C   UNL     1      -6.182  -1.201 -17.736  1.00  0.00     0.049 A 
ATOM     53  C   UNL     1      -5.285   3.272 -14.508  1.00  0.00     0.074 A 
ATOM     54  C   UNL     1      -6.559  -0.964 -19.047  1.00  0.00     0.029 A 
ATOM     55  N   UNL     1      -5.999   0.036 -17.140  1.00  0.00    -0.354 N 
ATOM     56  N   UNL     1      -5.534   2.327 -15.383  1.00  0.00    -0.248 NA
ATOM     57  C   UNL     1      -5.354   4.634 -15.059  1.00  0.00     0.031 C 
ATOM     58  C   UNL     1      -6.556   0.419 -19.257  1.00  0.00     0.029 A 
ATOM     59  C   UNL     1      -6.230   1.042 -18.063  1.00  0.00     0.049 A 
ATOM     60  H   UNL     1      -5.743   0.179 -16.201  1.00  0.00     0.167 HD
ATOM     61  C   UNL     1      -5.815   2.980 -16.577  1.00  0.00     0.074 A 
ATOM     62  C   UNL     1      -5.718   4.400 -16.312  1.00  0.00     0.031 C 
ATOM     63  C   UNL     1      -6.130   2.450 -17.784  1.00  0.00     0.031 A 
BRANCH  50  64
ATOM     64  C   UNL     1      -6.188  -3.722 -17.866  1.00  0.00    -0.014 A 
ATOM     65  C   UNL     1      -7.307  -4.546 -17.665  1.00  0.00     0.009 A 
ATOM     66  C   UNL     1      -5.248  -4.076 -18.846  1.00  0.00     0.009 A 
ATOM     67  C   UNL     1      -7.463  -5.717 -18.410  1.00  0.00     0.001 A 
ATOM     68  C   UNL     1      -5.420  -5.234 -19.607  1.00  0.00     0.001 A 
ATOM     69  C   UNL     1      -6.522  -6.058 -19.382  1.00  0.00     0.000 A 
ENDBRANCH  50  64
BRANCH  51  70
ATOM     70  C   UNL     1      -4.733   4.364 -12.219  1.00  0.00    -0.014 A 
ATOM     71  C   UNL     1      -5.800   5.215 -11.893  1.00  0.00     0.009 A 
ATOM     72  C   UNL     1      -3.443   4.688 -11.771  1.00  0.00     0.009 A 
ATOM     73  C   UNL     1      -5.574   6.379 -11.154  1.00  0.00     0.001 A 
ATOM     74  C   UNL     1      -3.225   5.838 -11.011  1.00  0.00     0.001 A 
ATOM     75  C   UNL     1      -4.288   6.687 -10.710  1.00  0.00     0.000 A 
ENDBRANCH  51  70
BRANCH  63  76
ATOM     76  C   UNL     1      -6.426   3.410 -18.902  1.00  0.00    -0.014 A 
ATOM     77  C   UNL     1      -5.403   4.132 -19.533  1.00  0.00     0.009 A 
ATOM     78  C   UNL     1      -7.746   3.558 -19.357  1.00  0.00     0.009 A 
ATOM     79  C   UNL     1      -5.700   5.007 -20.580  1.00  0.00     0.001 A 
ATOM     80  C   UNL     1      -8.037   4.413 -20.421  1.00  0.00     0.001 A 
ATOM     81  C   UNL     1      -7.015   5.143 -21.026  1.00  0.00     0.000 A 
ENDBRANCH  63  76
ENDBRANCH  37  38
ENDBRANCH  30  32
ENDBRANCH  29  30
ENDBRANCH  28  29
ENDBRANCH  27  28
ENDBRANCH  26  27
ENDBRANCH   1  26
TORSDOF 17
