REMARK SMILES Cc1c(Br)cc(C(=O)OCCOCCOC(=O)c2ccc(-c3c4nc(c(-c5ccccc5)c5ccc([nH]5)c(-c5ccccc5)c5nc(c(-c6ccccc6)c6ccc3[nH]6)C=C5)C=C4)cc2)c(C)c1C
REMARK SMILES IDX 13 1 12 2 11 3 10 4 9 5 7 6 8 7 6 8 1 9 2 10 3 11 68 12 4 13
REMARK SMILES IDX 5 14 66 15 69 16 67 17 14 18 15 19 16 20 17 21 18 22 19 23
REMARK SMILES IDX 65 24 20 25 64 26 21 27 22 28 23 29 58 30 24 31 63 32 57 33
REMARK SMILES IDX 59 34 25 35 62 36 56 37 55 38 26 40 48 41 33 42 47 43 34 44
REMARK SMILES IDX 37 45 46 46 60 47 35 48 36 49 45 51 61 52 38 53 27 54 28 55
REMARK SMILES IDX 32 56 29 57 31 58 30 59 49 60 50 61 54 62 51 63 53 64 52 65
REMARK SMILES IDX 39 66 40 67 44 68 41 69 43 70 42 71
REMARK H PARENT 59 39 37 50
REMARK Flexibility Score: inf
ROOT
ATOM      1  C   UNL     1      -2.553  -2.950   5.280  1.00  0.00     0.202 C 
ENDROOT
BRANCH   1   2
ATOM      2  O   UNL     1      -2.173  -3.342   6.601  1.00  0.00    -0.374 OA
BRANCH   2   3
ATOM      3  C   UNL     1      -1.971  -2.309   7.562  1.00  0.00     0.202 C 
BRANCH   3   4
ATOM      4  C   UNL     1      -0.640  -1.560   7.475  1.00  0.00     0.261 C 
BRANCH   4   5
ATOM      5  O   UNL     1      -0.511  -0.898   6.206  1.00  0.00    -0.460 OA
BRANCH   5   6
ATOM      6  C   UNL     1       0.556  -1.281   5.468  1.00  0.00     0.338 C 
ATOM      7  O   UNL     1       1.463  -2.012   5.835  1.00  0.00    -0.246 OA
BRANCH   6   8
ATOM      8  C   UNL     1       0.434  -0.838   4.052  1.00  0.00     0.064 A 
ATOM      9  C   UNL     1       0.684   0.092  -0.177  1.00  0.00     0.046 C 
ATOM     10  C   UNL     1       0.532  -0.221   1.294  1.00  0.00    -0.034 A 
ATOM     11  C   UNL     1       0.837  -1.514   1.758  1.00  0.00     0.022 A 
ATOM     12  C   UNL     1       0.169   0.782   2.243  1.00  0.00    -0.043 A 
ATOM     13  Br  UNL     1       1.355  -2.938   0.604  1.00  0.00    -0.051 Br
ATOM     14  C   UNL     1       0.804  -1.810   3.116  1.00  0.00     0.032 A 
ATOM     15  C   UNL     1       0.052   0.453   3.628  1.00  0.00    -0.033 A 
ATOM     16  C   UNL     1      -0.088   2.208   1.801  1.00  0.00     0.045 C 
ATOM     17  C   UNL     1      -0.488   1.443   4.634  1.00  0.00     0.045 C 
ENDBRANCH   6   8
ENDBRANCH   5   6
ENDBRANCH   4   5
ENDBRANCH   3   4
ENDBRANCH   2   3
ENDBRANCH   1   2
BRANCH   1  18
ATOM     18  C   UNL     1      -3.993  -2.453   5.101  1.00  0.00     0.261 C 
BRANCH  18  19
ATOM     19  O   UNL     1      -4.188  -1.141   5.665  1.00  0.00    -0.460 OA
BRANCH  19  20
ATOM     20  C   UNL     1      -5.054  -1.078   6.703  1.00  0.00     0.338 C 
ATOM     21  O   UNL     1      -5.715  -1.986   7.184  1.00  0.00    -0.246 OA
BRANCH  20  22
ATOM     22  C   UNL     1      -4.972   0.254   7.321  1.00  0.00     0.060 A 
ATOM     23  C   UNL     1      -4.466   0.351   8.623  1.00  0.00     0.016 A 
ATOM     24  C   UNL     1      -5.463   1.381   6.660  1.00  0.00     0.016 A 
ATOM     25  C   UNL     1      -4.460   1.580   9.276  1.00  0.00     0.010 A 
ATOM     26  C   UNL     1      -5.473   2.611   7.325  1.00  0.00     0.010 A 
ATOM     27  C   UNL     1      -4.992   2.710   8.642  1.00  0.00    -0.014 A 
BRANCH  27  28
ATOM     28  C   UNL     1      -5.144   3.966   9.409  1.00  0.00     0.031 A 
ATOM     29  C   UNL     1      -6.456   4.264  10.076  1.00  0.00     0.074 A 
ATOM     30  C   UNL     1      -4.105   4.807   9.549  1.00  0.00     0.049 A 
ATOM     31  N   UNL     1      -6.783   5.284  10.827  1.00  0.00    -0.248 NA
ATOM     32  C   UNL     1      -7.538   3.285   9.881  1.00  0.00     0.031 C 
ATOM     33  C   UNL     1      -2.771   4.601   8.986  1.00  0.00     0.029 A 
ATOM     34  N   UNL     1      -4.008   5.998  10.222  1.00  0.00    -0.354 N 
ATOM     35  C   UNL     1      -8.102   5.064  11.202  1.00  0.00     0.074 A 
ATOM     36  C   UNL     1      -8.527   3.834  10.573  1.00  0.00     0.031 C 
ATOM     37  C   UNL     1      -1.985   5.629   9.346  1.00  0.00     0.029 A 
ATOM     38  C   UNL     1      -2.764   6.574  10.144  1.00  0.00     0.049 A 
ATOM     39  H   UNL     1      -4.759   6.402  10.714  1.00  0.00     0.167 HD
ATOM     40  C   UNL     1      -8.881   5.816  12.012  1.00  0.00     0.031 A 
ATOM     41  C   UNL     1      -2.305   7.732  10.656  1.00  0.00     0.031 A 
ATOM     42  C   UNL     1      -8.462   7.041  12.633  1.00  0.00     0.049 A 
ATOM     43  C   UNL     1      -3.220   8.597  11.478  1.00  0.00     0.074 A 
ATOM     44  C   UNL     1      -9.181   7.857  13.488  1.00  0.00     0.029 A 
ATOM     45  N   UNL     1      -7.219   7.627  12.464  1.00  0.00    -0.354 N 
ATOM     46  N   UNL     1      -4.457   8.366  11.844  1.00  0.00    -0.248 NA
ATOM     47  C   UNL     1      -2.681   9.880  11.955  1.00  0.00     0.031 C 
ATOM     48  C   UNL     1      -8.390   8.965  13.797  1.00  0.00     0.029 A 
ATOM     49  C   UNL     1      -7.162   8.813  13.172  1.00  0.00     0.049 A 
ATOM     50  H   UNL     1      -6.486   7.255  11.921  1.00  0.00     0.167 HD
ATOM     51  C   UNL     1      -4.840   9.463  12.605  1.00  0.00     0.074 A 
ATOM     52  C   UNL     1      -3.704  10.359  12.654  1.00  0.00     0.031 C 
ATOM     53  C   UNL     1      -6.029   9.698  13.209  1.00  0.00     0.031 A 
BRANCH  40  54
ATOM     54  C   UNL     1     -10.279   5.343  12.280  1.00  0.00    -0.014 A 
ATOM     55  C   UNL     1     -10.521   4.299  13.184  1.00  0.00     0.009 A 
ATOM     56  C   UNL     1     -11.367   6.017  11.704  1.00  0.00     0.009 A 
ATOM     57  C   UNL     1     -11.830   3.934  13.503  1.00  0.00     0.001 A 
ATOM     58  C   UNL     1     -12.674   5.662  12.040  1.00  0.00     0.001 A 
ATOM     59  C   UNL     1     -12.904   4.621  12.938  1.00  0.00     0.000 A 
ENDBRANCH  40  54
BRANCH  41  60
ATOM     60  C   UNL     1      -0.897   8.129  10.405  1.00  0.00    -0.014 A 
ATOM     61  C   UNL     1       0.063   8.020  11.420  1.00  0.00     0.009 A 
ATOM     62  C   UNL     1      -0.498   8.570   9.133  1.00  0.00     0.009 A 
ATOM     63  C   UNL     1       1.398   8.342  11.166  1.00  0.00     0.001 A 
ATOM     64  C   UNL     1       0.841   8.873   8.877  1.00  0.00     0.001 A 
ATOM     65  C   UNL     1       1.787   8.761   9.894  1.00  0.00     0.000 A 
ENDBRANCH  41  60
BRANCH  53  66
ATOM     66  C   UNL     1      -6.195  10.974  13.982  1.00  0.00    -0.014 A 
ATOM     67  C   UNL     1      -6.473  12.177  13.319  1.00  0.00     0.009 A 
ATOM     68  C   UNL     1      -6.232  10.939  15.385  1.00  0.00     0.009 A 
ATOM     69  C   UNL     1      -6.795  13.323  14.048  1.00  0.00     0.001 A 
ATOM     70  C   UNL     1      -6.572  12.081  16.110  1.00  0.00     0.001 A 
ATOM     71  C   UNL     1      -6.856  13.271  15.441  1.00  0.00     0.000 A 
ENDBRANCH  53  66
ENDBRANCH  27  28
ENDBRANCH  20  22
ENDBRANCH  19  20
ENDBRANCH  18  19
ENDBRANCH   1  18
TORSDOF 14
