REMARK SMILES Cc1nc[nH]c1C(=O)[NH+]1CCC2(CC1)C[C@@H](C(=O)OCCOCCOC(=O)c1ccc(-c3c4nc(c(-c5ccccc5)c5ccc([nH]5)c(-c5ccccc5)c5nc(c(-c6ccccc6)c6ccc3[nH]6)C=C5)C=C4)cc1)N(C(=O)C1CC1)C2
REMARK SMILES IDX 22 1 21 2 20 3 19 4 17 5 18 6 16 7 9 8 10 9 14 10 11 12
REMARK SMILES IDX 13 13 12 14 15 15 82 16 76 17 7 18 8 19 6 20 1 21 2 22 3 23
REMARK SMILES IDX 4 24 5 25 77 27 78 28 79 29 80 30 81 31 23 32 24 33 25 34
REMARK SMILES IDX 26 35 27 36 28 37 29 38 75 39 30 40 74 41 31 42 32 43 33 44
REMARK SMILES IDX 68 45 34 46 73 47 67 48 69 49 35 50 72 51 66 52 65 53 36 55
REMARK SMILES IDX 58 56 43 57 57 58 44 59 47 60 56 61 70 62 45 63 46 64 55 66
REMARK SMILES IDX 71 67 48 68 37 69 38 70 42 71 39 72 41 73 40 74 59 75 60 76
REMARK SMILES IDX 64 77 61 78 63 79 62 80 49 81 50 82 54 83 51 84 53 85 52 86
REMARK H PARENT 9 11 5 26 69 54 47 65
REMARK Flexibility Score: inf
ROOT
ATOM      1  O   UNL     1      10.290  -2.144   1.471  1.00  0.00    -0.374 OA
ENDROOT
BRANCH   1   2
ATOM      2  C   UNL     1       9.271  -1.677   2.349  1.00  0.00     0.202 C 
BRANCH   2   3
ATOM      3  C   UNL     1       8.050  -1.013   1.709  1.00  0.00     0.261 C 
BRANCH   3   4
ATOM      4  O   UNL     1       7.349  -1.905   0.824  1.00  0.00    -0.462 OA
BRANCH   4   5
ATOM      5  C   UNL     1       7.299  -1.498  -0.474  1.00  0.00     0.328 C 
ATOM      6  O   UNL     1       7.670  -0.398  -0.873  1.00  0.00    -0.250 OA
BRANCH   5   7
ATOM      7  C   UNL     1       6.635  -2.517  -1.410  1.00  0.00     0.195 C 
ATOM      8  N   UNL     1       1.468  -2.598  -0.124  1.00  0.00    -0.266 N 
ATOM      9  C   UNL     1       1.887  -3.622  -1.058  1.00  0.00     0.271 C 
ATOM     10  C   UNL     1       2.453  -2.227   0.884  1.00  0.00     0.271 C 
ATOM     11  H   UNL     1       2.440  -2.457  -0.062  1.00  0.00     0.357 HD
ATOM     12  C   UNL     1       3.051  -3.062  -1.850  1.00  0.00     0.071 C 
ATOM     13  C   UNL     1       3.800  -1.823   0.266  1.00  0.00     0.071 C 
ATOM     14  C   UNL     1       4.242  -2.690  -0.940  1.00  0.00     0.001 C 
ATOM     15  C   UNL     1       5.283  -1.960  -1.821  1.00  0.00     0.046 C 
ATOM     16  C   UNL     1       4.964  -3.961  -0.457  1.00  0.00     0.128 C 
ATOM     17  N   UNL     1       6.323  -3.869  -0.935  1.00  0.00    -0.328 N 
BRANCH   8  18
ATOM     18  C   UNL     1       0.116  -2.301  -0.067  1.00  0.00     0.362 C 
ATOM     19  O   UNL     1      -0.723  -3.176  -0.286  1.00  0.00    -0.224 OA
BRANCH  18  20
ATOM     20  C   UNL     1      -0.307  -0.937   0.144  1.00  0.00     0.167 A 
ATOM     21  C   UNL     1       1.624   0.737  -0.402  1.00  0.00     0.069 C 
ATOM     22  C   UNL     1       0.267   0.320   0.008  1.00  0.00     0.072 A 
ATOM     23  N   UNL     1      -0.668   1.310   0.231  1.00  0.00    -0.241 NA
ATOM     24  C   UNL     1      -1.804   0.689   0.425  1.00  0.00     0.197 A 
ATOM     25  N   UNL     1      -1.637  -0.658   0.392  1.00  0.00    -0.337 N 
ATOM     26  H   UNL     1      -2.348  -1.327   0.523  1.00  0.00     0.168 HD
ENDBRANCH  18  20
ENDBRANCH   8  18
BRANCH  17  27
ATOM     27  C   UNL     1       7.226  -4.899  -1.132  1.00  0.00     0.226 C 
ATOM     28  O   UNL     1       8.305  -4.688  -1.683  1.00  0.00    -0.275 OA
BRANCH  27  29
ATOM     29  C   UNL     1       6.972  -6.312  -0.711  1.00  0.00     0.079 C 
ATOM     30  C   UNL     1       5.847  -6.920   0.078  1.00  0.00     0.014 C 
ATOM     31  C   UNL     1       5.908  -7.130  -1.409  1.00  0.00     0.014 C 
ENDBRANCH  27  29
ENDBRANCH  17  27
ENDBRANCH   5   7
ENDBRANCH   4   5
ENDBRANCH   3   4
ENDBRANCH   2   3
ENDBRANCH   1   2
BRANCH   1  32
ATOM     32  C   UNL     1      10.006  -3.291   0.668  1.00  0.00     0.202 C 
BRANCH  32  33
ATOM     33  C   UNL     1       9.920  -4.642   1.389  1.00  0.00     0.261 C 
BRANCH  33  34
ATOM     34  O   UNL     1       8.830  -4.711   2.331  1.00  0.00    -0.460 OA
BRANCH  34  35
ATOM     35  C   UNL     1       9.214  -4.871   3.619  1.00  0.00     0.338 C 
ATOM     36  O   UNL     1      10.352  -5.032   4.041  1.00  0.00    -0.246 OA
BRANCH  35  37
ATOM     37  C   UNL     1       8.080  -4.665   4.537  1.00  0.00     0.060 A 
ATOM     38  C   UNL     1       8.235  -3.705   5.546  1.00  0.00     0.016 A 
ATOM     39  C   UNL     1       6.948  -5.482   4.503  1.00  0.00     0.016 A 
ATOM     40  C   UNL     1       7.289  -3.600   6.562  1.00  0.00     0.010 A 
ATOM     41  C   UNL     1       6.002  -5.380   5.531  1.00  0.00     0.010 A 
ATOM     42  C   UNL     1       6.191  -4.469   6.587  1.00  0.00    -0.014 A 
BRANCH  42  43
ATOM     43  C   UNL     1       5.341  -4.526   7.802  1.00  0.00     0.031 A 
ATOM     44  C   UNL     1       5.600  -5.597   8.827  1.00  0.00     0.074 A 
ATOM     45  C   UNL     1       4.389  -3.603   8.023  1.00  0.00     0.049 A 
ATOM     46  N   UNL     1       4.990  -5.823   9.963  1.00  0.00    -0.248 NA
ATOM     47  C   UNL     1       6.696  -6.535   8.534  1.00  0.00     0.031 C 
ATOM     48  C   UNL     1       4.079  -2.479   7.141  1.00  0.00     0.029 A 
ATOM     49  N   UNL     1       3.512  -3.464   9.069  1.00  0.00    -0.354 N 
ATOM     50  C   UNL     1       5.627  -6.926  10.520  1.00  0.00     0.074 A 
ATOM     51  C   UNL     1       6.647  -7.343   9.583  1.00  0.00     0.031 C 
ATOM     52  C   UNL     1       3.081  -1.762   7.686  1.00  0.00     0.029 A 
ATOM     53  C   UNL     1       2.666  -2.392   8.938  1.00  0.00     0.049 A 
ATOM     54  H   UNL     1       3.493  -4.076   9.840  1.00  0.00     0.167 HD
ATOM     55  C   UNL     1       5.392  -7.533  11.708  1.00  0.00     0.031 A 
ATOM     56  C   UNL     1       1.662  -1.973   9.732  1.00  0.00     0.031 A 
ATOM     57  C   UNL     1       4.369  -7.134  12.636  1.00  0.00     0.049 A 
ATOM     58  C   UNL     1       1.356  -2.723  11.000  1.00  0.00     0.074 A 
ATOM     59  C   UNL     1       4.054  -7.687  13.866  1.00  0.00     0.029 A 
ATOM     60  N   UNL     1       3.488  -6.083  12.434  1.00  0.00    -0.354 N 
ATOM     61  N   UNL     1       1.972  -3.758  11.519  1.00  0.00    -0.248 NA
ATOM     62  C   UNL     1       0.216  -2.241  11.795  1.00  0.00     0.031 C 
ATOM     63  C   UNL     1       2.950  -7.002  14.384  1.00  0.00     0.029 A 
ATOM     64  C   UNL     1       2.612  -5.988  13.502  1.00  0.00     0.049 A 
ATOM     65  H   UNL     1       3.486  -5.492  11.647  1.00  0.00     0.167 HD
ATOM     66  C   UNL     1       1.314  -4.032  12.712  1.00  0.00     0.074 A 
ATOM     67  C   UNL     1       0.259  -3.049  12.845  1.00  0.00     0.031 C 
ATOM     68  C   UNL     1       1.565  -5.008  13.619  1.00  0.00     0.031 A 
BRANCH  55  69
ATOM     69  C   UNL     1       6.243  -8.724  12.050  1.00  0.00    -0.014 A 
ATOM     70  C   UNL     1       7.591  -8.575  12.412  1.00  0.00     0.009 A 
ATOM     71  C   UNL     1       5.682 -10.010  12.030  1.00  0.00     0.009 A 
ATOM     72  C   UNL     1       8.370  -9.695  12.711  1.00  0.00     0.001 A 
ATOM     73  C   UNL     1       6.457 -11.126  12.354  1.00  0.00     0.001 A 
ATOM     74  C   UNL     1       7.802 -10.968  12.684  1.00  0.00     0.000 A 
ENDBRANCH  55  69
BRANCH  56  75
ATOM     75  C   UNL     1       0.857  -0.785   9.348  1.00  0.00    -0.014 A 
ATOM     76  C   UNL     1       0.965   0.414  10.070  1.00  0.00     0.009 A 
ATOM     77  C   UNL     1      -0.036  -0.850   8.267  1.00  0.00     0.009 A 
ATOM     78  C   UNL     1       0.178   1.517   9.728  1.00  0.00     0.001 A 
ATOM     79  C   UNL     1      -0.801   0.262   7.912  1.00  0.00     0.001 A 
ATOM     80  C   UNL     1      -0.700   1.442   8.648  1.00  0.00     0.000 A 
ENDBRANCH  56  75
BRANCH  68  81
ATOM     81  C   UNL     1       0.705  -5.039  14.851  1.00  0.00    -0.014 A 
ATOM     82  C   UNL     1      -0.626  -5.480  14.800  1.00  0.00     0.009 A 
ATOM     83  C   UNL     1       1.249  -4.658  16.087  1.00  0.00     0.009 A 
ATOM     84  C   UNL     1      -1.405  -5.507  15.959  1.00  0.00     0.001 A 
ATOM     85  C   UNL     1       0.476  -4.711  17.248  1.00  0.00     0.001 A 
ATOM     86  C   UNL     1      -0.853  -5.127  17.181  1.00  0.00     0.000 A 
ENDBRANCH  68  81
ENDBRANCH  42  43
ENDBRANCH  35  37
ENDBRANCH  34  35
ENDBRANCH  33  34
ENDBRANCH  32  33
ENDBRANCH   1  32
TORSDOF 18
