REMARK SMILES CCC(C)(C)c1cccc(C(=O)OCCOCCOC(=O)c2ccc(-c3c4nc(c(-c5ccccc5)c5ccc([nH]5)c(-c5ccccc5)c5nc(c(-c6ccccc6)c6ccc3[nH]6)C=C5)C=C4)cc2)c1
REMARK SMILES IDX 16 1 15 2 14 3 13 4 11 5 12 6 10 7 6 8 7 9 70 10 8 11 9 12
REMARK SMILES IDX 3 13 4 14 5 15 2 16 1 17 17 18 18 19 19 20 20 21 21 22 22 23
REMARK SMILES IDX 23 24 69 25 24 26 68 27 25 28 26 29 27 30 62 31 28 32 67 33
REMARK SMILES IDX 61 34 63 35 29 36 66 37 60 38 59 39 30 41 52 42 37 43 51 44
REMARK SMILES IDX 38 45 41 46 50 47 64 48 39 49 40 50 49 52 65 53 42 54 31 55
REMARK SMILES IDX 32 56 36 57 33 58 35 59 34 60 53 61 54 62 58 63 55 64 57 65
REMARK SMILES IDX 56 66 43 67 44 68 48 69 45 70 47 71 46 72
REMARK H PARENT 63 40 41 51
REMARK Flexibility Score: inf
ROOT
ATOM      1  O   UNL     1       6.946   2.706  -0.452  1.00  0.00    -0.374 OA
ENDROOT
BRANCH   1   2
ATOM      2  C   UNL     1       6.181   3.678  -1.167  1.00  0.00     0.202 C 
BRANCH   2   3
ATOM      3  C   UNL     1       5.851   3.330  -2.623  1.00  0.00     0.261 C 
BRANCH   3   4
ATOM      4  O   UNL     1       4.974   2.192  -2.688  1.00  0.00    -0.460 OA
BRANCH   4   5
ATOM      5  C   UNL     1       5.510   1.081  -3.249  1.00  0.00     0.338 C 
ATOM      6  O   UNL     1       6.568   1.005  -3.856  1.00  0.00    -0.246 OA
BRANCH   5   7
ATOM      7  C   UNL     1       4.718  -0.109  -2.856  1.00  0.00     0.060 A 
ATOM      8  C   UNL     1       2.610  -1.224  -2.286  1.00  0.00    -0.042 A 
ATOM      9  C   UNL     1       3.356  -2.389  -2.025  1.00  0.00     0.004 A 
ATOM     10  C   UNL     1       3.323  -0.078  -2.704  1.00  0.00     0.020 A 
ATOM     11  C   UNL     1       4.745  -2.419  -2.168  1.00  0.00     0.001 A 
ATOM     12  C   UNL     1       5.426  -1.284  -2.588  1.00  0.00     0.016 A 
BRANCH   8  13
ATOM     13  C   UNL     1       1.071  -1.201  -2.179  1.00  0.00    -0.011 C 
ATOM     14  C   UNL     1       0.475  -2.476  -1.531  1.00  0.00     0.016 C 
ATOM     15  C   UNL     1       0.507  -1.130  -3.619  1.00  0.00     0.016 C 
BRANCH  13  16
ATOM     16  C   UNL     1       0.545   0.039  -1.391  1.00  0.00     0.008 C 
ATOM     17  C   UNL     1       1.008   0.134   0.059  1.00  0.00     0.005 C 
ENDBRANCH  13  16
ENDBRANCH   8  13
ENDBRANCH   5   7
ENDBRANCH   4   5
ENDBRANCH   3   4
ENDBRANCH   2   3
ENDBRANCH   1   2
BRANCH   1  18
ATOM     18  C   UNL     1       6.228   1.601   0.101  1.00  0.00     0.202 C 
BRANCH  18  19
ATOM     19  C   UNL     1       5.529   1.856   1.442  1.00  0.00     0.261 C 
BRANCH  19  20
ATOM     20  O   UNL     1       4.443   2.791   1.310  1.00  0.00    -0.460 OA
BRANCH  20  21
ATOM     21  C   UNL     1       4.679   4.014   1.838  1.00  0.00     0.338 C 
ATOM     22  O   UNL     1       5.657   4.372   2.479  1.00  0.00    -0.246 OA
BRANCH  21  23
ATOM     23  C   UNL     1       3.642   4.961   1.388  1.00  0.00     0.060 A 
ATOM     24  C   UNL     1       4.071   6.168   0.822  1.00  0.00     0.016 A 
ATOM     25  C   UNL     1       2.281   4.707   1.573  1.00  0.00     0.016 A 
ATOM     26  C   UNL     1       3.143   7.149   0.484  1.00  0.00     0.010 A 
ATOM     27  C   UNL     1       1.351   5.696   1.239  1.00  0.00     0.010 A 
ATOM     28  C   UNL     1       1.780   6.934   0.726  1.00  0.00    -0.014 A 
BRANCH  28  29
ATOM     29  C   UNL     1       0.821   8.054   0.571  1.00  0.00     0.031 A 
ATOM     30  C   UNL     1       0.357   8.796   1.794  1.00  0.00     0.074 A 
ATOM     31  C   UNL     1       0.386   8.423  -0.647  1.00  0.00     0.049 A 
ATOM     32  N   UNL     1      -0.495   9.785   1.890  1.00  0.00    -0.248 NA
ATOM     33  C   UNL     1       0.930   8.365   3.079  1.00  0.00     0.031 C 
ATOM     34  C   UNL     1       0.793   7.814  -1.912  1.00  0.00     0.029 A 
ATOM     35  N   UNL     1      -0.501   9.404  -1.013  1.00  0.00    -0.354 N 
ATOM     36  C   UNL     1      -0.568  10.088   3.244  1.00  0.00     0.074 A 
ATOM     37  C   UNL     1       0.302   9.159   3.933  1.00  0.00     0.031 C 
ATOM     38  C   UNL     1       0.151   8.431  -2.918  1.00  0.00     0.029 A 
ATOM     39  C   UNL     1      -0.735   9.454  -2.365  1.00  0.00     0.049 A 
ATOM     40  H   UNL     1      -0.929  10.012  -0.369  1.00  0.00     0.167 HD
ATOM     41  C   UNL     1      -1.288  11.056   3.859  1.00  0.00     0.031 A 
ATOM     42  C   UNL     1      -1.584  10.223  -3.074  1.00  0.00     0.031 A 
ATOM     43  C   UNL     1      -2.166  11.969   3.177  1.00  0.00     0.049 A 
ATOM     44  C   UNL     1      -2.435  11.238  -2.360  1.00  0.00     0.074 A 
ATOM     45  C   UNL     1      -2.928  12.995   3.711  1.00  0.00     0.029 A 
ATOM     46  N   UNL     1      -2.406  11.961   1.812  1.00  0.00    -0.354 N 
ATOM     47  N   UNL     1      -2.476  11.533  -1.083  1.00  0.00    -0.248 NA
ATOM     48  C   UNL     1      -3.352  12.033  -3.189  1.00  0.00     0.031 C 
ATOM     49  C   UNL     1      -3.673  13.569   2.675  1.00  0.00     0.029 A 
ATOM     50  C   UNL     1      -3.327  12.943   1.488  1.00  0.00     0.049 A 
ATOM     51  H   UNL     1      -1.984  11.348   1.168  1.00  0.00     0.167 HD
ATOM     52  C   UNL     1      -3.399  12.565  -0.960  1.00  0.00     0.074 A 
ATOM     53  C   UNL     1      -3.884  12.853  -2.293  1.00  0.00     0.031 C 
ATOM     54  C   UNL     1      -3.804  13.217   0.157  1.00  0.00     0.031 A 
BRANCH  41  55
ATOM     55  C   UNL     1      -1.183  11.147   5.356  1.00  0.00    -0.014 A 
ATOM     56  C   UNL     1      -0.013  11.607   5.981  1.00  0.00     0.009 A 
ATOM     57  C   UNL     1      -2.282  10.789   6.153  1.00  0.00     0.009 A 
ATOM     58  C   UNL     1       0.067  11.669   7.374  1.00  0.00     0.001 A 
ATOM     59  C   UNL     1      -2.209  10.881   7.544  1.00  0.00     0.001 A 
ATOM     60  C   UNL     1      -1.032  11.311   8.154  1.00  0.00     0.000 A 
ENDBRANCH  41  55
BRANCH  42  61
ATOM     61  C   UNL     1      -1.687  10.051  -4.546  1.00  0.00    -0.014 A 
ATOM     62  C   UNL     1      -1.217  11.044  -5.419  1.00  0.00     0.009 A 
ATOM     63  C   UNL     1      -2.267   8.892  -5.086  1.00  0.00     0.009 A 
ATOM     64  C   UNL     1      -1.347  10.889  -6.801  1.00  0.00     0.001 A 
ATOM     65  C   UNL     1      -2.369   8.727  -6.469  1.00  0.00     0.001 A 
ATOM     66  C   UNL     1      -1.917   9.729  -7.325  1.00  0.00     0.000 A 
ENDBRANCH  42  61
BRANCH  54  67
ATOM     67  C   UNL     1      -4.797  14.334  -0.017  1.00  0.00    -0.014 A 
ATOM     68  C   UNL     1      -6.139  14.077  -0.337  1.00  0.00     0.009 A 
ATOM     69  C   UNL     1      -4.388  15.662   0.184  1.00  0.00     0.009 A 
ATOM     70  C   UNL     1      -7.043  15.131  -0.484  1.00  0.00     0.001 A 
ATOM     71  C   UNL     1      -5.301  16.711   0.067  1.00  0.00     0.001 A 
ATOM     72  C   UNL     1      -6.625  16.445  -0.277  1.00  0.00     0.000 A 
ENDBRANCH  54  67
ENDBRANCH  28  29
ENDBRANCH  21  23
ENDBRANCH  20  21
ENDBRANCH  19  20
ENDBRANCH  18  19
ENDBRANCH   1  18
TORSDOF 16
