REMARK SMILES Cc1c(Cl)ccc2c(OCC(=O)OCCOCCOC(=O)c3ccc(-c4c5nc(c(-c6ccccc6)c6ccc([nH]6)c(-c6ccccc6)c6nc(c(-c7ccccc7)c7ccc4[nH]7)C=C6)C=C5)cc3)ccnc12
REMARK SMILES IDX 16 1 15 2 14 3 13 4 11 5 12 6 10 7 9 8 8 9 1 10 2 11 3 12
REMARK SMILES IDX 73 13 4 14 5 15 7 16 72 17 6 18 71 19 70 20 17 21 18 22
REMARK SMILES IDX 19 23 20 24 21 25 22 26 23 27 69 28 24 29 68 30 25 31 26 32
REMARK SMILES IDX 27 33 62 34 28 35 67 36 61 37 63 38 29 39 66 40 60 41 59 42
REMARK SMILES IDX 30 44 52 45 37 46 51 47 38 48 41 49 50 50 64 51 39 52 40 53
REMARK SMILES IDX 49 55 65 56 42 57 31 58 32 59 36 60 33 61 35 62 34 63 53 64
REMARK SMILES IDX 54 65 58 66 55 67 57 68 56 69 43 70 44 71 48 72 45 73 47 74
REMARK SMILES IDX 46 75
REMARK H PARENT 63 43 41 54
REMARK Flexibility Score: inf
ROOT
ATOM      1  O   UNL     1      -5.563  -1.762   3.751  1.00  0.00    -0.374 OA
ENDROOT
BRANCH   1   2
ATOM      2  C   UNL     1      -5.204  -2.877   4.562  1.00  0.00     0.202 C 
BRANCH   2   3
ATOM      3  C   UNL     1      -5.429  -4.276   3.974  1.00  0.00     0.261 C 
BRANCH   3   4
ATOM      4  O   UNL     1      -4.654  -4.544   2.786  1.00  0.00    -0.461 OA
BRANCH   4   5
ATOM      5  C   UNL     1      -5.373  -4.763   1.649  1.00  0.00     0.344 C 
ATOM      6  O   UNL     1      -6.598  -4.731   1.578  1.00  0.00    -0.248 OA
BRANCH   5   7
ATOM      7  C   UNL     1      -4.505  -5.126   0.439  1.00  0.00     0.352 C 
BRANCH   7   8
ATOM      8  O   UNL     1      -3.155  -4.713   0.361  1.00  0.00    -0.481 OA
BRANCH   8   9
ATOM      9  C   UNL     1      -2.832  -3.464  -0.107  1.00  0.00     0.131 A 
ATOM     10  C   UNL     1       0.697  -0.051  -0.450  1.00  0.00     0.048 C 
ATOM     11  C   UNL     1       0.317  -1.512  -0.406  1.00  0.00    -0.006 A 
ATOM     12  C   UNL     1       1.278  -2.532  -0.310  1.00  0.00     0.046 A 
ATOM     13  C   UNL     1      -1.051  -1.840  -0.433  1.00  0.00     0.078 A 
ATOM     14  Cl  UNL     1       2.977  -2.223  -0.386  1.00  0.00    -0.084 Cl
ATOM     15  C   UNL     1       0.888  -3.859  -0.159  1.00  0.00     0.022 A 
ATOM     16  C   UNL     1      -1.448  -3.175  -0.193  1.00  0.00     0.043 A 
ATOM     17  N   UNL     1      -1.967  -0.883  -0.683  1.00  0.00    -0.256 NA
ATOM     18  C   UNL     1      -0.463  -4.172  -0.059  1.00  0.00     0.016 A 
ATOM     19  C   UNL     1      -3.271  -1.221  -0.735  1.00  0.00     0.115 A 
ATOM     20  C   UNL     1      -3.753  -2.482  -0.443  1.00  0.00     0.067 A 
ENDBRANCH   8   9
ENDBRANCH   7   8
ENDBRANCH   5   7
ENDBRANCH   4   5
ENDBRANCH   3   4
ENDBRANCH   2   3
ENDBRANCH   1   2
BRANCH   1  21
ATOM     21  C   UNL     1      -4.715  -1.472   2.642  1.00  0.00     0.202 C 
BRANCH  21  22
ATOM     22  C   UNL     1      -3.357  -0.834   2.949  1.00  0.00     0.261 C 
BRANCH  22  23
ATOM     23  O   UNL     1      -2.502  -1.719   3.690  1.00  0.00    -0.460 OA
BRANCH  23  24
ATOM     24  C   UNL     1      -2.115  -1.248   4.891  1.00  0.00     0.338 C 
ATOM     25  O   UNL     1      -2.344  -0.146   5.381  1.00  0.00    -0.246 OA
BRANCH  24  26
ATOM     26  C   UNL     1      -1.497  -2.330   5.662  1.00  0.00     0.060 A 
ATOM     27  C   UNL     1      -2.133  -2.728   6.844  1.00  0.00     0.016 A 
ATOM     28  C   UNL     1      -0.267  -2.874   5.283  1.00  0.00     0.016 A 
ATOM     29  C   UNL     1      -1.513  -3.643   7.683  1.00  0.00     0.010 A 
ATOM     30  C   UNL     1       0.362  -3.781   6.137  1.00  0.00     0.010 A 
ATOM     31  C   UNL     1      -0.243  -4.134   7.355  1.00  0.00    -0.014 A 
BRANCH  31  32
ATOM     32  C   UNL     1       0.513  -4.872   8.388  1.00  0.00     0.031 A 
ATOM     33  C   UNL     1       1.440  -4.101   9.284  1.00  0.00     0.074 A 
ATOM     34  C   UNL     1       0.301  -6.185   8.577  1.00  0.00     0.049 A 
ATOM     35  N   UNL     1       2.132  -4.522  10.309  1.00  0.00    -0.248 NA
ATOM     36  C   UNL     1       1.596  -2.663   8.999  1.00  0.00     0.031 C 
ATOM     37  C   UNL     1      -0.623  -7.010   7.799  1.00  0.00     0.029 A 
ATOM     38  N   UNL     1       0.831  -7.047   9.501  1.00  0.00    -0.354 N 
ATOM     39  C   UNL     1       2.791  -3.402  10.799  1.00  0.00     0.074 A 
ATOM     40  C   UNL     1       2.448  -2.289   9.943  1.00  0.00     0.031 C 
ATOM     41  C   UNL     1      -0.611  -8.259   8.295  1.00  0.00     0.029 A 
ATOM     42  C   UNL     1       0.335  -8.323   9.408  1.00  0.00     0.049 A 
ATOM     43  H   UNL     1       1.503  -6.777  10.168  1.00  0.00     0.167 HD
ATOM     44  C   UNL     1       3.596  -3.310  11.880  1.00  0.00     0.031 A 
ATOM     45  C   UNL     1       0.610  -9.418  10.143  1.00  0.00     0.031 A 
ATOM     46  C   UNL     1       3.939  -4.421  12.720  1.00  0.00     0.049 A 
ATOM     47  C   UNL     1       1.584  -9.310  11.283  1.00  0.00     0.074 A 
ATOM     48  C   UNL     1       4.755  -4.432  13.836  1.00  0.00     0.029 A 
ATOM     49  N   UNL     1       3.484  -5.716  12.535  1.00  0.00    -0.354 N 
ATOM     50  N   UNL     1       2.200  -8.245  11.737  1.00  0.00    -0.248 NA
ATOM     51  C   UNL     1       1.900 -10.546  12.014  1.00  0.00     0.031 C 
ATOM     52  C   UNL     1       4.829  -5.745  14.303  1.00  0.00     0.029 A 
ATOM     53  C   UNL     1       4.020  -6.541  13.505  1.00  0.00     0.049 A 
ATOM     54  H   UNL     1       2.872  -6.006  11.820  1.00  0.00     0.167 HD
ATOM     55  C   UNL     1       2.959  -8.676  12.817  1.00  0.00     0.074 A 
ATOM     56  C   UNL     1       2.727 -10.100  12.953  1.00  0.00     0.031 C 
ATOM     57  C   UNL     1       3.770  -7.953  13.624  1.00  0.00     0.031 A 
BRANCH  44  58
ATOM     58  C   UNL     1       4.167  -1.967  12.224  1.00  0.00    -0.014 A 
ATOM     59  C   UNL     1       3.378  -0.996  12.858  1.00  0.00     0.009 A 
ATOM     60  C   UNL     1       5.527  -1.707  12.002  1.00  0.00     0.009 A 
ATOM     61  C   UNL     1       3.943   0.214  13.264  1.00  0.00     0.001 A 
ATOM     62  C   UNL     1       6.093  -0.503  12.426  1.00  0.00     0.001 A 
ATOM     63  C   UNL     1       5.301   0.456  13.056  1.00  0.00     0.000 A 
ENDBRANCH  44  58
BRANCH  45  64
ATOM     64  C   UNL     1      -0.072 -10.697   9.827  1.00  0.00    -0.014 A 
ATOM     65  C   UNL     1      -1.102 -11.176  10.650  1.00  0.00     0.009 A 
ATOM     66  C   UNL     1       0.262 -11.417   8.668  1.00  0.00     0.009 A 
ATOM     67  C   UNL     1      -1.784 -12.349  10.318  1.00  0.00     0.001 A 
ATOM     68  C   UNL     1      -0.434 -12.578   8.329  1.00  0.00     0.001 A 
ATOM     69  C   UNL     1      -1.456 -13.044   9.154  1.00  0.00     0.000 A 
ENDBRANCH  45  64
BRANCH  57  70
ATOM     70  C   UNL     1       4.471  -8.660  14.745  1.00  0.00    -0.014 A 
ATOM     71  C   UNL     1       5.645  -9.387  14.507  1.00  0.00     0.009 A 
ATOM     72  C   UNL     1       4.049  -8.449  16.068  1.00  0.00     0.009 A 
ATOM     73  C   UNL     1       6.391  -9.883  15.577  1.00  0.00     0.001 A 
ATOM     74  C   UNL     1       4.807  -8.930  17.135  1.00  0.00     0.001 A 
ATOM     75  C   UNL     1       5.979  -9.644  16.888  1.00  0.00     0.000 A 
ENDBRANCH  57  70
ENDBRANCH  31  32
ENDBRANCH  24  26
ENDBRANCH  23  24
ENDBRANCH  22  23
ENDBRANCH  21  22
ENDBRANCH   1  21
TORSDOF 16
