REMARK SMILES O=C(OCCOCCOC(=O)[C@H](CCc1ccccn1)c1ccccc1Br)c1ccc(-c2c3nc(c(-c4ccccc4)c4ccc([nH]4)c(-c4ccccc4)c4nc(c(-c5ccccc5)c5ccc2[nH]5)C=C4)C=C3)cc1
REMARK SMILES IDX 7 1 6 2 5 3 4 4 3 5 2 6 1 7 28 8 29 9 75 10 30 11 74 12
REMARK SMILES IDX 31 13 32 14 33 15 68 16 34 17 73 18 67 19 69 20 35 21 72 22
REMARK SMILES IDX 66 23 65 24 36 26 58 27 43 28 57 29 44 30 47 31 56 32 70 33
REMARK SMILES IDX 45 34 46 35 55 37 71 38 48 39 37 40 38 41 42 42 39 43 41 44
REMARK SMILES IDX 40 45 59 46 60 47 64 48 61 49 63 50 62 51 49 52 50 53 54 54
REMARK SMILES IDX 51 55 53 56 52 57 8 58 9 59 10 60 11 61 12 62 21 63 22 64
REMARK SMILES IDX 26 65 23 66 25 67 27 68 24 69 13 70 14 71 15 72 16 73 20 74
REMARK SMILES IDX 17 75 19 76 18 77
REMARK H PARENT 69 25 47 36
REMARK Flexibility Score: inf
ROOT
ATOM      1  C   UNL     1       5.229  -3.304   3.981  1.00  0.00     0.202 C 
ENDROOT
BRANCH   1   2
ATOM      2  O   UNL     1       4.894  -2.206   3.134  1.00  0.00    -0.374 OA
BRANCH   2   3
ATOM      3  C   UNL     1       5.836  -1.849   2.125  1.00  0.00     0.202 C 
BRANCH   3   4
ATOM      4  C   UNL     1       6.784  -0.718   2.520  1.00  0.00     0.261 C 
BRANCH   4   5
ATOM      5  O   UNL     1       7.507  -1.070   3.704  1.00  0.00    -0.460 OA
BRANCH   5   6
ATOM      6  C   UNL     1       7.107  -0.879   4.981  1.00  0.00     0.338 C 
ATOM      7  O   UNL     1       7.742  -1.424   5.884  1.00  0.00    -0.246 OA
BRANCH   6   8
ATOM      8  C   UNL     1       5.959  -0.006   5.373  1.00  0.00     0.060 A 
ATOM      9  C   UNL     1       4.780   0.177   4.642  1.00  0.00     0.016 A 
ATOM     10  C   UNL     1       6.046   0.592   6.639  1.00  0.00     0.016 A 
ATOM     11  C   UNL     1       3.710   0.892   5.141  1.00  0.00     0.010 A 
ATOM     12  C   UNL     1       4.984   1.336   7.148  1.00  0.00     0.010 A 
ATOM     13  C   UNL     1       3.817   1.477   6.391  1.00  0.00    -0.014 A 
BRANCH  13  14
ATOM     14  C   UNL     1       2.746   2.382   6.801  1.00  0.00     0.031 A 
ATOM     15  C   UNL     1       2.964   3.838   6.578  1.00  0.00     0.074 A 
ATOM     16  C   UNL     1       1.592   1.879   7.261  1.00  0.00     0.049 A 
ATOM     17  N   UNL     1       2.257   4.851   6.989  1.00  0.00    -0.248 NA
ATOM     18  C   UNL     1       4.147   4.202   5.778  1.00  0.00     0.031 C 
ATOM     19  C   UNL     1       1.262   0.453   7.336  1.00  0.00     0.029 A 
ATOM     20  N   UNL     1       0.486   2.511   7.751  1.00  0.00    -0.354 N 
ATOM     21  C   UNL     1       2.938   5.974   6.545  1.00  0.00     0.074 A 
ATOM     22  C   UNL     1       4.103   5.523   5.821  1.00  0.00     0.031 C 
ATOM     23  C   UNL     1       0.037   0.321   7.869  1.00  0.00     0.029 A 
ATOM     24  C   UNL     1      -0.457   1.642   8.238  1.00  0.00     0.049 A 
ATOM     25  H   UNL     1       0.377   3.490   7.754  1.00  0.00     0.167 HD
ATOM     26  C   UNL     1       2.620   7.268   6.767  1.00  0.00     0.031 A 
ATOM     27  C   UNL     1      -1.559   1.904   8.962  1.00  0.00     0.031 A 
ATOM     28  C   UNL     1       1.466   7.654   7.528  1.00  0.00     0.049 A 
ATOM     29  C   UNL     1      -1.843   3.343   9.292  1.00  0.00     0.074 A 
ATOM     30  C   UNL     1       1.045   8.916   7.893  1.00  0.00     0.029 A 
ATOM     31  N   UNL     1       0.546   6.750   8.052  1.00  0.00    -0.354 N 
ATOM     32  N   UNL     1      -1.165   4.415   8.948  1.00  0.00    -0.248 NA
ATOM     33  C   UNL     1      -3.026   3.615  10.114  1.00  0.00     0.031 C 
ATOM     34  C   UNL     1      -0.099   8.771   8.686  1.00  0.00     0.029 A 
ATOM     35  C   UNL     1      -0.431   7.423   8.757  1.00  0.00     0.049 A 
ATOM     36  H   UNL     1       0.586   5.773   7.936  1.00  0.00     0.167 HD
ATOM     37  C   UNL     1      -1.848   5.492   9.489  1.00  0.00     0.074 A 
ATOM     38  C   UNL     1      -2.999   4.940  10.183  1.00  0.00     0.031 C 
ATOM     39  C   UNL     1      -1.561   6.816   9.420  1.00  0.00     0.031 A 
BRANCH  26  40
ATOM     40  C   UNL     1       3.606   8.295   6.289  1.00  0.00    -0.014 A 
ATOM     41  C   UNL     1       3.833   8.531   4.923  1.00  0.00     0.009 A 
ATOM     42  C   UNL     1       4.395   8.971   7.232  1.00  0.00     0.009 A 
ATOM     43  C   UNL     1       4.871   9.374   4.514  1.00  0.00     0.001 A 
ATOM     44  C   UNL     1       5.409   9.838   6.821  1.00  0.00     0.001 A 
ATOM     45  C   UNL     1       5.658  10.025   5.463  1.00  0.00     0.000 A 
ENDBRANCH  26  40
BRANCH  27  46
ATOM     46  C   UNL     1      -2.393   0.783   9.466  1.00  0.00    -0.014 A 
ATOM     47  C   UNL     1      -3.683   0.558   8.965  1.00  0.00     0.009 A 
ATOM     48  C   UNL     1      -1.873  -0.113  10.418  1.00  0.00     0.009 A 
ATOM     49  C   UNL     1      -4.434  -0.534   9.411  1.00  0.00     0.001 A 
ATOM     50  C   UNL     1      -2.615  -1.219  10.839  1.00  0.00     0.001 A 
ATOM     51  C   UNL     1      -3.898  -1.426  10.339  1.00  0.00     0.000 A 
ENDBRANCH  27  46
BRANCH  39  52
ATOM     52  C   UNL     1      -2.534   7.758  10.064  1.00  0.00    -0.014 A 
ATOM     53  C   UNL     1      -2.575   7.926  11.454  1.00  0.00     0.009 A 
ATOM     54  C   UNL     1      -3.342   8.564   9.246  1.00  0.00     0.009 A 
ATOM     55  C   UNL     1      -3.420   8.883  12.017  1.00  0.00     0.001 A 
ATOM     56  C   UNL     1      -4.162   9.538   9.810  1.00  0.00     0.001 A 
ATOM     57  C   UNL     1      -4.203   9.695  11.194  1.00  0.00     0.000 A 
ENDBRANCH  39  52
ENDBRANCH  13  14
ENDBRANCH   6   8
ENDBRANCH   5   6
ENDBRANCH   4   5
ENDBRANCH   3   4
ENDBRANCH   2   3
ENDBRANCH   1   2
BRANCH   1  58
ATOM     58  C   UNL     1       4.194  -4.407   3.776  1.00  0.00     0.261 C 
BRANCH  58  59
ATOM     59  O   UNL     1       4.311  -4.863   2.424  1.00  0.00    -0.463 OA
BRANCH  59  60
ATOM     60  C   UNL     1       3.631  -4.122   1.486  1.00  0.00     0.313 C 
ATOM     61  O   UNL     1       2.684  -3.393   1.703  1.00  0.00    -0.252 OA
BRANCH  60  62
ATOM     62  C   UNL     1       4.331  -4.325   0.137  1.00  0.00     0.131 C 
BRANCH  62  63
ATOM     63  C   UNL     1       4.044  -5.748  -0.321  1.00  0.00    -0.020 A 
ATOM     64  C   UNL     1       5.039  -6.711  -0.035  1.00  0.00     0.006 A 
ATOM     65  C   UNL     1       2.803  -6.203  -0.797  1.00  0.00     0.022 A 
ATOM     66  C   UNL     1       4.797  -8.073  -0.189  1.00  0.00     0.000 A 
ATOM     67  C   UNL     1       2.578  -7.572  -0.980  1.00  0.00     0.016 A 
ATOM     68  Br  UNL     1       1.313  -5.071  -1.124  1.00  0.00    -0.051 Br
ATOM     69  C   UNL     1       3.564  -8.504  -0.662  1.00  0.00     0.001 A 
ENDBRANCH  62  63
BRANCH  62  70
ATOM     70  C   UNL     1       4.104  -3.161  -0.862  1.00  0.00     0.026 C 
BRANCH  70  71
ATOM     71  C   UNL     1       5.394  -2.515  -1.414  1.00  0.00     0.057 C 
BRANCH  71  72
ATOM     72  C   UNL     1       6.394  -3.429  -2.068  1.00  0.00     0.040 A 
ATOM     73  C   UNL     1       6.004  -4.513  -2.845  1.00  0.00     0.024 A 
ATOM     74  N   UNL     1       7.699  -3.114  -1.868  1.00  0.00    -0.261 NA
ATOM     75  C   UNL     1       6.982  -5.336  -3.391  1.00  0.00     0.003 A 
ATOM     76  C   UNL     1       8.628  -3.909  -2.442  1.00  0.00     0.111 A 
ATOM     77  C   UNL     1       8.322  -5.029  -3.193  1.00  0.00     0.020 A 
ENDBRANCH  71  72
ENDBRANCH  70  71
ENDBRANCH  62  70
ENDBRANCH  60  62
ENDBRANCH  59  60
ENDBRANCH  58  59
ENDBRANCH   1  58
TORSDOF 18
