REMARK SMILES Nc1oc2ccc(F)cc2c(=O)c1[C@@H]1[NH2+][C@H](C(=O)OCCOCCOC(=O)c2ccc(-c3c4nc(c(-c5ccccc5)c5ccc([nH]5)c(-c5ccccc5)c5nc(c(-c6ccccc6)c6ccc3[nH]6)C=C5)C=C4)cc2)CS1
REMARK SMILES IDX 22 1 21 2 20 3 19 4 17 5 18 6 16 7 14 8 15 9 77 10 76 13
REMARK SMILES IDX 13 14 2 15 3 16 4 17 11 18 5 19 10 20 12 21 6 22 9 23 7 24
REMARK SMILES IDX 8 25 1 26 23 29 24 30 25 31 26 32 27 33 28 34 29 35 75 36
REMARK SMILES IDX 30 37 74 38 31 39 32 40 33 41 68 42 34 43 73 44 67 45 69 46
REMARK SMILES IDX 35 47 72 48 66 49 65 50 36 52 58 53 43 54 57 55 44 56 47 57
REMARK SMILES IDX 56 58 70 59 45 60 46 61 55 63 71 64 48 65 37 66 38 67 42 68
REMARK SMILES IDX 39 69 41 70 40 71 59 72 60 73 64 74 61 75 63 76 62 77 49 78
REMARK SMILES IDX 50 79 54 80 51 81 53 82 52 83
REMARK H PARENT 15 11 15 12 1 27 1 28 69 51 47 62
REMARK Flexibility Score: inf
ROOT
ATOM      1  O   UNL     1      -2.043  -1.765  -3.028  1.00  0.00    -0.374 OA
ENDROOT
BRANCH   1   2
ATOM      2  C   UNL     1      -2.195  -1.589  -1.617  1.00  0.00     0.202 C 
BRANCH   2   3
ATOM      3  C   UNL     1      -0.946  -1.847  -0.774  1.00  0.00     0.261 C 
BRANCH   3   4
ATOM      4  O   UNL     1       0.045  -0.862  -1.088  1.00  0.00    -0.459 OA
BRANCH   4   5
ATOM      5  C   UNL     1       1.332  -1.290  -1.097  1.00  0.00     0.365 C 
ATOM      6  O   UNL     1       1.702  -2.383  -0.680  1.00  0.00    -0.245 OA
BRANCH   5   7
ATOM      7  C   UNL     1       2.280  -0.316  -1.811  1.00  0.00     0.304 C 
ATOM      8  C   UNL     1       2.014   1.972  -1.073  1.00  0.00     0.283 C 
ATOM      9  N   UNL     1       1.698   1.013  -2.139  1.00  0.00    -0.319 N 
ATOM     10  S   UNL     1       3.597   1.487  -0.335  1.00  0.00    -0.087 SA
ATOM     11  H   UNL     1       2.089   1.346  -3.020  1.00  0.00     0.348 HD
ATOM     12  H   UNL     1       0.685   0.925  -2.223  1.00  0.00     0.348 HD
ATOM     13  C   UNL     1       3.592  -0.171  -1.052  1.00  0.00     0.153 C 
BRANCH   8  14
ATOM     14  C   UNL     1       0.908   2.198  -0.072  1.00  0.00     0.128 A 
ATOM     15  C   UNL     1       0.597   1.483   1.034  1.00  0.00     0.205 A 
ATOM     16  O   UNL     1      -0.479   1.778   1.857  1.00  0.00    -0.440 OA
ATOM     17  C   UNL     1      -0.985   3.044   1.830  1.00  0.00     0.140 A 
ATOM     18  C   UNL     1       0.108   3.436  -0.321  1.00  0.00     0.205 A 
ATOM     19  C   UNL     1      -1.775   3.443   2.906  1.00  0.00     0.051 A 
ATOM     20  C   UNL     1      -0.729   3.918   0.785  1.00  0.00     0.068 A 
ATOM     21  O   UNL     1       0.178   4.083  -1.359  1.00  0.00    -0.288 OA
ATOM     22  C   UNL     1      -2.296   4.736   2.938  1.00  0.00     0.043 A 
ATOM     23  C   UNL     1      -1.243   5.216   0.807  1.00  0.00     0.055 A 
ATOM     24  C   UNL     1      -2.019   5.612   1.892  1.00  0.00     0.124 A 
ATOM     25  F   UNL     1      -2.533   6.847   1.917  1.00  0.00    -0.207 F 
BRANCH  15  26
ATOM     26  N   UNL     1       1.285   0.398   1.493  1.00  0.00    -0.369 N 
ATOM     27  H   UNL     1       0.988  -0.064   2.310  1.00  0.00     0.159 HD
ATOM     28  H   UNL     1       2.079   0.077   1.007  1.00  0.00     0.159 HD
ENDBRANCH  15  26
ENDBRANCH   8  14
ENDBRANCH   5   7
ENDBRANCH   4   5
ENDBRANCH   3   4
ENDBRANCH   2   3
ENDBRANCH   1   2
BRANCH   1  29
ATOM     29  C   UNL     1      -1.259  -0.803  -3.734  1.00  0.00     0.202 C 
BRANCH  29  30
ATOM     30  C   UNL     1      -1.914   0.552  -4.039  1.00  0.00     0.261 C 
BRANCH  30  31
ATOM     31  O   UNL     1      -2.430   1.227  -2.882  1.00  0.00    -0.460 OA
BRANCH  31  32
ATOM     32  C   UNL     1      -3.775   1.134  -2.728  1.00  0.00     0.338 C 
ATOM     33  O   UNL     1      -4.569   0.567  -3.457  1.00  0.00    -0.246 OA
BRANCH  32  34
ATOM     34  C   UNL     1      -4.168   1.722  -1.433  1.00  0.00     0.060 A 
ATOM     35  C   UNL     1      -3.805   3.022  -1.095  1.00  0.00     0.016 A 
ATOM     36  C   UNL     1      -4.999   0.977  -0.584  1.00  0.00     0.016 A 
ATOM     37  C   UNL     1      -4.307   3.578   0.084  1.00  0.00     0.010 A 
ATOM     38  C   UNL     1      -5.495   1.540   0.597  1.00  0.00     0.010 A 
ATOM     39  C   UNL     1      -5.164   2.854   0.940  1.00  0.00    -0.014 A 
BRANCH  39  40
ATOM     40  C   UNL     1      -5.803   3.557   2.088  1.00  0.00     0.031 A 
ATOM     41  C   UNL     1      -5.485   3.238   3.521  1.00  0.00     0.074 A 
ATOM     42  C   UNL     1      -6.651   4.570   1.821  1.00  0.00     0.049 A 
ATOM     43  N   UNL     1      -5.718   3.967   4.586  1.00  0.00    -0.248 NA
ATOM     44  C   UNL     1      -4.803   1.968   3.803  1.00  0.00     0.031 C 
ATOM     45  C   UNL     1      -7.081   4.965   0.479  1.00  0.00     0.029 A 
ATOM     46  N   UNL     1      -7.262   5.477   2.651  1.00  0.00    -0.354 N 
ATOM     47  C   UNL     1      -5.150   3.282   5.651  1.00  0.00     0.074 A 
ATOM     48  C   UNL     1      -4.624   2.043   5.117  1.00  0.00     0.031 C 
ATOM     49  C   UNL     1      -7.821   6.077   0.569  1.00  0.00     0.029 A 
ATOM     50  C   UNL     1      -7.956   6.450   1.974  1.00  0.00     0.049 A 
ATOM     51  H   UNL     1      -7.209   5.433   3.633  1.00  0.00     0.167 HD
ATOM     52  C   UNL     1      -5.048   3.666   6.946  1.00  0.00     0.031 A 
ATOM     53  C   UNL     1      -8.616   7.536   2.419  1.00  0.00     0.031 A 
ATOM     54  C   UNL     1      -5.674   4.838   7.507  1.00  0.00     0.049 A 
ATOM     55  C   UNL     1      -8.629   7.850   3.885  1.00  0.00     0.074 A 
ATOM     56  C   UNL     1      -5.630   5.294   8.815  1.00  0.00     0.029 A 
ATOM     57  N   UNL     1      -6.499   5.709   6.812  1.00  0.00    -0.354 N 
ATOM     58  N   UNL     1      -7.990   7.252   4.861  1.00  0.00    -0.248 NA
ATOM     59  C   UNL     1      -9.450   8.992   4.310  1.00  0.00     0.031 C 
ATOM     60  C   UNL     1      -6.500   6.383   8.930  1.00  0.00     0.029 A 
ATOM     61  C   UNL     1      -7.021   6.660   7.677  1.00  0.00     0.049 A 
ATOM     62  H   UNL     1      -6.686   5.660   5.847  1.00  0.00     0.167 HD
ATOM     63  C   UNL     1      -8.327   7.947   6.016  1.00  0.00     0.074 A 
ATOM     64  C   UNL     1      -9.204   9.027   5.613  1.00  0.00     0.031 C 
ATOM     65  C   UNL     1      -7.938   7.705   7.292  1.00  0.00     0.031 A 
BRANCH  52  66
ATOM     66  C   UNL     1      -4.218   2.810   7.863  1.00  0.00    -0.014 A 
ATOM     67  C   UNL     1      -4.819   2.081   8.900  1.00  0.00     0.009 A 
ATOM     68  C   UNL     1      -2.817   2.811   7.758  1.00  0.00     0.009 A 
ATOM     69  C   UNL     1      -4.036   1.378   9.818  1.00  0.00     0.001 A 
ATOM     70  C   UNL     1      -2.037   2.089   8.665  1.00  0.00     0.001 A 
ATOM     71  C   UNL     1      -2.647   1.380   9.698  1.00  0.00     0.000 A 
ENDBRANCH  52  66
BRANCH  53  72
ATOM     72  C   UNL     1      -9.289   8.419   1.431  1.00  0.00    -0.014 A 
ATOM     73  C   UNL     1     -10.397   7.955   0.703  1.00  0.00     0.009 A 
ATOM     74  C   UNL     1      -8.775   9.692   1.147  1.00  0.00     0.009 A 
ATOM     75  C   UNL     1     -10.950   8.729  -0.318  1.00  0.00     0.001 A 
ATOM     76  C   UNL     1      -9.351  10.478   0.146  1.00  0.00     0.001 A 
ATOM     77  C   UNL     1     -10.428   9.990  -0.595  1.00  0.00     0.000 A 
ENDBRANCH  53  72
BRANCH  65  78
ATOM     78  C   UNL     1      -8.489   8.602   8.369  1.00  0.00    -0.014 A 
ATOM     79  C   UNL     1      -7.636   9.464   9.077  1.00  0.00     0.009 A 
ATOM     80  C   UNL     1      -9.847   8.553   8.726  1.00  0.00     0.009 A 
ATOM     81  C   UNL     1      -8.126  10.250  10.122  1.00  0.00     0.001 A 
ATOM     82  C   UNL     1     -10.341   9.367   9.748  1.00  0.00     0.001 A 
ATOM     83  C   UNL     1      -9.480  10.208  10.451  1.00  0.00     0.000 A 
ENDBRANCH  65  78
ENDBRANCH  39  40
ENDBRANCH  32  34
ENDBRANCH  31  32
ENDBRANCH  30  31
ENDBRANCH  29  30
ENDBRANCH   1  29
TORSDOF 16
