REMARK SMILES C=CCCC[C@@]1(C(=O)OCCOCCOC(=O)c2ccc(-c3c4nc(c(-c5ccccc5)c5ccc([nH]5)c(-c5ccccc5)c5nc(c(-c6ccccc6)c6ccc3[nH]6)C=C5)C=C4)cc2)CCCN(C(=O)OC(C)(C)C)C1
REMARK SMILES IDX 11 1 10 2 9 3 7 4 8 5 6 6 66 7 77 8 67 9 69 10 68 11 5 12
REMARK SMILES IDX 4 13 3 14 2 15 1 16 70 17 71 18 72 19 73 20 74 21 75 22
REMARK SMILES IDX 76 23 12 24 13 25 14 26 15 27 16 28 17 29 18 30 19 31 65 32
REMARK SMILES IDX 20 33 64 34 21 35 22 36 23 37 58 38 24 39 63 40 57 41 59 42
REMARK SMILES IDX 25 43 62 44 56 45 55 46 26 48 48 49 33 50 47 51 34 52 37 53
REMARK SMILES IDX 46 54 60 55 35 56 36 57 45 59 61 60 38 61 27 62 28 63 32 64
REMARK SMILES IDX 29 65 31 66 30 67 49 68 50 69 54 70 51 71 53 72 52 73 39 74
REMARK SMILES IDX 40 75 44 76 41 77 43 78 42 79
REMARK H PARENT 59 47 37 58
REMARK Flexibility Score: inf
ROOT
ATOM      1  C   UNL     1      -0.007   2.600  -1.984  1.00  0.00     0.202 C 
ENDROOT
BRANCH   1   2
ATOM      2  C   UNL     1      -0.339   2.344  -3.461  1.00  0.00     0.261 C 
BRANCH   2   3
ATOM      3  O   UNL     1      -1.255   1.255  -3.691  1.00  0.00    -0.463 OA
BRANCH   3   4
ATOM      4  C   UNL     1      -0.642   0.045  -3.818  1.00  0.00     0.313 C 
ATOM      5  O   UNL     1       0.548  -0.127  -3.596  1.00  0.00    -0.252 OA
BRANCH   4   6
ATOM      6  C   UNL     1      -1.577  -1.042  -4.337  1.00  0.00     0.086 C 
ATOM      7  C   UNL     1      -2.915  -1.108  -3.547  1.00  0.00     0.022 C 
ATOM      8  C   UNL     1      -0.912  -2.416  -4.160  1.00  0.00     0.141 C 
ATOM      9  C   UNL     1      -2.789  -1.611  -2.097  1.00  0.00     0.023 C 
ATOM     10  N   UNL     1      -0.661  -2.729  -2.763  1.00  0.00    -0.307 N 
ATOM     11  C   UNL     1      -1.820  -2.781  -1.886  1.00  0.00     0.123 C 
BRANCH   6  12
ATOM     12  C   UNL     1      -1.847  -0.805  -5.854  1.00  0.00     0.021 C 
BRANCH  12  13
ATOM     13  C   UNL     1      -0.794  -0.089  -6.734  1.00  0.00     0.005 C 
BRANCH  13  14
ATOM     14  C   UNL     1       0.688  -0.491  -6.708  1.00  0.00     0.027 C 
BRANCH  14  15
ATOM     15  C   UNL     1       1.034  -1.881  -7.149  1.00  0.00    -0.035 C 
ATOM     16  C   UNL     1       2.294  -2.217  -7.459  1.00  0.00     0.004 C 
ENDBRANCH  14  15
ENDBRANCH  13  14
ENDBRANCH  12  13
ENDBRANCH   6  12
BRANCH  10  17
ATOM     17  C   UNL     1       0.640  -3.072  -2.419  1.00  0.00     0.410 C 
ATOM     18  O   UNL     1       1.532  -3.183  -3.252  1.00  0.00    -0.224 OA
BRANCH  17  19
ATOM     19  O   UNL     1       0.831  -3.263  -1.085  1.00  0.00    -0.444 OA
BRANCH  19  20
ATOM     20  C   UNL     1       2.188  -3.526  -0.621  1.00  0.00     0.106 C 
ATOM     21  C   UNL     1       2.768  -4.811  -1.233  1.00  0.00     0.056 C 
ATOM     22  C   UNL     1       3.105  -2.315  -0.863  1.00  0.00     0.056 C 
ATOM     23  C   UNL     1       2.074  -3.738   0.896  1.00  0.00     0.056 C 
ENDBRANCH  19  20
ENDBRANCH  17  19
ENDBRANCH  10  17
ENDBRANCH   4   6
ENDBRANCH   3   4
ENDBRANCH   2   3
ENDBRANCH   1   2
BRANCH   1  24
ATOM     24  O   UNL     1       0.742   1.596  -1.294  1.00  0.00    -0.374 OA
BRANCH  24  25
ATOM     25  C   UNL     1      -0.027   0.490  -0.818  1.00  0.00     0.202 C 
BRANCH  25  26
ATOM     26  C   UNL     1      -0.400   0.556   0.660  1.00  0.00     0.261 C 
BRANCH  26  27
ATOM     27  O   UNL     1      -1.289   1.661   0.869  1.00  0.00    -0.460 OA
BRANCH  27  28
ATOM     28  C   UNL     1      -0.659   2.800   1.234  1.00  0.00     0.338 C 
ATOM     29  O   UNL     1       0.486   2.918   1.638  1.00  0.00    -0.246 OA
BRANCH  28  30
ATOM     30  C   UNL     1      -1.515   3.955   0.908  1.00  0.00     0.060 A 
ATOM     31  C   UNL     1      -0.872   5.112   0.449  1.00  0.00     0.016 A 
ATOM     32  C   UNL     1      -2.904   3.924   1.064  1.00  0.00     0.016 A 
ATOM     33  C   UNL     1      -1.599   6.278   0.252  1.00  0.00     0.010 A 
ATOM     34  C   UNL     1      -3.635   5.094   0.867  1.00  0.00     0.010 A 
ATOM     35  C   UNL     1      -2.970   6.285   0.531  1.00  0.00    -0.014 A 
BRANCH  35  36
ATOM     36  C   UNL     1      -3.646   7.582   0.740  1.00  0.00     0.031 A 
ATOM     37  C   UNL     1      -3.811   8.062   2.156  1.00  0.00     0.074 A 
ATOM     38  C   UNL     1      -4.055   8.326  -0.299  1.00  0.00     0.049 A 
ATOM     39  N   UNL     1      -4.404   9.136   2.606  1.00  0.00    -0.248 NA
ATOM     40  C   UNL     1      -3.232   7.208   3.211  1.00  0.00     0.031 C 
ATOM     41  C   UNL     1      -3.885   7.980  -1.710  1.00  0.00     0.029 A 
ATOM     42  N   UNL     1      -4.701   9.533  -0.320  1.00  0.00    -0.354 N 
ATOM     43  C   UNL     1      -4.282   9.078   3.989  1.00  0.00     0.074 A 
ATOM     44  C   UNL     1      -3.592   7.850   4.310  1.00  0.00     0.031 C 
ATOM     45  C   UNL     1      -4.423   8.955  -2.462  1.00  0.00     0.029 A 
ATOM     46  C   UNL     1      -5.003   9.969  -1.585  1.00  0.00     0.049 A 
ATOM     47  H   UNL     1      -4.928  10.038   0.494  1.00  0.00     0.167 HD
ATOM     48  C   UNL     1      -4.702   9.975   4.910  1.00  0.00     0.031 A 
ATOM     49  C   UNL     1      -5.690  11.057  -1.980  1.00  0.00     0.031 A 
ATOM     50  C   UNL     1      -5.394  11.189   4.578  1.00  0.00     0.049 A 
ATOM     51  C   UNL     1      -6.217  12.002  -0.932  1.00  0.00     0.074 A 
ATOM     52  C   UNL     1      -5.866  12.174   5.425  1.00  0.00     0.029 A 
ATOM     53  N   UNL     1      -5.713  11.578   3.285  1.00  0.00    -0.354 N 
ATOM     54  N   UNL     1      -6.093  11.944   0.373  1.00  0.00    -0.248 NA
ATOM     55  C   UNL     1      -6.971  13.167  -1.413  1.00  0.00     0.031 C 
ATOM     56  C   UNL     1      -6.521  13.134   4.647  1.00  0.00     0.029 A 
ATOM     57  C   UNL     1      -6.397  12.780   3.312  1.00  0.00     0.049 A 
ATOM     58  H   UNL     1      -5.487  11.075   2.470  1.00  0.00     0.167 HD
ATOM     59  C   UNL     1      -6.720  13.080   0.866  1.00  0.00     0.074 A 
ATOM     60  C   UNL     1      -7.216  13.813  -0.282  1.00  0.00     0.031 C 
ATOM     61  C   UNL     1      -6.871  13.488   2.151  1.00  0.00     0.031 A 
BRANCH  48  62
ATOM     62  C   UNL     1      -4.458   9.649   6.358  1.00  0.00    -0.014 A 
ATOM     63  C   UNL     1      -3.164   9.660   6.904  1.00  0.00     0.009 A 
ATOM     64  C   UNL     1      -5.543   9.340   7.193  1.00  0.00     0.009 A 
ATOM     65  C   UNL     1      -2.960   9.333   8.247  1.00  0.00     0.001 A 
ATOM     66  C   UNL     1      -5.339   9.044   8.542  1.00  0.00     0.001 A 
ATOM     67  C   UNL     1      -4.048   9.031   9.066  1.00  0.00     0.000 A 
ENDBRANCH  48  62
BRANCH  49  68
ATOM     68  C   UNL     1      -5.932  11.303  -3.426  1.00  0.00    -0.014 A 
ATOM     69  C   UNL     1      -5.322  12.382  -4.082  1.00  0.00     0.009 A 
ATOM     70  C   UNL     1      -6.784  10.460  -4.157  1.00  0.00     0.009 A 
ATOM     71  C   UNL     1      -5.581  12.627  -5.433  1.00  0.00     0.001 A 
ATOM     72  C   UNL     1      -7.017  10.689  -5.515  1.00  0.00     0.001 A 
ATOM     73  C   UNL     1      -6.423  11.778  -6.149  1.00  0.00     0.000 A 
ENDBRANCH  49  68
BRANCH  61  74
ATOM     74  C   UNL     1      -7.552  14.807   2.378  1.00  0.00    -0.014 A 
ATOM     75  C   UNL     1      -8.934  14.961   2.189  1.00  0.00     0.009 A 
ATOM     76  C   UNL     1      -6.801  15.898   2.844  1.00  0.00     0.009 A 
ATOM     77  C   UNL     1      -9.543  16.194   2.431  1.00  0.00     0.001 A 
ATOM     78  C   UNL     1      -7.418  17.119   3.115  1.00  0.00     0.001 A 
ATOM     79  C   UNL     1      -8.787  17.268   2.899  1.00  0.00     0.000 A 
ENDBRANCH  61  74
ENDBRANCH  35  36
ENDBRANCH  28  30
ENDBRANCH  27  28
ENDBRANCH  26  27
ENDBRANCH  25  26
ENDBRANCH  24  25
ENDBRANCH   1  24
TORSDOF 21
