REMARK SMILES O=C(OCCOCCOC(=O)[C@@H]1[C@H](C(=O)Nc2ccc(Cn3cncn3)cc2)[C@@H]2C=C[C@H]1CC2)c1ccc(-c2c3nc(c(-c4ccccc4)c4ccc([nH]4)c(-c4ccccc4)c4nc(c(-c5ccccc5)c5ccc2[nH]5)C=C4)C=C3)cc1
REMARK SMILES IDX 7 1 6 2 5 3 4 4 3 5 2 6 1 7 35 8 36 9 82 10 37 11 81 12
REMARK SMILES IDX 38 13 39 14 40 15 75 16 41 17 80 18 74 19 76 20 42 21 79 22
REMARK SMILES IDX 73 23 72 24 43 26 65 27 50 28 64 29 51 30 54 31 63 32 77 33
REMARK SMILES IDX 52 34 53 35 62 37 78 38 55 39 44 40 45 41 49 42 46 43 48 44
REMARK SMILES IDX 47 45 66 46 67 47 71 48 68 49 70 50 69 51 56 52 57 53 61 54
REMARK SMILES IDX 58 55 60 56 59 57 8 58 9 59 10 60 11 61 12 62 13 63 32 64
REMARK SMILES IDX 29 65 31 66 33 67 30 68 34 69 14 70 15 71 16 72 17 74 18 75
REMARK SMILES IDX 28 76 19 77 27 78 20 79 21 80 22 81 23 82 26 83 24 84 25 85
REMARK H PARENT 76 25 54 36 16 73
REMARK Flexibility Score: inf
ROOT
ATOM      1  C   UNL     1       3.749  -1.940   1.161  1.00  0.00     0.202 C 
ENDROOT
BRANCH   1   2
ATOM      2  O   UNL     1       4.630  -1.253   0.255  1.00  0.00    -0.374 OA
BRANCH   2   3
ATOM      3  C   UNL     1       5.018   0.060   0.652  1.00  0.00     0.202 C 
BRANCH   3   4
ATOM      4  C   UNL     1       4.655   1.147  -0.352  1.00  0.00     0.261 C 
BRANCH   4   5
ATOM      5  O   UNL     1       3.231   1.370  -0.432  1.00  0.00    -0.460 OA
BRANCH   5   6
ATOM      6  C   UNL     1       2.388   0.324  -0.610  1.00  0.00     0.338 C 
ATOM      7  O   UNL     1       1.505  -0.001   0.176  1.00  0.00    -0.246 OA
BRANCH   6   8
ATOM      8  C   UNL     1       2.298  -0.135  -1.984  1.00  0.00     0.060 A 
ATOM      9  C   UNL     1       3.421  -0.423  -2.745  1.00  0.00     0.016 A 
ATOM     10  C   UNL     1       1.004  -0.221  -2.513  1.00  0.00     0.016 A 
ATOM     11  C   UNL     1       3.267  -0.574  -4.097  1.00  0.00     0.010 A 
ATOM     12  C   UNL     1       0.839  -0.452  -3.858  1.00  0.00     0.010 A 
ATOM     13  C   UNL     1       1.980  -0.547  -4.647  1.00  0.00    -0.014 A 
BRANCH  13  14
ATOM     14  C   UNL     1       1.916  -0.710  -6.080  1.00  0.00     0.031 A 
ATOM     15  C   UNL     1       2.564  -1.941  -6.595  1.00  0.00     0.074 A 
ATOM     16  C   UNL     1       1.307   0.167  -6.889  1.00  0.00     0.049 A 
ATOM     17  N   UNL     1       3.555  -2.035  -7.418  1.00  0.00    -0.248 NA
ATOM     18  C   UNL     1       2.118  -3.219  -6.019  1.00  0.00     0.031 C 
ATOM     19  C   UNL     1       0.394   1.257  -6.546  1.00  0.00     0.029 A 
ATOM     20  N   UNL     1       1.313   0.165  -8.244  1.00  0.00    -0.354 N 
ATOM     21  C   UNL     1       3.791  -3.396  -7.567  1.00  0.00     0.074 A 
ATOM     22  C   UNL     1       2.946  -4.074  -6.615  1.00  0.00     0.031 C 
ATOM     23  C   UNL     1      -0.256   1.643  -7.666  1.00  0.00     0.029 A 
ATOM     24  C   UNL     1       0.311   0.930  -8.800  1.00  0.00     0.049 A 
ATOM     25  H   UNL     1       1.971  -0.334  -8.780  1.00  0.00     0.167 HD
ATOM     26  C   UNL     1       4.558  -3.905  -8.566  1.00  0.00     0.031 A 
ATOM     27  C   UNL     1      -0.082   0.891 -10.091  1.00  0.00     0.031 A 
ATOM     28  C   UNL     1       5.426  -2.927  -9.156  1.00  0.00     0.049 A 
ATOM     29  C   UNL     1       1.016   0.294 -10.890  1.00  0.00     0.074 A 
ATOM     30  C   UNL     1       6.497  -2.184  -8.701  1.00  0.00     0.029 A 
ATOM     31  N   UNL     1       5.027  -2.332 -10.327  1.00  0.00    -0.354 N 
ATOM     32  N   UNL     1       2.165   0.875 -11.085  1.00  0.00    -0.248 NA
ATOM     33  C   UNL     1       0.998  -1.138 -11.150  1.00  0.00     0.031 C 
ATOM     34  C   UNL     1       6.391  -0.928  -9.367  1.00  0.00     0.029 A 
ATOM     35  C   UNL     1       5.268  -0.986 -10.197  1.00  0.00     0.049 A 
ATOM     36  H   UNL     1       4.642  -2.784 -11.112  1.00  0.00     0.167 HD
ATOM     37  C   UNL     1       3.097  -0.154 -11.093  1.00  0.00     0.074 A 
ATOM     38  C   UNL     1       2.309  -1.371 -11.258  1.00  0.00     0.031 C 
ATOM     39  C   UNL     1       4.388   0.052 -10.691  1.00  0.00     0.031 A 
BRANCH  26  40
ATOM     40  C   UNL     1       4.286  -5.245  -9.182  1.00  0.00    -0.014 A 
ATOM     41  C   UNL     1       5.225  -5.816 -10.054  1.00  0.00     0.009 A 
ATOM     42  C   UNL     1       3.018  -5.858  -9.115  1.00  0.00     0.009 A 
ATOM     43  C   UNL     1       4.901  -6.936 -10.831  1.00  0.00     0.001 A 
ATOM     44  C   UNL     1       2.706  -6.998  -9.856  1.00  0.00     0.001 A 
ATOM     45  C   UNL     1       3.643  -7.527 -10.730  1.00  0.00     0.000 A 
ENDBRANCH  26  40
BRANCH  27  46
ATOM     46  C   UNL     1      -1.460   1.056 -10.583  1.00  0.00    -0.014 A 
ATOM     47  C   UNL     1      -1.714   1.371 -11.922  1.00  0.00     0.009 A 
ATOM     48  C   UNL     1      -2.551   0.683  -9.772  1.00  0.00     0.009 A 
ATOM     49  C   UNL     1      -3.015   1.303 -12.434  1.00  0.00     0.001 A 
ATOM     50  C   UNL     1      -3.849   0.623 -10.279  1.00  0.00     0.001 A 
ATOM     51  C   UNL     1      -4.079   0.923 -11.616  1.00  0.00     0.000 A 
ENDBRANCH  27  46
BRANCH  39  52
ATOM     52  C   UNL     1       4.821   1.479 -10.440  1.00  0.00    -0.014 A 
ATOM     53  C   UNL     1       4.212   2.285  -9.461  1.00  0.00     0.009 A 
ATOM     54  C   UNL     1       5.958   1.978 -11.093  1.00  0.00     0.009 A 
ATOM     55  C   UNL     1       4.696   3.564  -9.175  1.00  0.00     0.001 A 
ATOM     56  C   UNL     1       6.456   3.249 -10.791  1.00  0.00     0.001 A 
ATOM     57  C   UNL     1       5.821   4.045  -9.839  1.00  0.00     0.000 A 
ENDBRANCH  39  52
ENDBRANCH  13  14
ENDBRANCH   6   8
ENDBRANCH   5   6
ENDBRANCH   4   5
ENDBRANCH   3   4
ENDBRANCH   2   3
ENDBRANCH   1   2
BRANCH   1  58
ATOM     58  C   UNL     1       4.300  -2.264   2.551  1.00  0.00     0.261 C 
BRANCH  58  59
ATOM     59  O   UNL     1       4.120  -1.143   3.450  1.00  0.00    -0.463 OA
BRANCH  59  60
ATOM     60  C   UNL     1       5.210  -0.402   3.732  1.00  0.00     0.310 C 
ATOM     61  O   UNL     1       6.323  -0.608   3.257  1.00  0.00    -0.252 OA
BRANCH  60  62
ATOM     62  C   UNL     1       4.958   0.777   4.645  1.00  0.00     0.119 C 
ATOM     63  C   UNL     1       3.827   0.780   5.694  1.00  0.00     0.100 C 
ATOM     64  C   UNL     1       5.104   2.200   3.998  1.00  0.00     0.026 C 
ATOM     65  C   UNL     1       3.490   2.257   6.055  1.00  0.00     0.025 C 
ATOM     66  C   UNL     1       3.785   2.915   3.774  1.00  0.00    -0.027 C 
ATOM     67  C   UNL     1       5.736   3.091   5.095  1.00  0.00     0.009 C 
ATOM     68  C   UNL     1       2.965   2.965   4.839  1.00  0.00    -0.027 C 
ATOM     69  C   UNL     1       4.835   3.008   6.372  1.00  0.00     0.009 C 
BRANCH  63  70
ATOM     70  C   UNL     1       2.694  -0.272   5.672  1.00  0.00     0.228 C 
ATOM     71  O   UNL     1       2.862  -1.289   6.369  1.00  0.00    -0.274 OA
ATOM     72  N   UNL     1       1.477  -0.197   5.069  1.00  0.00    -0.326 N 
ATOM     73  H   UNL     1       0.829  -0.826   5.459  1.00  0.00     0.169 HD
BRANCH  72  74
ATOM     74  C   UNL     1       0.923   0.558   4.028  1.00  0.00     0.041 A 
ATOM     75  C   UNL     1      -0.460   0.766   3.997  1.00  0.00     0.026 A 
ATOM     76  C   UNL     1       1.666   1.061   2.985  1.00  0.00     0.026 A 
ATOM     77  C   UNL     1      -1.046   1.600   3.025  1.00  0.00     0.008 A 
ATOM     78  C   UNL     1       1.105   1.945   2.057  1.00  0.00     0.008 A 
ATOM     79  C   UNL     1      -0.255   2.235   2.063  1.00  0.00    -0.026 A 
BRANCH  79  80
ATOM     80  C   UNL     1      -0.797   3.202   1.043  1.00  0.00     0.181 C 
BRANCH  80  81
ATOM     81  N   UNL     1      -1.282   2.562  -0.168  1.00  0.00    -0.249 N 
ATOM     82  C   UNL     1      -2.429   1.842  -0.316  1.00  0.00     0.220 A 
ATOM     83  N   UNL     1      -0.741   2.846  -1.374  1.00  0.00    -0.160 NA
ATOM     84  N   UNL     1      -2.645   1.606  -1.591  1.00  0.00    -0.224 NA
ATOM     85  C   UNL     1      -1.598   2.238  -2.198  1.00  0.00     0.246 A 
ENDBRANCH  80  81
ENDBRANCH  79  80
ENDBRANCH  72  74
ENDBRANCH  63  70
ENDBRANCH  60  62
ENDBRANCH  59  60
ENDBRANCH  58  59
ENDBRANCH   1  58
TORSDOF 18
