REMARK SMILES O=C(OCCOCCOC(=O)[C@]12COc3ccccc3[C@H]1C[N@H+](CCO)C2)c1ccc(-c2c3nc(c(-c4ccccc4)c4ccc([nH]4)c(-c4ccccc4)c4nc(c(-c5ccccc5)c5ccc2[nH]5)C=C4)C=C3)cc1
REMARK SMILES IDX 7 1 6 2 5 3 4 4 3 5 2 6 1 7 28 8 29 9 75 10 30 11 74 12
REMARK SMILES IDX 31 13 32 14 33 15 68 16 34 17 73 18 67 19 69 20 35 21 72 22
REMARK SMILES IDX 66 23 65 24 36 26 58 27 43 28 57 29 44 30 47 31 56 32 70 33
REMARK SMILES IDX 45 34 46 35 55 37 71 38 48 39 37 40 38 41 42 42 39 43 41 44
REMARK SMILES IDX 40 45 59 46 60 47 64 48 61 49 63 50 62 51 49 52 50 53 54 54
REMARK SMILES IDX 51 55 53 56 52 57 8 58 9 59 10 60 11 61 12 62 13 63 21 64
REMARK SMILES IDX 27 65 14 66 20 67 22 68 23 69 15 70 19 71 16 73 18 74 17 75
REMARK SMILES IDX 24 76 25 77 26 78
REMARK H PARENT 69 25 47 36 23 72 26 79
REMARK Flexibility Score: inf
ROOT
ATOM      1  C   UNL     1       3.067  -2.058   0.881  1.00  0.00     0.202 C 
ENDROOT
BRANCH   1   2
ATOM      2  O   UNL     1       4.392  -1.845   0.389  1.00  0.00    -0.374 OA
BRANCH   2   3
ATOM      3  C   UNL     1       5.068  -0.610   0.632  1.00  0.00     0.202 C 
BRANCH   3   4
ATOM      4  C   UNL     1       4.519   0.710   0.034  1.00  0.00     0.261 C 
BRANCH   4   5
ATOM      5  O   UNL     1       3.095   0.748  -0.128  1.00  0.00    -0.460 OA
BRANCH   5   6
ATOM      6  C   UNL     1       2.451   0.712  -1.325  1.00  0.00     0.338 C 
ATOM      7  O   UNL     1       1.425   1.365  -1.486  1.00  0.00    -0.246 OA
BRANCH   6   8
ATOM      8  C   UNL     1       2.854  -0.274  -2.379  1.00  0.00     0.060 A 
ATOM      9  C   UNL     1       1.971  -0.531  -3.443  1.00  0.00     0.016 A 
ATOM     10  C   UNL     1       4.041  -0.993  -2.348  1.00  0.00     0.016 A 
ATOM     11  C   UNL     1       2.266  -1.510  -4.406  1.00  0.00     0.010 A 
ATOM     12  C   UNL     1       4.319  -1.996  -3.242  1.00  0.00     0.010 A 
ATOM     13  C   UNL     1       3.439  -2.256  -4.282  1.00  0.00    -0.014 A 
BRANCH  13  14
ATOM     14  C   UNL     1       3.975  -3.213  -5.257  1.00  0.00     0.031 A 
ATOM     15  C   UNL     1       4.044  -4.665  -4.899  1.00  0.00     0.074 A 
ATOM     16  C   UNL     1       4.776  -2.679  -6.197  1.00  0.00     0.049 A 
ATOM     17  N   UNL     1       4.670  -5.631  -5.513  1.00  0.00    -0.248 NA
ATOM     18  C   UNL     1       3.383  -5.074  -3.645  1.00  0.00     0.031 C 
ATOM     19  C   UNL     1       4.959  -1.238  -6.416  1.00  0.00     0.029 A 
ATOM     20  N   UNL     1       5.668  -3.264  -7.050  1.00  0.00    -0.354 N 
ATOM     21  C   UNL     1       4.476  -6.761  -4.729  1.00  0.00     0.074 A 
ATOM     22  C   UNL     1       3.731  -6.351  -3.561  1.00  0.00     0.031 C 
ATOM     23  C   UNL     1       5.931  -1.052  -7.317  1.00  0.00     0.029 A 
ATOM     24  C   UNL     1       6.418  -2.355  -7.754  1.00  0.00     0.049 A 
ATOM     25  H   UNL     1       5.764  -4.238  -7.150  1.00  0.00     0.167 HD
ATOM     26  C   UNL     1       4.877  -8.026  -4.993  1.00  0.00     0.031 A 
ATOM     27  C   UNL     1       7.379  -2.552  -8.672  1.00  0.00     0.031 A 
ATOM     28  C   UNL     1       5.634  -8.365  -6.169  1.00  0.00     0.049 A 
ATOM     29  C   UNL     1       7.701  -3.961  -9.052  1.00  0.00     0.074 A 
ATOM     30  C   UNL     1       5.920  -9.616  -6.682  1.00  0.00     0.029 A 
ATOM     31  N   UNL     1       6.246  -7.435  -6.999  1.00  0.00    -0.354 N 
ATOM     32  N   UNL     1       7.300  -5.069  -8.474  1.00  0.00    -0.248 NA
ATOM     33  C   UNL     1       8.552  -4.160 -10.228  1.00  0.00     0.031 C 
ATOM     34  C   UNL     1       6.752  -9.444  -7.792  1.00  0.00     0.029 A 
ATOM     35  C   UNL     1       6.938  -8.085  -8.004  1.00  0.00     0.049 A 
ATOM     36  H   UNL     1       6.195  -6.458  -6.888  1.00  0.00     0.167 HD
ATOM     37  C   UNL     1       7.828  -6.103  -9.229  1.00  0.00     0.074 A 
ATOM     38  C   UNL     1       8.576  -5.486 -10.309  1.00  0.00     0.031 C 
ATOM     39  C   UNL     1       7.695  -7.439  -9.048  1.00  0.00     0.031 A 
BRANCH  26  40
ATOM     40  C   UNL     1       4.469  -9.128  -4.053  1.00  0.00    -0.014 A 
ATOM     41  C   UNL     1       5.442  -9.911  -3.411  1.00  0.00     0.009 A 
ATOM     42  C   UNL     1       3.116  -9.469  -3.882  1.00  0.00     0.009 A 
ATOM     43  C   UNL     1       5.073 -11.009  -2.629  1.00  0.00     0.001 A 
ATOM     44  C   UNL     1       2.747 -10.550  -3.077  1.00  0.00     0.001 A 
ATOM     45  C   UNL     1       3.726 -11.325  -2.459  1.00  0.00     0.000 A 
ENDBRANCH  26  40
BRANCH  27  46
ATOM     46  C   UNL     1       7.925  -1.363  -9.370  1.00  0.00    -0.014 A 
ATOM     47  C   UNL     1       8.870  -0.528  -8.754  1.00  0.00     0.009 A 
ATOM     48  C   UNL     1       7.329  -0.948 -10.572  1.00  0.00     0.009 A 
ATOM     49  C   UNL     1       9.183   0.714  -9.314  1.00  0.00     0.001 A 
ATOM     50  C   UNL     1       7.653   0.288 -11.134  1.00  0.00     0.001 A 
ATOM     51  C   UNL     1       8.570   1.123 -10.498  1.00  0.00     0.000 A 
ENDBRANCH  27  46
BRANCH  39  52
ATOM     52  C   UNL     1       8.392  -8.338 -10.024  1.00  0.00    -0.014 A 
ATOM     53  C   UNL     1       7.640  -9.075 -10.951  1.00  0.00     0.009 A 
ATOM     54  C   UNL     1       9.775  -8.548  -9.935  1.00  0.00     0.009 A 
ATOM     55  C   UNL     1       8.259 -10.028 -11.758  1.00  0.00     0.001 A 
ATOM     56  C   UNL     1      10.395  -9.484 -10.761  1.00  0.00     0.001 A 
ATOM     57  C   UNL     1       9.636 -10.231 -11.663  1.00  0.00     0.000 A 
ENDBRANCH  39  52
ENDBRANCH  13  14
ENDBRANCH   6   8
ENDBRANCH   5   6
ENDBRANCH   4   5
ENDBRANCH   3   4
ENDBRANCH   2   3
ENDBRANCH   1   2
BRANCH   1  58
ATOM     58  C   UNL     1       2.991  -2.965   2.126  1.00  0.00     0.261 C 
BRANCH  58  59
ATOM     59  O   UNL     1       3.025  -2.225   3.369  1.00  0.00    -0.463 OA
BRANCH  59  60
ATOM     60  C   UNL     1       4.231  -1.664   3.729  1.00  0.00     0.322 C 
ATOM     61  O   UNL     1       5.307  -2.001   3.245  1.00  0.00    -0.251 OA
BRANCH  60  62
ATOM     62  C   UNL     1       3.981  -0.512   4.806  1.00  0.00     0.162 C 
ATOM     63  C   UNL     1       3.639   0.304   3.516  1.00  0.00     0.255 C 
ATOM     64  C   UNL     1       4.891   0.636   5.449  1.00  0.00     0.105 C 
ATOM     65  C   UNL     1       4.664  -1.601   5.733  1.00  0.00     0.285 C 
ATOM     66  O   UNL     1       2.742   1.380   3.799  1.00  0.00    -0.492 OA
ATOM     67  C   UNL     1       4.528   2.099   5.186  1.00  0.00     0.004 A 
ATOM     68  C   UNL     1       4.808   0.378   6.955  1.00  0.00     0.272 C 
ATOM     69  N   UNL     1       4.799  -1.063   7.090  1.00  0.00    -0.331 N 
ATOM     70  C   UNL     1       3.478   2.395   4.318  1.00  0.00     0.123 A 
ATOM     71  C   UNL     1       5.251   3.172   5.713  1.00  0.00     0.008 A 
ATOM     72  H   UNL     1       4.009  -1.354   7.667  1.00  0.00     0.348 HD
ATOM     73  C   UNL     1       3.172   3.689   3.913  1.00  0.00     0.047 A 
ATOM     74  C   UNL     1       4.945   4.486   5.330  1.00  0.00     0.001 A 
ATOM     75  C   UNL     1       3.924   4.742   4.413  1.00  0.00     0.004 A 
BRANCH  69  76
ATOM     76  C   UNL     1       5.927  -1.623   7.864  1.00  0.00     0.290 C 
BRANCH  76  77
ATOM     77  C   UNL     1       7.380  -1.507   7.339  1.00  0.00     0.217 C 
BRANCH  77  78
ATOM     78  O   UNL     1       7.830  -0.161   7.243  1.00  0.00    -0.391 OA
ATOM     79  H   UNL     1       7.273   0.322   6.612  1.00  0.00     0.210 HD
ENDBRANCH  77  78
ENDBRANCH  76  77
ENDBRANCH  69  76
ENDBRANCH  60  62
ENDBRANCH  59  60
ENDBRANCH  58  59
ENDBRANCH   1  58
TORSDOF 17
