REMARK SMILES O=C(CN(Cc1ccccc1Cl)S(=O)(=O)c1ccc(Cl)cc1)OCCOCCOC(=O)c1ccc(-c2c3nc(c(-c4ccccc4)c4ccc([nH]4)c(-c4ccccc4)c4nc(c(-c5ccccc5)c5ccc2[nH]5)C=C4)C=C3)cc1
REMARK SMILES IDX 25 1 24 2 23 3 2 4 1 5 3 6 4 7 5 8 6 9 7 10 11 11 8 12 10 13
REMARK SMILES IDX 12 14 9 15 13 16 14 17 15 18 16 19 17 20 22 21 18 22 21 23
REMARK SMILES IDX 19 24 20 25 26 26 27 27 28 28 29 29 30 30 31 31 32 32 33 33
REMARK SMILES IDX 79 34 34 35 78 36 35 37 36 38 37 39 72 40 38 41 77 42 71 43
REMARK SMILES IDX 73 44 39 45 76 46 70 47 69 48 40 50 62 51 47 52 61 53 48 54
REMARK SMILES IDX 51 55 60 56 74 57 49 58 50 59 59 61 75 62 52 63 41 64 42 65
REMARK SMILES IDX 46 66 43 67 45 68 44 69 63 70 64 71 68 72 65 73 67 74 66 75
REMARK SMILES IDX 53 76 54 77 58 78 55 79 57 80 56 81
REMARK H PARENT 73 49 51 60
REMARK Flexibility Score: inf
ROOT
ATOM      1  C   UNL     1       4.795   0.829   0.761  1.00  0.00     0.202 C 
ENDROOT
BRANCH   1   2
ATOM      2  C   UNL     1       4.529   0.575  -0.721  1.00  0.00     0.261 C 
BRANCH   2   3
ATOM      3  O   UNL     1       3.195   0.974  -1.091  1.00  0.00    -0.462 OA
BRANCH   3   4
ATOM      4  C   UNL     1       2.093   0.209  -0.928  1.00  0.00     0.321 C 
ATOM      5  O   UNL     1       0.983   0.740  -0.899  1.00  0.00    -0.251 OA
BRANCH   4   6
ATOM      6  C   UNL     1       2.250  -1.265  -0.654  1.00  0.00     0.225 C 
BRANCH   6   7
ATOM      7  N   UNL     1       3.126  -2.049  -1.548  1.00  0.00    -0.182 NA
BRANCH   7   8
ATOM      8  C   UNL     1       3.929  -3.106  -0.870  1.00  0.00     0.140 C 
BRANCH   8   9
ATOM      9  C   UNL     1       3.252  -4.378  -0.397  1.00  0.00    -0.014 A 
ATOM     10  C   UNL     1       2.004  -4.349   0.253  1.00  0.00     0.006 A 
ATOM     11  C   UNL     1       3.888  -5.631  -0.495  1.00  0.00     0.045 A 
ATOM     12  C   UNL     1       1.373  -5.513   0.696  1.00  0.00     0.000 A 
ATOM     13  C   UNL     1       3.260  -6.799  -0.041  1.00  0.00     0.021 A 
ATOM     14  Cl  UNL     1       5.482  -5.812  -1.144  1.00  0.00    -0.084 Cl
ATOM     15  C   UNL     1       1.995  -6.742   0.537  1.00  0.00     0.002 A 
ENDBRANCH   8   9
ENDBRANCH   7   8
BRANCH   7  16
ATOM     16  S   UNL     1       2.420  -2.361  -3.049  1.00  0.00     0.243 S 
ATOM     17  O   UNL     1       1.554  -3.503  -2.913  1.00  0.00    -0.207 OA
ATOM     18  O   UNL     1       1.906  -1.097  -3.545  1.00  0.00    -0.207 OA
BRANCH  16  19
ATOM     19  C   UNL     1       3.782  -2.795  -4.096  1.00  0.00     0.082 A 
ATOM     20  C   UNL     1       3.989  -4.136  -4.428  1.00  0.00     0.023 A 
ATOM     21  C   UNL     1       4.544  -1.782  -4.691  1.00  0.00     0.023 A 
ATOM     22  C   UNL     1       4.966  -4.467  -5.367  1.00  0.00     0.022 A 
ATOM     23  C   UNL     1       5.519  -2.120  -5.632  1.00  0.00     0.022 A 
ATOM     24  C   UNL     1       5.720  -3.459  -5.971  1.00  0.00     0.041 A 
ATOM     25  Cl  UNL     1       6.886  -3.870  -7.166  1.00  0.00    -0.084 Cl
ENDBRANCH  16  19
ENDBRANCH   7  16
ENDBRANCH   6   7
ENDBRANCH   4   6
ENDBRANCH   3   4
ENDBRANCH   2   3
ENDBRANCH   1   2
BRANCH   1  26
ATOM     26  O   UNL     1       4.231  -0.140   1.646  1.00  0.00    -0.374 OA
BRANCH  26  27
ATOM     27  C   UNL     1       3.003   0.223   2.293  1.00  0.00     0.202 C 
BRANCH  27  28
ATOM     28  C   UNL     1       3.101   1.140   3.514  1.00  0.00     0.261 C 
BRANCH  28  29
ATOM     29  O   UNL     1       3.405   2.482   3.115  1.00  0.00    -0.460 OA
BRANCH  29  30
ATOM     30  C   UNL     1       4.706   2.830   3.233  1.00  0.00     0.338 C 
ATOM     31  O   UNL     1       5.600   2.187   3.753  1.00  0.00    -0.246 OA
BRANCH  30  32
ATOM     32  C   UNL     1       4.945   4.031   2.410  1.00  0.00     0.060 A 
ATOM     33  C   UNL     1       6.112   4.061   1.634  1.00  0.00     0.016 A 
ATOM     34  C   UNL     1       4.049   5.102   2.398  1.00  0.00     0.016 A 
ATOM     35  C   UNL     1       6.432   5.198   0.903  1.00  0.00     0.010 A 
ATOM     36  C   UNL     1       4.373   6.246   1.673  1.00  0.00     0.010 A 
ATOM     37  C   UNL     1       5.591   6.313   0.973  1.00  0.00    -0.014 A 
BRANCH  37  38
ATOM     38  C   UNL     1       6.090   7.631   0.537  1.00  0.00     0.031 A 
ATOM     39  C   UNL     1       6.621   8.557   1.595  1.00  0.00     0.074 A 
ATOM     40  C   UNL     1       6.060   7.995  -0.753  1.00  0.00     0.049 A 
ATOM     41  N   UNL     1       7.000   9.803   1.495  1.00  0.00    -0.248 NA
ATOM     42  C   UNL     1       6.724   8.002   2.956  1.00  0.00     0.031 C 
ATOM     43  C   UNL     1       5.616   7.153  -1.862  1.00  0.00     0.029 A 
ATOM     44  N   UNL     1       6.396   9.186  -1.341  1.00  0.00    -0.354 N 
ATOM     45  C   UNL     1       7.359  10.187   2.781  1.00  0.00     0.074 A 
ATOM     46  C   UNL     1       7.128   9.054   3.648  1.00  0.00     0.031 C 
ATOM     47  C   UNL     1       5.689   7.864  -3.001  1.00  0.00     0.029 A 
ATOM     48  C   UNL     1       6.142   9.218  -2.688  1.00  0.00     0.049 A 
ATOM     49  H   UNL     1       6.783   9.943  -0.845  1.00  0.00     0.167 HD
ATOM     50  C   UNL     1       7.837  11.380   3.201  1.00  0.00     0.031 A 
ATOM     51  C   UNL     1       6.234  10.241  -3.558  1.00  0.00     0.031 A 
ATOM     52  C   UNL     1       8.045  12.503   2.328  1.00  0.00     0.049 A 
ATOM     53  C   UNL     1       6.696  11.584  -3.057  1.00  0.00     0.074 A 
ATOM     54  C   UNL     1       8.537  13.757   2.637  1.00  0.00     0.029 A 
ATOM     55  N   UNL     1       7.759  12.503   0.971  1.00  0.00    -0.354 N 
ATOM     56  N   UNL     1       7.049  11.938  -1.843  1.00  0.00    -0.248 NA
ATOM     57  C   UNL     1       6.780  12.665  -4.048  1.00  0.00     0.031 C 
ATOM     58  C   UNL     1       8.492  14.537   1.477  1.00  0.00     0.029 A 
ATOM     59  C   UNL     1       8.041  13.745   0.431  1.00  0.00     0.049 A 
ATOM     60  H   UNL     1       7.408  11.734   0.466  1.00  0.00     0.167 HD
ATOM     61  C   UNL     1       7.431  13.271  -1.932  1.00  0.00     0.074 A 
ATOM     62  C   UNL     1       7.273  13.658  -3.320  1.00  0.00     0.031 C 
ATOM     63  C   UNL     1       7.878  14.101  -0.956  1.00  0.00     0.031 A 
BRANCH  50  64
ATOM     64  C   UNL     1       8.114  11.536   4.671  1.00  0.00    -0.014 A 
ATOM     65  C   UNL     1       9.160  10.841   5.301  1.00  0.00     0.009 A 
ATOM     66  C   UNL     1       7.311  12.393   5.439  1.00  0.00     0.009 A 
ATOM     67  C   UNL     1       9.368  10.971   6.676  1.00  0.00     0.001 A 
ATOM     68  C   UNL     1       7.543  12.546   6.807  1.00  0.00     0.001 A 
ATOM     69  C   UNL     1       8.563  11.826   7.427  1.00  0.00     0.000 A 
ENDBRANCH  50  64
BRANCH  51  70
ATOM     70  C   UNL     1       5.864  10.039  -4.982  1.00  0.00    -0.014 A 
ATOM     71  C   UNL     1       6.844  10.059  -5.985  1.00  0.00     0.009 A 
ATOM     72  C   UNL     1       4.526   9.815  -5.348  1.00  0.00     0.009 A 
ATOM     73  C   UNL     1       6.491   9.882  -7.325  1.00  0.00     0.001 A 
ATOM     74  C   UNL     1       4.180   9.607  -6.684  1.00  0.00     0.001 A 
ATOM     75  C   UNL     1       5.161   9.650  -7.673  1.00  0.00     0.000 A 
ENDBRANCH  51  70
BRANCH  63  76
ATOM     76  C   UNL     1       8.283  15.491  -1.364  1.00  0.00    -0.014 A 
ATOM     77  C   UNL     1       7.333  16.456  -1.730  1.00  0.00     0.009 A 
ATOM     78  C   UNL     1       9.640  15.851  -1.323  1.00  0.00     0.009 A 
ATOM     79  C   UNL     1       7.739  17.746  -2.078  1.00  0.00     0.001 A 
ATOM     80  C   UNL     1      10.039  17.149  -1.639  1.00  0.00     0.001 A 
ATOM     81  C   UNL     1       9.089  18.093  -2.026  1.00  0.00     0.000 A 
ENDBRANCH  63  76
ENDBRANCH  37  38
ENDBRANCH  30  32
ENDBRANCH  29  30
ENDBRANCH  28  29
ENDBRANCH  27  28
ENDBRANCH  26  27
ENDBRANCH   1  26
TORSDOF 19
