REMARK SMILES COc1ccc(NC2=[NH+]C(=O)/C(=C\c3ccccc3C(=O)OCCOCCOC(=O)c3ccc(-c4c5nc(c(-c6ccccc6)c6ccc([nH]6)c(-c6ccccc6)c6nc(c(-c7ccccc7)c7ccc4[nH]7)C=C6)C=C5)cc3)S2)cc1
REMARK SMILES IDX 24 1 23 2 22 3 20 4 21 5 19 6 14 7 15 8 16 9 18 10 17 11
REMARK SMILES IDX 13 12 7 13 8 14 9 16 79 17 10 18 12 20 11 21 6 22 3 23 4 24
REMARK SMILES IDX 81 25 5 26 80 27 2 28 1 29 25 30 26 31 27 32 28 33 29 34
REMARK SMILES IDX 30 35 31 36 32 37 78 38 33 39 77 40 34 41 35 42 36 43 71 44
REMARK SMILES IDX 37 45 76 46 70 47 72 48 38 49 75 50 69 51 68 52 39 54 61 55
REMARK SMILES IDX 46 56 60 57 47 58 50 59 59 60 73 61 48 62 49 63 58 65 74 66
REMARK SMILES IDX 51 67 40 68 41 69 45 70 42 71 44 72 43 73 62 74 63 75 67 76
REMARK SMILES IDX 64 77 66 78 65 79 52 80 53 81 57 82 54 83 56 84 55 85
REMARK H PARENT 7 15 9 19 72 53 50 64
REMARK Flexibility Score: inf
ROOT
ATOM      1  C   UNL     1      -1.743  -2.724   7.643  1.00  0.00     0.202 C 
ENDROOT
BRANCH   1   2
ATOM      2  C   UNL     1      -0.575  -3.635   8.030  1.00  0.00     0.261 C 
BRANCH   2   3
ATOM      3  O   UNL     1      -0.963  -5.014   7.917  1.00  0.00    -0.460 OA
BRANCH   3   4
ATOM      4  C   UNL     1      -0.751  -5.791   9.008  1.00  0.00     0.338 C 
ATOM      5  O   UNL     1      -0.214  -5.432  10.044  1.00  0.00    -0.246 OA
BRANCH   4   6
ATOM      6  C   UNL     1      -1.431  -7.111   8.860  1.00  0.00     0.067 A 
ATOM      7  C   UNL     1      -1.615  -7.812   7.647  1.00  0.00    -0.010 A 
ATOM      8  C   UNL     1      -2.305  -9.038   7.682  1.00  0.00     0.009 A 
ATOM      9  C   UNL     1      -2.814  -9.549   8.880  1.00  0.00     0.001 A 
ATOM     10  C   UNL     1      -1.955  -7.636  10.057  1.00  0.00     0.016 A 
ATOM     11  C   UNL     1      -2.651  -8.843  10.066  1.00  0.00     0.001 A 
BRANCH   7  12
ATOM     12  C   UNL     1      -1.246  -7.297   6.314  1.00  0.00     0.033 C 
ATOM     13  N   UNL     1       2.642  -4.731   4.297  1.00  0.00    -0.235 N 
ATOM     14  C   UNL     1       1.828  -5.566   5.002  1.00  0.00     0.322 C 
ATOM     15  H   UNL     1       3.573  -5.039   4.213  1.00  0.00     0.313 HD
ATOM     16  N   UNL     1       2.233  -6.188   6.064  1.00  0.00    -0.199 N 
ATOM     17  S   UNL     1       0.205  -5.964   4.472  1.00  0.00     0.006 SA
ATOM     18  C   UNL     1       1.263  -6.976   6.639  1.00  0.00     0.346 C 
ATOM     19  H   UNL     1       3.145  -6.104   6.425  1.00  0.00     0.316 HD
ATOM     20  C   UNL     1      -0.035  -6.884   5.910  1.00  0.00     0.110 C 
ATOM     21  O   UNL     1       1.437  -7.677   7.629  1.00  0.00    -0.240 OA
BRANCH  13  22
ATOM     22  C   UNL     1       2.373  -3.501   3.669  1.00  0.00     0.125 A 
ATOM     23  C   UNL     1       1.912  -1.098   2.259  1.00  0.00     0.119 A 
ATOM     24  C   UNL     1       1.034  -1.513   3.255  1.00  0.00     0.051 A 
ATOM     25  C   UNL     1       3.055  -1.844   1.999  1.00  0.00     0.051 A 
ATOM     26  C   UNL     1       1.241  -2.722   3.931  1.00  0.00     0.055 A 
ATOM     27  C   UNL     1       3.283  -3.033   2.704  1.00  0.00     0.055 A 
BRANCH  23  28
ATOM     28  O   UNL     1       1.621   0.078   1.625  1.00  0.00    -0.497 OA
ATOM     29  C   UNL     1       1.620  -0.050   0.202  1.00  0.00     0.278 C 
ENDBRANCH  23  28
ENDBRANCH  13  22
ENDBRANCH   7  12
ENDBRANCH   4   6
ENDBRANCH   3   4
ENDBRANCH   2   3
ENDBRANCH   1   2
BRANCH   1  30
ATOM     30  O   UNL     1      -2.833  -2.676   8.563  1.00  0.00    -0.374 OA
BRANCH  30  31
ATOM     31  C   UNL     1      -3.648  -3.838   8.694  1.00  0.00     0.202 C 
BRANCH  31  32
ATOM     32  C   UNL     1      -4.701  -4.067   7.603  1.00  0.00     0.261 C 
BRANCH  32  33
ATOM     33  O   UNL     1      -4.150  -4.154   6.277  1.00  0.00    -0.460 OA
BRANCH  33  34
ATOM     34  C   UNL     1      -4.389  -3.067   5.501  1.00  0.00     0.338 C 
ATOM     35  O   UNL     1      -5.025  -2.071   5.805  1.00  0.00    -0.246 OA
BRANCH  34  36
ATOM     36  C   UNL     1      -3.653  -3.161   4.222  1.00  0.00     0.060 A 
ATOM     37  C   UNL     1      -2.977  -2.017   3.785  1.00  0.00     0.016 A 
ATOM     38  C   UNL     1      -3.686  -4.306   3.419  1.00  0.00     0.016 A 
ATOM     39  C   UNL     1      -2.353  -2.007   2.538  1.00  0.00     0.010 A 
ATOM     40  C   UNL     1      -3.067  -4.287   2.159  1.00  0.00     0.010 A 
ATOM     41  C   UNL     1      -2.406  -3.134   1.705  1.00  0.00    -0.014 A 
BRANCH  41  42
ATOM     42  C   UNL     1      -1.851  -3.037   0.329  1.00  0.00     0.031 A 
ATOM     43  C   UNL     1      -2.609  -2.275  -0.718  1.00  0.00     0.074 A 
ATOM     44  C   UNL     1      -0.655  -3.568   0.016  1.00  0.00     0.049 A 
ATOM     45  N   UNL     1      -2.256  -1.983  -1.944  1.00  0.00    -0.248 NA
ATOM     46  C   UNL     1      -3.941  -1.786  -0.334  1.00  0.00     0.031 C 
ATOM     47  C   UNL     1       0.188  -4.310   0.940  1.00  0.00     0.029 A 
ATOM     48  N   UNL     1       0.078  -3.529  -1.146  1.00  0.00    -0.354 N 
ATOM     49  C   UNL     1      -3.333  -1.298  -2.488  1.00  0.00     0.074 A 
ATOM     50  C   UNL     1      -4.340  -1.198  -1.452  1.00  0.00     0.031 C 
ATOM     51  C   UNL     1       1.354  -4.599   0.341  1.00  0.00     0.029 A 
ATOM     52  C   UNL     1       1.331  -4.086  -1.024  1.00  0.00     0.049 A 
ATOM     53  H   UNL     1      -0.260  -3.140  -1.985  1.00  0.00     0.167 HD
ATOM     54  C   UNL     1      -3.486  -0.826  -3.747  1.00  0.00     0.031 A 
ATOM     55  C   UNL     1       2.349  -4.159  -1.903  1.00  0.00     0.031 A 
ATOM     56  C   UNL     1      -2.521  -0.979  -4.801  1.00  0.00     0.049 A 
ATOM     57  C   UNL     1       2.145  -3.638  -3.301  1.00  0.00     0.074 A 
ATOM     58  C   UNL     1      -2.618  -0.578  -6.123  1.00  0.00     0.029 A 
ATOM     59  N   UNL     1      -1.289  -1.597  -4.661  1.00  0.00    -0.354 N 
ATOM     60  N   UNL     1       1.131  -2.972  -3.795  1.00  0.00    -0.248 NA
ATOM     61  C   UNL     1       3.219  -3.906  -4.270  1.00  0.00     0.031 C 
ATOM     62  C   UNL     1      -1.468  -1.003  -6.795  1.00  0.00     0.029 A 
ATOM     63  C   UNL     1      -0.626  -1.611  -5.878  1.00  0.00     0.049 A 
ATOM     64  H   UNL     1      -0.937  -1.972  -3.821  1.00  0.00     0.167 HD
ATOM     65  C   UNL     1       1.438  -2.754  -5.133  1.00  0.00     0.074 A 
ATOM     66  C   UNL     1       2.756  -3.308  -5.359  1.00  0.00     0.031 C 
ATOM     67  C   UNL     1       0.683  -2.168  -6.094  1.00  0.00     0.031 A 
BRANCH  54  68
ATOM     68  C   UNL     1      -4.801  -0.179  -4.069  1.00  0.00    -0.014 A 
ATOM     69  C   UNL     1      -5.125   1.100  -3.591  1.00  0.00     0.009 A 
ATOM     70  C   UNL     1      -5.733  -0.869  -4.861  1.00  0.00     0.009 A 
ATOM     71  C   UNL     1      -6.372   1.661  -3.873  1.00  0.00     0.001 A 
ATOM     72  C   UNL     1      -6.968  -0.295  -5.162  1.00  0.00     0.001 A 
ATOM     73  C   UNL     1      -7.290   0.964  -4.660  1.00  0.00     0.000 A 
ENDBRANCH  54  68
BRANCH  55  74
ATOM     74  C   UNL     1       3.658  -4.758  -1.517  1.00  0.00    -0.014 A 
ATOM     75  C   UNL     1       4.824  -3.972  -1.514  1.00  0.00     0.009 A 
ATOM     76  C   UNL     1       3.767  -6.122  -1.209  1.00  0.00     0.009 A 
ATOM     77  C   UNL     1       6.069  -4.546  -1.244  1.00  0.00     0.001 A 
ATOM     78  C   UNL     1       5.008  -6.686  -0.904  1.00  0.00     0.001 A 
ATOM     79  C   UNL     1       6.159  -5.902  -0.936  1.00  0.00     0.000 A 
ENDBRANCH  55  74
BRANCH  67  80
ATOM     80  C   UNL     1       1.265  -2.089  -7.478  1.00  0.00    -0.014 A 
ATOM     81  C   UNL     1       1.397  -3.235  -8.278  1.00  0.00     0.009 A 
ATOM     82  C   UNL     1       1.635  -0.844  -8.009  1.00  0.00     0.009 A 
ATOM     83  C   UNL     1       1.916  -3.139  -9.571  1.00  0.00     0.001 A 
ATOM     84  C   UNL     1       2.126  -0.747  -9.312  1.00  0.00     0.001 A 
ATOM     85  C   UNL     1       2.274  -1.895 -10.089  1.00  0.00     0.000 A 
ENDBRANCH  67  80
ENDBRANCH  41  42
ENDBRANCH  34  36
ENDBRANCH  33  34
ENDBRANCH  32  33
ENDBRANCH  31  32
ENDBRANCH  30  31
ENDBRANCH   1  30
TORSDOF 17
