REMARK SMILES CCOc1ncnc(N[C@@H]2C=C[C@H](C(=O)OCCOCCOC(=O)c3ccc(-c4c5nc(c(-c6ccccc6)c6ccc([nH]6)c(-c6ccccc6)c6nc(c(-c7ccccc7)c7ccc4[nH]7)C=C6)C=C5)cc3)C2)c1C
REMARK SMILES IDX 18 1 17 2 16 3 14 4 15 5 13 6 10 7 11 8 73 9 12 10 9 11 8 13
REMARK SMILES IDX 4 14 5 15 74 16 6 17 75 18 7 19 3 20 2 21 1 22 19 23 20 24
REMARK SMILES IDX 21 25 22 26 23 27 24 28 25 29 26 30 72 31 27 32 71 33 28 34
REMARK SMILES IDX 29 35 30 36 65 37 31 38 70 39 64 40 66 41 32 42 69 43 63 44
REMARK SMILES IDX 62 45 33 47 55 48 40 49 54 50 41 51 44 52 53 53 67 54 42 55
REMARK SMILES IDX 43 56 52 58 68 59 45 60 34 61 35 62 39 63 36 64 38 65 37 66
REMARK SMILES IDX 56 67 57 68 61 69 58 70 60 71 59 72 46 73 47 74 51 75 48 76
REMARK SMILES IDX 50 77 49 78
REMARK H PARENT 9 12 66 46 44 57
REMARK Flexibility Score: inf
ROOT
ATOM      1  C   UNL     1      12.261   0.619  -1.963  1.00  0.00     0.202 C 
ENDROOT
BRANCH   1   2
ATOM      2  C   UNL     1      11.610   0.334  -3.330  1.00  0.00     0.261 C 
BRANCH   2   3
ATOM      3  O   UNL     1      10.166   0.233  -3.277  1.00  0.00    -0.463 OA
BRANCH   3   4
ATOM      4  C   UNL     1       9.663  -1.032  -3.426  1.00  0.00     0.312 C 
ATOM      5  O   UNL     1      10.352  -2.001  -3.728  1.00  0.00    -0.252 OA
BRANCH   4   6
ATOM      6  C   UNL     1       8.130  -1.067  -3.300  1.00  0.00     0.124 C 
ATOM      7  C   UNL     1       6.812  -1.731  -1.290  1.00  0.00     0.104 C 
ATOM      8  C   UNL     1       7.014  -2.865  -2.220  1.00  0.00    -0.006 C 
ATOM      9  C   UNL     1       7.487  -0.540  -1.998  1.00  0.00     0.048 C 
ATOM     10  C   UNL     1       7.671  -2.500  -3.326  1.00  0.00    -0.014 C 
BRANCH   7  11
ATOM     11  N   UNL     1       7.220  -1.963   0.088  1.00  0.00    -0.363 N 
ATOM     12  H   UNL     1       6.601  -1.614   0.769  1.00  0.00     0.162 HD
BRANCH  11  13
ATOM     13  C   UNL     1       8.343  -2.599   0.591  1.00  0.00     0.136 A 
ATOM     14  C   UNL     1       9.937  -2.935   2.308  1.00  0.00     0.221 A 
ATOM     15  N   UNL     1      10.760  -3.606   1.495  1.00  0.00    -0.201 NA
ATOM     16  C   UNL     1       8.704  -2.413   1.928  1.00  0.00     0.054 A 
ATOM     17  C   UNL     1      10.314  -3.737   0.243  1.00  0.00     0.228 A 
ATOM     18  C   UNL     1       7.876  -1.651   2.921  1.00  0.00     0.054 C 
ATOM     19  N   UNL     1       9.154  -3.261  -0.245  1.00  0.00    -0.219 NA
BRANCH  14  20
ATOM     20  O   UNL     1      10.491  -2.448   3.473  1.00  0.00    -0.478 OA
BRANCH  20  21
ATOM     21  C   UNL     1      10.825  -3.465   4.409  1.00  0.00     0.228 C 
ATOM     22  C   UNL     1       9.733  -3.492   5.466  1.00  0.00     0.049 C 
ENDBRANCH  20  21
ENDBRANCH  14  20
ENDBRANCH  11  13
ENDBRANCH   7  11
ENDBRANCH   4   6
ENDBRANCH   3   4
ENDBRANCH   2   3
ENDBRANCH   1   2
BRANCH   1  23
ATOM     23  O   UNL     1      11.867  -0.216  -0.876  1.00  0.00    -0.374 OA
BRANCH  23  24
ATOM     24  C   UNL     1      10.497  -0.058  -0.527  1.00  0.00     0.202 C 
BRANCH  24  25
ATOM     25  C   UNL     1      10.239   0.180   0.950  1.00  0.00     0.261 C 
BRANCH  25  26
ATOM     26  O   UNL     1      10.477   1.553   1.231  1.00  0.00    -0.460 OA
BRANCH  26  27
ATOM     27  C   UNL     1      11.773   1.814   1.486  1.00  0.00     0.338 C 
ATOM     28  O   UNL     1      12.627   1.063   1.907  1.00  0.00    -0.246 OA
BRANCH  27  29
ATOM     29  C   UNL     1      12.032   3.151   0.942  1.00  0.00     0.060 A 
ATOM     30  C   UNL     1      13.300   3.369   0.399  1.00  0.00     0.016 A 
ATOM     31  C   UNL     1      11.046   4.147   0.931  1.00  0.00     0.016 A 
ATOM     32  C   UNL     1      13.624   4.627  -0.072  1.00  0.00     0.010 A 
ATOM     33  C   UNL     1      11.364   5.402   0.442  1.00  0.00     0.010 A 
ATOM     34  C   UNL     1      12.672   5.650   0.001  1.00  0.00    -0.014 A 
BRANCH  34  35
ATOM     35  C   UNL     1      13.109   7.037  -0.195  1.00  0.00     0.031 A 
ATOM     36  C   UNL     1      13.358   7.872   1.024  1.00  0.00     0.074 A 
ATOM     37  C   UNL     1      13.304   7.499  -1.438  1.00  0.00     0.049 A 
ATOM     38  N   UNL     1      13.751   9.114   1.106  1.00  0.00    -0.248 NA
ATOM     39  C   UNL     1      13.127   7.223   2.327  1.00  0.00     0.031 C 
ATOM     40  C   UNL     1      13.120   6.726  -2.667  1.00  0.00     0.029 A 
ATOM     41  N   UNL     1      13.710   8.730  -1.865  1.00  0.00    -0.354 N 
ATOM     42  C   UNL     1      13.797   9.398   2.465  1.00  0.00     0.074 A 
ATOM     43  C   UNL     1      13.358   8.216   3.170  1.00  0.00     0.031 C 
ATOM     44  C   UNL     1      13.431   7.504  -3.716  1.00  0.00     0.029 A 
ATOM     45  C   UNL     1      13.793   8.831  -3.229  1.00  0.00     0.049 A 
ATOM     46  H   UNL     1      13.921   9.473  -1.254  1.00  0.00     0.167 HD
ATOM     47  C   UNL     1      14.181  10.547   3.066  1.00  0.00     0.031 A 
ATOM     48  C   UNL     1      14.119   9.891  -3.988  1.00  0.00     0.031 A 
ATOM     49  C   UNL     1      14.600  11.711   2.335  1.00  0.00     0.049 A 
ATOM     50  C   UNL     1      14.473  11.178  -3.296  1.00  0.00     0.074 A 
ATOM     51  C   UNL     1      15.033  12.929   2.823  1.00  0.00     0.029 A 
ATOM     52  N   UNL     1      14.625  11.797   0.949  1.00  0.00    -0.354 N 
ATOM     53  N   UNL     1      14.550  11.434  -2.011  1.00  0.00    -0.248 NA
ATOM     54  C   UNL     1      14.791  12.320  -4.160  1.00  0.00     0.031 C 
ATOM     55  C   UNL     1      15.255  13.775   1.731  1.00  0.00     0.029 A 
ATOM     56  C   UNL     1      15.031  13.061   0.562  1.00  0.00     0.049 A 
ATOM     57  H   UNL     1      14.389  11.066   0.333  1.00  0.00     0.167 HD
ATOM     58  C   UNL     1      14.956  12.757  -1.910  1.00  0.00     0.074 A 
ATOM     59  C   UNL     1      15.123  13.242  -3.267  1.00  0.00     0.031 C 
ATOM     60  C   UNL     1      15.178  13.506  -0.801  1.00  0.00     0.031 A 
BRANCH  47  61
ATOM     61  C   UNL     1      14.107  10.602   4.566  1.00  0.00    -0.014 A 
ATOM     62  C   UNL     1      14.955   9.830   5.378  1.00  0.00     0.009 A 
ATOM     63  C   UNL     1      13.161  11.438   5.181  1.00  0.00     0.009 A 
ATOM     64  C   UNL     1      14.828   9.862   6.769  1.00  0.00     0.001 A 
ATOM     65  C   UNL     1      13.059  11.493   6.572  1.00  0.00     0.001 A 
ATOM     66  C   UNL     1      13.883  10.697   7.364  1.00  0.00     0.000 A 
ENDBRANCH  47  61
BRANCH  48  67
ATOM     67  C   UNL     1      14.132   9.771  -5.467  1.00  0.00    -0.014 A 
ATOM     68  C   UNL     1      15.341   9.832  -6.175  1.00  0.00     0.009 A 
ATOM     69  C   UNL     1      12.937   9.580  -6.179  1.00  0.00     0.009 A 
ATOM     70  C   UNL     1      15.351   9.729  -7.568  1.00  0.00     0.001 A 
ATOM     71  C   UNL     1      12.953   9.448  -7.569  1.00  0.00     0.001 A 
ATOM     72  C   UNL     1      14.158   9.532  -8.263  1.00  0.00     0.000 A 
ENDBRANCH  48  67
BRANCH  60  73
ATOM     73  C   UNL     1      15.660  14.913  -1.019  1.00  0.00    -0.014 A 
ATOM     74  C   UNL     1      14.812  15.905  -1.534  1.00  0.00     0.009 A 
ATOM     75  C   UNL     1      16.974  15.254  -0.664  1.00  0.00     0.009 A 
ATOM     76  C   UNL     1      15.285  17.203  -1.726  1.00  0.00     0.001 A 
ATOM     77  C   UNL     1      17.432  16.561  -0.823  1.00  0.00     0.001 A 
ATOM     78  C   UNL     1      16.591  17.532  -1.365  1.00  0.00     0.000 A 
ENDBRANCH  60  73
ENDBRANCH  34  35
ENDBRANCH  27  29
ENDBRANCH  26  27
ENDBRANCH  25  26
ENDBRANCH  24  25
ENDBRANCH  23  24
ENDBRANCH   1  23
TORSDOF 18
