REMARK SMILES Cc1ccc(CC(=O)OCCOCCOC(=O)c2ccc(-c3c4nc(c(-c5ccccc5)c5ccc([nH]5)c(-c5ccccc5)c5nc(c(-c6ccccc6)c6ccc3[nH]6)C=C5)C=C4)cc2)n1-c1ccc(F)cc1
REMARK SMILES IDX 12 1 11 2 10 3 9 4 7 5 8 6 6 7 5 8 1 9 2 10 3 11 66 12 4 13
REMARK SMILES IDX 67 14 68 15 73 16 69 17 72 18 70 19 71 20 13 21 14 22 15 23
REMARK SMILES IDX 16 24 17 25 18 26 19 27 65 28 20 29 64 30 21 31 22 32 23 33
REMARK SMILES IDX 58 34 24 35 63 36 57 37 59 38 25 39 62 40 56 41 55 42 26 44
REMARK SMILES IDX 48 45 33 46 47 47 34 48 37 49 46 50 60 51 35 52 36 53 45 55
REMARK SMILES IDX 61 56 38 57 27 58 28 59 32 60 29 61 31 62 30 63 49 64 50 65
REMARK SMILES IDX 54 66 51 67 53 68 52 69 39 70 40 71 44 72 41 73 43 74 42 75
REMARK H PARENT 59 43 37 54
REMARK Flexibility Score: inf
ROOT
ATOM      1  O   UNL     1       2.144   0.533  -6.343  1.00  0.00    -0.374 OA
ENDROOT
BRANCH   1   2
ATOM      2  C   UNL     1       3.269   1.288  -5.883  1.00  0.00     0.202 C 
BRANCH   2   3
ATOM      3  C   UNL     1       2.903   2.734  -5.515  1.00  0.00     0.261 C 
BRANCH   3   4
ATOM      4  O   UNL     1       1.940   2.771  -4.442  1.00  0.00    -0.463 OA
BRANCH   4   5
ATOM      5  C   UNL     1       0.851   3.558  -4.644  1.00  0.00     0.311 C 
ATOM      6  O   UNL     1       0.732   4.344  -5.580  1.00  0.00    -0.252 OA
BRANCH   5   7
ATOM      7  C   UNL     1      -0.217   3.451  -3.571  1.00  0.00     0.177 C 
BRANCH   7   8
ATOM      8  C   UNL     1      -0.186   2.197  -2.735  1.00  0.00     0.034 A 
ATOM      9  C   UNL     1       1.103   0.117   0.038  1.00  0.00     0.065 C 
ATOM     10  C   UNL     1       0.466   0.696  -1.179  1.00  0.00     0.020 A 
ATOM     11  C   UNL     1      -0.389   0.055  -2.055  1.00  0.00     0.023 A 
ATOM     12  N   UNL     1       0.545   2.035  -1.559  1.00  0.00    -0.318 N 
ATOM     13  C   UNL     1      -0.826   0.999  -3.002  1.00  0.00     0.024 A 
BRANCH  12  14
ATOM     14  C   UNL     1       1.196   3.070  -0.835  1.00  0.00     0.046 A 
ATOM     15  C   UNL     1       0.486   4.239  -0.526  1.00  0.00     0.029 A 
ATOM     16  C   UNL     1       2.526   2.922  -0.423  1.00  0.00     0.029 A 
ATOM     17  C   UNL     1       1.118   5.277   0.159  1.00  0.00     0.041 A 
ATOM     18  C   UNL     1       3.151   3.965   0.265  1.00  0.00     0.041 A 
ATOM     19  C   UNL     1       2.445   5.132   0.542  1.00  0.00     0.123 A 
ATOM     20  F   UNL     1       3.054   6.133   1.191  1.00  0.00    -0.207 F 
ENDBRANCH  12  14
ENDBRANCH   7   8
ENDBRANCH   5   7
ENDBRANCH   4   5
ENDBRANCH   3   4
ENDBRANCH   2   3
ENDBRANCH   1   2
BRANCH   1  21
ATOM     21  C   UNL     1       1.418  -0.119  -5.292  1.00  0.00     0.202 C 
BRANCH  21  22
ATOM     22  C   UNL     1       1.969  -1.507  -4.941  1.00  0.00     0.261 C 
BRANCH  22  23
ATOM     23  O   UNL     1       2.390  -1.609  -3.550  1.00  0.00    -0.460 OA
BRANCH  23  24
ATOM     24  C   UNL     1       3.610  -2.172  -3.356  1.00  0.00     0.338 C 
ATOM     25  O   UNL     1       4.420  -2.433  -4.229  1.00  0.00    -0.246 OA
BRANCH  24  26
ATOM     26  C   UNL     1       3.920  -2.445  -1.921  1.00  0.00     0.060 A 
ATOM     27  C   UNL     1       5.016  -1.792  -1.365  1.00  0.00     0.016 A 
ATOM     28  C   UNL     1       3.370  -3.538  -1.232  1.00  0.00     0.016 A 
ATOM     29  C   UNL     1       5.589  -2.265  -0.171  1.00  0.00     0.010 A 
ATOM     30  C   UNL     1       3.986  -4.047  -0.050  1.00  0.00     0.010 A 
ATOM     31  C   UNL     1       5.147  -3.454   0.469  1.00  0.00    -0.014 A 
BRANCH  31  32
ATOM     32  C   UNL     1       6.196  -4.214   1.260  1.00  0.00     0.031 A 
ATOM     33  C   UNL     1       7.441  -4.314   0.443  1.00  0.00     0.074 A 
ATOM     34  C   UNL     1       6.278  -4.854   2.463  1.00  0.00     0.049 A 
ATOM     35  N   UNL     1       7.499  -4.855  -0.739  1.00  0.00    -0.248 NA
ATOM     36  C   UNL     1       8.657  -3.620   0.875  1.00  0.00     0.031 C 
ATOM     37  C   UNL     1       5.265  -4.966   3.511  1.00  0.00     0.029 A 
ATOM     38  N   UNL     1       7.358  -5.545   3.028  1.00  0.00    -0.354 N 
ATOM     39  C   UNL     1       8.834  -4.826  -1.073  1.00  0.00     0.074 A 
ATOM     40  C   UNL     1       9.463  -3.907  -0.145  1.00  0.00     0.031 C 
ATOM     41  C   UNL     1       5.790  -5.577   4.606  1.00  0.00     0.029 A 
ATOM     42  C   UNL     1       7.174  -5.962   4.354  1.00  0.00     0.049 A 
ATOM     43  H   UNL     1       8.187  -5.726   2.530  1.00  0.00     0.167 HD
ATOM     44  C   UNL     1       9.416  -5.843  -1.761  1.00  0.00     0.031 A 
ATOM     45  C   UNL     1       8.056  -6.587   5.188  1.00  0.00     0.031 A 
ATOM     46  C   UNL     1      10.565  -6.398  -1.096  1.00  0.00     0.049 A 
ATOM     47  C   UNL     1       9.245  -7.059   4.449  1.00  0.00     0.074 A 
ATOM     48  C   UNL     1      11.757  -5.948  -0.565  1.00  0.00     0.029 A 
ATOM     49  N   UNL     1      10.360  -7.646  -0.548  1.00  0.00    -0.354 N 
ATOM     50  N   UNL     1       9.252  -8.152   3.753  1.00  0.00    -0.248 NA
ATOM     51  C   UNL     1      10.521  -6.354   4.508  1.00  0.00     0.031 C 
ATOM     52  C   UNL     1      12.009  -6.757   0.589  1.00  0.00     0.029 A 
ATOM     53  C   UNL     1      10.995  -7.700   0.677  1.00  0.00     0.049 A 
ATOM     54  H   UNL     1       9.847  -8.377  -0.962  1.00  0.00     0.167 HD
ATOM     55  C   UNL     1      10.367  -8.051   2.965  1.00  0.00     0.074 A 
ATOM     56  C   UNL     1      11.205  -7.056   3.601  1.00  0.00     0.031 C 
ATOM     57  C   UNL     1      10.338  -8.502   1.686  1.00  0.00     0.031 A 
BRANCH  44  58
ATOM     58  C   UNL     1       8.558  -6.674  -2.671  1.00  0.00    -0.014 A 
ATOM     59  C   UNL     1       8.915  -6.798  -4.019  1.00  0.00     0.009 A 
ATOM     60  C   UNL     1       7.419  -7.362  -2.214  1.00  0.00     0.009 A 
ATOM     61  C   UNL     1       8.126  -7.553  -4.894  1.00  0.00     0.001 A 
ATOM     62  C   UNL     1       6.625  -8.104  -3.089  1.00  0.00     0.001 A 
ATOM     63  C   UNL     1       6.977  -8.195  -4.432  1.00  0.00     0.000 A 
ENDBRANCH  44  58
BRANCH  45  64
ATOM     64  C   UNL     1       8.081  -6.976   6.632  1.00  0.00    -0.014 A 
ATOM     65  C   UNL     1       8.754  -8.169   7.003  1.00  0.00     0.009 A 
ATOM     66  C   UNL     1       7.753  -6.084   7.655  1.00  0.00     0.009 A 
ATOM     67  C   UNL     1       9.162  -8.418   8.317  1.00  0.00     0.001 A 
ATOM     68  C   UNL     1       8.142  -6.347   8.982  1.00  0.00     0.001 A 
ATOM     69  C   UNL     1       8.867  -7.495   9.308  1.00  0.00     0.000 A 
ENDBRANCH  45  64
BRANCH  57  70
ATOM     70  C   UNL     1       9.319  -9.577   1.323  1.00  0.00    -0.014 A 
ATOM     71  C   UNL     1       7.979  -9.593   1.763  1.00  0.00     0.009 A 
ATOM     72  C   UNL     1       9.715 -10.606   0.455  1.00  0.00     0.009 A 
ATOM     73  C   UNL     1       7.104 -10.633   1.433  1.00  0.00     0.001 A 
ATOM     74  C   UNL     1       8.825 -11.621   0.079  1.00  0.00     0.001 A 
ATOM     75  C   UNL     1       7.529 -11.647   0.587  1.00  0.00     0.000 A 
ENDBRANCH  57  70
ENDBRANCH  31  32
ENDBRANCH  24  26
ENDBRANCH  23  24
ENDBRANCH  22  23
ENDBRANCH  21  22
ENDBRANCH   1  21
TORSDOF 16
