REMARK SMILES NC(=O)c1ccsc1NS(=O)(=O)c1ccc(C(=O)OCCOCCOC(=O)c2ccc(-c3c4nc(c(-c5ccccc5)c5ccc([nH]5)c(-c5ccccc5)c5nc(c(-c6ccccc6)c6ccc3[nH]6)C=C5)C=C4)cc2)cc1
REMARK SMILES IDX 21 1 20 2 19 3 17 4 18 5 16 6 13 7 14 8 77 9 15 10 76 11
REMARK SMILES IDX 10 12 11 13 12 14 9 15 8 17 4 18 5 19 6 20 7 21 2 22 1 23
REMARK SMILES IDX 3 26 22 27 23 28 24 29 25 30 26 31 27 32 28 33 29 34 75 35
REMARK SMILES IDX 30 36 74 37 31 38 32 39 33 40 68 41 34 42 73 43 67 44 69 45
REMARK SMILES IDX 35 46 72 47 66 48 65 49 36 51 58 52 43 53 57 54 44 55 47 56
REMARK SMILES IDX 56 57 70 58 45 59 46 60 55 62 71 63 48 64 37 65 38 66 42 67
REMARK SMILES IDX 39 68 41 69 40 70 59 71 60 72 64 73 61 74 63 75 62 76 49 77
REMARK SMILES IDX 50 78 54 79 51 80 53 81 52 82
REMARK H PARENT 9 16 1 24 1 25 69 50 47 61
REMARK Flexibility Score: inf
ROOT
ATOM      1  C   UNL     1       4.147  10.457  -5.823  1.00  0.00     0.202 C 
ENDROOT
BRANCH   1   2
ATOM      2  C   UNL     1       2.690  10.284  -6.263  1.00  0.00     0.261 C 
BRANCH   2   3
ATOM      3  O   UNL     1       1.875   9.681  -5.246  1.00  0.00    -0.460 OA
BRANCH   3   4
ATOM      4  C   UNL     1       1.442   8.428  -5.535  1.00  0.00     0.338 C 
ATOM      5  O   UNL     1       1.599   7.836  -6.591  1.00  0.00    -0.246 OA
BRANCH   4   6
ATOM      6  C   UNL     1       0.811   7.784  -4.351  1.00  0.00     0.060 A 
ATOM      7  C   UNL     1      -0.225   6.399  -2.150  1.00  0.00     0.087 A 
ATOM      8  C   UNL     1       0.069   5.705  -3.324  1.00  0.00     0.023 A 
ATOM      9  C   UNL     1      -0.059   7.791  -2.091  1.00  0.00     0.023 A 
ATOM     10  C   UNL     1       0.614   6.395  -4.408  1.00  0.00     0.017 A 
ATOM     11  C   UNL     1       0.448   8.486  -3.195  1.00  0.00     0.017 A 
BRANCH   7  12
ATOM     12  S   UNL     1      -0.706   5.559  -0.654  1.00  0.00     0.262 S 
ATOM     13  O   UNL     1      -2.153   5.607  -0.632  1.00  0.00    -0.201 OA
ATOM     14  O   UNL     1       0.074   6.128   0.426  1.00  0.00    -0.201 OA
BRANCH  12  15
ATOM     15  N   UNL     1      -0.301   3.953  -0.804  1.00  0.00    -0.270 N 
ATOM     16  H   UNL     1      -1.025   3.297  -0.685  1.00  0.00     0.181 HD
BRANCH  15  17
ATOM     17  C   UNL     1       0.996   3.439  -1.089  1.00  0.00     0.115 A 
ATOM     18  C   UNL     1       1.233   2.073  -1.170  1.00  0.00     0.074 A 
ATOM     19  C   UNL     1       2.512   1.822  -1.783  1.00  0.00     0.028 A 
ATOM     20  C   UNL     1       3.229   2.975  -2.000  1.00  0.00     0.068 A 
ATOM     21  S   UNL     1       2.414   4.340  -1.381  1.00  0.00    -0.125 S 
BRANCH  18  22
ATOM     22  C   UNL     1       0.272   1.062  -0.742  1.00  0.00     0.251 C 
ATOM     23  N   UNL     1       0.816  -0.120  -0.328  1.00  0.00    -0.366 N 
ATOM     24  H   UNL     1       0.231  -0.851  -0.024  1.00  0.00     0.159 HD
ATOM     25  H   UNL     1       1.793  -0.241  -0.333  1.00  0.00     0.159 HD
ATOM     26  O   UNL     1      -0.937   1.259  -0.690  1.00  0.00    -0.269 OA
ENDBRANCH  18  22
ENDBRANCH  15  17
ENDBRANCH  12  15
ENDBRANCH   7  12
ENDBRANCH   4   6
ENDBRANCH   3   4
ENDBRANCH   2   3
ENDBRANCH   1   2
BRANCH   1  27
ATOM     27  O   UNL     1       4.820   9.299  -5.340  1.00  0.00    -0.374 OA
BRANCH  27  28
ATOM     28  C   UNL     1       4.559   8.900  -3.991  1.00  0.00     0.202 C 
BRANCH  28  29
ATOM     29  C   UNL     1       5.174   9.766  -2.883  1.00  0.00     0.261 C 
BRANCH  29  30
ATOM     30  O   UNL     1       4.548  11.060  -2.793  1.00  0.00    -0.460 OA
BRANCH  30  31
ATOM     31  C   UNL     1       5.357  12.109  -3.089  1.00  0.00     0.338 C 
ATOM     32  O   UNL     1       6.544  12.081  -3.348  1.00  0.00    -0.246 OA
BRANCH  31  33
ATOM     33  C   UNL     1       4.542  13.330  -3.246  1.00  0.00     0.060 A 
ATOM     34  C   UNL     1       4.647  14.031  -4.454  1.00  0.00     0.016 A 
ATOM     35  C   UNL     1       3.752  13.821  -2.205  1.00  0.00     0.016 A 
ATOM     36  C   UNL     1       3.993  15.251  -4.613  1.00  0.00     0.010 A 
ATOM     37  C   UNL     1       3.104  15.050  -2.362  1.00  0.00     0.010 A 
ATOM     38  C   UNL     1       3.248  15.786  -3.553  1.00  0.00    -0.014 A 
BRANCH  38  39
ATOM     39  C   UNL     1       2.736  17.174  -3.641  1.00  0.00     0.031 A 
ATOM     40  C   UNL     1       3.493  18.277  -2.954  1.00  0.00     0.074 A 
ATOM     41  C   UNL     1       1.621  17.454  -4.337  1.00  0.00     0.049 A 
ATOM     42  N   UNL     1       3.207  19.552  -2.872  1.00  0.00    -0.248 NA
ATOM     43  C   UNL     1       4.736  17.892  -2.268  1.00  0.00     0.031 C 
ATOM     44  C   UNL     1       0.821  16.482  -5.081  1.00  0.00     0.029 A 
ATOM     45  N   UNL     1       0.965  18.645  -4.523  1.00  0.00    -0.354 N 
ATOM     46  C   UNL     1       4.226  20.117  -2.115  1.00  0.00     0.074 A 
ATOM     47  C   UNL     1       5.122  19.044  -1.742  1.00  0.00     0.031 C 
ATOM     48  C   UNL     1      -0.225  17.116  -5.638  1.00  0.00     0.029 A 
ATOM     49  C   UNL     1      -0.186  18.527  -5.262  1.00  0.00     0.049 A 
ATOM     50  H   UNL     1       1.289  19.501  -4.162  1.00  0.00     0.167 HD
ATOM     51  C   UNL     1       4.404  21.414  -1.766  1.00  0.00     0.031 A 
ATOM     52  C   UNL     1      -1.114  19.450  -5.580  1.00  0.00     0.031 A 
ATOM     53  C   UNL     1       3.506  22.479  -2.126  1.00  0.00     0.049 A 
ATOM     54  C   UNL     1      -0.935  20.871  -5.118  1.00  0.00     0.074 A 
ATOM     55  C   UNL     1       3.611  23.829  -1.837  1.00  0.00     0.029 A 
ATOM     56  N   UNL     1       2.334  22.313  -2.845  1.00  0.00    -0.354 N 
ATOM     57  N   UNL     1       0.048  21.399  -4.429  1.00  0.00    -0.248 NA
ATOM     58  C   UNL     1      -1.992  21.825  -5.486  1.00  0.00     0.031 C 
ATOM     59  C   UNL     1       2.471  24.471  -2.332  1.00  0.00     0.029 A 
ATOM     60  C   UNL     1       1.689  23.530  -2.985  1.00  0.00     0.049 A 
ATOM     61  H   UNL     1       2.007  21.456  -3.204  1.00  0.00     0.167 HD
ATOM     62  C   UNL     1      -0.256  22.749  -4.307  1.00  0.00     0.074 A 
ATOM     63  C   UNL     1      -1.509  22.961  -5.002  1.00  0.00     0.031 C 
ATOM     64  C   UNL     1       0.442  23.727  -3.679  1.00  0.00     0.031 A 
BRANCH  51  65
ATOM     65  C   UNL     1       5.599  21.742  -0.916  1.00  0.00    -0.014 A 
ATOM     66  C   UNL     1       6.902  21.703  -1.437  1.00  0.00     0.009 A 
ATOM     67  C   UNL     1       5.415  22.124   0.423  1.00  0.00     0.009 A 
ATOM     68  C   UNL     1       7.998  22.003  -0.625  1.00  0.00     0.001 A 
ATOM     69  C   UNL     1       6.510  22.451   1.224  1.00  0.00     0.001 A 
ATOM     70  C   UNL     1       7.800  22.381   0.703  1.00  0.00     0.000 A 
ENDBRANCH  51  65
BRANCH  52  71
ATOM     71  C   UNL     1      -2.312  19.056  -6.367  1.00  0.00    -0.014 A 
ATOM     72  C   UNL     1      -2.478  19.494  -7.689  1.00  0.00     0.009 A 
ATOM     73  C   UNL     1      -3.304  18.245  -5.791  1.00  0.00     0.009 A 
ATOM     74  C   UNL     1      -3.622  19.146  -8.412  1.00  0.00     0.001 A 
ATOM     75  C   UNL     1      -4.433  17.875  -6.525  1.00  0.00     0.001 A 
ATOM     76  C   UNL     1      -4.595  18.333  -7.832  1.00  0.00     0.000 A 
ENDBRANCH  52  71
BRANCH  64  77
ATOM     77  C   UNL     1      -0.109  25.124  -3.747  1.00  0.00    -0.014 A 
ATOM     78  C   UNL     1      -1.247  25.499  -3.016  1.00  0.00     0.009 A 
ATOM     79  C   UNL     1       0.551  26.092  -4.521  1.00  0.00     0.009 A 
ATOM     80  C   UNL     1      -1.730  26.808  -3.085  1.00  0.00     0.001 A 
ATOM     81  C   UNL     1       0.084  27.406  -4.564  1.00  0.00     0.001 A 
ATOM     82  C   UNL     1      -1.062  27.761  -3.853  1.00  0.00     0.000 A 
ENDBRANCH  64  77
ENDBRANCH  38  39
ENDBRANCH  31  33
ENDBRANCH  30  31
ENDBRANCH  29  30
ENDBRANCH  28  29
ENDBRANCH  27  28
ENDBRANCH   1  27
TORSDOF 18
