REMARK SMILES O=C(CCc1ccccc1)Nc1ccccc1Oc1ccsc1C(=O)OCCOCCOC(=O)c1ccc(-c2c3nc(c(-c4ccccc4)c4ccc([nH]4)c(-c4ccccc4)c4nc(c(-c5ccccc5)c5ccc2[nH]5)C=C4)C=C3)cc1
REMARK SMILES IDX 27 1 26 2 24 3 25 4 23 5 19 6 20 7 21 8 22 9 18 10 17 11
REMARK SMILES IDX 12 12 13 13 14 14 16 15 15 16 11 17 1 18 2 19 3 21 4 22 5 23
REMARK SMILES IDX 6 24 10 25 7 26 9 27 8 28 28 29 29 30 30 31 31 32 32 33
REMARK SMILES IDX 33 34 34 35 35 36 36 37 82 38 37 39 81 40 38 41 39 42 40 43
REMARK SMILES IDX 75 44 41 45 80 46 74 47 76 48 42 49 79 50 73 51 72 52 43 54
REMARK SMILES IDX 65 55 50 56 64 57 51 58 54 59 63 60 77 61 52 62 53 63 62 65
REMARK SMILES IDX 78 66 55 67 44 68 45 69 49 70 46 71 48 72 47 73 66 74 67 75
REMARK SMILES IDX 71 76 68 77 70 78 69 79 56 80 57 81 61 82 58 83 60 84 59 85
REMARK H PARENT 11 20 76 53 54 64
REMARK Flexibility Score: inf
ROOT
ATOM      1  C   UNL     1      -3.059   0.129   1.269  1.00  0.00     0.261 C 
ENDROOT
BRANCH   1   2
ATOM      2  O   UNL     1      -1.721   0.665   1.279  1.00  0.00    -0.459 OA
BRANCH   2   3
ATOM      3  C   UNL     1      -0.922   0.277   2.315  1.00  0.00     0.352 C 
ATOM      4  O   UNL     1      -1.293  -0.500   3.196  1.00  0.00    -0.245 OA
BRANCH   3   5
ATOM      5  C   UNL     1       0.387   0.912   2.268  1.00  0.00     0.155 A 
ATOM      6  C   UNL     1       0.981   1.766   1.348  1.00  0.00     0.152 A 
ATOM      7  C   UNL     1       2.295   2.172   1.746  1.00  0.00     0.060 A 
ATOM      8  C   UNL     1       2.708   1.535   2.894  1.00  0.00     0.070 A 
ATOM      9  S   UNL     1       1.492   0.532   3.539  1.00  0.00    -0.133 S 
BRANCH   6  10
ATOM     10  O   UNL     1       0.327   2.121   0.214  1.00  0.00    -0.453 OA
BRANCH  10  11
ATOM     11  C   UNL     1       0.941   2.564  -0.936  1.00  0.00     0.151 A 
ATOM     12  C   UNL     1       2.039   1.980  -1.600  1.00  0.00     0.084 A 
ATOM     13  C   UNL     1       2.529   2.597  -2.765  1.00  0.00     0.030 A 
ATOM     14  C   UNL     1       1.897   3.716  -3.313  1.00  0.00     0.002 A 
ATOM     15  C   UNL     1       0.322   3.696  -1.494  1.00  0.00     0.049 A 
ATOM     16  C   UNL     1       0.789   4.264  -2.679  1.00  0.00     0.004 A 
BRANCH  12  17
ATOM     17  N   UNL     1       2.736   0.811  -1.213  1.00  0.00    -0.323 N 
ATOM     18  O   UNL     1       0.990  -0.487  -0.551  1.00  0.00    -0.275 OA
ATOM     19  C   UNL     1       2.195  -0.266  -0.568  1.00  0.00     0.224 C 
ATOM     20  H   UNL     1       3.696   0.770  -1.426  1.00  0.00     0.170 HD
BRANCH  19  21
ATOM     21  C   UNL     1       3.130  -1.185   0.201  1.00  0.00     0.105 C 
BRANCH  21  22
ATOM     22  C   UNL     1       4.276  -1.807  -0.582  1.00  0.00     0.045 C 
BRANCH  22  23
ATOM     23  C   UNL     1       5.424  -0.904  -0.973  1.00  0.00    -0.048 A 
ATOM     24  C   UNL     1       6.284  -1.339  -1.990  1.00  0.00     0.004 A 
ATOM     25  C   UNL     1       5.652   0.355  -0.398  1.00  0.00     0.004 A 
ATOM     26  C   UNL     1       7.271  -0.495  -2.496  1.00  0.00     0.000 A 
ATOM     27  C   UNL     1       6.607   1.217  -0.935  1.00  0.00     0.000 A 
ATOM     28  C   UNL     1       7.408   0.796  -1.992  1.00  0.00     0.000 A 
ENDBRANCH  22  23
ENDBRANCH  21  22
ENDBRANCH  19  21
ENDBRANCH  12  17
ENDBRANCH  10  11
ENDBRANCH   6  10
ENDBRANCH   3   5
ENDBRANCH   2   3
ENDBRANCH   1   2
BRANCH   1  29
ATOM     29  C   UNL     1      -3.336  -0.742   0.042  1.00  0.00     0.202 C 
BRANCH  29  30
ATOM     30  O   UNL     1      -2.748  -2.043   0.032  1.00  0.00    -0.374 OA
BRANCH  30  31
ATOM     31  C   UNL     1      -1.375  -2.081  -0.364  1.00  0.00     0.202 C 
BRANCH  31  32
ATOM     32  C   UNL     1      -1.125  -2.009  -1.884  1.00  0.00     0.261 C 
BRANCH  32  33
ATOM     33  O   UNL     1      -1.514  -0.740  -2.449  1.00  0.00    -0.460 OA
BRANCH  33  34
ATOM     34  C   UNL     1      -2.546  -0.787  -3.321  1.00  0.00     0.338 C 
ATOM     35  O   UNL     1      -3.081  -1.777  -3.792  1.00  0.00    -0.246 OA
BRANCH  34  36
ATOM     36  C   UNL     1      -3.115   0.564  -3.498  1.00  0.00     0.060 A 
ATOM     37  C   UNL     1      -4.447   0.749  -3.108  1.00  0.00     0.016 A 
ATOM     38  C   UNL     1      -2.402   1.606  -4.094  1.00  0.00     0.016 A 
ATOM     39  C   UNL     1      -5.085   1.965  -3.342  1.00  0.00     0.010 A 
ATOM     40  C   UNL     1      -3.050   2.824  -4.343  1.00  0.00     0.010 A 
ATOM     41  C   UNL     1      -4.402   3.002  -3.991  1.00  0.00    -0.014 A 
BRANCH  41  42
ATOM     42  C   UNL     1      -5.141   4.234  -4.372  1.00  0.00     0.031 A 
ATOM     43  C   UNL     1      -5.601   4.420  -5.793  1.00  0.00     0.074 A 
ATOM     44  C   UNL     1      -5.443   5.161  -3.445  1.00  0.00     0.049 A 
ATOM     45  N   UNL     1      -6.250   5.423  -6.328  1.00  0.00    -0.248 NA
ATOM     46  C   UNL     1      -5.293   3.331  -6.734  1.00  0.00     0.031 C 
ATOM     47  C   UNL     1      -5.109   5.076  -2.023  1.00  0.00     0.029 A 
ATOM     48  N   UNL     1      -6.105   6.358  -3.563  1.00  0.00    -0.354 N 
ATOM     49  C   UNL     1      -6.420   5.093  -7.668  1.00  0.00     0.074 A 
ATOM     50  C   UNL     1      -5.786   3.808  -7.869  1.00  0.00     0.031 C 
ATOM     51  C   UNL     1      -5.571   6.173  -1.401  1.00  0.00     0.029 A 
ATOM     52  C   UNL     1      -6.194   7.057  -2.384  1.00  0.00     0.049 A 
ATOM     53  H   UNL     1      -6.481   6.684  -4.412  1.00  0.00     0.167 HD
ATOM     54  C   UNL     1      -7.048   5.796  -8.641  1.00  0.00     0.031 A 
ATOM     55  C   UNL     1      -6.697   8.280  -2.129  1.00  0.00     0.031 A 
ATOM     56  C   UNL     1      -7.673   7.079  -8.445  1.00  0.00     0.049 A 
ATOM     57  C   UNL     1      -7.302   9.082  -3.252  1.00  0.00     0.074 A 
ATOM     58  C   UNL     1      -8.357   7.853  -9.368  1.00  0.00     0.029 A 
ATOM     59  N   UNL     1      -7.682   7.782  -7.251  1.00  0.00    -0.354 N 
ATOM     60  N   UNL     1      -7.483   8.745  -4.506  1.00  0.00    -0.248 NA
ATOM     61  C   UNL     1      -7.773  10.435  -2.921  1.00  0.00     0.031 C 
ATOM     62  C   UNL     1      -8.715   9.055  -8.752  1.00  0.00     0.029 A 
ATOM     63  C   UNL     1      -8.319   9.000  -7.426  1.00  0.00     0.049 A 
ATOM     64  H   UNL     1      -7.294   7.463  -6.405  1.00  0.00     0.167 HD
ATOM     65  C   UNL     1      -8.111   9.831  -5.104  1.00  0.00     0.074 A 
ATOM     66  C   UNL     1      -8.300  10.828  -4.071  1.00  0.00     0.031 C 
ATOM     67  C   UNL     1      -8.496   9.989  -6.394  1.00  0.00     0.031 A 
BRANCH  54  68
ATOM     68  C   UNL     1      -7.057   5.217 -10.030  1.00  0.00    -0.014 A 
ATOM     69  C   UNL     1      -7.845   4.103 -10.356  1.00  0.00     0.009 A 
ATOM     70  C   UNL     1      -6.313   5.842 -11.044  1.00  0.00     0.009 A 
ATOM     71  C   UNL     1      -7.867   3.612 -11.664  1.00  0.00     0.001 A 
ATOM     72  C   UNL     1      -6.359   5.367 -12.355  1.00  0.00     0.001 A 
ATOM     73  C   UNL     1      -7.131   4.248 -12.663  1.00  0.00     0.000 A 
ENDBRANCH  54  68
BRANCH  55  74
ATOM     74  C   UNL     1      -6.622   8.852  -0.757  1.00  0.00    -0.014 A 
ATOM     75  C   UNL     1      -7.788   9.096  -0.015  1.00  0.00     0.009 A 
ATOM     76  C   UNL     1      -5.381   9.197  -0.199  1.00  0.00     0.009 A 
ATOM     77  C   UNL     1      -7.714   9.701   1.242  1.00  0.00     0.001 A 
ATOM     78  C   UNL     1      -5.307   9.769   1.072  1.00  0.00     0.001 A 
ATOM     79  C   UNL     1      -6.474  10.033   1.786  1.00  0.00     0.000 A 
ENDBRANCH  55  74
BRANCH  67  80
ATOM     80  C   UNL     1      -9.187  11.275  -6.757  1.00  0.00    -0.014 A 
ATOM     81  C   UNL     1      -8.487  12.492  -6.804  1.00  0.00     0.009 A 
ATOM     82  C   UNL     1     -10.550  11.265  -7.093  1.00  0.00     0.009 A 
ATOM     83  C   UNL     1      -9.147  13.675  -7.142  1.00  0.00     0.001 A 
ATOM     84  C   UNL     1     -11.200  12.443  -7.463  1.00  0.00     0.001 A 
ATOM     85  C   UNL     1     -10.501  13.649  -7.477  1.00  0.00     0.000 A 
ENDBRANCH  67  80
ENDBRANCH  41  42
ENDBRANCH  34  36
ENDBRANCH  33  34
ENDBRANCH  32  33
ENDBRANCH  31  32
ENDBRANCH  30  31
ENDBRANCH  29  30
ENDBRANCH   1  29
TORSDOF 20
