REMARK SMILES CCOC(=O)c1ccc(-c2ccc(C(=O)OCCOCCOC(=O)c3ccc(-c4c5nc(c(-c6ccccc6)c6ccc([nH]6)c(-c6ccccc6)c6nc(c(-c7ccccc7)c7ccc4[nH]7)C=C6)C=C5)cc3)o2)cc1
REMARK SMILES IDX 18 1 17 2 16 3 14 4 15 5 13 6 10 7 11 8 73 9 12 10 9 11 6 12
REMARK SMILES IDX 7 13 75 14 8 15 74 16 4 17 5 18 3 19 2 20 1 21 19 22 20 23
REMARK SMILES IDX 21 24 22 25 23 26 24 27 25 28 26 29 72 30 27 31 71 32 28 33
REMARK SMILES IDX 29 34 30 35 65 36 31 37 70 38 64 39 66 40 32 41 69 42 63 43
REMARK SMILES IDX 62 44 33 46 55 47 40 48 54 49 41 50 44 51 53 52 67 53 42 54
REMARK SMILES IDX 43 55 52 57 68 58 45 59 34 60 35 61 39 62 36 63 38 64 37 65
REMARK SMILES IDX 56 66 57 67 61 68 58 69 60 70 59 71 46 72 47 73 51 74 48 75
REMARK SMILES IDX 50 76 49 77
REMARK H PARENT 66 45 44 56
REMARK Flexibility Score: inf
ROOT
ATOM      1  C   UNL     1       7.523   7.306  10.293  1.00  0.00     0.202 C 
ENDROOT
BRANCH   1   2
ATOM      2  C   UNL     1       6.088   7.037  10.754  1.00  0.00     0.261 C 
BRANCH   2   3
ATOM      3  O   UNL     1       5.713   5.686  10.433  1.00  0.00    -0.457 OA
BRANCH   3   4
ATOM      4  C   UNL     1       4.770   5.542   9.456  1.00  0.00     0.374 C 
ATOM      5  O   UNL     1       4.092   6.453   8.999  1.00  0.00    -0.242 OA
BRANCH   4   6
ATOM      6  C   UNL     1       4.783   4.176   8.984  1.00  0.00     0.212 A 
ATOM      7  C   UNL     1       4.412   2.597   7.497  1.00  0.00     0.135 A 
ATOM      8  C   UNL     1       5.092   1.994   8.531  1.00  0.00     0.052 A 
ATOM      9  O   UNL     1       4.209   3.913   7.767  1.00  0.00    -0.449 OA
ATOM     10  C   UNL     1       5.343   3.012   9.484  1.00  0.00     0.059 A 
BRANCH   7  11
ATOM     11  C   UNL     1       3.898   2.124   6.230  1.00  0.00     0.017 A 
ATOM     12  C   UNL     1       2.992   1.045   3.808  1.00  0.00     0.060 A 
ATOM     13  C   UNL     1       4.176   1.791   3.842  1.00  0.00     0.016 A 
ATOM     14  C   UNL     1       2.245   0.864   4.979  1.00  0.00     0.016 A 
ATOM     15  C   UNL     1       4.620   2.339   5.049  1.00  0.00     0.013 A 
ATOM     16  C   UNL     1       2.702   1.398   6.186  1.00  0.00     0.013 A 
BRANCH  12  17
ATOM     17  C   UNL     1       2.610   0.375   2.545  1.00  0.00     0.338 C 
ATOM     18  O   UNL     1       3.425  -0.059   1.748  1.00  0.00    -0.246 OA
BRANCH  17  19
ATOM     19  O   UNL     1       1.260   0.318   2.440  1.00  0.00    -0.462 OA
BRANCH  19  20
ATOM     20  C   UNL     1       0.750  -0.456   1.344  1.00  0.00     0.230 C 
ATOM     21  C   UNL     1       0.900   0.257   0.012  1.00  0.00     0.049 C 
ENDBRANCH  19  20
ENDBRANCH  17  19
ENDBRANCH  12  17
ENDBRANCH   7  11
ENDBRANCH   4   6
ENDBRANCH   3   4
ENDBRANCH   2   3
ENDBRANCH   1   2
BRANCH   1  22
ATOM     22  O   UNL     1       7.672   7.428   8.877  1.00  0.00    -0.374 OA
BRANCH  22  23
ATOM     23  C   UNL     1       7.858   6.211   8.150  1.00  0.00     0.202 C 
BRANCH  23  24
ATOM     24  C   UNL     1       9.311   5.735   8.058  1.00  0.00     0.261 C 
BRANCH  24  25
ATOM     25  O   UNL     1       9.801   5.316   9.345  1.00  0.00    -0.460 OA
BRANCH  25  26
ATOM     26  C   UNL     1      10.699   6.157   9.912  1.00  0.00     0.338 C 
ATOM     27  O   UNL     1      11.200   7.150   9.413  1.00  0.00    -0.246 OA
BRANCH  26  28
ATOM     28  C   UNL     1      10.900   5.800  11.330  1.00  0.00     0.060 A 
ATOM     29  C   UNL     1      10.886   6.845  12.261  1.00  0.00     0.016 A 
ATOM     30  C   UNL     1      11.161   4.489  11.742  1.00  0.00     0.016 A 
ATOM     31  C   UNL     1      11.188   6.595  13.598  1.00  0.00     0.010 A 
ATOM     32  C   UNL     1      11.468   4.240  13.085  1.00  0.00     0.010 A 
ATOM     33  C   UNL     1      11.519   5.298  14.011  1.00  0.00    -0.014 A 
BRANCH  33  34
ATOM     34  C   UNL     1      12.048   5.084  15.379  1.00  0.00     0.031 A 
ATOM     35  C   UNL     1      13.534   4.977  15.584  1.00  0.00     0.074 A 
ATOM     36  C   UNL     1      11.219   5.032  16.437  1.00  0.00     0.049 A 
ATOM     37  N   UNL     1      14.208   4.814  16.694  1.00  0.00    -0.248 NA
ATOM     38  C   UNL     1      14.373   5.068  14.377  1.00  0.00     0.031 C 
ATOM     39  C   UNL     1       9.764   5.159  16.380  1.00  0.00     0.029 A 
ATOM     40  N   UNL     1      11.492   4.861  17.771  1.00  0.00    -0.354 N 
ATOM     41  C   UNL     1      15.546   4.782  16.321  1.00  0.00     0.074 A 
ATOM     42  C   UNL     1      15.588   4.910  14.880  1.00  0.00     0.031 C 
ATOM     43  C   UNL     1       9.270   5.062  17.627  1.00  0.00     0.029 A 
ATOM     44  C   UNL     1      10.370   4.842  18.563  1.00  0.00     0.049 A 
ATOM     45  H   UNL     1      12.404   4.761  18.126  1.00  0.00     0.167 HD
ATOM     46  C   UNL     1      16.644   4.665  17.106  1.00  0.00     0.031 A 
ATOM     47  C   UNL     1      10.245   4.657  19.891  1.00  0.00     0.031 A 
ATOM     48  C   UNL     1      16.610   4.526  18.537  1.00  0.00     0.049 A 
ATOM     49  C   UNL     1      11.476   4.458  20.733  1.00  0.00     0.074 A 
ATOM     50  C   UNL     1      17.671   4.418  19.419  1.00  0.00     0.029 A 
ATOM     51  N   UNL     1      15.452   4.467  19.295  1.00  0.00    -0.354 N 
ATOM     52  N   UNL     1      12.736   4.462  20.371  1.00  0.00    -0.248 NA
ATOM     53  C   UNL     1      11.264   4.239  22.172  1.00  0.00     0.031 C 
ATOM     54  C   UNL     1      17.154   4.243  20.707  1.00  0.00     0.029 A 
ATOM     55  C   UNL     1      15.771   4.296  20.632  1.00  0.00     0.049 A 
ATOM     56  H   UNL     1      14.537   4.536  18.937  1.00  0.00     0.167 HD
ATOM     57  C   UNL     1      13.466   4.272  21.538  1.00  0.00     0.074 A 
ATOM     58  C   UNL     1      12.510   4.171  22.620  1.00  0.00     0.031 C 
ATOM     59  C   UNL     1      14.810   4.193  21.698  1.00  0.00     0.031 A 
BRANCH  46  60
ATOM     60  C   UNL     1      17.981   4.653  16.422  1.00  0.00    -0.014 A 
ATOM     61  C   UNL     1      18.528   5.824  15.873  1.00  0.00     0.009 A 
ATOM     62  C   UNL     1      18.717   3.461  16.352  1.00  0.00     0.009 A 
ATOM     63  C   UNL     1      19.773   5.793  15.240  1.00  0.00     0.001 A 
ATOM     64  C   UNL     1      19.972   3.438  15.740  1.00  0.00     0.001 A 
ATOM     65  C   UNL     1      20.494   4.601  15.178  1.00  0.00     0.000 A 
ENDBRANCH  46  60
BRANCH  47  66
ATOM     66  C   UNL     1       8.897   4.638  20.514  1.00  0.00    -0.014 A 
ATOM     67  C   UNL     1       8.477   5.689  21.344  1.00  0.00     0.009 A 
ATOM     68  C   UNL     1       8.030   3.556  20.296  1.00  0.00     0.009 A 
ATOM     69  C   UNL     1       7.225   5.643  21.962  1.00  0.00     0.001 A 
ATOM     70  C   UNL     1       6.769   3.526  20.894  1.00  0.00     0.001 A 
ATOM     71  C   UNL     1       6.371   4.565  21.733  1.00  0.00     0.000 A 
ENDBRANCH  47  66
BRANCH  59  72
ATOM     72  C   UNL     1      15.327   4.019  23.098  1.00  0.00    -0.014 A 
ATOM     73  C   UNL     1      15.208   2.793  23.771  1.00  0.00     0.009 A 
ATOM     74  C   UNL     1      15.977   5.087  23.737  1.00  0.00     0.009 A 
ATOM     75  C   UNL     1      15.701   2.651  25.070  1.00  0.00     0.001 A 
ATOM     76  C   UNL     1      16.492   4.934  25.025  1.00  0.00     0.001 A 
ATOM     77  C   UNL     1      16.346   3.720  25.694  1.00  0.00     0.000 A 
ENDBRANCH  59  72
ENDBRANCH  33  34
ENDBRANCH  26  28
ENDBRANCH  25  26
ENDBRANCH  24  25
ENDBRANCH  23  24
ENDBRANCH  22  23
ENDBRANCH   1  22
TORSDOF 18
