REMARK SMILES CC(C)[C@H]1C[C@@](O)([C@H](F)C(=O)OCCOCCOC(=O)c2ccc(-c3c4nc(c(-c5ccccc5)c5ccc([nH]5)c(-c5ccccc5)c5nc(c(-c6ccccc6)c6ccc3[nH]6)C=C5)C=C4)cc2)CCO1
REMARK SMILES IDX 15 1 14 2 13 3 12 4 10 5 11 6 8 7 9 8 6 9 4 10 5 11 71 12
REMARK SMILES IDX 70 13 69 14 2 15 1 16 3 17 7 18 16 20 17 21 18 22 19 23
REMARK SMILES IDX 20 24 21 25 22 26 68 27 23 28 67 29 24 30 25 31 26 32 61 33
REMARK SMILES IDX 27 34 66 35 60 36 62 37 28 38 65 39 59 40 58 41 29 43 51 44
REMARK SMILES IDX 36 45 50 46 37 47 40 48 49 49 63 50 38 51 39 52 48 54 64 55
REMARK SMILES IDX 41 56 30 57 31 58 35 59 32 60 34 61 33 62 52 63 53 64 57 65
REMARK SMILES IDX 54 66 56 67 55 68 42 69 43 70 47 71 44 72 46 73 45 74
REMARK H PARENT 7 19 62 42 40 53
REMARK Flexibility Score: inf
ROOT
ATOM      1  O   UNL     1       1.145  -5.312   6.230  1.00  0.00    -0.374 OA
ENDROOT
BRANCH   1   2
ATOM      2  C   UNL     1       0.173  -6.320   5.963  1.00  0.00     0.202 C 
BRANCH   2   3
ATOM      3  C   UNL     1      -1.280  -5.932   6.244  1.00  0.00     0.261 C 
BRANCH   3   4
ATOM      4  O   UNL     1      -1.709  -4.877   5.370  1.00  0.00    -0.461 OA
BRANCH   4   5
ATOM      5  C   UNL     1      -1.973  -3.678   5.968  1.00  0.00     0.343 C 
ATOM      6  O   UNL     1      -1.978  -3.484   7.177  1.00  0.00    -0.249 OA
BRANCH   5   7
ATOM      7  C   UNL     1      -2.228  -2.599   4.929  1.00  0.00     0.307 C 
ATOM      8  F   UNL     1      -1.471  -2.777   3.799  1.00  0.00    -0.232 F 
BRANCH   7   9
ATOM      9  C   UNL     1      -3.714  -2.511   4.529  1.00  0.00     0.111 C 
ATOM     10  C   UNL     1      -5.560  -3.629   3.154  1.00  0.00     0.123 C 
ATOM     11  C   UNL     1      -4.178  -3.788   3.804  1.00  0.00     0.071 C 
ATOM     12  O   UNL     1      -5.559  -2.470   2.314  1.00  0.00    -0.378 OA
ATOM     13  C   UNL     1      -5.312  -1.263   3.029  1.00  0.00     0.163 C 
ATOM     14  C   UNL     1      -3.913  -1.287   3.620  1.00  0.00     0.067 C 
BRANCH  10  15
ATOM     15  C   UNL     1      -5.949  -4.855   2.292  1.00  0.00     0.012 C 
ATOM     16  C   UNL     1      -6.054  -6.137   3.121  1.00  0.00     0.010 C 
ATOM     17  C   UNL     1      -7.274  -4.611   1.559  1.00  0.00     0.010 C 
ENDBRANCH  10  15
BRANCH   9  18
ATOM     18  O   UNL     1      -4.488  -2.308   5.721  1.00  0.00    -0.386 OA
ATOM     19  H   UNL     1      -5.428  -2.251   5.490  1.00  0.00     0.211 HD
ENDBRANCH   9  18
ENDBRANCH   7   9
ENDBRANCH   5   7
ENDBRANCH   4   5
ENDBRANCH   3   4
ENDBRANCH   2   3
ENDBRANCH   1   2
BRANCH   1  20
ATOM     20  C   UNL     1       1.324  -4.293   5.245  1.00  0.00     0.202 C 
BRANCH  20  21
ATOM     21  C   UNL     1       2.137  -4.683   4.006  1.00  0.00     0.261 C 
BRANCH  21  22
ATOM     22  O   UNL     1       1.410  -5.574   3.139  1.00  0.00    -0.460 OA
BRANCH  22  23
ATOM     23  C   UNL     1       1.879  -6.841   3.092  1.00  0.00     0.338 C 
ATOM     24  O   UNL     1       2.854  -7.296   3.671  1.00  0.00    -0.246 OA
BRANCH  23  25
ATOM     25  C   UNL     1       0.942  -7.694   2.341  1.00  0.00     0.060 A 
ATOM     26  C   UNL     1       0.503  -8.879   2.946  1.00  0.00     0.016 A 
ATOM     27  C   UNL     1       0.585  -7.391   1.026  1.00  0.00     0.016 A 
ATOM     28  C   UNL     1      -0.251  -9.798   2.218  1.00  0.00     0.010 A 
ATOM     29  C   UNL     1      -0.158  -8.318   0.293  1.00  0.00     0.010 A 
ATOM     30  C   UNL     1      -0.543  -9.541   0.873  1.00  0.00    -0.014 A 
BRANCH  30  31
ATOM     31  C   UNL     1      -1.085 -10.612   0.006  1.00  0.00     0.031 A 
ATOM     32  C   UNL     1      -0.128 -11.386  -0.858  1.00  0.00     0.074 A 
ATOM     33  C   UNL     1      -2.402 -10.874  -0.036  1.00  0.00     0.049 A 
ATOM     34  N   UNL     1      -0.380 -12.254  -1.803  1.00  0.00    -0.248 NA
ATOM     35  C   UNL     1       1.306 -11.144  -0.626  1.00  0.00     0.031 C 
ATOM     36  C   UNL     1      -3.420 -10.238   0.797  1.00  0.00     0.029 A 
ATOM     37  N   UNL     1      -3.107 -11.737  -0.836  1.00  0.00    -0.354 N 
ATOM     38  C   UNL     1       0.860 -12.641  -2.295  1.00  0.00     0.074 A 
ATOM     39  C   UNL     1       1.862 -11.910  -1.552  1.00  0.00     0.031 C 
ATOM     40  C   UNL     1      -4.627 -10.716   0.447  1.00  0.00     0.029 A 
ATOM     41  C   UNL     1      -4.467 -11.654  -0.662  1.00  0.00     0.049 A 
ATOM     42  H   UNL     1      -2.680 -12.355  -1.472  1.00  0.00     0.167 HD
ATOM     43  C   UNL     1       1.138 -13.524  -3.283  1.00  0.00     0.031 A 
ATOM     44  C   UNL     1      -5.466 -12.239  -1.350  1.00  0.00     0.031 A 
ATOM     45  C   UNL     1       0.140 -14.241  -4.027  1.00  0.00     0.049 A 
ATOM     46  C   UNL     1      -5.137 -13.152  -2.502  1.00  0.00     0.074 A 
ATOM     47  C   UNL     1       0.318 -15.161  -5.046  1.00  0.00     0.029 A 
ATOM     48  N   UNL     1      -1.226 -14.114  -3.833  1.00  0.00    -0.354 N 
ATOM     49  N   UNL     1      -3.963 -13.511  -2.961  1.00  0.00    -0.248 NA
ATOM     50  C   UNL     1      -6.272 -13.736  -3.232  1.00  0.00     0.031 C 
ATOM     51  C   UNL     1      -0.944 -15.556  -5.499  1.00  0.00     0.029 A 
ATOM     52  C   UNL     1      -1.905 -14.922  -4.726  1.00  0.00     0.049 A 
ATOM     53  H   UNL     1      -1.650 -13.534  -3.159  1.00  0.00     0.167 HD
ATOM     54  C   UNL     1      -4.217 -14.388  -4.009  1.00  0.00     0.074 A 
ATOM     55  C   UNL     1      -5.656 -14.507  -4.118  1.00  0.00     0.031 C 
ATOM     56  C   UNL     1      -3.337 -15.041  -4.806  1.00  0.00     0.031 A 
BRANCH  43  57
ATOM     57  C   UNL     1       2.582 -13.727  -3.643  1.00  0.00    -0.014 A 
ATOM     58  C   UNL     1       3.450 -14.442  -2.803  1.00  0.00     0.009 A 
ATOM     59  C   UNL     1       3.072 -13.218  -4.855  1.00  0.00     0.009 A 
ATOM     60  C   UNL     1       4.789 -14.616  -3.158  1.00  0.00     0.001 A 
ATOM     61  C   UNL     1       4.405 -13.415  -5.219  1.00  0.00     0.001 A 
ATOM     62  C   UNL     1       5.264 -14.107  -4.366  1.00  0.00     0.000 A 
ENDBRANCH  43  57
BRANCH  44  63
ATOM     63  C   UNL     1      -6.880 -11.953  -0.993  1.00  0.00    -0.014 A 
ATOM     64  C   UNL     1      -7.680 -12.940  -0.399  1.00  0.00     0.009 A 
ATOM     65  C   UNL     1      -7.440 -10.693  -1.257  1.00  0.00     0.009 A 
ATOM     66  C   UNL     1      -9.018 -12.677  -0.095  1.00  0.00     0.001 A 
ATOM     67  C   UNL     1      -8.770 -10.425  -0.928  1.00  0.00     0.001 A 
ATOM     68  C   UNL     1      -9.560 -11.419  -0.355  1.00  0.00     0.000 A 
ENDBRANCH  44  63
BRANCH  56  69
ATOM     69  C   UNL     1      -3.893 -15.990  -5.828  1.00  0.00    -0.014 A 
ATOM     70  C   UNL     1      -4.471 -15.524  -7.018  1.00  0.00     0.009 A 
ATOM     71  C   UNL     1      -3.756 -17.373  -5.630  1.00  0.00     0.009 A 
ATOM     72  C   UNL     1      -4.917 -16.429  -7.984  1.00  0.00     0.001 A 
ATOM     73  C   UNL     1      -4.181 -18.273  -6.607  1.00  0.00     0.001 A 
ATOM     74  C   UNL     1      -4.765 -17.801  -7.781  1.00  0.00     0.000 A 
ENDBRANCH  56  69
ENDBRANCH  30  31
ENDBRANCH  23  25
ENDBRANCH  22  23
ENDBRANCH  21  22
ENDBRANCH  20  21
ENDBRANCH   1  20
TORSDOF 17
