REMARK SMILES O=C(OCCOCCOC(=O)c1ccc(COc2cccc(Cl)c2Cl)o1)c1ccc(-c2c3nc(c(-c4ccccc4)c4ccc([nH]4)c(-c4ccccc4)c4nc(c(-c5ccccc5)c5ccc2[nH]5)C=C4)C=C3)cc1
REMARK SMILES IDX 7 1 6 2 5 3 4 4 3 5 2 6 1 7 27 8 28 9 74 10 29 11 73 12
REMARK SMILES IDX 30 13 31 14 32 15 67 16 33 17 72 18 66 19 68 20 34 21 71 22
REMARK SMILES IDX 65 23 64 24 35 26 57 27 42 28 56 29 43 30 46 31 55 32 69 33
REMARK SMILES IDX 44 34 45 35 54 37 70 38 47 39 36 40 37 41 41 42 38 43 40 44
REMARK SMILES IDX 39 45 58 46 59 47 63 48 60 49 62 50 61 51 48 52 49 53 53 54
REMARK SMILES IDX 50 55 52 56 51 57 8 58 9 59 10 60 11 61 12 62 13 63 26 64
REMARK SMILES IDX 14 65 15 66 16 67 17 68 18 69 19 70 24 71 20 72 22 73 25 74
REMARK SMILES IDX 21 75 23 76
REMARK H PARENT 68 25 46 36
REMARK Flexibility Score: inf
ROOT
ATOM      1  C   UNL     1       2.601   2.206  -0.462  1.00  0.00     0.202 C 
ENDROOT
BRANCH   1   2
ATOM      2  O   UNL     1       3.956   1.750  -0.568  1.00  0.00    -0.374 OA
BRANCH   2   3
ATOM      3  C   UNL     1       4.209   0.807  -1.614  1.00  0.00     0.202 C 
BRANCH   3   4
ATOM      4  C   UNL     1       3.996  -0.650  -1.192  1.00  0.00     0.261 C 
BRANCH   4   5
ATOM      5  O   UNL     1       2.634  -0.852  -0.775  1.00  0.00    -0.460 OA
BRANCH   5   6
ATOM      6  C   UNL     1       2.124  -0.928   0.475  1.00  0.00     0.338 C 
ATOM      7  O   UNL     1       0.910  -1.089   0.600  1.00  0.00    -0.246 OA
BRANCH   6   8
ATOM      8  C   UNL     1       2.941  -0.849   1.726  1.00  0.00     0.060 A 
ATOM      9  C   UNL     1       4.153  -0.168   1.861  1.00  0.00     0.016 A 
ATOM     10  C   UNL     1       2.383  -1.430   2.879  1.00  0.00     0.016 A 
ATOM     11  C   UNL     1       4.827  -0.124   3.078  1.00  0.00     0.010 A 
ATOM     12  C   UNL     1       3.031  -1.351   4.116  1.00  0.00     0.010 A 
ATOM     13  C   UNL     1       4.270  -0.712   4.212  1.00  0.00    -0.014 A 
BRANCH  13  14
ATOM     14  C   UNL     1       5.038  -0.689   5.470  1.00  0.00     0.031 A 
ATOM     15  C   UNL     1       5.768  -1.925   5.898  1.00  0.00     0.074 A 
ATOM     16  C   UNL     1       5.160   0.464   6.152  1.00  0.00     0.049 A 
ATOM     17  N   UNL     1       6.523  -2.115   6.947  1.00  0.00    -0.248 NA
ATOM     18  C   UNL     1       5.643  -3.099   5.019  1.00  0.00     0.031 C 
ATOM     19  C   UNL     1       4.559   1.742   5.764  1.00  0.00     0.029 A 
ATOM     20  N   UNL     1       5.859   0.755   7.293  1.00  0.00    -0.354 N 
ATOM     21  C   UNL     1       6.958  -3.430   6.858  1.00  0.00     0.074 A 
ATOM     22  C   UNL     1       6.372  -3.997   5.664  1.00  0.00     0.031 C 
ATOM     23  C   UNL     1       4.944   2.688   6.635  1.00  0.00     0.029 A 
ATOM     24  C   UNL     1       5.775   2.074   7.666  1.00  0.00     0.049 A 
ATOM     25  H   UNL     1       6.373   0.084   7.798  1.00  0.00     0.167 HD
ATOM     26  C   UNL     1       7.772  -4.104   7.703  1.00  0.00     0.031 A 
ATOM     27  C   UNL     1       6.301   2.707   8.730  1.00  0.00     0.031 A 
ATOM     28  C   UNL     1       8.324  -3.539   8.902  1.00  0.00     0.049 A 
ATOM     29  C   UNL     1       7.126   1.910   9.702  1.00  0.00     0.074 A 
ATOM     30  C   UNL     1       9.100  -4.147   9.871  1.00  0.00     0.029 A 
ATOM     31  N   UNL     1       8.152  -2.218   9.292  1.00  0.00    -0.354 N 
ATOM     32  N   UNL     1       7.491   0.652   9.635  1.00  0.00    -0.248 NA
ATOM     33  C   UNL     1       7.601   2.616  10.899  1.00  0.00     0.031 C 
ATOM     34  C   UNL     1       9.367  -3.202  10.868  1.00  0.00     0.029 A 
ATOM     35  C   UNL     1       8.793  -1.995  10.497  1.00  0.00     0.049 A 
ATOM     36  H   UNL     1       7.649  -1.540   8.786  1.00  0.00     0.167 HD
ATOM     37  C   UNL     1       8.243   0.415  10.777  1.00  0.00     0.074 A 
ATOM     38  C   UNL     1       8.303   1.667  11.505  1.00  0.00     0.031 C 
ATOM     39  C   UNL     1       8.826  -0.736  11.194  1.00  0.00     0.031 A 
BRANCH  26  40
ATOM     40  C   UNL     1       8.046  -5.541   7.371  1.00  0.00    -0.014 A 
ATOM     41  C   UNL     1       8.923  -5.895   6.334  1.00  0.00     0.009 A 
ATOM     42  C   UNL     1       7.386  -6.555   8.082  1.00  0.00     0.009 A 
ATOM     43  C   UNL     1       9.106  -7.237   5.992  1.00  0.00     0.001 A 
ATOM     44  C   UNL     1       7.587  -7.896   7.750  1.00  0.00     0.001 A 
ATOM     45  C   UNL     1       8.438  -8.236   6.700  1.00  0.00     0.000 A 
ENDBRANCH  26  40
BRANCH  27  46
ATOM     46  C   UNL     1       6.034   4.152   8.951  1.00  0.00    -0.014 A 
ATOM     47  C   UNL     1       7.064   5.099   8.840  1.00  0.00     0.009 A 
ATOM     48  C   UNL     1       4.742   4.594   9.279  1.00  0.00     0.009 A 
ATOM     49  C   UNL     1       6.808   6.453   9.072  1.00  0.00     0.001 A 
ATOM     50  C   UNL     1       4.484   5.951   9.482  1.00  0.00     0.001 A 
ATOM     51  C   UNL     1       5.518   6.879   9.387  1.00  0.00     0.000 A 
ENDBRANCH  27  46
BRANCH  39  52
ATOM     52  C   UNL     1       9.584  -0.678  12.486  1.00  0.00    -0.014 A 
ATOM     53  C   UNL     1       8.908  -0.660  13.716  1.00  0.00     0.009 A 
ATOM     54  C   UNL     1      10.986  -0.684  12.473  1.00  0.00     0.009 A 
ATOM     55  C   UNL     1       9.627  -0.624  14.911  1.00  0.00     0.001 A 
ATOM     56  C   UNL     1      11.701  -0.669  13.670  1.00  0.00     0.001 A 
ATOM     57  C   UNL     1      11.021  -0.632  14.887  1.00  0.00     0.000 A 
ENDBRANCH  39  52
ENDBRANCH  13  14
ENDBRANCH   6   8
ENDBRANCH   5   6
ENDBRANCH   4   5
ENDBRANCH   3   4
ENDBRANCH   2   3
ENDBRANCH   1   2
BRANCH   1  58
ATOM     58  C   UNL     1       2.561   3.736  -0.530  1.00  0.00     0.261 C 
BRANCH  58  59
ATOM     59  O   UNL     1       2.934   4.141  -1.857  1.00  0.00    -0.457 OA
BRANCH  59  60
ATOM     60  C   UNL     1       4.282   4.230  -2.038  1.00  0.00     0.374 C 
ATOM     61  O   UNL     1       5.097   4.483  -1.157  1.00  0.00    -0.242 OA
BRANCH  60  62
ATOM     62  C   UNL     1       4.598   3.836  -3.385  1.00  0.00     0.211 A 
ATOM     63  C   UNL     1       3.946   3.950  -4.597  1.00  0.00     0.058 A 
ATOM     64  O   UNL     1       5.750   3.130  -3.564  1.00  0.00    -0.450 OA
ATOM     65  C   UNL     1       4.785   3.339  -5.569  1.00  0.00     0.050 A 
ATOM     66  C   UNL     1       5.888   2.864  -4.890  1.00  0.00     0.142 A 
BRANCH  66  67
ATOM     67  C   UNL     1       7.140   2.168  -5.306  1.00  0.00     0.304 C 
BRANCH  67  68
ATOM     68  O   UNL     1       8.157   2.328  -4.297  1.00  0.00    -0.484 OA
BRANCH  68  69
ATOM     69  C   UNL     1       8.857   3.502  -4.443  1.00  0.00     0.140 A 
ATOM     70  C   UNL     1       8.453   4.601  -3.676  1.00  0.00     0.048 A 
ATOM     71  C   UNL     1       9.994   3.588  -5.256  1.00  0.00     0.101 A 
ATOM     72  C   UNL     1       9.117   5.818  -3.783  1.00  0.00     0.005 A 
ATOM     73  C   UNL     1      10.674   4.811  -5.341  1.00  0.00     0.063 A 
ATOM     74  Cl  UNL     1      10.539   2.187  -6.117  1.00  0.00    -0.079 Cl
ATOM     75  C   UNL     1      10.225   5.925  -4.620  1.00  0.00     0.022 A 
ATOM     76  Cl  UNL     1      12.086   5.020  -6.318  1.00  0.00    -0.083 Cl
ENDBRANCH  68  69
ENDBRANCH  67  68
ENDBRANCH  66  67
ENDBRANCH  60  62
ENDBRANCH  59  60
ENDBRANCH  58  59
ENDBRANCH   1  58
TORSDOF 17
