REMARK SMILES O=C(OCCOCCOC(=O)[C@H]1Cc2c([nH]c3ccccc23)[C@H](c2c[nH]c3ccccc23)[NH2+]1)c1ccc(-c2c3nc(c(-c4ccccc4)c4ccc([nH]4)c(-c4ccccc4)c4nc(c(-c5ccccc5)c5ccc2[nH]5)C=C4)C=C3)cc1
REMARK SMILES IDX 5 1 4 2 3 3 2 4 1 5 34 6 35 7 81 8 36 9 80 10 37 11 38 12
REMARK SMILES IDX 39 13 74 14 40 15 79 16 73 17 75 18 41 19 78 20 72 21 71 22
REMARK SMILES IDX 42 24 64 25 49 26 63 27 50 28 53 29 62 30 76 31 51 32 52 33
REMARK SMILES IDX 61 35 77 36 54 37 43 38 44 39 48 40 45 41 47 42 46 43 65 44
REMARK SMILES IDX 66 45 70 46 67 47 69 48 68 49 55 50 56 51 60 52 57 53 59 54
REMARK SMILES IDX 58 55 6 56 7 57 8 58 9 59 10 60 11 61 12 62 13 63 33 64
REMARK SMILES IDX 14 65 23 66 15 69 22 70 16 71 17 72 21 73 18 75 20 76 19 77
REMARK SMILES IDX 24 78 25 79 32 80 26 81 27 82 31 83 28 85 30 86 29 87
REMARK H PARENT 75 23 53 34 33 67 33 68 16 74 26 84
REMARK Flexibility Score: inf
ROOT
ATOM      1  C   UNL     1       4.347  -1.150   0.326  1.00  0.00     0.202 C 
ENDROOT
BRANCH   1   2
ATOM      2  C   UNL     1       4.017   0.292   0.703  1.00  0.00     0.261 C 
BRANCH   2   3
ATOM      3  O   UNL     1       2.587   0.474   0.699  1.00  0.00    -0.460 OA
BRANCH   3   4
ATOM      4  C   UNL     1       1.859   1.066  -0.279  1.00  0.00     0.338 C 
ATOM      5  O   UNL     1       0.636   1.115  -0.207  1.00  0.00    -0.246 OA
BRANCH   4   6
ATOM      6  C   UNL     1       2.539   1.715  -1.421  1.00  0.00     0.060 A 
ATOM      7  C   UNL     1       3.587   1.102  -2.097  1.00  0.00     0.016 A 
ATOM      8  C   UNL     1       2.096   2.959  -1.867  1.00  0.00     0.016 A 
ATOM      9  C   UNL     1       4.302   1.724  -3.076  1.00  0.00     0.010 A 
ATOM     10  C   UNL     1       2.732   3.560  -2.953  1.00  0.00     0.010 A 
ATOM     11  C   UNL     1       3.838   2.931  -3.546  1.00  0.00    -0.014 A 
BRANCH  11  12
ATOM     12  C   UNL     1       4.612   3.512  -4.633  1.00  0.00     0.031 A 
ATOM     13  C   UNL     1       5.443   4.698  -4.320  1.00  0.00     0.074 A 
ATOM     14  C   UNL     1       4.650   2.866  -5.811  1.00  0.00     0.049 A 
ATOM     15  N   UNL     1       6.039   5.514  -5.136  1.00  0.00    -0.248 NA
ATOM     16  C   UNL     1       5.620   5.015  -2.891  1.00  0.00     0.031 C 
ATOM     17  C   UNL     1       4.016   1.569  -6.093  1.00  0.00     0.029 A 
ATOM     18  N   UNL     1       5.262   3.197  -6.982  1.00  0.00    -0.354 N 
ATOM     19  C   UNL     1       6.586   6.496  -4.327  1.00  0.00     0.074 A 
ATOM     20  C   UNL     1       6.284   6.157  -2.956  1.00  0.00     0.031 C 
ATOM     21  C   UNL     1       4.273   1.221  -7.361  1.00  0.00     0.029 A 
ATOM     22  C   UNL     1       4.974   2.322  -7.999  1.00  0.00     0.049 A 
ATOM     23  H   UNL     1       5.850   3.980  -7.087  1.00  0.00     0.167 HD
ATOM     24  C   UNL     1       7.238   7.606  -4.736  1.00  0.00     0.031 A 
ATOM     25  C   UNL     1       5.173   2.462  -9.319  1.00  0.00     0.031 A 
ATOM     26  C   UNL     1       7.477   7.871  -6.127  1.00  0.00     0.049 A 
ATOM     27  C   UNL     1       5.806   3.745  -9.767  1.00  0.00     0.074 A 
ATOM     28  C   UNL     1       8.059   8.972  -6.718  1.00  0.00     0.029 A 
ATOM     29  N   UNL     1       7.131   6.992  -7.152  1.00  0.00    -0.354 N 
ATOM     30  N   UNL     1       6.227   4.750  -9.031  1.00  0.00    -0.248 NA
ATOM     31  C   UNL     1       5.975   3.933 -11.208  1.00  0.00     0.031 C 
ATOM     32  C   UNL     1       8.012   8.782  -8.105  1.00  0.00     0.029 A 
ATOM     33  C   UNL     1       7.466   7.532  -8.376  1.00  0.00     0.049 A 
ATOM     34  H   UNL     1       6.707   6.112  -7.021  1.00  0.00     0.167 HD
ATOM     35  C   UNL     1       6.731   5.687  -9.915  1.00  0.00     0.074 A 
ATOM     36  C   UNL     1       6.567   5.121 -11.244  1.00  0.00     0.031 C 
ATOM     37  C   UNL     1       7.280   6.901  -9.662  1.00  0.00     0.031 A 
BRANCH  24  38
ATOM     38  C   UNL     1       7.566   8.618  -3.678  1.00  0.00    -0.014 A 
ATOM     39  C   UNL     1       8.508   8.367  -2.667  1.00  0.00     0.009 A 
ATOM     40  C   UNL     1       6.827   9.811  -3.632  1.00  0.00     0.009 A 
ATOM     41  C   UNL     1       8.654   9.259  -1.599  1.00  0.00     0.001 A 
ATOM     42  C   UNL     1       7.000  10.716  -2.583  1.00  0.00     0.001 A 
ATOM     43  C   UNL     1       7.899  10.431  -1.558  1.00  0.00     0.000 A 
ENDBRANCH  24  38
BRANCH  25  44
ATOM     44  C   UNL     1       4.669   1.425 -10.256  1.00  0.00    -0.014 A 
ATOM     45  C   UNL     1       5.553   0.615 -10.979  1.00  0.00     0.009 A 
ATOM     46  C   UNL     1       3.286   1.188 -10.376  1.00  0.00     0.009 A 
ATOM     47  C   UNL     1       5.066  -0.403 -11.806  1.00  0.00     0.001 A 
ATOM     48  C   UNL     1       2.804   0.151 -11.178  1.00  0.00     0.001 A 
ATOM     49  C   UNL     1       3.695  -0.640 -11.898  1.00  0.00     0.000 A 
ENDBRANCH  25  44
BRANCH  37  50
ATOM     50  C   UNL     1       7.792   7.660 -10.847  1.00  0.00    -0.014 A 
ATOM     51  C   UNL     1       6.919   8.326 -11.717  1.00  0.00     0.009 A 
ATOM     52  C   UNL     1       9.179   7.788 -11.022  1.00  0.00     0.009 A 
ATOM     53  C   UNL     1       7.431   9.105 -12.754  1.00  0.00     0.001 A 
ATOM     54  C   UNL     1       9.685   8.591 -12.040  1.00  0.00     0.001 A 
ATOM     55  C   UNL     1       8.811   9.246 -12.906  1.00  0.00     0.000 A 
ENDBRANCH  37  50
ENDBRANCH  11  12
ENDBRANCH   4   6
ENDBRANCH   3   4
ENDBRANCH   2   3
ENDBRANCH   1   2
BRANCH   1  56
ATOM     56  O   UNL     1       3.939  -1.552  -0.973  1.00  0.00    -0.374 OA
BRANCH  56  57
ATOM     57  C   UNL     1       2.614  -2.071  -1.105  1.00  0.00     0.202 C 
BRANCH  57  58
ATOM     58  C   UNL     1       2.737  -3.485  -1.654  1.00  0.00     0.261 C 
BRANCH  58  59
ATOM     59  O   UNL     1       3.344  -4.276  -0.627  1.00  0.00    -0.459 OA
BRANCH  59  60
ATOM     60  C   UNL     1       4.708  -4.142  -0.482  1.00  0.00     0.365 C 
ATOM     61  O   UNL     1       5.484  -3.761  -1.336  1.00  0.00    -0.245 OA
BRANCH  60  62
ATOM     62  C   UNL     1       5.041  -4.552   0.954  1.00  0.00     0.298 C 
ATOM     63  C   UNL     1       4.802  -6.062   0.891  1.00  0.00     0.115 C 
ATOM     64  N   UNL     1       6.390  -4.098   1.394  1.00  0.00    -0.323 N 
ATOM     65  C   UNL     1       5.434  -6.721   2.028  1.00  0.00    -0.006 A 
ATOM     66  C   UNL     1       6.921  -4.706   2.628  1.00  0.00     0.264 C 
ATOM     67  H   UNL     1       6.345  -3.089   1.540  1.00  0.00     0.347 HD
ATOM     68  H   UNL     1       7.028  -4.390   0.653  1.00  0.00     0.347 HD
ATOM     69  C   UNL     1       6.402  -6.109   2.790  1.00  0.00     0.083 A 
ATOM     70  C   UNL     1       5.226  -8.029   2.490  1.00  0.00     0.003 A 
ATOM     71  N   UNL     1       6.852  -7.055   3.675  1.00  0.00    -0.353 N 
ATOM     72  C   UNL     1       6.144  -8.232   3.516  1.00  0.00     0.046 A 
ATOM     73  C   UNL     1       4.356  -9.061   2.102  1.00  0.00     0.010 A 
ATOM     74  H   UNL     1       7.574  -6.917   4.330  1.00  0.00     0.166 HD
ATOM     75  C   UNL     1       6.242  -9.460   4.176  1.00  0.00     0.026 A 
ATOM     76  C   UNL     1       4.430 -10.284   2.761  1.00  0.00     0.001 A 
ATOM     77  C   UNL     1       5.364 -10.479   3.778  1.00  0.00     0.002 A 
BRANCH  66  78
ATOM     78  C   UNL     1       6.805  -3.871   3.909  1.00  0.00     0.041 A 
ATOM     79  C   UNL     1       7.587  -4.138   5.032  1.00  0.00     0.093 A 
ATOM     80  C   UNL     1       6.018  -2.715   4.291  1.00  0.00     0.009 A 
ATOM     81  N   UNL     1       7.263  -3.281   6.043  1.00  0.00    -0.361 N 
ATOM     82  C   UNL     1       6.334  -2.375   5.611  1.00  0.00     0.046 A 
ATOM     83  C   UNL     1       5.056  -1.899   3.669  1.00  0.00     0.011 A 
ATOM     84  H   UNL     1       7.643  -3.311   6.951  1.00  0.00     0.166 HD
ATOM     85  C   UNL     1       5.757  -1.295   6.302  1.00  0.00     0.026 A 
ATOM     86  C   UNL     1       4.475  -0.804   4.324  1.00  0.00     0.001 A 
ATOM     87  C   UNL     1       4.827  -0.504   5.630  1.00  0.00     0.002 A 
ENDBRANCH  66  78
ENDBRANCH  60  62
ENDBRANCH  59  60
ENDBRANCH  58  59
ENDBRANCH  57  58
ENDBRANCH  56  57
ENDBRANCH   1  56
TORSDOF 15
