REMARK SMILES COc1ccc2c(c1)c(CC(=O)OCCOCCOC(=O)c1ccc(-c3c4nc(c(-c5ccccc5)c5ccc([nH]5)c(-c5ccccc5)c5nc(c(-c6ccccc6)c6ccc3[nH]6)C=C5)C=C4)cc1)c(C)n2Cc1ccc(Br)cc1
REMARK SMILES IDX 15 1 14 2 13 3 11 4 12 5 10 6 9 7 3 8 4 9 8 10 5 11 7 12
REMARK SMILES IDX 6 13 72 14 70 15 71 16 2 17 1 18 73 19 74 20 75 21 80 22
REMARK SMILES IDX 76 23 79 24 77 25 78 26 16 27 17 28 18 29 19 30 20 31 21 32
REMARK SMILES IDX 22 33 23 34 69 35 24 36 68 37 25 38 26 39 27 40 62 41 28 42
REMARK SMILES IDX 67 43 61 44 63 45 29 46 66 47 60 48 59 49 30 51 52 52 37 53
REMARK SMILES IDX 51 54 38 55 41 56 50 57 64 58 39 59 40 60 49 62 65 63 42 64
REMARK SMILES IDX 31 65 32 66 36 67 33 68 35 69 34 70 53 71 54 72 58 73 55 74
REMARK SMILES IDX 57 75 56 76 43 77 44 78 48 79 45 80 47 81 46 82
REMARK H PARENT 63 50 41 61
REMARK Flexibility Score: inf
ROOT
ATOM      1  C   UNL     1      -2.470   3.649   4.925  1.00  0.00     0.202 C 
ENDROOT
BRANCH   1   2
ATOM      2  C   UNL     1      -2.631   2.836   6.220  1.00  0.00     0.261 C 
BRANCH   2   3
ATOM      3  O   UNL     1      -2.009   1.541   6.192  1.00  0.00    -0.463 OA
BRANCH   3   4
ATOM      4  C   UNL     1      -2.877   0.496   6.156  1.00  0.00     0.310 C 
ATOM      5  O   UNL     1      -4.098   0.620   6.250  1.00  0.00    -0.252 OA
BRANCH   4   6
ATOM      6  C   UNL     1      -2.264  -0.872   5.944  1.00  0.00     0.160 C 
BRANCH   6   7
ATOM      7  C   UNL     1      -0.768  -1.004   5.864  1.00  0.00    -0.008 A 
ATOM      8  C   UNL     1       0.711  -0.777   2.338  1.00  0.00     0.119 A 
ATOM      9  C   UNL     1       2.042  -0.821   2.731  1.00  0.00     0.048 A 
ATOM     10  C   UNL     1      -0.288  -0.901   3.309  1.00  0.00     0.057 A 
ATOM     11  C   UNL     1       2.393  -0.988   4.087  1.00  0.00     0.031 A 
ATOM     12  C   UNL     1       0.029  -0.984   4.682  1.00  0.00     0.007 A 
ATOM     13  C   UNL     1       1.372  -1.075   5.058  1.00  0.00     0.049 A 
ATOM     14  N   UNL     1       1.393  -1.284   6.438  1.00  0.00    -0.340 N 
ATOM     15  C   UNL     1       0.081  -1.416   6.883  1.00  0.00     0.020 A 
ATOM     16  C   UNL     1      -0.339  -1.965   8.202  1.00  0.00     0.065 C 
BRANCH   8  17
ATOM     17  O   UNL     1       0.214  -0.500   1.096  1.00  0.00    -0.497 OA
ATOM     18  C   UNL     1       1.091  -0.445  -0.017  1.00  0.00     0.278 C 
ENDBRANCH   8  17
BRANCH  14  19
ATOM     19  C   UNL     1       2.608  -1.608   7.210  1.00  0.00     0.157 C 
BRANCH  19  20
ATOM     20  C   UNL     1       3.027  -0.585   8.254  1.00  0.00    -0.028 A 
ATOM     21  C   UNL     1       2.256  -0.329   9.398  1.00  0.00     0.007 A 
ATOM     22  C   UNL     1       4.269   0.064   8.164  1.00  0.00     0.007 A 
ATOM     23  C   UNL     1       2.654   0.584  10.377  1.00  0.00     0.016 A 
ATOM     24  C   UNL     1       4.691   0.963   9.157  1.00  0.00     0.016 A 
ATOM     25  C   UNL     1       3.872   1.232  10.250  1.00  0.00     0.017 A 
ATOM     26  Br  UNL     1       4.413   2.463  11.576  1.00  0.00    -0.051 Br
ENDBRANCH  19  20
ENDBRANCH  14  19
ENDBRANCH   6   7
ENDBRANCH   4   6
ENDBRANCH   3   4
ENDBRANCH   2   3
ENDBRANCH   1   2
BRANCH   1  27
ATOM     27  O   UNL     1      -2.604   3.025   3.659  1.00  0.00    -0.374 OA
BRANCH  27  28
ATOM     28  C   UNL     1      -1.612   2.064   3.305  1.00  0.00     0.202 C 
BRANCH  28  29
ATOM     29  C   UNL     1      -0.140   2.506   3.198  1.00  0.00     0.261 C 
BRANCH  29  30
ATOM     30  O   UNL     1       0.369   3.067   4.405  1.00  0.00    -0.460 OA
BRANCH  30  31
ATOM     31  C   UNL     1       1.224   4.114   4.220  1.00  0.00     0.338 C 
ATOM     32  O   UNL     1       1.871   4.396   3.241  1.00  0.00    -0.246 OA
BRANCH  31  33
ATOM     33  C   UNL     1       0.812   5.056   5.274  1.00  0.00     0.060 A 
ATOM     34  C   UNL     1       0.773   4.638   6.607  1.00  0.00     0.016 A 
ATOM     35  C   UNL     1       0.076   6.159   4.816  1.00  0.00     0.016 A 
ATOM     36  C   UNL     1      -0.105   5.274   7.472  1.00  0.00     0.010 A 
ATOM     37  C   UNL     1      -0.840   6.751   5.669  1.00  0.00     0.010 A 
ATOM     38  C   UNL     1      -0.954   6.281   6.982  1.00  0.00    -0.014 A 
BRANCH  38  39
ATOM     39  C   UNL     1      -1.758   7.030   7.943  1.00  0.00     0.031 A 
ATOM     40  C   UNL     1      -0.903   7.968   8.722  1.00  0.00     0.074 A 
ATOM     41  C   UNL     1      -3.104   7.036   8.017  1.00  0.00     0.049 A 
ATOM     42  N   UNL     1      -0.680   7.970   9.994  1.00  0.00    -0.248 NA
ATOM     43  C   UNL     1      -0.040   8.891   7.958  1.00  0.00     0.031 C 
ATOM     44  C   UNL     1      -4.072   6.414   7.119  1.00  0.00     0.029 A 
ATOM     45  N   UNL     1      -3.911   7.732   8.867  1.00  0.00    -0.354 N 
ATOM     46  C   UNL     1       0.230   9.001  10.209  1.00  0.00     0.074 A 
ATOM     47  C   UNL     1       0.742   9.374   8.919  1.00  0.00     0.031 C 
ATOM     48  C   UNL     1      -5.287   6.985   7.292  1.00  0.00     0.029 A 
ATOM     49  C   UNL     1      -5.207   7.923   8.396  1.00  0.00     0.049 A 
ATOM     50  H   UNL     1      -3.604   8.070   9.740  1.00  0.00     0.167 HD
ATOM     51  C   UNL     1       0.313   9.654  11.398  1.00  0.00     0.031 A 
ATOM     52  C   UNL     1      -6.094   8.867   8.814  1.00  0.00     0.031 A 
ATOM     53  C   UNL     1      -0.312   8.907  12.455  1.00  0.00     0.049 A 
ATOM     54  C   UNL     1      -5.620   9.363  10.130  1.00  0.00     0.074 A 
ATOM     55  C   UNL     1      -0.099   7.655  12.998  1.00  0.00     0.029 A 
ATOM     56  N   UNL     1      -1.585   9.274  12.825  1.00  0.00    -0.354 N 
ATOM     57  N   UNL     1      -5.606   8.642  11.213  1.00  0.00    -0.248 NA
ATOM     58  C   UNL     1      -4.715  10.504  10.117  1.00  0.00     0.031 C 
ATOM     59  C   UNL     1      -1.402   7.133  13.224  1.00  0.00     0.029 A 
ATOM     60  C   UNL     1      -2.330   8.126  12.904  1.00  0.00     0.049 A 
ATOM     61  H   UNL     1      -1.902  10.189  12.999  1.00  0.00     0.167 HD
ATOM     62  C   UNL     1      -4.399   8.955  11.822  1.00  0.00     0.074 A 
ATOM     63  C   UNL     1      -3.920  10.153  11.131  1.00  0.00     0.031 C 
ATOM     64  C   UNL     1      -3.746   8.060  12.618  1.00  0.00     0.031 A 
BRANCH  51  65
ATOM     65  C   UNL     1       0.613  11.127  11.505  1.00  0.00    -0.014 A 
ATOM     66  C   UNL     1       0.591  12.012  10.408  1.00  0.00     0.009 A 
ATOM     67  C   UNL     1       0.674  11.712  12.780  1.00  0.00     0.009 A 
ATOM     68  C   UNL     1       0.620  13.399  10.565  1.00  0.00     0.001 A 
ATOM     69  C   UNL     1       0.656  13.103  12.945  1.00  0.00     0.001 A 
ATOM     70  C   UNL     1       0.628  13.945  11.838  1.00  0.00     0.000 A 
ENDBRANCH  51  65
BRANCH  52  71
ATOM     71  C   UNL     1      -7.003   9.691   7.969  1.00  0.00    -0.014 A 
ATOM     72  C   UNL     1      -6.736   9.880   6.600  1.00  0.00     0.009 A 
ATOM     73  C   UNL     1      -7.946  10.548   8.566  1.00  0.00     0.009 A 
ATOM     74  C   UNL     1      -7.332  10.917   5.874  1.00  0.00     0.001 A 
ATOM     75  C   UNL     1      -8.540  11.592   7.839  1.00  0.00     0.001 A 
ATOM     76  C   UNL     1      -8.216  11.788   6.499  1.00  0.00     0.000 A 
ENDBRANCH  52  71
BRANCH  64  77
ATOM     77  C   UNL     1      -4.439   6.782  13.029  1.00  0.00    -0.014 A 
ATOM     78  C   UNL     1      -4.367   6.419  14.384  1.00  0.00     0.009 A 
ATOM     79  C   UNL     1      -4.948   5.840  12.118  1.00  0.00     0.009 A 
ATOM     80  C   UNL     1      -4.754   5.150  14.815  1.00  0.00     0.001 A 
ATOM     81  C   UNL     1      -5.365   4.576  12.555  1.00  0.00     0.001 A 
ATOM     82  C   UNL     1      -5.253   4.228  13.900  1.00  0.00     0.000 A 
ENDBRANCH  64  77
ENDBRANCH  38  39
ENDBRANCH  31  33
ENDBRANCH  30  31
ENDBRANCH  29  30
ENDBRANCH  28  29
ENDBRANCH  27  28
ENDBRANCH   1  27
TORSDOF 18
