REMARK SMILES O=C1NC(=O)/C(=C/c2ccc(OCc3cn(-c4ccc(C(=O)OCCOCCOC(=O)c5ccc(-c6c7nc(c(-c8ccccc8)c8ccc([nH]8)c(-c8ccccc8)c8nc(c(-c9ccccc9)c9ccc6[nH]9)C=C8)C=C7)cc5)cc4)nn3)cc2)S1
REMARK SMILES IDX 24 1 23 2 21 3 22 4 20 5 17 6 18 7 81 8 19 9 80 10 16 11
REMARK SMILES IDX 14 12 15 13 83 14 82 15 13 16 12 17 11 18 8 19 9 20 85 21
REMARK SMILES IDX 10 22 84 23 7 24 1 25 2 26 3 27 86 28 4 29 6 31 5 32 25 33
REMARK SMILES IDX 26 34 27 35 28 36 29 37 30 38 31 39 32 40 33 41 79 42 34 43
REMARK SMILES IDX 78 44 35 45 36 46 37 47 72 48 38 49 77 50 71 51 73 52 39 53
REMARK SMILES IDX 76 54 70 55 69 56 40 58 62 59 47 60 61 61 48 62 51 63 60 64
REMARK SMILES IDX 74 65 49 66 50 67 59 69 75 70 52 71 41 72 42 73 46 74 43 75
REMARK SMILES IDX 45 76 44 77 63 78 64 79 68 80 65 81 67 82 66 83 53 84 54 85
REMARK SMILES IDX 58 86 55 87 57 88 56 89
REMARK H PARENT 3 30 73 57 51 68
REMARK Flexibility Score: inf
ROOT
ATOM      1  C   UNL     1      -9.601  10.352   0.483  1.00  0.00     0.261 C 
ENDROOT
BRANCH   1   2
ATOM      2  O   UNL     1      -8.264   9.882   0.263  1.00  0.00    -0.460 OA
BRANCH   2   3
ATOM      3  C   UNL     1      -7.551   9.718   1.402  1.00  0.00     0.338 C 
ATOM      4  O   UNL     1      -7.915   9.958   2.542  1.00  0.00    -0.246 OA
BRANCH   3   5
ATOM      5  C   UNL     1      -6.285   9.023   1.117  1.00  0.00     0.060 A 
ATOM      6  C   UNL     1      -3.766   7.886   0.915  1.00  0.00     0.066 A 
ATOM      7  C   UNL     1      -4.674   7.385   1.858  1.00  0.00     0.029 A 
ATOM      8  C   UNL     1      -4.153   8.880   0.004  1.00  0.00     0.029 A 
ATOM      9  C   UNL     1      -5.920   7.983   1.981  1.00  0.00     0.018 A 
ATOM     10  C   UNL     1      -5.433   9.431   0.087  1.00  0.00     0.018 A 
BRANCH   6  11
ATOM     11  N   UNL     1      -2.427   7.451   0.986  1.00  0.00    -0.220 N 
ATOM     12  C   UNL     1      -0.254   7.380   1.149  1.00  0.00     0.120 A 
ATOM     13  C   UNL     1      -1.289   8.165   0.685  1.00  0.00     0.144 A 
ATOM     14  N   UNL     1      -0.782   6.227   1.664  1.00  0.00    -0.131 NA
ATOM     15  N   UNL     1      -2.096   6.282   1.570  1.00  0.00    -0.062 NA
BRANCH  12  16
ATOM     16  C   UNL     1       1.208   7.664   1.264  1.00  0.00     0.289 C 
BRANCH  16  17
ATOM     17  O   UNL     1       2.039   7.003   0.295  1.00  0.00    -0.487 OA
BRANCH  17  18
ATOM     18  C   UNL     1       2.146   5.640   0.361  1.00  0.00     0.119 A 
ATOM     19  C   UNL     1       2.181   2.840   0.131  1.00  0.00    -0.024 A 
ATOM     20  C   UNL     1       2.694   3.636  -0.896  1.00  0.00     0.012 A 
ATOM     21  C   UNL     1       1.741   3.451   1.307  1.00  0.00     0.012 A 
ATOM     22  C   UNL     1       2.669   5.031  -0.781  1.00  0.00     0.047 A 
ATOM     23  C   UNL     1       1.751   4.841   1.431  1.00  0.00     0.047 A 
BRANCH  19  24
ATOM     24  C   UNL     1       2.122   1.383  -0.004  1.00  0.00     0.029 C 
ATOM     25  O   UNL     1      -2.453  -0.731   0.019  1.00  0.00    -0.261 OA
ATOM     26  C   UNL     1      -1.262  -0.444  -0.006  1.00  0.00     0.290 C 
ATOM     27  N   UNL     1      -0.237  -1.327  -0.043  1.00  0.00    -0.282 N 
ATOM     28  S   UNL     1      -0.640   1.191   0.000  1.00  0.00    -0.022 SA
ATOM     29  C   UNL     1       1.034  -0.835  -0.072  1.00  0.00     0.265 C 
ATOM     30  H   UNL     1      -0.405  -2.297  -0.048  1.00  0.00     0.174 HD
ATOM     31  C   UNL     1       1.000   0.651  -0.031  1.00  0.00     0.083 C 
ATOM     32  O   UNL     1       2.044  -1.518  -0.110  1.00  0.00    -0.268 OA
ENDBRANCH  19  24
ENDBRANCH  17  18
ENDBRANCH  16  17
ENDBRANCH  12  16
ENDBRANCH   6  11
ENDBRANCH   3   5
ENDBRANCH   2   3
ENDBRANCH   1   2
BRANCH   1  33
ATOM     33  C   UNL     1     -10.661   9.275   0.247  1.00  0.00     0.202 C 
BRANCH  33  34
ATOM     34  O   UNL     1     -10.655   8.095   1.049  1.00  0.00    -0.374 OA
BRANCH  34  35
ATOM     35  C   UNL     1      -9.590   7.155   0.961  1.00  0.00     0.202 C 
BRANCH  35  36
ATOM     36  C   UNL     1      -9.442   6.319  -0.301  1.00  0.00     0.261 C 
BRANCH  36  37
ATOM     37  O   UNL     1      -9.347   7.128  -1.460  1.00  0.00    -0.460 OA
BRANCH  37  38
ATOM     38  C   UNL     1     -10.516   7.251  -2.126  1.00  0.00     0.338 C 
ATOM     39  O   UNL     1     -11.627   6.924  -1.745  1.00  0.00    -0.246 OA
BRANCH  38  40
ATOM     40  C   UNL     1     -10.222   7.699  -3.490  1.00  0.00     0.060 A 
ATOM     41  C   UNL     1     -11.311   7.669  -4.361  1.00  0.00     0.016 A 
ATOM     42  C   UNL     1      -8.894   7.652  -3.935  1.00  0.00     0.016 A 
ATOM     43  C   UNL     1     -11.079   7.242  -5.643  1.00  0.00     0.010 A 
ATOM     44  C   UNL     1      -8.667   7.200  -5.205  1.00  0.00     0.010 A 
ATOM     45  C   UNL     1      -9.770   6.897  -5.998  1.00  0.00    -0.014 A 
BRANCH  45  46
ATOM     46  C   UNL     1      -9.547   6.343  -7.310  1.00  0.00     0.031 A 
ATOM     47  C   UNL     1      -9.636   7.402  -8.335  1.00  0.00     0.074 A 
ATOM     48  C   UNL     1      -9.202   5.057  -7.506  1.00  0.00     0.049 A 
ATOM     49  N   UNL     1     -10.601   7.598  -9.169  1.00  0.00    -0.248 NA
ATOM     50  C   UNL     1      -8.682   8.525  -8.239  1.00  0.00     0.031 C 
ATOM     51  C   UNL     1      -8.855   4.037  -6.511  1.00  0.00     0.029 A 
ATOM     52  N   UNL     1      -8.986   4.410  -8.678  1.00  0.00    -0.354 N 
ATOM     53  C   UNL     1     -10.239   8.739  -9.872  1.00  0.00     0.074 A 
ATOM     54  C   UNL     1      -9.229   9.395  -9.086  1.00  0.00     0.031 C 
ATOM     55  C   UNL     1      -8.231   3.005  -7.131  1.00  0.00     0.029 A 
ATOM     56  C   UNL     1      -8.254   3.234  -8.566  1.00  0.00     0.049 A 
ATOM     57  H   UNL     1      -9.322   4.746  -9.540  1.00  0.00     0.167 HD
ATOM     58  C   UNL     1     -10.512   8.839 -11.201  1.00  0.00     0.031 A 
ATOM     59  C   UNL     1      -7.659   2.562  -9.587  1.00  0.00     0.031 A 
ATOM     60  C   UNL     1     -11.542   7.905 -11.589  1.00  0.00     0.049 A 
ATOM     61  C   UNL     1      -8.275   3.044 -10.849  1.00  0.00     0.074 A 
ATOM     62  C   UNL     1     -12.854   7.690 -11.218  1.00  0.00     0.029 A 
ATOM     63  N   UNL     1     -11.119   6.743 -12.191  1.00  0.00    -0.354 N 
ATOM     64  N   UNL     1      -9.512   2.803 -11.172  1.00  0.00    -0.248 NA
ATOM     65  C   UNL     1      -7.673   4.201 -11.496  1.00  0.00     0.031 C 
ATOM     66  C   UNL     1     -13.010   6.272 -11.210  1.00  0.00     0.029 A 
ATOM     67  C   UNL     1     -11.820   5.696 -11.657  1.00  0.00     0.049 A 
ATOM     68  H   UNL     1     -10.428   6.675 -12.889  1.00  0.00     0.167 HD
ATOM     69  C   UNL     1      -9.982   4.006 -11.682  1.00  0.00     0.074 A 
ATOM     70  C   UNL     1      -8.781   4.805 -11.937  1.00  0.00     0.031 C 
ATOM     71  C   UNL     1     -11.298   4.351 -11.557  1.00  0.00     0.031 A 
BRANCH  58  72
ATOM     72  C   UNL     1      -9.491   9.364 -12.189  1.00  0.00    -0.014 A 
ATOM     73  C   UNL     1      -9.817   9.319 -13.555  1.00  0.00     0.009 A 
ATOM     74  C   UNL     1      -8.138   9.606 -11.877  1.00  0.00     0.009 A 
ATOM     75  C   UNL     1      -8.827   9.391 -14.541  1.00  0.00     0.001 A 
ATOM     76  C   UNL     1      -7.152   9.717 -12.858  1.00  0.00     0.001 A 
ATOM     77  C   UNL     1      -7.494   9.573 -14.192  1.00  0.00     0.000 A 
ENDBRANCH  58  72
BRANCH  59  78
ATOM     78  C   UNL     1      -6.383   1.805  -9.592  1.00  0.00    -0.014 A 
ATOM     79  C   UNL     1      -6.056   0.950 -10.659  1.00  0.00     0.009 A 
ATOM     80  C   UNL     1      -5.355   2.143  -8.693  1.00  0.00     0.009 A 
ATOM     81  C   UNL     1      -4.744   0.484 -10.839  1.00  0.00     0.001 A 
ATOM     82  C   UNL     1      -4.046   1.679  -8.872  1.00  0.00     0.001 A 
ATOM     83  C   UNL     1      -3.737   0.862  -9.954  1.00  0.00     0.000 A 
ENDBRANCH  59  78
BRANCH  71  84
ATOM     84  C   UNL     1     -12.260   3.294 -11.069  1.00  0.00    -0.014 A 
ATOM     85  C   UNL     1     -12.191   2.705  -9.793  1.00  0.00     0.009 A 
ATOM     86  C   UNL     1     -13.364   2.997 -11.880  1.00  0.00     0.009 A 
ATOM     87  C   UNL     1     -13.189   1.825  -9.357  1.00  0.00     0.001 A 
ATOM     88  C   UNL     1     -14.369   2.136 -11.438  1.00  0.00     0.001 A 
ATOM     89  C   UNL     1     -14.280   1.546 -10.179  1.00  0.00     0.000 A 
ENDBRANCH  71  84
ENDBRANCH  45  46
ENDBRANCH  38  40
ENDBRANCH  37  38
ENDBRANCH  36  37
ENDBRANCH  35  36
ENDBRANCH  34  35
ENDBRANCH  33  34
ENDBRANCH   1  33
TORSDOF 19
