REMARK SMILES O=C(OCCOCCOC(=O)c1cc(-c2ccc(C(F)(F)F)cc2)cc([N+](=O)[O-])c1)c1ccc(-c2c3nc(c(-c4ccccc4)c4ccc([nH]4)c(-c4ccccc4)c4nc(c(-c5ccccc5)c5ccc2[nH]5)C=C4)C=C3)cc1
REMARK SMILES IDX 6 1 5 2 4 3 3 4 2 5 1 6 31 7 32 8 78 9 33 10 77 11 34 12
REMARK SMILES IDX 35 13 36 14 71 15 37 16 76 17 70 18 72 19 38 20 75 21 69 22
REMARK SMILES IDX 68 23 39 25 61 26 46 27 60 28 47 29 50 30 59 31 73 32 48 33
REMARK SMILES IDX 49 34 58 36 74 37 51 38 40 39 41 40 45 41 42 42 44 43 43 44
REMARK SMILES IDX 62 45 63 46 67 47 64 48 66 49 65 50 52 51 53 52 57 53 54 54
REMARK SMILES IDX 56 55 55 56 7 57 8 58 9 59 10 60 11 61 12 62 13 63 30 64
REMARK SMILES IDX 14 65 26 66 25 67 15 68 16 69 24 70 17 71 23 72 18 73 19 74
REMARK SMILES IDX 20 75 21 76 22 77 27 78 28 79 29 80
REMARK H PARENT 72 24 50 35
REMARK Flexibility Score: inf
ROOT
ATOM      1  O   UNL     1       3.963  -0.177   1.654  1.00  0.00    -0.374 OA
ENDROOT
BRANCH   1   2
ATOM      2  C   UNL     1       4.277   1.152   1.244  1.00  0.00     0.202 C 
BRANCH   2   3
ATOM      3  C   UNL     1       4.009   1.445  -0.236  1.00  0.00     0.261 C 
BRANCH   3   4
ATOM      4  O   UNL     1       2.633   1.186  -0.559  1.00  0.00    -0.460 OA
BRANCH   4   5
ATOM      5  C   UNL     1       2.126   0.130  -1.238  1.00  0.00     0.338 C 
ATOM      6  O   UNL     1       0.920   0.099  -1.475  1.00  0.00    -0.246 OA
BRANCH   5   7
ATOM      7  C   UNL     1       2.957  -1.019  -1.706  1.00  0.00     0.060 A 
ATOM      8  C   UNL     1       4.102  -1.477  -1.054  1.00  0.00     0.016 A 
ATOM      9  C   UNL     1       2.483  -1.758  -2.801  1.00  0.00     0.016 A 
ATOM     10  C   UNL     1       4.778  -2.607  -1.470  1.00  0.00     0.010 A 
ATOM     11  C   UNL     1       3.133  -2.928  -3.207  1.00  0.00     0.010 A 
ATOM     12  C   UNL     1       4.278  -3.354  -2.526  1.00  0.00    -0.014 A 
BRANCH  12  13
ATOM     13  C   UNL     1       5.027  -4.561  -2.896  1.00  0.00     0.031 A 
ATOM     14  C   UNL     1       5.906  -4.510  -4.100  1.00  0.00     0.074 A 
ATOM     15  C   UNL     1       5.015  -5.613  -2.056  1.00  0.00     0.049 A 
ATOM     16  N   UNL     1       6.626  -5.458  -4.630  1.00  0.00    -0.248 NA
ATOM     17  C   UNL     1       6.004  -3.212  -4.792  1.00  0.00     0.031 C 
ATOM     18  C   UNL     1       4.295  -5.667  -0.777  1.00  0.00     0.029 A 
ATOM     19  N   UNL     1       5.651  -6.821  -2.127  1.00  0.00    -0.354 N 
ATOM     20  C   UNL     1       7.231  -4.886  -5.739  1.00  0.00     0.074 A 
ATOM     21  C   UNL     1       6.809  -3.506  -5.802  1.00  0.00     0.031 C 
ATOM     22  C   UNL     1       4.544  -6.843  -0.181  1.00  0.00     0.029 A 
ATOM     23  C   UNL     1       5.367  -7.651  -1.070  1.00  0.00     0.049 A 
ATOM     24  H   UNL     1       6.253  -7.072  -2.865  1.00  0.00     0.167 HD
ATOM     25  C   UNL     1       8.049  -5.484  -6.632  1.00  0.00     0.031 A 
ATOM     26  C   UNL     1       5.698  -8.941  -0.880  1.00  0.00     0.031 A 
ATOM     27  C   UNL     1       8.437  -6.864  -6.535  1.00  0.00     0.049 A 
ATOM     28  C   UNL     1       6.510  -9.609  -1.956  1.00  0.00     0.074 A 
ATOM     29  C   UNL     1       9.219  -7.604  -7.399  1.00  0.00     0.029 A 
ATOM     30  N   UNL     1       8.058  -7.710  -5.501  1.00  0.00    -0.354 N 
ATOM     31  N   UNL     1       7.041  -9.083  -3.036  1.00  0.00    -0.248 NA
ATOM     32  C   UNL     1       6.752 -11.048  -1.804  1.00  0.00     0.031 C 
ATOM     33  C   UNL     1       9.258  -8.918  -6.921  1.00  0.00     0.029 A 
ATOM     34  C   UNL     1       8.559  -8.978  -5.724  1.00  0.00     0.049 A 
ATOM     35  H   UNL     1       7.514  -7.445  -4.724  1.00  0.00     0.167 HD
ATOM     36  C   UNL     1       7.689 -10.122  -3.686  1.00  0.00     0.074 A 
ATOM     37  C   UNL     1       7.513 -11.301  -2.859  1.00  0.00     0.031 C 
ATOM     38  C   UNL     1       8.359 -10.116  -4.864  1.00  0.00     0.031 A 
BRANCH  25  39
ATOM     39  C   UNL     1       8.480  -4.680  -7.822  1.00  0.00    -0.014 A 
ATOM     40  C   UNL     1       9.432  -3.654  -7.721  1.00  0.00     0.009 A 
ATOM     41  C   UNL     1       7.916  -4.965  -9.075  1.00  0.00     0.009 A 
ATOM     42  C   UNL     1       9.791  -2.914  -8.851  1.00  0.00     0.001 A 
ATOM     43  C   UNL     1       8.295  -4.241 -10.206  1.00  0.00     0.001 A 
ATOM     44  C   UNL     1       9.227  -3.212 -10.092  1.00  0.00     0.000 A 
ENDBRANCH  25  39
BRANCH  26  45
ATOM     45  C   UNL     1       5.180  -9.706   0.288  1.00  0.00    -0.014 A 
ATOM     46  C   UNL     1       6.051 -10.293   1.218  1.00  0.00     0.009 A 
ATOM     47  C   UNL     1       3.797  -9.905   0.446  1.00  0.00     0.009 A 
ATOM     48  C   UNL     1       5.552 -11.097   2.248  1.00  0.00     0.001 A 
ATOM     49  C   UNL     1       3.299 -10.677   1.498  1.00  0.00     0.001 A 
ATOM     50  C   UNL     1       4.178 -11.287   2.388  1.00  0.00     0.000 A 
ENDBRANCH  26  45
BRANCH  38  51
ATOM     51  C   UNL     1       8.966 -11.417  -5.298  1.00  0.00    -0.014 A 
ATOM     52  C   UNL     1       8.166 -12.472  -5.763  1.00  0.00     0.009 A 
ATOM     53  C   UNL     1      10.362 -11.564  -5.290  1.00  0.00     0.009 A 
ATOM     54  C   UNL     1       8.754 -13.664  -6.184  1.00  0.00     0.001 A 
ATOM     55  C   UNL     1      10.947 -12.743  -5.745  1.00  0.00     0.001 A 
ATOM     56  C   UNL     1      10.143 -13.795  -6.182  1.00  0.00     0.000 A 
ENDBRANCH  38  51
ENDBRANCH  12  13
ENDBRANCH   5   7
ENDBRANCH   4   5
ENDBRANCH   3   4
ENDBRANCH   2   3
ENDBRANCH   1   2
BRANCH   1  57
ATOM     57  C   UNL     1       2.600  -0.432   2.014  1.00  0.00     0.202 C 
BRANCH  57  58
ATOM     58  C   UNL     1       2.577  -1.219   3.327  1.00  0.00     0.261 C 
BRANCH  58  59
ATOM     59  O   UNL     1       3.165  -0.394   4.344  1.00  0.00    -0.460 OA
BRANCH  59  60
ATOM     60  C   UNL     1       4.522  -0.444   4.391  1.00  0.00     0.338 C 
ATOM     61  O   UNL     1       5.252  -1.323   3.980  1.00  0.00    -0.246 OA
BRANCH  60  62
ATOM     62  C   UNL     1       5.002   0.875   4.857  1.00  0.00     0.067 A 
ATOM     63  C   UNL     1       6.183   1.392   4.301  1.00  0.00     0.025 A 
ATOM     64  C   UNL     1       4.304   1.589   5.832  1.00  0.00     0.101 A 
ATOM     65  C   UNL     1       6.688   2.631   4.720  1.00  0.00    -0.011 A 
ATOM     66  C   UNL     1       4.811   2.817   6.259  1.00  0.00     0.270 A 
ATOM     67  C   UNL     1       5.985   3.348   5.701  1.00  0.00     0.094 A 
BRANCH  65  68
ATOM     68  C   UNL     1       8.007   3.086   4.270  1.00  0.00    -0.018 A 
ATOM     69  C   UNL     1       8.207   3.800   3.082  1.00  0.00     0.009 A 
ATOM     70  C   UNL     1       9.121   2.786   5.068  1.00  0.00     0.009 A 
ATOM     71  C   UNL     1       9.497   4.206   2.708  1.00  0.00     0.014 A 
ATOM     72  C   UNL     1      10.403   3.187   4.698  1.00  0.00     0.014 A 
ATOM     73  C   UNL     1      10.607   3.904   3.514  1.00  0.00     0.056 A 
BRANCH  73  74
ATOM     74  C   UNL     1      11.996   4.340   3.112  1.00  0.00     0.416 C 
ATOM     75  F   UNL     1      12.388   3.804   1.924  1.00  0.00    -0.166 F 
ATOM     76  F   UNL     1      12.097   5.690   2.967  1.00  0.00    -0.166 F 
ATOM     77  F   UNL     1      12.957   3.990   4.013  1.00  0.00    -0.166 F 
ENDBRANCH  73  74
ENDBRANCH  65  68
BRANCH  66  78
ATOM     78  N   UNL     1       4.145   3.520   7.359  1.00  0.00     0.062 N 
ATOM     79  O   UNL     1       4.751   4.460   7.889  1.00  0.00    -0.258 OA
ATOM     80  O   UNL     1       3.024   3.119   7.700  1.00  0.00    -0.258 OA
ENDBRANCH  66  78
ENDBRANCH  60  62
ENDBRANCH  59  60
ENDBRANCH  58  59
ENDBRANCH  57  58
ENDBRANCH   1  57
TORSDOF 17
