REMARK SMILES O=C(OCCOCCOC(=O)[C@H]1CCCCN1C(=O)c1cn2ccccc2n1)c1ccc(-c2c3nc(c(-c4ccccc4)c4ccc([nH]4)c(-c4ccccc4)c4nc(c(-c5ccccc5)c5ccc2[nH]5)C=C4)C=C3)cc1
REMARK SMILES IDX 6 1 5 2 4 3 3 4 2 5 1 6 29 7 30 8 76 9 31 10 75 11 32 12
REMARK SMILES IDX 33 13 34 14 69 15 35 16 74 17 68 18 70 19 36 20 73 21 67 22
REMARK SMILES IDX 66 23 37 25 59 26 44 27 58 28 45 29 48 30 57 31 71 32 46 33
REMARK SMILES IDX 47 34 56 36 72 37 49 38 38 39 39 40 43 41 40 42 42 43 41 44
REMARK SMILES IDX 60 45 61 46 65 47 62 48 64 49 63 50 50 51 51 52 55 53 52 54
REMARK SMILES IDX 54 55 53 56 7 57 8 58 9 59 10 60 11 61 12 62 13 63 17 64
REMARK SMILES IDX 14 65 16 66 15 67 18 68 19 69 20 70 21 71 28 72 22 73 27 74
REMARK SMILES IDX 23 75 26 76 24 77 25 78
REMARK H PARENT 70 24 48 35
REMARK Flexibility Score: inf
ROOT
ATOM      1  O   UNL     1       7.694  -3.623   0.747  1.00  0.00    -0.374 OA
ENDROOT
BRANCH   1   2
ATOM      2  C   UNL     1       6.674  -4.002   1.664  1.00  0.00     0.202 C 
BRANCH   2   3
ATOM      3  C   UNL     1       7.110  -4.095   3.127  1.00  0.00     0.261 C 
BRANCH   3   4
ATOM      4  O   UNL     1       7.680  -2.845   3.559  1.00  0.00    -0.460 OA
BRANCH   4   5
ATOM      5  C   UNL     1       9.004  -2.568   3.663  1.00  0.00     0.338 C 
ATOM      6  O   UNL     1       9.386  -1.447   3.983  1.00  0.00    -0.246 OA
BRANCH   5   7
ATOM      7  C   UNL     1      10.003  -3.647   3.499  1.00  0.00     0.060 A 
ATOM      8  C   UNL     1       9.987  -4.524   2.417  1.00  0.00     0.016 A 
ATOM      9  C   UNL     1      11.021  -3.763   4.448  1.00  0.00     0.016 A 
ATOM     10  C   UNL     1      10.841  -5.597   2.342  1.00  0.00     0.010 A 
ATOM     11  C   UNL     1      11.970  -4.776   4.317  1.00  0.00     0.010 A 
ATOM     12  C   UNL     1      11.863  -5.704   3.270  1.00  0.00    -0.014 A 
BRANCH  12  13
ATOM     13  C   UNL     1      12.788  -6.831   3.132  1.00  0.00     0.031 A 
ATOM     14  C   UNL     1      12.759  -7.894   4.173  1.00  0.00     0.074 A 
ATOM     15  C   UNL     1      13.569  -6.905   2.041  1.00  0.00     0.049 A 
ATOM     16  N   UNL     1      13.617  -8.846   4.397  1.00  0.00    -0.248 NA
ATOM     17  C   UNL     1      11.611  -7.873   5.096  1.00  0.00     0.031 C 
ATOM     18  C   UNL     1      13.530  -5.979   0.902  1.00  0.00     0.029 A 
ATOM     19  N   UNL     1      14.539  -7.804   1.704  1.00  0.00    -0.354 N 
ATOM     20  C   UNL     1      13.157  -9.491   5.536  1.00  0.00     0.074 A 
ATOM     21  C   UNL     1      11.931  -8.841   5.940  1.00  0.00     0.031 C 
ATOM     22  C   UNL     1      14.428  -6.369  -0.013  1.00  0.00     0.029 A 
ATOM     23  C   UNL     1      15.176  -7.493   0.528  1.00  0.00     0.049 A 
ATOM     24  H   UNL     1      14.758  -8.595   2.247  1.00  0.00     0.167 HD
ATOM     25  C   UNL     1      13.749 -10.514   6.192  1.00  0.00     0.031 A 
ATOM     26  C   UNL     1      16.294  -8.015  -0.003  1.00  0.00     0.031 A 
ATOM     27  C   UNL     1      14.977 -11.108   5.739  1.00  0.00     0.049 A 
ATOM     28  C   UNL     1      16.982  -9.095   0.779  1.00  0.00     0.074 A 
ATOM     29  C   UNL     1      15.734 -12.102   6.326  1.00  0.00     0.029 A 
ATOM     30  N   UNL     1      15.623 -10.748   4.560  1.00  0.00    -0.354 N 
ATOM     31  N   UNL     1      16.620  -9.638   1.920  1.00  0.00    -0.248 NA
ATOM     32  C   UNL     1      18.232  -9.618   0.225  1.00  0.00     0.031 C 
ATOM     33  C   UNL     1      16.861 -12.311   5.522  1.00  0.00     0.029 A 
ATOM     34  C   UNL     1      16.775 -11.491   4.404  1.00  0.00     0.049 A 
ATOM     35  H   UNL     1      15.304 -10.062   3.930  1.00  0.00     0.167 HD
ATOM     36  C   UNL     1      17.588 -10.584   2.215  1.00  0.00     0.074 A 
ATOM     37  C   UNL     1      18.547 -10.543   1.124  1.00  0.00     0.031 C 
ATOM     38  C   UNL     1      17.684 -11.411   3.285  1.00  0.00     0.031 A 
BRANCH  25  39
ATOM     39  C   UNL     1      13.130 -10.927   7.496  1.00  0.00    -0.014 A 
ATOM     40  C   UNL     1      11.881 -11.567   7.559  1.00  0.00     0.009 A 
ATOM     41  C   UNL     1      13.775 -10.587   8.696  1.00  0.00     0.009 A 
ATOM     42  C   UNL     1      11.268 -11.802   8.793  1.00  0.00     0.001 A 
ATOM     43  C   UNL     1      13.175 -10.850   9.928  1.00  0.00     0.001 A 
ATOM     44  C   UNL     1      11.914 -11.441   9.976  1.00  0.00     0.000 A 
ENDBRANCH  25  39
BRANCH  26  45
ATOM     45  C   UNL     1      16.845  -7.460  -1.267  1.00  0.00    -0.014 A 
ATOM     46  C   UNL     1      16.833  -8.215  -2.447  1.00  0.00     0.009 A 
ATOM     47  C   UNL     1      17.333  -6.142  -1.314  1.00  0.00     0.009 A 
ATOM     48  C   UNL     1      17.305  -7.666  -3.644  1.00  0.00     0.001 A 
ATOM     49  C   UNL     1      17.775  -5.585  -2.517  1.00  0.00     0.001 A 
ATOM     50  C   UNL     1      17.767  -6.351  -3.680  1.00  0.00     0.000 A 
ENDBRANCH  26  45
BRANCH  38  51
ATOM     51  C   UNL     1      18.831 -12.374   3.285  1.00  0.00    -0.014 A 
ATOM     52  C   UNL     1      20.134 -11.957   3.591  1.00  0.00     0.009 A 
ATOM     53  C   UNL     1      18.578 -13.734   3.048  1.00  0.00     0.009 A 
ATOM     54  C   UNL     1      21.170 -12.888   3.644  1.00  0.00     0.001 A 
ATOM     55  C   UNL     1      19.611 -14.665   3.129  1.00  0.00     0.001 A 
ATOM     56  C   UNL     1      20.906 -14.241   3.422  1.00  0.00     0.000 A 
ENDBRANCH  38  51
ENDBRANCH  12  13
ENDBRANCH   5   7
ENDBRANCH   4   5
ENDBRANCH   3   4
ENDBRANCH   2   3
ENDBRANCH   1   2
BRANCH   1  57
ATOM     57  C   UNL     1       7.805  -2.220   0.502  1.00  0.00     0.202 C 
BRANCH  57  58
ATOM     58  C   UNL     1       7.122  -1.872  -0.813  1.00  0.00     0.261 C 
BRANCH  58  59
ATOM     59  O   UNL     1       5.747  -2.290  -0.738  1.00  0.00    -0.462 OA
BRANCH  59  60
ATOM     60  C   UNL     1       5.471  -3.510  -1.272  1.00  0.00     0.328 C 
ATOM     61  O   UNL     1       6.262  -4.152  -1.958  1.00  0.00    -0.250 OA
BRANCH  60  62
ATOM     62  C   UNL     1       4.005  -3.946  -1.008  1.00  0.00     0.195 C 
ATOM     63  C   UNL     1       3.752  -5.275  -1.734  1.00  0.00     0.037 C 
ATOM     64  N   UNL     1       3.527  -3.984   0.404  1.00  0.00    -0.323 N 
ATOM     65  C   UNL     1       4.296  -6.446  -0.926  1.00  0.00     0.005 C 
ATOM     66  C   UNL     1       3.498  -5.247   1.159  1.00  0.00     0.121 C 
ATOM     67  C   UNL     1       3.505  -6.543   0.361  1.00  0.00     0.022 C 
BRANCH  64  68
ATOM     68  C   UNL     1       3.184  -2.760   1.020  1.00  0.00     0.274 C 
ATOM     69  O   UNL     1       3.319  -1.679   0.467  1.00  0.00    -0.267 OA
BRANCH  68  70
ATOM     70  C   UNL     1       2.646  -2.842   2.385  1.00  0.00     0.147 A 
ATOM     71  C   UNL     1       3.337  -2.711   3.578  1.00  0.00     0.127 A 
ATOM     72  N   UNL     1       1.309  -3.101   2.631  1.00  0.00    -0.223 NA
ATOM     73  N   UNL     1       2.403  -2.893   4.570  1.00  0.00    -0.306 N 
ATOM     74  C   UNL     1       1.180  -3.087   3.939  1.00  0.00     0.137 A 
ATOM     75  C   UNL     1       2.560  -2.908   5.956  1.00  0.00     0.093 A 
ATOM     76  C   UNL     1       0.035  -3.247   4.768  1.00  0.00     0.048 A 
ATOM     77  C   UNL     1       1.479  -3.092   6.737  1.00  0.00     0.018 A 
ATOM     78  C   UNL     1       0.175  -3.248   6.108  1.00  0.00     0.005 A 
ENDBRANCH  68  70
ENDBRANCH  64  68
ENDBRANCH  60  62
ENDBRANCH  59  60
ENDBRANCH  58  59
ENDBRANCH  57  58
ENDBRANCH   1  57
TORSDOF 16
