REMARK SMILES O=C(OCCOCCOC(=O)[C@@H](Cc1c[nH]c2ccccc12)Nc1ncnc2ccccc12)c1ccc(-c2c3nc(c(-c4ccccc4)c4ccc([nH]4)c(-c4ccccc4)c4nc(c(-c5ccccc5)c5ccc2[nH]5)C=C4)C=C3)cc1
REMARK SMILES IDX 6 1 5 2 4 3 3 4 2 5 1 6 34 7 35 8 81 9 36 10 80 11 37 12
REMARK SMILES IDX 38 13 39 14 74 15 40 16 79 17 73 18 75 19 41 20 78 21 72 22
REMARK SMILES IDX 71 23 42 25 64 26 49 27 63 28 50 29 53 30 62 31 76 32 51 33
REMARK SMILES IDX 52 34 61 36 77 37 54 38 43 39 44 40 48 41 45 42 47 43 46 44
REMARK SMILES IDX 65 45 66 46 70 47 67 48 69 49 68 50 55 51 56 52 60 53 57 54
REMARK SMILES IDX 59 55 58 56 7 57 8 58 9 59 10 60 11 61 12 62 13 63 14 64
REMARK SMILES IDX 15 65 22 66 16 67 17 68 21 69 18 71 20 72 19 73 23 74 24 76
REMARK SMILES IDX 25 77 33 78 26 79 28 80 32 81 27 82 29 83 31 84 30 85
REMARK H PARENT 75 24 53 35 16 70 23 75
REMARK Flexibility Score: inf
ROOT
ATOM      1  O   UNL     1       4.432  -1.098  -1.663  1.00  0.00    -0.374 OA
ENDROOT
BRANCH   1   2
ATOM      2  C   UNL     1       5.020  -1.283  -0.374  1.00  0.00     0.202 C 
BRANCH   2   3
ATOM      3  C   UNL     1       4.709  -0.226   0.699  1.00  0.00     0.261 C 
BRANCH   3   4
ATOM      4  O   UNL     1       3.293  -0.025   0.858  1.00  0.00    -0.460 OA
BRANCH   4   5
ATOM      5  C   UNL     1       2.502   0.919   0.296  1.00  0.00     0.338 C 
ATOM      6  O   UNL     1       1.294   0.920   0.502  1.00  0.00    -0.246 OA
BRANCH   5   7
ATOM      7  C   UNL     1       3.061   2.016  -0.522  1.00  0.00     0.060 A 
ATOM      8  C   UNL     1       4.192   1.887  -1.322  1.00  0.00     0.016 A 
ATOM      9  C   UNL     1       2.366   3.235  -0.515  1.00  0.00     0.016 A 
ATOM     10  C   UNL     1       4.711   2.959  -2.002  1.00  0.00     0.010 A 
ATOM     11  C   UNL     1       2.841   4.312  -1.254  1.00  0.00     0.010 A 
ATOM     12  C   UNL     1       4.031   4.167  -1.970  1.00  0.00    -0.014 A 
BRANCH  12  13
ATOM     13  C   UNL     1       4.679   5.283  -2.646  1.00  0.00     0.031 A 
ATOM     14  C   UNL     1       5.435   6.255  -1.810  1.00  0.00     0.074 A 
ATOM     15  C   UNL     1       4.712   5.267  -3.987  1.00  0.00     0.049 A 
ATOM     16  N   UNL     1       6.066   7.332  -2.177  1.00  0.00    -0.248 NA
ATOM     17  C   UNL     1       5.504   5.969  -0.365  1.00  0.00     0.031 C 
ATOM     18  C   UNL     1       4.120   4.220  -4.831  1.00  0.00     0.029 A 
ATOM     19  N   UNL     1       5.305   6.115  -4.870  1.00  0.00    -0.354 N 
ATOM     20  C   UNL     1       6.563   7.881  -1.006  1.00  0.00     0.074 A 
ATOM     21  C   UNL     1       6.188   7.009   0.083  1.00  0.00     0.031 C 
ATOM     22  C   UNL     1       4.412   4.478  -6.113  1.00  0.00     0.029 A 
ATOM     23  C   UNL     1       5.128   5.744  -6.178  1.00  0.00     0.049 A 
ATOM     24  H   UNL     1       5.810   6.915  -4.598  1.00  0.00     0.167 HD
ATOM     25  C   UNL     1       7.243   9.041  -0.870  1.00  0.00     0.031 A 
ATOM     26  C   UNL     1       5.475   6.397  -7.299  1.00  0.00     0.031 A 
ATOM     27  C   UNL     1       7.555   9.878  -1.994  1.00  0.00     0.049 A 
ATOM     28  C   UNL     1       6.162   7.719  -7.124  1.00  0.00     0.074 A 
ATOM     29  C   UNL     1       8.128  11.133  -2.018  1.00  0.00     0.029 A 
ATOM     30  N   UNL     1       7.304   9.518  -3.316  1.00  0.00    -0.354 N 
ATOM     31  N   UNL     1       6.532   8.307  -6.008  1.00  0.00    -0.248 NA
ATOM     32  C   UNL     1       6.459   8.478  -8.340  1.00  0.00     0.031 C 
ATOM     33  C   UNL     1       8.190  11.546  -3.356  1.00  0.00     0.029 A 
ATOM     34  C   UNL     1       7.700  10.529  -4.167  1.00  0.00     0.049 A 
ATOM     35  H   UNL     1       6.902   8.666  -3.601  1.00  0.00     0.167 HD
ATOM     36  C   UNL     1       7.104   9.510  -6.382  1.00  0.00     0.074 A 
ATOM     37  C   UNL     1       7.052   9.553  -7.834  1.00  0.00     0.031 C 
ATOM     38  C   UNL     1       7.617  10.499  -5.607  1.00  0.00     0.031 A 
BRANCH  25  39
ATOM     39  C   UNL     1       7.545   9.477   0.533  1.00  0.00    -0.014 A 
ATOM     40  C   UNL     1       8.525   8.841   1.312  1.00  0.00     0.009 A 
ATOM     41  C   UNL     1       6.754  10.476   1.122  1.00  0.00     0.009 A 
ATOM     42  C   UNL     1       8.673   9.164   2.664  1.00  0.00     0.001 A 
ATOM     43  C   UNL     1       6.919  10.812   2.467  1.00  0.00     0.001 A 
ATOM     44  C   UNL     1       7.868  10.147   3.240  1.00  0.00     0.000 A 
ENDBRANCH  25  39
BRANCH  26  45
ATOM     45  C   UNL     1       5.105   5.835  -8.622  1.00  0.00    -0.014 A 
ATOM     46  C   UNL     1       6.080   5.338  -9.497  1.00  0.00     0.009 A 
ATOM     47  C   UNL     1       3.750   5.715  -8.983  1.00  0.00     0.009 A 
ATOM     48  C   UNL     1       5.706   4.733 -10.702  1.00  0.00     0.001 A 
ATOM     49  C   UNL     1       3.379   5.086 -10.173  1.00  0.00     0.001 A 
ATOM     50  C   UNL     1       4.358   4.599 -11.034  1.00  0.00     0.000 A 
ENDBRANCH  26  45
BRANCH  38  51
ATOM     51  C   UNL     1       8.176  11.681  -6.333  1.00  0.00    -0.014 A 
ATOM     52  C   UNL     1       7.330  12.674  -6.846  1.00  0.00     0.009 A 
ATOM     53  C   UNL     1       9.566  11.828  -6.438  1.00  0.00     0.009 A 
ATOM     54  C   UNL     1       7.873  13.793  -7.474  1.00  0.00     0.001 A 
ATOM     55  C   UNL     1      10.105  12.958  -7.048  1.00  0.00     0.001 A 
ATOM     56  C   UNL     1       9.258  13.937  -7.569  1.00  0.00     0.000 A 
ENDBRANCH  38  51
ENDBRANCH  12  13
ENDBRANCH   5   7
ENDBRANCH   4   5
ENDBRANCH   3   4
ENDBRANCH   2   3
ENDBRANCH   1   2
BRANCH   1  57
ATOM     57  C   UNL     1       3.055  -1.463  -1.811  1.00  0.00     0.202 C 
BRANCH  57  58
ATOM     58  C   UNL     1       2.889  -2.758  -2.608  1.00  0.00     0.261 C 
BRANCH  58  59
ATOM     59  O   UNL     1       3.080  -3.872  -1.722  1.00  0.00    -0.462 OA
BRANCH  59  60
ATOM     60  C   UNL     1       4.368  -4.211  -1.485  1.00  0.00     0.329 C 
ATOM     61  O   UNL     1       5.316  -3.885  -2.193  1.00  0.00    -0.250 OA
BRANCH  60  62
ATOM     62  C   UNL     1       4.535  -5.043  -0.202  1.00  0.00     0.195 C 
BRANCH  62  63
ATOM     63  C   UNL     1       3.749  -4.611   1.057  1.00  0.00     0.074 C 
BRANCH  63  64
ATOM     64  C   UNL     1       2.257  -4.487   0.985  1.00  0.00    -0.020 A 
ATOM     65  C   UNL     1       1.364  -5.389   0.443  1.00  0.00     0.087 A 
ATOM     66  C   UNL     1       1.466  -3.409   1.518  1.00  0.00     0.003 A 
ATOM     67  N   UNL     1       0.106  -4.856   0.519  1.00  0.00    -0.361 N 
ATOM     68  C   UNL     1       0.140  -3.639   1.152  1.00  0.00     0.046 A 
ATOM     69  C   UNL     1       1.752  -2.244   2.261  1.00  0.00     0.010 A 
ATOM     70  H   UNL     1      -0.709  -5.286   0.170  1.00  0.00     0.166 HD
ATOM     71  C   UNL     1      -0.896  -2.737   1.427  1.00  0.00     0.026 A 
ATOM     72  C   UNL     1       0.726  -1.337   2.555  1.00  0.00     0.001 A 
ATOM     73  C   UNL     1      -0.575  -1.572   2.124  1.00  0.00     0.002 A 
ENDBRANCH  63  64
ENDBRANCH  62  63
BRANCH  62  74
ATOM     74  N   UNL     1       4.371  -6.482  -0.484  1.00  0.00    -0.356 N 
ATOM     75  H   UNL     1       3.569  -6.988  -0.219  1.00  0.00     0.163 HD
BRANCH  74  76
ATOM     76  C   UNL     1       5.444  -7.068  -1.157  1.00  0.00     0.137 A 
ATOM     77  N   UNL     1       5.156  -7.440  -2.412  1.00  0.00    -0.219 NA
ATOM     78  C   UNL     1       6.726  -7.199  -0.592  1.00  0.00     0.043 A 
ATOM     79  C   UNL     1       6.184  -7.891  -3.137  1.00  0.00     0.224 A 
ATOM     80  C   UNL     1       7.709  -7.693  -1.457  1.00  0.00     0.076 A 
ATOM     81  C   UNL     1       7.069  -6.890   0.752  1.00  0.00     0.014 A 
ATOM     82  N   UNL     1       7.450  -8.033  -2.724  1.00  0.00    -0.236 NA
ATOM     83  C   UNL     1       9.005  -7.834  -0.973  1.00  0.00     0.029 A 
ATOM     84  C   UNL     1       8.376  -7.028   1.210  1.00  0.00     0.001 A 
ATOM     85  C   UNL     1       9.348  -7.502   0.342  1.00  0.00     0.002 A 
ENDBRANCH  74  76
ENDBRANCH  62  74
ENDBRANCH  60  62
ENDBRANCH  59  60
ENDBRANCH  58  59
ENDBRANCH  57  58
ENDBRANCH   1  57
TORSDOF 18
