REMARK SMILES Cc1cc(OCC(=O)N/C(=C/c2ccccc2Cl)C(=O)OCCOCCOC(=O)c2ccc(-c3c4nc(c(-c5ccccc5)c5ccc([nH]5)c(-c5ccccc5)c5nc(c(-c6ccccc6)c6ccc3[nH]6)C=C5)C=C4)cc2)cc(C)c1Cl
REMARK SMILES IDX 23 1 22 2 21 3 19 4 20 5 10 6 11 7 9 8 7 9 8 10 6 12 5 13
REMARK SMILES IDX 4 14 1 15 2 16 3 17 81 18 79 19 82 20 78 21 80 22 12 23
REMARK SMILES IDX 13 24 17 25 14 26 16 27 18 28 15 29 24 30 25 31 26 32 27 33
REMARK SMILES IDX 28 34 29 35 30 36 31 37 77 38 32 39 76 40 33 41 34 42 35 43
REMARK SMILES IDX 70 44 36 45 75 46 69 47 71 48 37 49 74 50 68 51 67 52 38 54
REMARK SMILES IDX 60 55 45 56 59 57 46 58 49 59 58 60 72 61 47 62 48 63 57 65
REMARK SMILES IDX 73 66 50 67 39 68 40 69 44 70 41 71 43 72 42 73 61 74 62 75
REMARK SMILES IDX 66 76 63 77 65 78 64 79 51 80 52 81 56 82 53 83 55 84 54 85
REMARK H PARENT 9 11 71 53 49 64
REMARK Flexibility Score: inf
ROOT
ATOM      1  C   UNL     1       7.143  -1.609   0.842  1.00  0.00     0.202 C 
ENDROOT
BRANCH   1   2
ATOM      2  C   UNL     1       6.108  -2.248  -0.088  1.00  0.00     0.261 C 
BRANCH   2   3
ATOM      3  O   UNL     1       5.955  -1.504  -1.296  1.00  0.00    -0.459 OA
BRANCH   3   4
ATOM      4  C   UNL     1       4.671  -1.265  -1.648  1.00  0.00     0.354 C 
ATOM      5  O   UNL     1       3.682  -1.800  -1.173  1.00  0.00    -0.244 OA
BRANCH   4   6
ATOM      6  C   UNL     1       4.617  -0.273  -2.753  1.00  0.00     0.128 C 
ATOM      7  C   UNL     1       4.990  -0.675  -3.989  1.00  0.00     0.043 C 
BRANCH   6   8
ATOM      8  N   UNL     1       4.166   1.022  -2.576  1.00  0.00    -0.317 N 
ATOM      9  C   UNL     1       3.850   1.809  -1.507  1.00  0.00     0.262 C 
ATOM     10  O   UNL     1       3.489   2.965  -1.777  1.00  0.00    -0.271 OA
ATOM     11  H   UNL     1       4.042   1.492  -3.432  1.00  0.00     0.170 HD
BRANCH   9  12
ATOM     12  C   UNL     1       4.028   1.412  -0.032  1.00  0.00     0.329 C 
BRANCH  12  13
ATOM     13  O   UNL     1       3.314   0.343   0.538  1.00  0.00    -0.484 OA
BRANCH  13  14
ATOM     14  C   UNL     1       1.957   0.368   0.406  1.00  0.00     0.120 A 
ATOM     15  C   UNL     1      -1.014   2.661  -0.093  1.00  0.00     0.046 C 
ATOM     16  C   UNL     1      -0.210   1.401   0.064  1.00  0.00    -0.029 A 
ATOM     17  C   UNL     1       1.177   1.509   0.258  1.00  0.00     0.051 A 
ATOM     18  C   UNL     1      -0.802   0.122   0.022  1.00  0.00     0.047 A 
ATOM     19  C   UNL     1      -0.022  -1.034   0.188  1.00  0.00    -0.029 A 
ATOM     20  Cl  UNL     1      -2.510  -0.029  -0.239  1.00  0.00    -0.084 Cl
ATOM     21  C   UNL     1       1.349  -0.886   0.422  1.00  0.00     0.051 A 
ATOM     22  C   UNL     1      -0.587  -2.423   0.111  1.00  0.00     0.046 C 
ENDBRANCH  13  14
ENDBRANCH  12  13
ENDBRANCH   9  12
ENDBRANCH   6   8
BRANCH   7  23
ATOM     23  C   UNL     1       5.613  -1.970  -4.334  1.00  0.00    -0.005 A 
ATOM     24  C   UNL     1       6.931  -1.915  -4.820  1.00  0.00     0.010 A 
ATOM     25  C   UNL     1       5.014  -3.232  -4.175  1.00  0.00     0.048 A 
ATOM     26  C   UNL     1       7.657  -3.083  -5.060  1.00  0.00     0.001 A 
ATOM     27  C   UNL     1       5.762  -4.399  -4.367  1.00  0.00     0.021 A 
ATOM     28  Cl  UNL     1       3.337  -3.422  -3.806  1.00  0.00    -0.084 Cl
ATOM     29  C   UNL     1       7.085  -4.324  -4.799  1.00  0.00     0.002 A 
ENDBRANCH   7  23
ENDBRANCH   4   6
ENDBRANCH   3   4
ENDBRANCH   2   3
ENDBRANCH   1   2
BRANCH   1  30
ATOM     30  O   UNL     1       7.184  -0.188   0.930  1.00  0.00    -0.374 OA
BRANCH  30  31
ATOM     31  C   UNL     1       7.565   0.575  -0.215  1.00  0.00     0.202 C 
BRANCH  31  32
ATOM     32  C   UNL     1       8.963   0.403  -0.808  1.00  0.00     0.261 C 
BRANCH  32  33
ATOM     33  O   UNL     1       9.203  -0.915  -1.320  1.00  0.00    -0.460 OA
BRANCH  33  34
ATOM     34  C   UNL     1      10.142  -1.613  -0.642  1.00  0.00     0.338 C 
ATOM     35  O   UNL     1      10.783  -1.253   0.335  1.00  0.00    -0.246 OA
BRANCH  34  36
ATOM     36  C   UNL     1      10.197  -2.986  -1.153  1.00  0.00     0.060 A 
ATOM     37  C   UNL     1       9.939  -4.034  -0.262  1.00  0.00     0.016 A 
ATOM     38  C   UNL     1      10.604  -3.236  -2.464  1.00  0.00     0.016 A 
ATOM     39  C   UNL     1      10.123  -5.348  -0.672  1.00  0.00     0.010 A 
ATOM     40  C   UNL     1      10.801  -4.554  -2.870  1.00  0.00     0.010 A 
ATOM     41  C   UNL     1      10.590  -5.610  -1.966  1.00  0.00    -0.014 A 
BRANCH  41  42
ATOM     42  C   UNL     1      10.972  -6.986  -2.341  1.00  0.00     0.031 A 
ATOM     43  C   UNL     1      12.421  -7.377  -2.300  1.00  0.00     0.074 A 
ATOM     44  C   UNL     1      10.027  -7.867  -2.706  1.00  0.00     0.049 A 
ATOM     45  N   UNL     1      12.980  -8.509  -2.641  1.00  0.00    -0.248 NA
ATOM     46  C   UNL     1      13.364  -6.358  -1.812  1.00  0.00     0.031 C 
ATOM     47  C   UNL     1       8.589  -7.602  -2.731  1.00  0.00     0.029 A 
ATOM     48  N   UNL     1      10.142  -9.162  -3.135  1.00  0.00    -0.354 N 
ATOM     49  C   UNL     1      14.340  -8.337  -2.416  1.00  0.00     0.074 A 
ATOM     50  C   UNL     1      14.525  -6.985  -1.936  1.00  0.00     0.031 C 
ATOM     51  C   UNL     1       7.953  -8.703  -3.168  1.00  0.00     0.029 A 
ATOM     52  C   UNL     1       8.943  -9.730  -3.483  1.00  0.00     0.049 A 
ATOM     53  H   UNL     1      11.002  -9.640  -3.188  1.00  0.00     0.167 HD
ATOM     54  C   UNL     1      15.342  -9.230  -2.593  1.00  0.00     0.031 A 
ATOM     55  C   UNL     1       8.681 -10.935  -4.021  1.00  0.00     0.031 A 
ATOM     56  C   UNL     1      15.148 -10.566  -3.090  1.00  0.00     0.049 A 
ATOM     57  C   UNL     1       9.822 -11.876  -4.293  1.00  0.00     0.074 A 
ATOM     58  C   UNL     1      16.090 -11.559  -3.288  1.00  0.00     0.029 A 
ATOM     59  N   UNL     1      13.924 -11.090  -3.477  1.00  0.00    -0.354 N 
ATOM     60  N   UNL     1      11.101 -11.716  -4.051  1.00  0.00    -0.248 NA
ATOM     61  C   UNL     1       9.482 -13.165  -4.910  1.00  0.00     0.031 C 
ATOM     62  C   UNL     1      15.444 -12.664  -3.854  1.00  0.00     0.029 A 
ATOM     63  C   UNL     1      14.091 -12.379  -3.952  1.00  0.00     0.049 A 
ATOM     64  H   UNL     1      13.063 -10.615  -3.423  1.00  0.00     0.167 HD
ATOM     65  C   UNL     1      11.717 -12.888  -4.469  1.00  0.00     0.074 A 
ATOM     66  C   UNL     1      10.667 -13.758  -4.960  1.00  0.00     0.031 C 
ATOM     67  C   UNL     1      13.032 -13.218  -4.450  1.00  0.00     0.031 A 
BRANCH  54  68
ATOM     68  C   UNL     1      16.741  -8.773  -2.286  1.00  0.00    -0.014 A 
ATOM     69  C   UNL     1      17.168  -8.559  -0.966  1.00  0.00     0.009 A 
ATOM     70  C   UNL     1      17.654  -8.579  -3.334  1.00  0.00     0.009 A 
ATOM     71  C   UNL     1      18.471  -8.130  -0.705  1.00  0.00     0.001 A 
ATOM     72  C   UNL     1      18.964  -8.176  -3.069  1.00  0.00     0.001 A 
ATOM     73  C   UNL     1      19.369  -7.944  -1.756  1.00  0.00     0.000 A 
ENDBRANCH  54  68
BRANCH  55  74
ATOM     74  C   UNL     1       7.285 -11.306  -4.366  1.00  0.00    -0.014 A 
ATOM     75  C   UNL     1       6.609 -12.302  -3.646  1.00  0.00     0.009 A 
ATOM     76  C   UNL     1       6.620 -10.662  -5.422  1.00  0.00     0.009 A 
ATOM     77  C   UNL     1       5.304 -12.661  -3.992  1.00  0.00     0.001 A 
ATOM     78  C   UNL     1       5.305 -11.003  -5.746  1.00  0.00     0.001 A 
ATOM     79  C   UNL     1       4.652 -12.008  -5.037  1.00  0.00     0.000 A 
ENDBRANCH  55  74
BRANCH  67  80
ATOM     80  C   UNL     1      13.401 -14.580  -4.966  1.00  0.00    -0.014 A 
ATOM     81  C   UNL     1      13.362 -14.870  -6.339  1.00  0.00     0.009 A 
ATOM     82  C   UNL     1      13.831 -15.572  -4.072  1.00  0.00     0.009 A 
ATOM     83  C   UNL     1      13.715 -16.139  -6.801  1.00  0.00     0.001 A 
ATOM     84  C   UNL     1      14.213 -16.830  -4.540  1.00  0.00     0.001 A 
ATOM     85  C   UNL     1      14.145 -17.115  -5.903  1.00  0.00     0.000 A 
ENDBRANCH  67  80
ENDBRANCH  41  42
ENDBRANCH  34  36
ENDBRANCH  33  34
ENDBRANCH  32  33
ENDBRANCH  31  32
ENDBRANCH  30  31
ENDBRANCH   1  30
TORSDOF 19
