REMARK SMILES CC(C)(Cn1ccc2ccc([N+](=O)[O-])cc21)C(=O)OCCOCCOC(=O)c1ccc(-c2c3nc(c(-c4ccccc4)c4ccc([nH]4)c(-c4ccccc4)c4nc(c(-c5ccccc5)c5ccc2[nH]5)C=C4)C=C3)cc1
REMARK SMILES IDX 21 1 20 2 19 3 17 4 18 5 2 6 1 7 3 8 4 9 5 10 6 11 16 12
REMARK SMILES IDX 7 13 8 14 15 15 9 16 11 17 10 18 12 19 13 20 14 21 22 22
REMARK SMILES IDX 23 23 24 24 25 25 26 26 27 27 28 28 29 29 75 30 30 31 74 32
REMARK SMILES IDX 31 33 32 34 33 35 68 36 34 37 73 38 67 39 69 40 35 41 72 42
REMARK SMILES IDX 66 43 65 44 36 46 58 47 43 48 57 49 44 50 47 51 56 52 70 53
REMARK SMILES IDX 45 54 46 55 55 57 71 58 48 59 37 60 38 61 42 62 39 63 41 64
REMARK SMILES IDX 40 65 59 66 60 67 64 68 61 69 63 70 62 71 49 72 50 73 54 74
REMARK SMILES IDX 51 75 53 76 52 77
REMARK H PARENT 69 45 47 56
REMARK Flexibility Score: inf
ROOT
ATOM      1  C   UNL     1       3.073   4.499  -1.198  1.00  0.00     0.202 C 
ENDROOT
BRANCH   1   2
ATOM      2  C   UNL     1       2.757   3.298  -2.107  1.00  0.00     0.261 C 
BRANCH   2   3
ATOM      3  O   UNL     1       1.456   2.685  -1.877  1.00  0.00    -0.463 OA
BRANCH   3   4
ATOM      4  C   UNL     1       1.497   1.386  -1.504  1.00  0.00     0.313 C 
ATOM      5  O   UNL     1       2.557   0.768  -1.407  1.00  0.00    -0.252 OA
BRANCH   4   6
ATOM      6  C   UNL     1       0.146   0.687  -1.241  1.00  0.00     0.080 C 
ATOM      7  C   UNL     1       0.429  -0.213  -0.016  1.00  0.00     0.025 C 
ATOM      8  C   UNL     1      -0.014  -0.228  -2.480  1.00  0.00     0.025 C 
BRANCH   6   9
ATOM      9  C   UNL     1      -1.184   1.549  -1.123  1.00  0.00     0.140 C 
BRANCH   9  10
ATOM     10  N   UNL     1      -1.862   1.700   0.175  1.00  0.00    -0.346 N 
ATOM     11  C   UNL     1      -2.198   0.669   1.021  1.00  0.00     0.087 A 
ATOM     12  C   UNL     1      -2.359   2.867   0.750  1.00  0.00     0.055 A 
ATOM     13  C   UNL     1      -2.338   1.204   2.281  1.00  0.00     0.028 A 
ATOM     14  C   UNL     1      -2.429   2.608   2.127  1.00  0.00     0.000 A 
ATOM     15  C   UNL     1      -2.695   4.132   0.235  1.00  0.00     0.112 A 
ATOM     16  C   UNL     1      -2.613   3.672   3.033  1.00  0.00     0.017 A 
ATOM     17  C   UNL     1      -2.946   5.168   1.166  1.00  0.00     0.271 A 
ATOM     18  C   UNL     1      -2.845   4.959   2.544  1.00  0.00     0.086 A 
BRANCH  17  19
ATOM     19  N   UNL     1      -3.248   6.527   0.674  1.00  0.00     0.062 N 
ATOM     20  O   UNL     1      -3.393   6.673  -0.550  1.00  0.00    -0.258 OA
ATOM     21  O   UNL     1      -3.358   7.439   1.508  1.00  0.00    -0.258 OA
ENDBRANCH  17  19
ENDBRANCH   9  10
ENDBRANCH   6   9
ENDBRANCH   4   6
ENDBRANCH   3   4
ENDBRANCH   2   3
ENDBRANCH   1   2
BRANCH   1  22
ATOM     22  O   UNL     1       3.234   4.301   0.203  1.00  0.00    -0.374 OA
BRANCH  22  23
ATOM     23  C   UNL     1       2.263   3.536   0.897  1.00  0.00     0.202 C 
BRANCH  23  24
ATOM     24  C   UNL     1       0.825   4.065   0.949  1.00  0.00     0.261 C 
BRANCH  24  25
ATOM     25  O   UNL     1       0.332   4.485  -0.330  1.00  0.00    -0.460 OA
BRANCH  25  26
ATOM     26  C   UNL     1      -0.134   5.759  -0.384  1.00  0.00     0.338 C 
ATOM     27  O   UNL     1      -0.404   6.467   0.562  1.00  0.00    -0.246 OA
BRANCH  26  28
ATOM     28  C   UNL     1       0.039   6.282  -1.759  1.00  0.00     0.060 A 
ATOM     29  C   UNL     1       0.148   5.448  -2.878  1.00  0.00     0.016 A 
ATOM     30  C   UNL     1       0.512   7.597  -1.786  1.00  0.00     0.016 A 
ATOM     31  C   UNL     1       0.968   5.853  -3.922  1.00  0.00     0.010 A 
ATOM     32  C   UNL     1       1.348   7.986  -2.812  1.00  0.00     0.010 A 
ATOM     33  C   UNL     1       1.648   7.076  -3.821  1.00  0.00    -0.014 A 
BRANCH  33  34
ATOM     34  C   UNL     1       2.655   7.407  -4.817  1.00  0.00     0.031 A 
ATOM     35  C   UNL     1       2.115   7.859  -6.112  1.00  0.00     0.074 A 
ATOM     36  C   UNL     1       3.980   7.471  -4.581  1.00  0.00     0.049 A 
ATOM     37  N   UNL     1       2.264   7.304  -7.266  1.00  0.00    -0.248 NA
ATOM     38  C   UNL     1       1.243   9.042  -6.100  1.00  0.00     0.031 C 
ATOM     39  C   UNL     1       4.662   7.420  -3.286  1.00  0.00     0.029 A 
ATOM     40  N   UNL     1       4.997   7.706  -5.464  1.00  0.00    -0.354 N 
ATOM     41  C   UNL     1       1.620   8.145  -8.163  1.00  0.00     0.074 A 
ATOM     42  C   UNL     1       0.906   9.126  -7.385  1.00  0.00     0.031 C 
ATOM     43  C   UNL     1       5.948   7.811  -3.445  1.00  0.00     0.029 A 
ATOM     44  C   UNL     1       6.208   8.012  -4.862  1.00  0.00     0.049 A 
ATOM     45  H   UNL     1       4.880   7.663  -6.441  1.00  0.00     0.167 HD
ATOM     46  C   UNL     1       1.875   8.109  -9.496  1.00  0.00     0.031 A 
ATOM     47  C   UNL     1       7.332   8.449  -5.475  1.00  0.00     0.031 A 
ATOM     48  C   UNL     1       2.601   6.934  -9.886  1.00  0.00     0.049 A 
ATOM     49  C   UNL     1       7.268   8.075  -6.904  1.00  0.00     0.074 A 
ATOM     50  C   UNL     1       2.311   5.591  -9.986  1.00  0.00     0.029 A 
ATOM     51  N   UNL     1       3.968   7.056  -9.899  1.00  0.00    -0.354 N 
ATOM     52  N   UNL     1       7.316   6.846  -7.330  1.00  0.00    -0.248 NA
ATOM     53  C   UNL     1       6.881   9.062  -7.903  1.00  0.00     0.031 C 
ATOM     54  C   UNL     1       3.540   4.909  -9.758  1.00  0.00     0.029 A 
ATOM     55  C   UNL     1       4.539   5.859  -9.539  1.00  0.00     0.049 A 
ATOM     56  H   UNL     1       4.463   7.875 -10.130  1.00  0.00     0.167 HD
ATOM     57  C   UNL     1       6.561   6.851  -8.488  1.00  0.00     0.074 A 
ATOM     58  C   UNL     1       6.491   8.248  -8.887  1.00  0.00     0.031 C 
ATOM     59  C   UNL     1       5.806   5.769  -8.834  1.00  0.00     0.031 A 
BRANCH  46  60
ATOM     60  C   UNL     1       1.760   9.316 -10.379  1.00  0.00    -0.014 A 
ATOM     61  C   UNL     1       1.885  10.629  -9.881  1.00  0.00     0.009 A 
ATOM     62  C   UNL     1       1.758   9.158 -11.772  1.00  0.00     0.009 A 
ATOM     63  C   UNL     1       1.952  11.738 -10.727  1.00  0.00     0.001 A 
ATOM     64  C   UNL     1       1.868  10.264 -12.624  1.00  0.00     0.001 A 
ATOM     65  C   UNL     1       1.957  11.553 -12.102  1.00  0.00     0.000 A 
ENDBRANCH  46  60
BRANCH  47  66
ATOM     66  C   UNL     1       8.382   9.350  -4.956  1.00  0.00    -0.014 A 
ATOM     67  C   UNL     1       8.053  10.352  -4.026  1.00  0.00     0.009 A 
ATOM     68  C   UNL     1       9.641   9.416  -5.575  1.00  0.00     0.009 A 
ATOM     69  C   UNL     1       8.927  11.410  -3.761  1.00  0.00     0.001 A 
ATOM     70  C   UNL     1      10.514  10.479  -5.314  1.00  0.00     0.001 A 
ATOM     71  C   UNL     1      10.149  11.484  -4.421  1.00  0.00     0.000 A 
ENDBRANCH  47  66
BRANCH  59  72
ATOM     72  C   UNL     1       6.170   4.438  -8.221  1.00  0.00    -0.014 A 
ATOM     73  C   UNL     1       6.423   3.357  -9.079  1.00  0.00     0.009 A 
ATOM     74  C   UNL     1       6.183   4.202  -6.835  1.00  0.00     0.009 A 
ATOM     75  C   UNL     1       6.683   2.081  -8.572  1.00  0.00     0.001 A 
ATOM     76  C   UNL     1       6.473   2.932  -6.326  1.00  0.00     0.001 A 
ATOM     77  C   UNL     1       6.716   1.871  -7.195  1.00  0.00     0.000 A 
ENDBRANCH  59  72
ENDBRANCH  33  34
ENDBRANCH  26  28
ENDBRANCH  25  26
ENDBRANCH  24  25
ENDBRANCH  23  24
ENDBRANCH  22  23
ENDBRANCH   1  22
TORSDOF 17
