REMARK SMILES O=C(OCCOCCOC(=O)[C@H](CCO)NC(=O)c1cccc(C(F)(F)F)c1F)c1ccc(-c2c3nc(c(-c4ccccc4)c4ccc([nH]4)c(-c4ccccc4)c4nc(c(-c5ccccc5)c5ccc2[nH]5)C=C4)C=C3)cc1
REMARK SMILES IDX 7 1 6 2 5 3 4 4 3 5 2 6 1 7 30 8 31 9 77 10 32 11 76 12
REMARK SMILES IDX 33 13 34 14 35 15 70 16 36 17 75 18 69 19 71 20 37 21 74 22
REMARK SMILES IDX 68 23 67 24 38 26 60 27 45 28 59 29 46 30 49 31 58 32 72 33
REMARK SMILES IDX 47 34 48 35 57 37 73 38 50 39 39 40 40 41 44 42 41 43 43 44
REMARK SMILES IDX 42 45 61 46 62 47 66 48 63 49 65 50 64 51 51 52 52 53 56 54
REMARK SMILES IDX 53 55 55 56 54 57 8 58 9 59 10 60 11 61 12 62 16 63 17 64
REMARK SMILES IDX 18 66 19 67 20 68 28 69 21 70 23 71 29 72 22 73 24 74 25 75
REMARK SMILES IDX 26 76 27 77 13 78 14 79 15 80
REMARK H PARENT 71 25 49 36 16 65 15 81
REMARK Flexibility Score: inf
ROOT
ATOM      1  C   UNL     1       4.947  -0.273   3.973  1.00  0.00     0.202 C 
ENDROOT
BRANCH   1   2
ATOM      2  O   UNL     1       3.840  -0.567   3.119  1.00  0.00    -0.374 OA
BRANCH   2   3
ATOM      3  C   UNL     1       4.087  -0.451   1.720  1.00  0.00     0.202 C 
BRANCH   3   4
ATOM      4  C   UNL     1       3.654   0.895   1.141  1.00  0.00     0.261 C 
BRANCH   4   5
ATOM      5  O   UNL     1       4.364   1.957   1.798  1.00  0.00    -0.460 OA
BRANCH   5   6
ATOM      6  C   UNL     1       3.930   2.734   2.816  1.00  0.00     0.338 C 
ATOM      7  O   UNL     1       4.704   3.548   3.316  1.00  0.00    -0.246 OA
BRANCH   6   8
ATOM      8  C   UNL     1       2.530   2.700   3.329  1.00  0.00     0.060 A 
ATOM      9  C   UNL     1       1.762   1.544   3.468  1.00  0.00     0.016 A 
ATOM     10  C   UNL     1       1.994   3.911   3.796  1.00  0.00     0.016 A 
ATOM     11  C   UNL     1       0.486   1.577   4.003  1.00  0.00     0.010 A 
ATOM     12  C   UNL     1       0.720   3.953   4.366  1.00  0.00     0.010 A 
ATOM     13  C   UNL     1      -0.035   2.780   4.461  1.00  0.00    -0.014 A 
BRANCH  13  14
ATOM     14  C   UNL     1      -1.415   2.772   4.962  1.00  0.00     0.031 A 
ATOM     15  C   UNL     1      -2.502   3.252   4.059  1.00  0.00     0.074 A 
ATOM     16  C   UNL     1      -1.677   2.205   6.152  1.00  0.00     0.049 A 
ATOM     17  N   UNL     1      -3.775   3.386   4.303  1.00  0.00    -0.248 NA
ATOM     18  C   UNL     1      -2.100   3.616   2.689  1.00  0.00     0.031 C 
ATOM     19  C   UNL     1      -0.680   1.579   7.025  1.00  0.00     0.029 A 
ATOM     20  N   UNL     1      -2.860   2.033   6.814  1.00  0.00    -0.354 N 
ATOM     21  C   UNL     1      -4.323   3.890   3.132  1.00  0.00     0.074 A 
ATOM     22  C   UNL     1      -3.250   4.019   2.172  1.00  0.00     0.031 C 
ATOM     23  C   UNL     1      -1.301   1.071   8.101  1.00  0.00     0.029 A 
ATOM     24  C   UNL     1      -2.719   1.401   8.024  1.00  0.00     0.049 A 
ATOM     25  H   UNL     1      -3.728   2.332   6.457  1.00  0.00     0.167 HD
ATOM     26  C   UNL     1      -5.608   4.239   2.901  1.00  0.00     0.031 A 
ATOM     27  C   UNL     1      -3.636   1.162   8.979  1.00  0.00     0.031 A 
ATOM     28  C   UNL     1      -6.643   4.118   3.888  1.00  0.00     0.049 A 
ATOM     29  C   UNL     1      -5.040   1.634   8.734  1.00  0.00     0.074 A 
ATOM     30  C   UNL     1      -7.963   4.519   3.820  1.00  0.00     0.029 A 
ATOM     31  N   UNL     1      -6.458   3.541   5.138  1.00  0.00    -0.354 N 
ATOM     32  N   UNL     1      -5.540   2.205   7.662  1.00  0.00    -0.248 NA
ATOM     33  C   UNL     1      -5.999   1.458   9.831  1.00  0.00     0.031 C 
ATOM     34  C   UNL     1      -8.567   4.217   5.047  1.00  0.00     0.029 A 
ATOM     35  C   UNL     1      -7.634   3.590   5.861  1.00  0.00     0.049 A 
ATOM     36  H   UNL     1      -5.613   3.154   5.462  1.00  0.00     0.167 HD
ATOM     37  C   UNL     1      -6.870   2.466   7.956  1.00  0.00     0.074 A 
ATOM     38  C   UNL     1      -7.104   1.962   9.297  1.00  0.00     0.031 C 
ATOM     39  C   UNL     1      -7.812   3.080   7.197  1.00  0.00     0.031 A 
BRANCH  26  40
ATOM     40  C   UNL     1      -5.897   4.879   1.575  1.00  0.00    -0.014 A 
ATOM     41  C   UNL     1      -5.945   4.130   0.389  1.00  0.00     0.009 A 
ATOM     42  C   UNL     1      -6.043   6.273   1.507  1.00  0.00     0.009 A 
ATOM     43  C   UNL     1      -6.089   4.772  -0.844  1.00  0.00     0.001 A 
ATOM     44  C   UNL     1      -6.208   6.909   0.276  1.00  0.00     0.001 A 
ATOM     45  C   UNL     1      -6.218   6.160  -0.900  1.00  0.00     0.000 A 
ENDBRANCH  26  40
BRANCH  27  46
ATOM     46  C   UNL     1      -3.225   0.528  10.258  1.00  0.00    -0.014 A 
ATOM     47  C   UNL     1      -3.651  -0.763  10.598  1.00  0.00     0.009 A 
ATOM     48  C   UNL     1      -2.365   1.209  11.138  1.00  0.00     0.009 A 
ATOM     49  C   UNL     1      -3.229  -1.356  11.792  1.00  0.00     0.001 A 
ATOM     50  C   UNL     1      -1.923   0.604  12.316  1.00  0.00     0.001 A 
ATOM     51  C   UNL     1      -2.359  -0.677  12.645  1.00  0.00     0.000 A 
ENDBRANCH  27  46
BRANCH  39  52
ATOM     52  C   UNL     1      -9.170   3.228   7.810  1.00  0.00    -0.014 A 
ATOM     53  C   UNL     1      -9.421   4.227   8.762  1.00  0.00     0.009 A 
ATOM     54  C   UNL     1     -10.218   2.398   7.388  1.00  0.00     0.009 A 
ATOM     55  C   UNL     1     -10.700   4.378   9.297  1.00  0.00     0.001 A 
ATOM     56  C   UNL     1     -11.500   2.565   7.910  1.00  0.00     0.001 A 
ATOM     57  C   UNL     1     -11.738   3.551   8.867  1.00  0.00     0.000 A 
ENDBRANCH  39  52
ENDBRANCH  13  14
ENDBRANCH   6   8
ENDBRANCH   5   6
ENDBRANCH   4   5
ENDBRANCH   3   4
ENDBRANCH   2   3
ENDBRANCH   1   2
BRANCH   1  58
ATOM     58  C   UNL     1       5.403  -1.563   4.641  1.00  0.00     0.261 C 
BRANCH  58  59
ATOM     59  O   UNL     1       5.747  -2.509   3.613  1.00  0.00    -0.462 OA
BRANCH  59  60
ATOM     60  C   UNL     1       4.771  -3.404   3.286  1.00  0.00     0.328 C 
ATOM     61  O   UNL     1       3.674  -3.513   3.818  1.00  0.00    -0.250 OA
BRANCH  60  62
ATOM     62  C   UNL     1       5.251  -4.286   2.133  1.00  0.00     0.194 C 
BRANCH  62  63
ATOM     63  N   UNL     1       5.043  -5.676   2.549  1.00  0.00    -0.338 N 
ATOM     64  C   UNL     1       5.983  -6.518   3.098  1.00  0.00     0.254 C 
ATOM     65  H   UNL     1       4.139  -6.045   2.422  1.00  0.00     0.164 HD
ATOM     66  O   UNL     1       5.681  -7.622   3.532  1.00  0.00    -0.269 OA
BRANCH  64  67
ATOM     67  C   UNL     1       7.394  -6.108   3.038  1.00  0.00     0.076 A 
ATOM     68  C   UNL     1       8.196  -6.662   2.040  1.00  0.00     0.017 A 
ATOM     69  C   UNL     1       7.868  -5.074   3.847  1.00  0.00     0.148 A 
ATOM     70  C   UNL     1       9.468  -6.139   1.824  1.00  0.00     0.002 A 
ATOM     71  C   UNL     1       9.109  -4.496   3.592  1.00  0.00     0.092 A 
ATOM     72  F   UNL     1       7.088  -4.579   4.817  1.00  0.00    -0.205 F 
ATOM     73  C   UNL     1       9.915  -5.052   2.582  1.00  0.00     0.016 A 
BRANCH  71  74
ATOM     74  C   UNL     1       9.561  -3.283   4.352  1.00  0.00     0.419 C 
ATOM     75  F   UNL     1      10.402  -3.588   5.375  1.00  0.00    -0.166 F 
ATOM     76  F   UNL     1      10.247  -2.412   3.555  1.00  0.00    -0.166 F 
ATOM     77  F   UNL     1       8.552  -2.547   4.892  1.00  0.00    -0.166 F 
ENDBRANCH  71  74
ENDBRANCH  64  67
ENDBRANCH  62  63
BRANCH  62  78
ATOM     78  C   UNL     1       4.520  -3.923   0.841  1.00  0.00     0.065 C 
BRANCH  78  79
ATOM     79  C   UNL     1       5.044  -4.683  -0.369  1.00  0.00     0.159 C 
BRANCH  79  80
ATOM     80  O   UNL     1       4.578  -6.020  -0.373  1.00  0.00    -0.396 OA
ATOM     81  H   UNL     1       4.891  -6.474   0.425  1.00  0.00     0.210 HD
ENDBRANCH  79  80
ENDBRANCH  78  79
ENDBRANCH  62  78
ENDBRANCH  60  62
ENDBRANCH  59  60
ENDBRANCH  58  59
ENDBRANCH   1  58
TORSDOF 20
