REMARK SMILES O=C(OCCOCCOC(=O)c1cnc(OCC2CC2)c(Cl)c1)c1ccc(-c2c3nc(c(-c4ccccc4)c4ccc([nH]4)c(-c4ccccc4)c4nc(c(-c5ccccc5)c5ccc2[nH]5)C=C4)C=C3)cc1
REMARK SMILES IDX 7 1 6 2 5 3 4 4 3 5 2 6 1 7 24 8 25 9 71 10 26 11 70 12
REMARK SMILES IDX 27 13 28 14 29 15 64 16 30 17 69 18 63 19 65 20 31 21 68 22
REMARK SMILES IDX 62 23 61 24 32 26 54 27 39 28 53 29 40 30 43 31 52 32 66 33
REMARK SMILES IDX 41 34 42 35 51 37 67 38 44 39 33 40 34 41 38 42 35 43 37 44
REMARK SMILES IDX 36 45 55 46 56 47 60 48 57 49 59 50 58 51 45 52 46 53 50 54
REMARK SMILES IDX 47 55 49 56 48 57 8 58 9 59 10 60 11 61 12 62 13 63 23 64
REMARK SMILES IDX 14 65 21 66 15 67 22 68 16 69 17 70 18 71 19 72 20 73
REMARK H PARENT 65 25 43 36
REMARK Flexibility Score: inf
ROOT
ATOM      1  C   UNL     1       2.722  -1.700   1.293  1.00  0.00     0.202 C 
ENDROOT
BRANCH   1   2
ATOM      2  O   UNL     1       4.061  -1.216   1.131  1.00  0.00    -0.374 OA
BRANCH   2   3
ATOM      3  C   UNL     1       4.309   0.115   1.584  1.00  0.00     0.202 C 
BRANCH   3   4
ATOM      4  C   UNL     1       3.969   1.218   0.579  1.00  0.00     0.261 C 
BRANCH   4   5
ATOM      5  O   UNL     1       2.580   1.152   0.218  1.00  0.00    -0.460 OA
BRANCH   5   6
ATOM      6  C   UNL     1       2.054   0.756  -0.964  1.00  0.00     0.338 C 
ATOM      7  O   UNL     1       0.840   0.844  -1.138  1.00  0.00    -0.246 OA
BRANCH   6   8
ATOM      8  C   UNL     1       2.878   0.203  -2.076  1.00  0.00     0.060 A 
ATOM      9  C   UNL     1       4.024  -0.574  -1.893  1.00  0.00     0.016 A 
ATOM     10  C   UNL     1       2.398   0.380  -3.382  1.00  0.00     0.016 A 
ATOM     11  C   UNL     1       4.710  -1.120  -2.963  1.00  0.00     0.010 A 
ATOM     12  C   UNL     1       3.052  -0.211  -4.466  1.00  0.00     0.010 A 
ATOM     13  C   UNL     1       4.213  -0.963  -4.251  1.00  0.00    -0.014 A 
BRANCH  13  14
ATOM     14  C   UNL     1       4.968  -1.569  -5.356  1.00  0.00     0.031 A 
ATOM     15  C   UNL     1       5.786  -0.680  -6.233  1.00  0.00     0.074 A 
ATOM     16  C   UNL     1       4.984  -2.909  -5.480  1.00  0.00     0.049 A 
ATOM     17  N   UNL     1       6.463  -0.979  -7.306  1.00  0.00    -0.248 NA
ATOM     18  C   UNL     1       5.860   0.739  -5.841  1.00  0.00     0.031 C 
ATOM     19  C   UNL     1       4.315  -3.849  -4.575  1.00  0.00     0.029 A 
ATOM     20  N   UNL     1       5.604  -3.713  -6.396  1.00  0.00    -0.354 N 
ATOM     21  C   UNL     1       7.009   0.219  -7.744  1.00  0.00     0.074 A 
ATOM     22  C   UNL     1       6.596   1.248  -6.817  1.00  0.00     0.031 C 
ATOM     23  C   UNL     1       4.575  -5.104  -4.975  1.00  0.00     0.029 A 
ATOM     24  C   UNL     1       5.355  -5.051  -6.204  1.00  0.00     0.049 A 
ATOM     25  H   UNL     1       6.173  -3.368  -7.121  1.00  0.00     0.167 HD
ATOM     26  C   UNL     1       7.769   0.430  -8.841  1.00  0.00     0.031 A 
ATOM     27  C   UNL     1       5.681  -6.104  -6.975  1.00  0.00     0.031 A 
ATOM     28  C   UNL     1       8.148  -0.622  -9.743  1.00  0.00     0.049 A 
ATOM     29  C   UNL     1       6.438  -5.826  -8.245  1.00  0.00     0.074 A 
ATOM     30  C   UNL     1       8.875  -0.539 -10.914  1.00  0.00     0.029 A 
ATOM     31  N   UNL     1       7.817  -1.959  -9.563  1.00  0.00    -0.354 N 
ATOM     32  N   UNL     1       6.909  -4.684  -8.690  1.00  0.00    -0.248 NA
ATOM     33  C   UNL     1       6.687  -6.969  -9.130  1.00  0.00     0.031 C 
ATOM     34  C   UNL     1       8.933  -1.820 -11.474  1.00  0.00     0.029 A 
ATOM     35  C   UNL     1       8.295  -2.710 -10.620  1.00  0.00     0.049 A 
ATOM     36  H   UNL     1       7.315  -2.319  -8.796  1.00  0.00     0.167 HD
ATOM     37  C   UNL     1       7.520  -4.971  -9.901  1.00  0.00     0.074 A 
ATOM     38  C   UNL     1       7.381  -6.400 -10.106  1.00  0.00     0.031 C 
ATOM     39  C   UNL     1       8.132  -4.133 -10.774  1.00  0.00     0.031 A 
BRANCH  26  40
ATOM     40  C   UNL     1       8.135   1.851  -9.159  1.00  0.00    -0.014 A 
ATOM     41  C   UNL     1       9.074   2.565  -8.399  1.00  0.00     0.009 A 
ATOM     42  C   UNL     1       7.495   2.496 -10.229  1.00  0.00     0.009 A 
ATOM     43  C   UNL     1       9.335   3.909  -8.682  1.00  0.00     0.001 A 
ATOM     44  C   UNL     1       7.777   3.830 -10.525  1.00  0.00     0.001 A 
ATOM     45  C   UNL     1       8.688   4.539  -9.745  1.00  0.00     0.000 A 
ENDBRANCH  26  40
BRANCH  27  46
ATOM     46  C   UNL     1       5.220  -7.475  -6.624  1.00  0.00    -0.014 A 
ATOM     47  C   UNL     1       6.135  -8.496  -6.328  1.00  0.00     0.009 A 
ATOM     48  C   UNL     1       3.847  -7.777  -6.604  1.00  0.00     0.009 A 
ATOM     49  C   UNL     1       5.687  -9.791  -6.048  1.00  0.00     0.001 A 
ATOM     50  C   UNL     1       3.400  -9.063  -6.291  1.00  0.00     0.001 A 
ATOM     51  C   UNL     1       4.321 -10.072  -6.025  1.00  0.00     0.000 A 
ENDBRANCH  27  46
BRANCH  39  52
ATOM     52  C   UNL     1       8.715  -4.755 -12.008  1.00  0.00    -0.014 A 
ATOM     53  C   UNL     1       7.892  -5.183 -13.060  1.00  0.00     0.009 A 
ATOM     54  C   UNL     1      10.108  -4.847 -12.143  1.00  0.00     0.009 A 
ATOM     55  C   UNL     1       8.457  -5.714 -14.219  1.00  0.00     0.001 A 
ATOM     56  C   UNL     1      10.670  -5.349 -13.315  1.00  0.00     0.001 A 
ATOM     57  C   UNL     1       9.844  -5.788 -14.349  1.00  0.00     0.000 A 
ENDBRANCH  39  52
ENDBRANCH  13  14
ENDBRANCH   6   8
ENDBRANCH   5   6
ENDBRANCH   4   5
ENDBRANCH   3   4
ENDBRANCH   2   3
ENDBRANCH   1   2
BRANCH   1  58
ATOM     58  C   UNL     1       2.770  -3.165   1.744  1.00  0.00     0.261 C 
BRANCH  58  59
ATOM     59  O   UNL     1       3.443  -3.240   3.013  1.00  0.00    -0.460 OA
BRANCH  59  60
ATOM     60  C   UNL     1       4.800  -3.314   2.942  1.00  0.00     0.339 C 
ATOM     61  O   UNL     1       5.494  -3.621   1.997  1.00  0.00    -0.246 OA
BRANCH  60  62
ATOM     62  C   UNL     1       5.296  -2.695   4.173  1.00  0.00     0.080 A 
ATOM     63  C   UNL     1       6.094  -1.577   4.073  1.00  0.00     0.131 A 
ATOM     64  C   UNL     1       4.886  -3.111   5.431  1.00  0.00     0.043 A 
ATOM     65  N   UNL     1       6.382  -0.786   5.130  1.00  0.00    -0.220 NA
ATOM     66  C   UNL     1       5.231  -2.351   6.553  1.00  0.00     0.104 A 
ATOM     67  C   UNL     1       5.909  -1.141   6.357  1.00  0.00     0.232 A 
ATOM     68  Cl  UNL     1       4.740  -3.018   8.065  1.00  0.00    -0.078 Cl
BRANCH  67  69
ATOM     69  O   UNL     1       6.144  -0.133   7.230  1.00  0.00    -0.476 OA
BRANCH  69  70
ATOM     70  C   UNL     1       5.533  -0.042   8.508  1.00  0.00     0.235 C 
BRANCH  70  71
ATOM     71  C   UNL     1       4.087   0.369   8.527  1.00  0.00     0.027 C 
ATOM     72  C   UNL     1       3.550   1.412   7.576  1.00  0.00     0.007 C 
ATOM     73  C   UNL     1       3.023   0.006   7.513  1.00  0.00     0.007 C 
ENDBRANCH  70  71
ENDBRANCH  69  70
ENDBRANCH  67  69
ENDBRANCH  60  62
ENDBRANCH  59  60
ENDBRANCH  58  59
ENDBRANCH   1  58
TORSDOF 17
