REMARK SMILES CCOc1ccccc1-c1cc(C(=O)OCCOCCOC(=O)c2ccc(-c3c4nc(c(-c5ccccc5)c5ccc([nH]5)c(-c5ccccc5)c5nc(c(-c6ccccc6)c6ccc3[nH]6)C=C5)C=C4)cc2)c2cc(C)cc(C)c2n1
REMARK SMILES IDX 17 1 16 2 15 3 13 4 14 5 12 6 10 7 11 8 80 9 79 10 72 11
REMARK SMILES IDX 77 12 73 13 76 14 78 15 74 16 75 17 9 18 4 19 5 20 6 21 8 22
REMARK SMILES IDX 7 23 3 24 2 25 1 26 18 27 19 28 20 29 21 30 22 31 23 32
REMARK SMILES IDX 24 33 25 34 71 35 26 36 70 37 27 38 28 39 29 40 64 41 30 42
REMARK SMILES IDX 69 43 63 44 65 45 31 46 68 47 62 48 61 49 32 51 54 52 39 53
REMARK SMILES IDX 53 54 40 55 43 56 52 57 66 58 41 59 42 60 51 62 67 63 44 64
REMARK SMILES IDX 33 65 34 66 38 67 35 68 37 69 36 70 55 71 56 72 60 73 57 74
REMARK SMILES IDX 59 75 58 76 45 77 46 78 50 79 47 80 49 81 48 82
REMARK H PARENT 65 50 43 61
REMARK Flexibility Score: inf
ROOT
ATOM      1  C   UNL     1      -3.417  -1.309   0.096  1.00  0.00     0.202 C 
ENDROOT
BRANCH   1   2
ATOM      2  C   UNL     1      -3.129   0.164  -0.185  1.00  0.00     0.261 C 
BRANCH   2   3
ATOM      3  O   UNL     1      -1.767   0.508   0.128  1.00  0.00    -0.460 OA
BRANCH   3   4
ATOM      4  C   UNL     1      -1.639   1.209   1.281  1.00  0.00     0.338 C 
ATOM      5  O   UNL     1      -2.559   1.579   1.995  1.00  0.00    -0.246 OA
BRANCH   4   6
ATOM      6  C   UNL     1      -0.232   1.514   1.612  1.00  0.00     0.071 A 
ATOM      7  C   UNL     1       2.019   1.976   1.138  1.00  0.00     0.076 A 
ATOM      8  C   UNL     1       0.785   1.588   0.658  1.00  0.00     0.045 A 
ATOM      9  N   UNL     1       2.040   2.795   2.211  1.00  0.00    -0.247 NA
ATOM     10  C   UNL     1       1.279   2.394   3.230  1.00  0.00     0.075 A 
ATOM     11  C   UNL     1       0.124   1.652   2.970  1.00  0.00     0.015 A 
ATOM     12  C   UNL     1       1.736   2.542   4.539  1.00  0.00    -0.024 A 
ATOM     13  C   UNL     1      -0.479   0.929   4.020  1.00  0.00     0.014 A 
ATOM     14  C   UNL     1       1.177   1.754   5.556  1.00  0.00     0.009 A 
ATOM     15  C   UNL     1       2.941   3.385   4.850  1.00  0.00     0.047 C 
ATOM     16  C   UNL     1       0.107   0.898   5.286  1.00  0.00    -0.050 A 
ATOM     17  C   UNL     1      -0.287  -0.171   6.261  1.00  0.00     0.044 C 
BRANCH   7  18
ATOM     18  C   UNL     1       3.186   1.037   1.280  1.00  0.00     0.042 A 
ATOM     19  C   UNL     1       3.009  -0.253   1.837  1.00  0.00     0.128 A 
ATOM     20  C   UNL     1       3.986  -0.816   2.669  1.00  0.00     0.047 A 
ATOM     21  C   UNL     1       5.205  -0.174   2.849  1.00  0.00     0.004 A 
ATOM     22  C   UNL     1       4.474   1.603   1.377  1.00  0.00     0.014 A 
ATOM     23  C   UNL     1       5.470   1.006   2.159  1.00  0.00     0.001 A 
BRANCH  19  24
ATOM     24  O   UNL     1       1.793  -0.891   1.760  1.00  0.00    -0.493 OA
BRANCH  24  25
ATOM     25  C   UNL     1       1.881  -2.101   0.998  1.00  0.00     0.226 C 
ATOM     26  C   UNL     1       1.551  -1.823  -0.457  1.00  0.00     0.049 C 
ENDBRANCH  24  25
ENDBRANCH  19  24
ENDBRANCH   7  18
ENDBRANCH   4   6
ENDBRANCH   3   4
ENDBRANCH   2   3
ENDBRANCH   1   2
BRANCH   1  27
ATOM     27  O   UNL     1      -3.179  -1.715   1.443  1.00  0.00    -0.374 OA
BRANCH  27  28
ATOM     28  C   UNL     1      -1.881  -2.263   1.693  1.00  0.00     0.202 C 
BRANCH  28  29
ATOM     29  C   UNL     1      -1.757  -3.744   1.308  1.00  0.00     0.261 C 
BRANCH  29  30
ATOM     30  O   UNL     1      -1.702  -3.888  -0.126  1.00  0.00    -0.460 OA
BRANCH  30  31
ATOM     31  C   UNL     1      -2.737  -4.574  -0.671  1.00  0.00     0.338 C 
ATOM     32  O   UNL     1      -3.578  -5.231  -0.085  1.00  0.00    -0.246 OA
BRANCH  31  33
ATOM     33  C   UNL     1      -2.839  -4.263  -2.112  1.00  0.00     0.060 A 
ATOM     34  C   UNL     1      -4.097  -3.878  -2.593  1.00  0.00     0.016 A 
ATOM     35  C   UNL     1      -1.757  -4.389  -2.986  1.00  0.00     0.016 A 
ATOM     36  C   UNL     1      -4.294  -3.678  -3.957  1.00  0.00     0.010 A 
ATOM     37  C   UNL     1      -1.958  -4.194  -4.359  1.00  0.00     0.010 A 
ATOM     38  C   UNL     1      -3.237  -3.876  -4.854  1.00  0.00    -0.014 A 
BRANCH  38  39
ATOM     39  C   UNL     1      -3.518  -3.906  -6.311  1.00  0.00     0.031 A 
ATOM     40  C   UNL     1      -3.681  -5.237  -6.995  1.00  0.00     0.074 A 
ATOM     41  C   UNL     1      -3.680  -2.768  -7.010  1.00  0.00     0.049 A 
ATOM     42  N   UNL     1      -3.938  -5.497  -8.252  1.00  0.00    -0.248 NA
ATOM     43  C   UNL     1      -3.538  -6.432  -6.149  1.00  0.00     0.031 C 
ATOM     44  C   UNL     1      -3.599  -1.417  -6.458  1.00  0.00     0.029 A 
ATOM     45  N   UNL     1      -3.953  -2.574  -8.341  1.00  0.00    -0.354 N 
ATOM     46  C   UNL     1      -3.982  -6.883  -8.348  1.00  0.00     0.074 A 
ATOM     47  C   UNL     1      -3.697  -7.409  -7.030  1.00  0.00     0.031 C 
ATOM     48  C   UNL     1      -3.817  -0.530  -7.446  1.00  0.00     0.029 A 
ATOM     49  C   UNL     1      -4.023  -1.251  -8.701  1.00  0.00     0.049 A 
ATOM     50  H   UNL     1      -4.086  -3.313  -8.977  1.00  0.00     0.167 HD
ATOM     51  C   UNL     1      -4.242  -7.651  -9.432  1.00  0.00     0.031 A 
ATOM     52  C   UNL     1      -4.215  -0.685  -9.908  1.00  0.00     0.031 A 
ATOM     53  C   UNL     1      -4.518  -7.135 -10.746  1.00  0.00     0.049 A 
ATOM     54  C   UNL     1      -4.422  -1.561 -11.114  1.00  0.00     0.074 A 
ATOM     55  C   UNL     1      -4.809  -7.835 -11.904  1.00  0.00     0.029 A 
ATOM     56  N   UNL     1      -4.527  -5.790 -11.077  1.00  0.00    -0.354 N 
ATOM     57  N   UNL     1      -4.485  -2.869 -11.186  1.00  0.00    -0.248 NA
ATOM     58  C   UNL     1      -4.591  -0.880 -12.407  1.00  0.00     0.031 C 
ATOM     59  C   UNL     1      -4.941  -6.915 -12.948  1.00  0.00     0.029 A 
ATOM     60  C   UNL     1      -4.789  -5.640 -12.428  1.00  0.00     0.049 A 
ATOM     61  H   UNL     1      -4.372  -5.051 -10.446  1.00  0.00     0.167 HD
ATOM     62  C   UNL     1      -4.727  -3.165 -12.522  1.00  0.00     0.074 A 
ATOM     63  C   UNL     1      -4.812  -1.901 -13.223  1.00  0.00     0.031 C 
ATOM     64  C   UNL     1      -4.869  -4.376 -13.114  1.00  0.00     0.031 A 
BRANCH  51  65
ATOM     65  C   UNL     1      -4.206  -9.142  -9.247  1.00  0.00    -0.014 A 
ATOM     66  C   UNL     1      -5.221  -9.817  -8.551  1.00  0.00     0.009 A 
ATOM     67  C   UNL     1      -3.155  -9.886  -9.806  1.00  0.00     0.009 A 
ATOM     68  C   UNL     1      -5.167 -11.204  -8.392  1.00  0.00     0.001 A 
ATOM     69  C   UNL     1      -3.117 -11.274  -9.669  1.00  0.00     0.001 A 
ATOM     70  C   UNL     1      -4.118 -11.931  -8.954  1.00  0.00     0.000 A 
ENDBRANCH  51  65
BRANCH  52  71
ATOM     71  C   UNL     1      -4.199   0.795 -10.047  1.00  0.00    -0.014 A 
ATOM     72  C   UNL     1      -5.373   1.501 -10.349  1.00  0.00     0.009 A 
ATOM     73  C   UNL     1      -2.999   1.508  -9.897  1.00  0.00     0.009 A 
ATOM     74  C   UNL     1      -5.341   2.888 -10.519  1.00  0.00     0.001 A 
ATOM     75  C   UNL     1      -2.975   2.897 -10.040  1.00  0.00     0.001 A 
ATOM     76  C   UNL     1      -4.144   3.584 -10.360  1.00  0.00     0.000 A 
ENDBRANCH  52  71
BRANCH  64  77
ATOM     77  C   UNL     1      -5.164  -4.395 -14.587  1.00  0.00    -0.014 A 
ATOM     78  C   UNL     1      -4.175  -4.087 -15.533  1.00  0.00     0.009 A 
ATOM     79  C   UNL     1      -6.440  -4.773 -15.035  1.00  0.00     0.009 A 
ATOM     80  C   UNL     1      -4.466  -4.128 -16.898  1.00  0.00     0.001 A 
ATOM     81  C   UNL     1      -6.721  -4.840 -16.401  1.00  0.00     0.001 A 
ATOM     82  C   UNL     1      -5.737  -4.510 -17.331  1.00  0.00     0.000 A 
ENDBRANCH  64  77
ENDBRANCH  38  39
ENDBRANCH  31  33
ENDBRANCH  30  31
ENDBRANCH  29  30
ENDBRANCH  28  29
ENDBRANCH  27  28
ENDBRANCH   1  27
TORSDOF 17
