REMARK SMILES C[C@@H](Sc1nc2ccccc2c(=O)n1N)C(=O)OCCOCCOC(=O)c1ccc(-c2c3nc(c(-c4ccccc4)c4ccc([nH]4)c(-c4ccccc4)c4nc(c(-c5ccccc5)c5ccc2[nH]5)C=C4)C=C3)cc1
REMARK SMILES IDX 20 1 19 2 18 3 16 4 17 5 2 6 1 7 3 8 4 9 5 10 14 11 6 12
REMARK SMILES IDX 12 13 7 14 11 15 13 16 8 17 10 18 9 19 15 20 21 23 22 24
REMARK SMILES IDX 23 25 24 26 25 27 26 28 27 29 28 30 74 31 29 32 73 33 30 34
REMARK SMILES IDX 31 35 32 36 67 37 33 38 72 39 66 40 68 41 34 42 71 43 65 44
REMARK SMILES IDX 64 45 35 47 57 48 42 49 56 50 43 51 46 52 55 53 69 54 44 55
REMARK SMILES IDX 45 56 54 58 70 59 47 60 36 61 37 62 41 63 38 64 40 65 39 66
REMARK SMILES IDX 58 67 59 68 63 69 60 70 62 71 61 72 48 73 49 74 53 75 50 76
REMARK SMILES IDX 52 77 51 78
REMARK H PARENT 15 21 15 22 68 46 46 57
REMARK Flexibility Score: inf
ROOT
ATOM      1  C   UNL     1      -3.807   0.524   0.572  1.00  0.00     0.202 C 
ENDROOT
BRANCH   1   2
ATOM      2  C   UNL     1      -3.091   1.844   0.276  1.00  0.00     0.261 C 
BRANCH   2   3
ATOM      3  O   UNL     1      -1.706   1.636  -0.047  1.00  0.00    -0.462 OA
BRANCH   3   4
ATOM      4  C   UNL     1      -0.810   2.111   0.862  1.00  0.00     0.319 C 
ATOM      5  O   UNL     1      -1.111   2.724   1.881  1.00  0.00    -0.251 OA
BRANCH   4   6
ATOM      6  C   UNL     1       0.635   1.811   0.476  1.00  0.00     0.161 C 
ATOM      7  C   UNL     1       0.820   0.686  -0.538  1.00  0.00     0.032 C 
BRANCH   6   8
ATOM      8  S   UNL     1       1.349   3.380  -0.120  1.00  0.00    -0.071 SA
BRANCH   8   9
ATOM      9  C   UNL     1       3.055   3.013  -0.060  1.00  0.00     0.191 A 
ATOM     10  N   UNL     1       3.677   2.979  -1.193  1.00  0.00    -0.222 NA
ATOM     11  N   UNL     1       3.679   2.853   1.174  1.00  0.00    -0.202 N 
ATOM     12  C   UNL     1       5.067   2.810  -1.180  1.00  0.00     0.079 A 
ATOM     13  C   UNL     1       5.058   2.666   1.273  1.00  0.00     0.280 A 
ATOM     14  C   UNL     1       5.753   2.837  -2.396  1.00  0.00     0.029 A 
ATOM     15  C   UNL     1       5.799   2.669  -0.000  1.00  0.00     0.068 A 
ATOM     16  O   UNL     1       5.647   2.525   2.345  1.00  0.00    -0.267 OA
ATOM     17  C   UNL     1       7.146   2.737  -2.429  1.00  0.00     0.002 A 
ATOM     18  C   UNL     1       7.194   2.563  -0.022  1.00  0.00     0.016 A 
ATOM     19  C   UNL     1       7.867   2.603  -1.242  1.00  0.00     0.001 A 
BRANCH  11  20
ATOM     20  N   UNL     1       2.947   2.871   2.407  1.00  0.00    -0.334 N 
ATOM     21  H   UNL     1       1.971   3.000   2.398  1.00  0.00     0.178 HD
ATOM     22  H   UNL     1       3.420   2.755   3.262  1.00  0.00     0.178 HD
ENDBRANCH  11  20
ENDBRANCH   8   9
ENDBRANCH   6   8
ENDBRANCH   4   6
ENDBRANCH   3   4
ENDBRANCH   2   3
ENDBRANCH   1   2
BRANCH   1  23
ATOM     23  O   UNL     1      -3.370  -0.187   1.728  1.00  0.00    -0.374 OA
BRANCH  23  24
ATOM     24  C   UNL     1      -2.155  -0.931   1.630  1.00  0.00     0.202 C 
BRANCH  24  25
ATOM     25  C   UNL     1      -2.221  -2.243   0.840  1.00  0.00     0.261 C 
BRANCH  25  26
ATOM     26  O   UNL     1      -2.423  -2.018  -0.568  1.00  0.00    -0.460 OA
BRANCH  26  27
ATOM     27  C   UNL     1      -3.584  -2.513  -1.060  1.00  0.00     0.338 C 
ATOM     28  O   UNL     1      -4.416  -3.183  -0.465  1.00  0.00    -0.246 OA
BRANCH  27  29
ATOM     29  C   UNL     1      -3.832  -1.990  -2.415  1.00  0.00     0.060 A 
ATOM     30  C   UNL     1      -5.052  -1.339  -2.642  1.00  0.00     0.016 A 
ATOM     31  C   UNL     1      -2.943  -2.217  -3.467  1.00  0.00     0.016 A 
ATOM     32  C   UNL     1      -5.412  -0.960  -3.933  1.00  0.00     0.010 A 
ATOM     33  C   UNL     1      -3.311  -1.844  -4.766  1.00  0.00     0.010 A 
ATOM     34  C   UNL     1      -4.563  -1.249  -5.008  1.00  0.00    -0.014 A 
BRANCH  34  35
ATOM     35  C   UNL     1      -5.057  -1.065  -6.394  1.00  0.00     0.031 A 
ATOM     36  C   UNL     1      -5.610  -2.250  -7.137  1.00  0.00     0.074 A 
ATOM     37  C   UNL     1      -5.060   0.150  -6.970  1.00  0.00     0.049 A 
ATOM     38  N   UNL     1      -6.094  -2.315  -8.352  1.00  0.00    -0.248 NA
ATOM     39  C   UNL     1      -5.625  -3.532  -6.413  1.00  0.00     0.031 C 
ATOM     40  C   UNL     1      -4.603   1.387  -6.340  1.00  0.00     0.029 A 
ATOM     41  N   UNL     1      -5.469   0.538  -8.221  1.00  0.00    -0.354 N 
ATOM     42  C   UNL     1      -6.469  -3.640  -8.537  1.00  0.00     0.074 A 
ATOM     43  C   UNL     1      -6.131  -4.351  -7.323  1.00  0.00     0.031 C 
ATOM     44  C   UNL     1      -4.757   2.401  -7.210  1.00  0.00     0.029 A 
ATOM     45  C   UNL     1      -5.294   1.878  -8.465  1.00  0.00     0.049 A 
ATOM     46  H   UNL     1      -5.851  -0.084  -8.881  1.00  0.00     0.167 HD
ATOM     47  C   UNL     1      -7.049  -4.215  -9.617  1.00  0.00     0.031 A 
ATOM     48  C   UNL     1      -5.527   2.598  -9.579  1.00  0.00     0.031 A 
ATOM     49  C   UNL     1      -7.373  -3.518 -10.833  1.00  0.00     0.049 A 
ATOM     50  C   UNL     1      -6.088   1.917 -10.799  1.00  0.00     0.074 A 
ATOM     51  C   UNL     1      -7.964  -4.016 -11.982  1.00  0.00     0.029 A 
ATOM     52  N   UNL     1      -7.126  -2.174 -11.060  1.00  0.00    -0.354 N 
ATOM     53  N   UNL     1      -6.448   0.667 -10.957  1.00  0.00    -0.248 NA
ATOM     54  C   UNL     1      -6.277   2.753 -11.994  1.00  0.00     0.031 C 
ATOM     55  C   UNL     1      -8.030  -2.982 -12.922  1.00  0.00     0.029 A 
ATOM     56  C   UNL     1      -7.529  -1.830 -12.339  1.00  0.00     0.049 A 
ATOM     57  H   UNL     1      -6.723  -1.556 -10.408  1.00  0.00     0.167 HD
ATOM     58  C   UNL     1      -6.930   0.572 -12.257  1.00  0.00     0.074 A 
ATOM     59  C   UNL     1      -6.827   1.893 -12.840  1.00  0.00     0.031 C 
ATOM     60  C   UNL     1      -7.418  -0.512 -12.907  1.00  0.00     0.031 A 
BRANCH  47  61
ATOM     61  C   UNL     1      -7.342  -5.686  -9.540  1.00  0.00    -0.014 A 
ATOM     62  C   UNL     1      -8.395  -6.177  -8.751  1.00  0.00     0.009 A 
ATOM     63  C   UNL     1      -6.573  -6.590 -10.289  1.00  0.00     0.009 A 
ATOM     64  C   UNL     1      -8.651  -7.549  -8.691  1.00  0.00     0.001 A 
ATOM     65  C   UNL     1      -6.848  -7.958 -10.245  1.00  0.00     0.001 A 
ATOM     66  C   UNL     1      -7.881  -8.437  -9.441  1.00  0.00     0.000 A 
ENDBRANCH  47  61
BRANCH  48  67
ATOM     67  C   UNL     1      -5.215   4.050  -9.605  1.00  0.00    -0.014 A 
ATOM     68  C   UNL     1      -6.244   5.002  -9.642  1.00  0.00     0.009 A 
ATOM     69  C   UNL     1      -3.881   4.489  -9.611  1.00  0.00     0.009 A 
ATOM     70  C   UNL     1      -5.943   6.365  -9.707  1.00  0.00     0.001 A 
ATOM     71  C   UNL     1      -3.584   5.852  -9.650  1.00  0.00     0.001 A 
ATOM     72  C   UNL     1      -4.615   6.789  -9.707  1.00  0.00     0.000 A 
ENDBRANCH  48  67
BRANCH  60  73
ATOM     73  C   UNL     1      -7.909  -0.309 -14.312  1.00  0.00    -0.014 A 
ATOM     74  C   UNL     1      -7.014  -0.129 -15.378  1.00  0.00     0.009 A 
ATOM     75  C   UNL     1      -9.287  -0.344 -14.578  1.00  0.00     0.009 A 
ATOM     76  C   UNL     1      -7.492   0.044 -16.678  1.00  0.00     0.001 A 
ATOM     77  C   UNL     1      -9.761  -0.198 -15.883  1.00  0.00     0.001 A 
ATOM     78  C   UNL     1      -8.863   0.004 -16.930  1.00  0.00     0.000 A 
ENDBRANCH  60  73
ENDBRANCH  34  35
ENDBRANCH  27  29
ENDBRANCH  26  27
ENDBRANCH  25  26
ENDBRANCH  24  25
ENDBRANCH  23  24
ENDBRANCH   1  23
TORSDOF 17
