REMARK SMILES CC(C)C[C@@H](CNS(=O)(=O)c1ccn(C)c1)C(=O)OCCOCCOC(=O)c1ccc(-c2c3nc(c(-c4ccccc4)c4ccc([nH]4)c(-c4ccccc4)c4nc(c(-c5ccccc5)c5ccc2[nH]5)C=C4)C=C3)cc1
REMARK SMILES IDX 21 1 20 2 19 3 17 4 18 5 5 6 4 7 2 8 1 9 3 10 6 11 7 12 8 14
REMARK SMILES IDX 9 15 10 16 11 17 12 18 16 19 13 20 14 21 15 22 22 23 23 24
REMARK SMILES IDX 24 25 25 26 26 27 27 28 28 29 29 30 75 31 30 32 74 33 31 34
REMARK SMILES IDX 32 35 33 36 68 37 34 38 73 39 67 40 69 41 35 42 72 43 66 44
REMARK SMILES IDX 65 45 36 47 58 48 43 49 57 50 44 51 47 52 56 53 70 54 45 55
REMARK SMILES IDX 46 56 55 58 71 59 48 60 37 61 38 62 42 63 39 64 41 65 40 66
REMARK SMILES IDX 59 67 60 68 64 69 61 70 63 71 62 72 49 73 50 74 54 75 51 76
REMARK SMILES IDX 53 77 52 78
REMARK H PARENT 7 13 69 46 47 57
REMARK Flexibility Score: inf
ROOT
ATOM      1  C   UNL     1      -5.735   1.063  -0.245  1.00  0.00     0.202 C 
ENDROOT
BRANCH   1   2
ATOM      2  C   UNL     1      -4.865   2.212   0.272  1.00  0.00     0.261 C 
BRANCH   2   3
ATOM      3  O   UNL     1      -3.483   2.081  -0.108  1.00  0.00    -0.463 OA
BRANCH   3   4
ATOM      4  C   UNL     1      -2.603   1.944   0.919  1.00  0.00     0.310 C 
ATOM      5  O   UNL     1      -2.907   1.926   2.107  1.00  0.00    -0.252 OA
BRANCH   4   6
ATOM      6  C   UNL     1      -1.154   1.873   0.468  1.00  0.00     0.114 C 
BRANCH   6   7
ATOM      7  C   UNL     1      -0.908   1.244  -0.919  1.00  0.00     0.019 C 
BRANCH   7   8
ATOM      8  C   UNL     1       0.583   0.988  -1.245  1.00  0.00    -0.017 C 
ATOM      9  C   UNL     1       1.236   0.010  -0.264  1.00  0.00     0.007 C 
ATOM     10  C   UNL     1       0.732   0.452  -2.671  1.00  0.00     0.007 C 
ENDBRANCH   7   8
ENDBRANCH   6   7
BRANCH   6  11
ATOM     11  C   UNL     1      -0.531   3.259   0.646  1.00  0.00     0.114 C 
BRANCH  11  12
ATOM     12  N   UNL     1      -1.200   4.247  -0.224  1.00  0.00    -0.210 NA
ATOM     13  H   UNL     1      -2.206   4.112  -0.129  1.00  0.00     0.141 HD
BRANCH  12  14
ATOM     14  S   UNL     1      -0.871   5.875   0.083  1.00  0.00     0.242 S 
ATOM     15  O   UNL     1       0.559   6.002   0.246  1.00  0.00    -0.207 OA
ATOM     16  O   UNL     1      -1.606   6.640  -0.899  1.00  0.00    -0.207 OA
BRANCH  14  17
ATOM     17  C   UNL     1      -1.534   6.343   1.603  1.00  0.00     0.100 A 
ATOM     18  C   UNL     1      -1.390   7.627   2.188  1.00  0.00     0.041 A 
ATOM     19  C   UNL     1      -2.264   5.569   2.484  1.00  0.00     0.106 A 
ATOM     20  C   UNL     1      -1.985   7.579   3.432  1.00  0.00     0.086 A 
ATOM     21  N   UNL     1      -2.474   6.313   3.615  1.00  0.00    -0.356 N 
ATOM     22  C   UNL     1      -3.071   5.802   4.828  1.00  0.00     0.149 C 
ENDBRANCH  14  17
ENDBRANCH  12  14
ENDBRANCH  11  12
ENDBRANCH   6  11
ENDBRANCH   4   6
ENDBRANCH   3   4
ENDBRANCH   2   3
ENDBRANCH   1   2
BRANCH   1  23
ATOM     23  O   UNL     1      -5.392  -0.251   0.187  1.00  0.00    -0.374 OA
BRANCH  23  24
ATOM     24  C   UNL     1      -4.239  -0.855  -0.397  1.00  0.00     0.202 C 
BRANCH  24  25
ATOM     25  C   UNL     1      -4.357  -1.309  -1.858  1.00  0.00     0.261 C 
BRANCH  25  26
ATOM     26  O   UNL     1      -4.544  -0.211  -2.771  1.00  0.00    -0.460 OA
BRANCH  26  27
ATOM     27  C   UNL     1      -5.702  -0.251  -3.479  1.00  0.00     0.338 C 
ATOM     28  O   UNL     1      -6.542  -1.134  -3.479  1.00  0.00    -0.246 OA
BRANCH  27  29
ATOM     29  C   UNL     1      -5.921   1.037  -4.164  1.00  0.00     0.060 A 
ATOM     30  C   UNL     1      -7.071   1.766  -3.833  1.00  0.00     0.016 A 
ATOM     31  C   UNL     1      -5.066   1.481  -5.173  1.00  0.00     0.016 A 
ATOM     32  C   UNL     1      -7.380   2.938  -4.524  1.00  0.00     0.010 A 
ATOM     33  C   UNL     1      -5.386   2.649  -5.875  1.00  0.00     0.010 A 
ATOM     34  C   UNL     1      -6.553   3.373  -5.568  1.00  0.00    -0.014 A 
BRANCH  34  35
ATOM     35  C   UNL     1      -6.944   4.543  -6.391  1.00  0.00     0.031 A 
ATOM     36  C   UNL     1      -7.611   4.328  -7.721  1.00  0.00     0.074 A 
ATOM     37  C   UNL     1      -6.689   5.792  -5.959  1.00  0.00     0.049 A 
ATOM     38  N   UNL     1      -7.948   5.209  -8.628  1.00  0.00    -0.248 NA
ATOM     39  C   UNL     1      -7.941   2.938  -8.077  1.00  0.00     0.031 C 
ATOM     40  C   UNL     1      -6.083   6.135  -4.674  1.00  0.00     0.029 A 
ATOM     41  N   UNL     1      -6.893   7.004  -6.571  1.00  0.00    -0.354 N 
ATOM     42  C   UNL     1      -8.516   4.483  -9.667  1.00  0.00     0.074 A 
ATOM     43  C   UNL     1      -8.471   3.088  -9.284  1.00  0.00     0.031 C 
ATOM     44  C   UNL     1      -5.938   7.470  -4.604  1.00  0.00     0.029 A 
ATOM     45  C   UNL     1      -6.405   8.068  -5.852  1.00  0.00     0.049 A 
ATOM     46  H   UNL     1      -7.344   7.101  -7.441  1.00  0.00     0.167 HD
ATOM     47  C   UNL     1      -9.025   4.939 -10.836  1.00  0.00     0.031 A 
ATOM     48  C   UNL     1      -6.308   9.371  -6.180  1.00  0.00     0.031 A 
ATOM     49  C   UNL     1      -9.070   6.324 -11.219  1.00  0.00     0.049 A 
ATOM     50  C   UNL     1      -6.803   9.836  -7.524  1.00  0.00     0.074 A 
ATOM     51  C   UNL     1      -9.614   6.883 -12.364  1.00  0.00     0.029 A 
ATOM     52  N   UNL     1      -8.537   7.366 -10.479  1.00  0.00    -0.354 N 
ATOM     53  N   UNL     1      -7.386   9.147  -8.475  1.00  0.00    -0.248 NA
ATOM     54  C   UNL     1      -6.620  11.261  -7.842  1.00  0.00     0.031 C 
ATOM     55  C   UNL     1      -9.356   8.257 -12.344  1.00  0.00     0.029 A 
ATOM     56  C   UNL     1      -8.697   8.558 -11.163  1.00  0.00     0.049 A 
ATOM     57  H   UNL     1      -8.109   7.272  -9.597  1.00  0.00     0.167 HD
ATOM     58  C   UNL     1      -7.653  10.055  -9.492  1.00  0.00     0.074 A 
ATOM     59  C   UNL     1      -7.188  11.348  -9.036  1.00  0.00     0.031 C 
ATOM     60  C   UNL     1      -8.228   9.836 -10.699  1.00  0.00     0.031 A 
BRANCH  47  61
ATOM     61  C   UNL     1      -9.549   3.928 -11.815  1.00  0.00    -0.014 A 
ATOM     62  C   UNL     1     -10.790   3.303 -11.625  1.00  0.00     0.009 A 
ATOM     63  C   UNL     1      -8.823   3.663 -12.988  1.00  0.00     0.009 A 
ATOM     64  C   UNL     1     -11.287   2.419 -12.585  1.00  0.00     0.001 A 
ATOM     65  C   UNL     1      -9.331   2.794 -13.954  1.00  0.00     0.001 A 
ATOM     66  C   UNL     1     -10.561   2.170 -13.751  1.00  0.00     0.000 A 
ENDBRANCH  47  61
BRANCH  48  67
ATOM     67  C   UNL     1      -5.656  10.331  -5.251  1.00  0.00    -0.014 A 
ATOM     68  C   UNL     1      -6.396  11.345  -4.626  1.00  0.00     0.009 A 
ATOM     69  C   UNL     1      -4.272  10.261  -5.021  1.00  0.00     0.009 A 
ATOM     70  C   UNL     1      -5.759  12.287  -3.815  1.00  0.00     0.001 A 
ATOM     71  C   UNL     1      -3.643  11.185  -4.185  1.00  0.00     0.001 A 
ATOM     72  C   UNL     1      -4.385  12.205  -3.593  1.00  0.00     0.000 A 
ENDBRANCH  48  67
BRANCH  60  73
ATOM     73  C   UNL     1      -8.402  11.021 -11.606  1.00  0.00    -0.014 A 
ATOM     74  C   UNL     1      -7.307  11.582 -12.281  1.00  0.00     0.009 A 
ATOM     75  C   UNL     1      -9.683  11.550 -11.827  1.00  0.00     0.009 A 
ATOM     76  C   UNL     1      -7.489  12.666 -13.141  1.00  0.00     0.001 A 
ATOM     77  C   UNL     1      -9.865  12.618 -12.707  1.00  0.00     0.001 A 
ATOM     78  C   UNL     1      -8.768  13.179 -13.357  1.00  0.00     0.000 A 
ENDBRANCH  60  73
ENDBRANCH  34  35
ENDBRANCH  27  29
ENDBRANCH  26  27
ENDBRANCH  25  26
ENDBRANCH  24  25
ENDBRANCH  23  24
ENDBRANCH   1  23
TORSDOF 20
