REMARK SMILES COC(=O)CCN(C)C(=O)NCc1ccc(C(=O)OCCOCCOC(=O)c2ccc(-c3c4nc(c(-c5ccccc5)c5ccc([nH]5)c(-c5ccccc5)c5nc(c(-c6ccccc6)c6ccc3[nH]6)C=C5)C=C4)cc2)o1
REMARK SMILES IDX 20 1 19 2 17 3 18 4 16 5 13 6 14 7 76 8 15 9 12 10 11 11
REMARK SMILES IDX 9 12 10 13 7 15 8 16 6 17 5 18 3 19 4 20 2 21 1 22 21 23
REMARK SMILES IDX 22 24 23 25 24 26 25 27 26 28 27 29 28 30 29 31 75 32 30 33
REMARK SMILES IDX 74 34 31 35 32 36 33 37 68 38 34 39 73 40 67 41 69 42 35 43
REMARK SMILES IDX 72 44 66 45 65 46 36 48 58 49 43 50 57 51 44 52 47 53 56 54
REMARK SMILES IDX 70 55 45 56 46 57 55 59 71 60 48 61 37 62 38 63 42 64 39 65
REMARK SMILES IDX 41 66 40 67 59 68 60 69 64 70 61 71 63 72 62 73 49 74 50 75
REMARK SMILES IDX 54 76 51 77 53 78 52 79
REMARK H PARENT 11 14 69 47 47 58
REMARK Flexibility Score: inf
ROOT
ATOM      1  C   UNL     1       0.574 -11.267  -2.228  1.00  0.00     0.261 C 
ENDROOT
BRANCH   1   2
ATOM      2  O   UNL     1       1.122  -9.947  -2.082  1.00  0.00    -0.457 OA
BRANCH   2   3
ATOM      3  C   UNL     1       0.454  -8.946  -2.723  1.00  0.00     0.374 C 
ATOM      4  O   UNL     1      -0.381  -9.108  -3.604  1.00  0.00    -0.242 OA
BRANCH   3   5
ATOM      5  C   UNL     1       0.791  -7.691  -2.095  1.00  0.00     0.211 A 
ATOM      6  C   UNL     1       0.371  -5.627  -1.459  1.00  0.00     0.124 A 
ATOM      7  C   UNL     1       1.545  -5.995  -0.834  1.00  0.00     0.048 A 
ATOM      8  O   UNL     1      -0.080  -6.644  -2.241  1.00  0.00    -0.452 OA
ATOM      9  C   UNL     1       1.816  -7.319  -1.242  1.00  0.00     0.058 A 
BRANCH   6  10
ATOM     10  C   UNL     1      -0.462  -4.398  -1.418  1.00  0.00     0.193 C 
BRANCH  10  11
ATOM     11  N   UNL     1       0.436  -3.272  -1.331  1.00  0.00    -0.331 N 
ATOM     12  C   UNL     1       1.016  -2.429  -2.192  1.00  0.00     0.317 C 
ATOM     13  O   UNL     1       1.969  -1.797  -1.725  1.00  0.00    -0.249 OA
ATOM     14  H   UNL     1       0.686  -3.074  -0.400  1.00  0.00     0.165 HD
BRANCH  12  15
ATOM     15  N   UNL     1       0.557  -2.207  -3.460  1.00  0.00    -0.327 N 
ATOM     16  C   UNL     1      -0.497  -2.934  -4.146  1.00  0.00     0.148 C 
BRANCH  15  17
ATOM     17  C   UNL     1       1.058  -1.000  -4.136  1.00  0.00     0.132 C 
BRANCH  17  18
ATOM     18  C   UNL     1       0.281   0.256  -3.746  1.00  0.00     0.144 C 
BRANCH  18  19
ATOM     19  C   UNL     1       0.801   0.836  -2.456  1.00  0.00     0.307 C 
ATOM     20  O   UNL     1       1.760   1.594  -2.389  1.00  0.00    -0.252 OA
BRANCH  19  21
ATOM     21  O   UNL     1       0.072   0.384  -1.398  1.00  0.00    -0.469 OA
ATOM     22  C   UNL     1       0.669   0.624  -0.122  1.00  0.00     0.282 C 
ENDBRANCH  19  21
ENDBRANCH  18  19
ENDBRANCH  17  18
ENDBRANCH  15  17
ENDBRANCH  12  15
ENDBRANCH  10  11
ENDBRANCH   6  10
ENDBRANCH   3   5
ENDBRANCH   2   3
ENDBRANCH   1   2
BRANCH   1  23
ATOM     23  C   UNL     1      -0.037 -11.713  -0.895  1.00  0.00     0.202 C 
BRANCH  23  24
ATOM     24  O   UNL     1      -1.278 -11.071  -0.592  1.00  0.00    -0.374 OA
BRANCH  24  25
ATOM     25  C   UNL     1      -1.191  -9.848   0.144  1.00  0.00     0.202 C 
BRANCH  25  26
ATOM     26  C   UNL     1      -1.168 -10.029   1.664  1.00  0.00     0.261 C 
BRANCH  26  27
ATOM     27  O   UNL     1       0.099 -10.568   2.087  1.00  0.00    -0.460 OA
BRANCH  27  28
ATOM     28  C   UNL     1       0.063 -11.856   2.501  1.00  0.00     0.338 C 
ATOM     29  O   UNL     1      -0.922 -12.554   2.666  1.00  0.00    -0.246 OA
BRANCH  28  30
ATOM     30  C   UNL     1       1.438 -12.390   2.576  1.00  0.00     0.060 A 
ATOM     31  C   UNL     1       1.663 -13.658   2.025  1.00  0.00     0.016 A 
ATOM     32  C   UNL     1       2.476 -11.697   3.205  1.00  0.00     0.016 A 
ATOM     33  C   UNL     1       2.915 -14.257   2.141  1.00  0.00     0.010 A 
ATOM     34  C   UNL     1       3.732 -12.303   3.325  1.00  0.00     0.010 A 
ATOM     35  C   UNL     1       3.947 -13.598   2.822  1.00  0.00    -0.014 A 
BRANCH  35  36
ATOM     36  C   UNL     1       5.205 -14.324   3.113  1.00  0.00     0.031 A 
ATOM     37  C   UNL     1       5.387 -14.965   4.461  1.00  0.00     0.074 A 
ATOM     38  C   UNL     1       6.162 -14.445   2.176  1.00  0.00     0.049 A 
ATOM     39  N   UNL     1       6.396 -15.665   4.915  1.00  0.00    -0.248 NA
ATOM     40  C   UNL     1       4.286 -14.797   5.422  1.00  0.00     0.031 C 
ATOM     41  C   UNL     1       6.095 -13.899   0.822  1.00  0.00     0.029 A 
ATOM     42  N   UNL     1       7.381 -15.073   2.228  1.00  0.00    -0.354 N 
ATOM     43  C   UNL     1       6.052 -16.020   6.213  1.00  0.00     0.074 A 
ATOM     44  C   UNL     1       4.757 -15.433   6.484  1.00  0.00     0.031 C 
ATOM     45  C   UNL     1       7.227 -14.214   0.170  1.00  0.00     0.029 A 
ATOM     46  C   UNL     1       8.105 -14.963   1.068  1.00  0.00     0.049 A 
ATOM     47  H   UNL     1       7.705 -15.556   3.023  1.00  0.00     0.167 HD
ATOM     48  C   UNL     1       6.748 -16.772   7.099  1.00  0.00     0.031 A 
ATOM     49  C   UNL     1       9.340 -15.405   0.767  1.00  0.00     0.031 A 
ATOM     50  C   UNL     1       8.041 -17.344   6.842  1.00  0.00     0.049 A 
ATOM     51  C   UNL     1      10.124 -16.178   1.793  1.00  0.00     0.074 A 
ATOM     52  C   UNL     1       8.813 -18.140   7.671  1.00  0.00     0.029 A 
ATOM     53  N   UNL     1       8.760 -17.171   5.670  1.00  0.00    -0.354 N 
ATOM     54  N   UNL     1       9.771 -16.538   3.003  1.00  0.00    -0.248 NA
ATOM     55  C   UNL     1      11.474 -16.611   1.405  1.00  0.00     0.031 C 
ATOM     56  C   UNL     1      10.021 -18.407   7.018  1.00  0.00     0.029 A 
ATOM     57  C   UNL     1       9.980 -17.819   5.764  1.00  0.00     0.049 A 
ATOM     58  H   UNL     1       8.449 -16.662   4.887  1.00  0.00     0.167 HD
ATOM     59  C   UNL     1      10.845 -17.257   3.512  1.00  0.00     0.074 A 
ATOM     60  C   UNL     1      11.856 -17.293   2.476  1.00  0.00     0.031 C 
ATOM     61  C   UNL     1      10.980 -17.838   4.729  1.00  0.00     0.031 A 
BRANCH  48  62
ATOM     62  C   UNL     1       6.126 -16.988   8.449  1.00  0.00    -0.014 A 
ATOM     63  C   UNL     1       5.032 -17.851   8.616  1.00  0.00     0.009 A 
ATOM     64  C   UNL     1       6.655 -16.334   9.572  1.00  0.00     0.009 A 
ATOM     65  C   UNL     1       4.458 -18.028   9.877  1.00  0.00     0.001 A 
ATOM     66  C   UNL     1       6.095 -16.531  10.835  1.00  0.00     0.001 A 
ATOM     67  C   UNL     1       4.992 -17.370  10.985  1.00  0.00     0.000 A 
ENDBRANCH  48  62
BRANCH  49  68
ATOM     68  C   UNL     1       9.924 -15.117  -0.568  1.00  0.00    -0.014 A 
ATOM     69  C   UNL     1      10.076 -16.138  -1.518  1.00  0.00     0.009 A 
ATOM     70  C   UNL     1      10.339 -13.816  -0.893  1.00  0.00     0.009 A 
ATOM     71  C   UNL     1      10.650 -15.864  -2.761  1.00  0.00     0.001 A 
ATOM     72  C   UNL     1      10.891 -13.542  -2.145  1.00  0.00     0.001 A 
ATOM     73  C   UNL     1      11.052 -14.567  -3.076  1.00  0.00     0.000 A 
ENDBRANCH  49  68
BRANCH  61  74
ATOM     74  C   UNL     1      12.257 -18.582   4.998  1.00  0.00    -0.014 A 
ATOM     75  C   UNL     1      13.458 -17.898   5.243  1.00  0.00     0.009 A 
ATOM     76  C   UNL     1      12.250 -19.985   5.046  1.00  0.00     0.009 A 
ATOM     77  C   UNL     1      14.633 -18.606   5.502  1.00  0.00     0.001 A 
ATOM     78  C   UNL     1      13.421 -20.689   5.329  1.00  0.00     0.001 A 
ATOM     79  C   UNL     1      14.613 -20.000   5.548  1.00  0.00     0.000 A 
ENDBRANCH  61  74
ENDBRANCH  35  36
ENDBRANCH  28  30
ENDBRANCH  27  28
ENDBRANCH  26  27
ENDBRANCH  25  26
ENDBRANCH  24  25
ENDBRANCH  23  24
ENDBRANCH   1  23
TORSDOF 21
