REMARK SMILES C[C@@H](c1ccccc1)[C@@H](CC(=O)Nc1ccccc1I)C(=O)OCCOCCOC(=O)c1ccc(-c2c3nc(c(-c4ccccc4)c4ccc([nH]4)c(-c4ccccc4)c4nc(c(-c5ccccc5)c5ccc2[nH]5)C=C4)C=C3)cc1
REMARK SMILES IDX 25 1 24 2 23 3 21 4 22 5 9 6 2 7 1 8 3 9 4 10 8 11 5 12 7 13
REMARK SMILES IDX 6 14 10 15 11 16 12 17 13 18 14 20 15 21 19 22 16 23 18 24
REMARK SMILES IDX 20 25 17 26 26 27 27 28 28 29 29 30 30 31 31 32 32 33 33 34
REMARK SMILES IDX 79 35 34 36 78 37 35 38 36 39 37 40 72 41 38 42 77 43 71 44
REMARK SMILES IDX 73 45 39 46 76 47 70 48 69 49 40 51 62 52 47 53 61 54 48 55
REMARK SMILES IDX 51 56 60 57 74 58 49 59 50 60 59 62 75 63 52 64 41 65 42 66
REMARK SMILES IDX 46 67 43 68 45 69 44 70 63 71 64 72 68 73 65 74 67 75 66 76
REMARK SMILES IDX 53 77 54 78 58 79 55 80 57 81 56 82
REMARK H PARENT 13 19 73 50 51 61
REMARK Flexibility Score: inf
ROOT
ATOM      1  C   UNL     1      -2.090   5.434  -1.208  1.00  0.00     0.202 C 
ENDROOT
BRANCH   1   2
ATOM      2  C   UNL     1      -2.429   4.340  -0.198  1.00  0.00     0.261 C 
BRANCH   2   3
ATOM      3  O   UNL     1      -1.476   3.251  -0.202  1.00  0.00    -0.463 OA
BRANCH   3   4
ATOM      4  C   UNL     1      -1.967   2.061  -0.627  1.00  0.00     0.310 C 
ATOM      5  O   UNL     1      -3.019   1.921  -1.242  1.00  0.00    -0.252 OA
BRANCH   4   6
ATOM      6  C   UNL     1      -1.152   0.865  -0.169  1.00  0.00     0.116 C 
BRANCH   6   7
ATOM      7  C   UNL     1       0.286   0.694  -0.697  1.00  0.00     0.031 C 
ATOM      8  C   UNL     1       0.734  -0.774  -0.492  1.00  0.00     0.013 C 
BRANCH   7   9
ATOM      9  C   UNL     1       0.704   1.126  -2.101  1.00  0.00    -0.044 A 
ATOM     10  C   UNL     1       0.645   0.267  -3.209  1.00  0.00     0.004 A 
ATOM     11  C   UNL     1       1.424   2.326  -2.243  1.00  0.00     0.004 A 
ATOM     12  C   UNL     1       1.373   0.546  -4.372  1.00  0.00     0.000 A 
ATOM     13  C   UNL     1       2.145   2.607  -3.406  1.00  0.00     0.000 A 
ATOM     14  C   UNL     1       2.138   1.706  -4.463  1.00  0.00     0.000 A 
ENDBRANCH   7   9
ENDBRANCH   6   7
BRANCH   6  15
ATOM     15  C   UNL     1      -1.268   0.681   1.372  1.00  0.00     0.116 C 
BRANCH  15  16
ATOM     16  C   UNL     1      -0.807   1.791   2.315  1.00  0.00     0.225 C 
ATOM     17  O   UNL     1      -1.579   2.708   2.614  1.00  0.00    -0.275 OA
ATOM     18  N   UNL     1       0.410   1.761   2.956  1.00  0.00    -0.325 N 
ATOM     19  H   UNL     1       0.426   2.045   3.899  1.00  0.00     0.169 HD
BRANCH  18  20
ATOM     20  C   UNL     1       1.635   1.363   2.388  1.00  0.00     0.054 A 
ATOM     21  C   UNL     1       2.116   0.069   2.588  1.00  0.00     0.027 A 
ATOM     22  C   UNL     1       2.427   2.287   1.683  1.00  0.00     0.037 A 
ATOM     23  C   UNL     1       3.316  -0.330   1.986  1.00  0.00     0.002 A 
ATOM     24  C   UNL     1       3.583   1.866   1.018  1.00  0.00     0.017 A 
ATOM     25  I   UNL     1       1.898   4.303   1.571  1.00  0.00    -0.042 I 
ATOM     26  C   UNL     1       4.020   0.551   1.163  1.00  0.00     0.001 A 
ENDBRANCH  18  20
ENDBRANCH  15  16
ENDBRANCH   6  15
ENDBRANCH   4   6
ENDBRANCH   3   4
ENDBRANCH   2   3
ENDBRANCH   1   2
BRANCH   1  27
ATOM     27  O   UNL     1      -2.416   5.113  -2.561  1.00  0.00    -0.374 OA
BRANCH  27  28
ATOM     28  C   UNL     1      -1.469   4.295  -3.252  1.00  0.00     0.202 C 
BRANCH  28  29
ATOM     29  C   UNL     1      -0.304   5.097  -3.833  1.00  0.00     0.261 C 
BRANCH  29  30
ATOM     30  O   UNL     1       0.532   5.596  -2.769  1.00  0.00    -0.460 OA
BRANCH  30  31
ATOM     31  C   UNL     1       0.829   6.911  -2.866  1.00  0.00     0.338 C 
ATOM     32  O   UNL     1       0.682   7.633  -3.836  1.00  0.00    -0.246 OA
BRANCH  31  33
ATOM     33  C   UNL     1       1.223   7.442  -1.549  1.00  0.00     0.060 A 
ATOM     34  C   UNL     1       0.466   8.499  -1.038  1.00  0.00     0.016 A 
ATOM     35  C   UNL     1       2.376   7.015  -0.889  1.00  0.00     0.016 A 
ATOM     36  C   UNL     1       0.921   9.209   0.071  1.00  0.00     0.010 A 
ATOM     37  C   UNL     1       2.810   7.708   0.252  1.00  0.00     0.010 A 
ATOM     38  C   UNL     1       2.132   8.861   0.689  1.00  0.00    -0.014 A 
BRANCH  38  39
ATOM     39  C   UNL     1       2.775   9.852   1.601  1.00  0.00     0.031 A 
ATOM     40  C   UNL     1       3.993  10.607   1.116  1.00  0.00     0.074 A 
ATOM     41  C   UNL     1       2.221  10.188   2.783  1.00  0.00     0.049 A 
ATOM     42  N   UNL     1       4.614  11.623   1.663  1.00  0.00    -0.248 NA
ATOM     43  C   UNL     1       4.593  10.158  -0.152  1.00  0.00     0.031 C 
ATOM     44  C   UNL     1       1.041   9.563   3.379  1.00  0.00     0.029 A 
ATOM     45  N   UNL     1       2.567  11.173   3.679  1.00  0.00    -0.354 N 
ATOM     46  C   UNL     1       5.669  11.925   0.809  1.00  0.00     0.074 A 
ATOM     47  C   UNL     1       5.647  10.950  -0.255  1.00  0.00     0.031 C 
ATOM     48  C   UNL     1       0.735  10.207   4.519  1.00  0.00     0.029 A 
ATOM     49  C   UNL     1       1.705  11.278   4.745  1.00  0.00     0.049 A 
ATOM     50  H   UNL     1       3.357  11.749   3.567  1.00  0.00     0.167 HD
ATOM     51  C   UNL     1       6.564  12.939   0.874  1.00  0.00     0.031 A 
ATOM     52  C   UNL     1       1.685  12.148   5.775  1.00  0.00     0.031 A 
ATOM     53  C   UNL     1       6.597  13.931   1.912  1.00  0.00     0.049 A 
ATOM     54  C   UNL     1       2.711  13.250   5.845  1.00  0.00     0.074 A 
ATOM     55  C   UNL     1       7.455  15.008   2.049  1.00  0.00     0.029 A 
ATOM     56  N   UNL     1       5.729  13.969   2.990  1.00  0.00    -0.354 N 
ATOM     57  N   UNL     1       3.670  13.546   5.002  1.00  0.00    -0.248 NA
ATOM     58  C   UNL     1       2.631  14.155   7.003  1.00  0.00     0.031 C 
ATOM     59  C   UNL     1       7.136  15.671   3.237  1.00  0.00     0.029 A 
ATOM     60  C   UNL     1       6.041  15.041   3.807  1.00  0.00     0.049 A 
ATOM     61  H   UNL     1       4.998  13.328   3.151  1.00  0.00     0.167 HD
ATOM     62  C   UNL     1       4.280  14.690   5.507  1.00  0.00     0.074 A 
ATOM     63  C   UNL     1       3.575  15.041   6.722  1.00  0.00     0.031 C 
ATOM     64  C   UNL     1       5.328  15.389   5.007  1.00  0.00     0.031 A 
BRANCH  51  65
ATOM     65  C   UNL     1       7.596  13.013  -0.218  1.00  0.00    -0.014 A 
ATOM     66  C   UNL     1       7.246  13.382  -1.527  1.00  0.00     0.009 A 
ATOM     67  C   UNL     1       8.937  12.720   0.071  1.00  0.00     0.009 A 
ATOM     68  C   UNL     1       8.213  13.415  -2.534  1.00  0.00     0.001 A 
ATOM     69  C   UNL     1       9.907  12.784  -0.931  1.00  0.00     0.001 A 
ATOM     70  C   UNL     1       9.543  13.120  -2.234  1.00  0.00     0.000 A 
ENDBRANCH  51  65
BRANCH  52  71
ATOM     71  C   UNL     1       0.642  12.036   6.831  1.00  0.00    -0.014 A 
ATOM     72  C   UNL     1      -0.357  13.013   6.962  1.00  0.00     0.009 A 
ATOM     73  C   UNL     1       0.671  10.971   7.744  1.00  0.00     0.009 A 
ATOM     74  C   UNL     1      -1.285  12.944   8.005  1.00  0.00     0.001 A 
ATOM     75  C   UNL     1      -0.276  10.888   8.768  1.00  0.00     0.001 A 
ATOM     76  C   UNL     1      -1.245  11.880   8.905  1.00  0.00     0.000 A 
ENDBRANCH  52  71
BRANCH  64  77
ATOM     77  C   UNL     1       5.747  16.635   5.738  1.00  0.00    -0.014 A 
ATOM     78  C   UNL     1       6.387  16.576   6.985  1.00  0.00     0.009 A 
ATOM     79  C   UNL     1       5.531  17.889   5.145  1.00  0.00     0.009 A 
ATOM     80  C   UNL     1       6.765  17.750   7.641  1.00  0.00     0.001 A 
ATOM     81  C   UNL     1       5.937  19.059   5.788  1.00  0.00     0.001 A 
ATOM     82  C   UNL     1       6.543  18.989   7.041  1.00  0.00     0.000 A 
ENDBRANCH  64  77
ENDBRANCH  38  39
ENDBRANCH  31  33
ENDBRANCH  30  31
ENDBRANCH  29  30
ENDBRANCH  28  29
ENDBRANCH  27  28
ENDBRANCH   1  27
TORSDOF 19
