REMARK SMILES Cc1ccc(C(=O)OCCOCCOC(=O)c2ccc(-c3c4nc(c(-c5ccccc5)c5ccc([nH]5)c(-c5ccccc5)c5nc(c(-c6ccccc6)c6ccc3[nH]6)C=C5)C=C4)cc2)c(Oc2cccc(F)c2C(N)=O)c1
REMARK SMILES IDX 10 1 9 2 8 3 6 4 7 5 5 6 1 7 2 8 3 9 77 10 4 11 65 12 66 13
REMARK SMILES IDX 67 14 68 15 73 16 69 17 71 18 70 19 72 20 74 21 75 22 76 23
REMARK SMILES IDX 11 26 12 27 13 28 14 29 15 30 16 31 17 32 18 33 64 34 19 35
REMARK SMILES IDX 63 36 20 37 21 38 22 39 57 40 23 41 62 42 56 43 58 44 24 45
REMARK SMILES IDX 61 46 55 47 54 48 25 50 47 51 32 52 46 53 33 54 36 55 45 56
REMARK SMILES IDX 59 57 34 58 35 59 44 61 60 62 37 63 26 64 27 65 31 66 28 67
REMARK SMILES IDX 30 68 29 69 48 70 49 71 53 72 50 73 52 74 51 75 38 76 39 77
REMARK SMILES IDX 43 78 40 79 42 80 41 81
REMARK H PARENT 75 24 75 25 58 49 36 60
REMARK Flexibility Score: inf
ROOT
ATOM      1  C   UNL     1      -3.821   0.986  -2.477  1.00  0.00     0.202 C 
ENDROOT
BRANCH   1   2
ATOM      2  C   UNL     1      -3.903   1.441  -1.064  1.00  0.00     0.261 C 
BRANCH   2   3
ATOM      3  O   UNL     1      -2.645   1.246  -0.419  1.00  0.00    -0.460 OA
BRANCH   3   4
ATOM      4  C   UNL     1      -2.365   0.076   0.219  1.00  0.00     0.342 C 
ATOM      5  O   UNL     1      -3.123  -0.832   0.475  1.00  0.00    -0.246 OA
BRANCH   4   6
ATOM      6  C   UNL     1      -0.885   0.020   0.369  1.00  0.00     0.102 A 
ATOM      7  C   UNL     1       3.364  -0.328  -0.065  1.00  0.00     0.044 C 
ATOM      8  C   UNL     1       1.886  -0.199   0.157  1.00  0.00    -0.047 A 
ATOM      9  C   UNL     1       1.090  -1.352   0.219  1.00  0.00     0.004 A 
ATOM     10  C   UNL     1       1.297   1.068   0.277  1.00  0.00     0.051 A 
ATOM     11  C   UNL     1      -0.294  -1.246   0.334  1.00  0.00     0.020 A 
ATOM     12  C   UNL     1      -0.086   1.183   0.380  1.00  0.00     0.142 A 
BRANCH  12  13
ATOM     13  O   UNL     1      -0.757   2.376   0.509  1.00  0.00    -0.455 OA
BRANCH  13  14
ATOM     14  C   UNL     1      -0.219   3.588   0.179  1.00  0.00     0.143 A 
ATOM     15  C   UNL     1      -0.344   4.521   1.222  1.00  0.00     0.048 A 
ATOM     16  C   UNL     1       0.256   3.995  -1.078  1.00  0.00     0.117 A 
ATOM     17  C   UNL     1       0.055   5.841   1.052  1.00  0.00     0.007 A 
ATOM     18  C   UNL     1       0.667   5.326  -1.224  1.00  0.00     0.139 A 
ATOM     19  C   UNL     1       0.575   6.239  -0.173  1.00  0.00     0.040 A 
ATOM     20  F   UNL     1       1.115   5.792  -2.399  1.00  0.00    -0.206 F 
BRANCH  16  21
ATOM     21  C   UNL     1       0.317   3.145  -2.293  1.00  0.00     0.255 C 
ATOM     22  N   UNL     1      -0.632   2.180  -2.437  1.00  0.00    -0.365 N 
ATOM     23  O   UNL     1       1.163   3.295  -3.163  1.00  0.00    -0.269 OA
ATOM     24  H   UNL     1      -1.315   2.054  -1.740  1.00  0.00     0.159 HD
ATOM     25  H   UNL     1      -0.634   1.608  -3.238  1.00  0.00     0.159 HD
ENDBRANCH  16  21
ENDBRANCH  13  14
ENDBRANCH  12  13
ENDBRANCH   4   6
ENDBRANCH   3   4
ENDBRANCH   2   3
ENDBRANCH   1   2
BRANCH   1  26
ATOM     26  O   UNL     1      -3.819  -0.430  -2.414  1.00  0.00    -0.374 OA
BRANCH  26  27
ATOM     27  C   UNL     1      -3.645  -1.076  -3.658  1.00  0.00     0.202 C 
BRANCH  27  28
ATOM     28  C   UNL     1      -4.650  -0.605  -4.719  1.00  0.00     0.261 C 
BRANCH  28  29
ATOM     29  O   UNL     1      -5.996  -0.874  -4.260  1.00  0.00    -0.460 OA
BRANCH  29  30
ATOM     30  C   UNL     1      -6.735   0.195  -3.843  1.00  0.00     0.338 C 
ATOM     31  O   UNL     1      -6.834   1.259  -4.432  1.00  0.00    -0.246 OA
BRANCH  30  32
ATOM     32  C   UNL     1      -7.133   0.005  -2.411  1.00  0.00     0.060 A 
ATOM     33  C   UNL     1      -7.635   1.090  -1.661  1.00  0.00     0.016 A 
ATOM     34  C   UNL     1      -6.662  -1.124  -1.749  1.00  0.00     0.016 A 
ATOM     35  C   UNL     1      -7.513   1.103  -0.260  1.00  0.00     0.010 A 
ATOM     36  C   UNL     1      -6.434  -1.048  -0.391  1.00  0.00     0.010 A 
ATOM     37  C   UNL     1      -6.826   0.070   0.369  1.00  0.00    -0.014 A 
BRANCH  37  38
ATOM     38  C   UNL     1      -6.317   0.063   1.751  1.00  0.00     0.031 A 
ATOM     39  C   UNL     1      -6.701  -1.075   2.624  1.00  0.00     0.074 A 
ATOM     40  C   UNL     1      -5.267   0.847   2.116  1.00  0.00     0.049 A 
ATOM     41  N   UNL     1      -6.418  -1.151   3.877  1.00  0.00    -0.248 NA
ATOM     42  C   UNL     1      -7.465  -2.236   2.163  1.00  0.00     0.031 C 
ATOM     43  C   UNL     1      -4.266   0.598   3.157  1.00  0.00     0.029 A 
ATOM     44  N   UNL     1      -4.852   2.081   1.607  1.00  0.00    -0.354 N 
ATOM     45  C   UNL     1      -6.551  -2.470   4.243  1.00  0.00     0.074 A 
ATOM     46  C   UNL     1      -7.347  -3.065   3.202  1.00  0.00     0.031 C 
ATOM     47  C   UNL     1      -3.578   1.727   3.412  1.00  0.00     0.029 A 
ATOM     48  C   UNL     1      -4.188   2.782   2.624  1.00  0.00     0.049 A 
ATOM     49  H   UNL     1      -5.001   2.404   0.689  1.00  0.00     0.167 HD
ATOM     50  C   UNL     1      -5.814  -2.927   5.294  1.00  0.00     0.031 A 
ATOM     51  C   UNL     1      -4.633   3.998   3.037  1.00  0.00     0.031 A 
ATOM     52  C   UNL     1      -5.098  -1.822   5.955  1.00  0.00     0.049 A 
ATOM     53  C   UNL     1      -5.066   3.837   4.464  1.00  0.00     0.074 A 
ATOM     54  C   UNL     1      -3.761  -1.471   6.043  1.00  0.00     0.029 A 
ATOM     55  N   UNL     1      -5.820  -0.704   6.380  1.00  0.00    -0.354 N 
ATOM     56  N   UNL     1      -5.450   2.681   4.940  1.00  0.00    -0.248 NA
ATOM     57  C   UNL     1      -4.952   4.863   5.494  1.00  0.00     0.031 C 
ATOM     58  C   UNL     1      -3.696  -0.099   6.428  1.00  0.00     0.029 A 
ATOM     59  C   UNL     1      -4.988   0.376   6.602  1.00  0.00     0.049 A 
ATOM     60  H   UNL     1      -6.797  -0.688   6.503  1.00  0.00     0.167 HD
ATOM     61  C   UNL     1      -5.444   2.741   6.296  1.00  0.00     0.074 A 
ATOM     62  C   UNL     1      -5.223   4.146   6.602  1.00  0.00     0.031 C 
ATOM     63  C   UNL     1      -5.527   1.641   7.093  1.00  0.00     0.031 A 
BRANCH  50  64
ATOM     64  C   UNL     1      -5.539  -4.392   5.582  1.00  0.00    -0.014 A 
ATOM     65  C   UNL     1      -4.581  -4.738   6.554  1.00  0.00     0.009 A 
ATOM     66  C   UNL     1      -6.128  -5.480   4.909  1.00  0.00     0.009 A 
ATOM     67  C   UNL     1      -4.216  -6.070   6.811  1.00  0.00     0.001 A 
ATOM     68  C   UNL     1      -5.775  -6.814   5.161  1.00  0.00     0.001 A 
ATOM     69  C   UNL     1      -4.812  -7.111   6.111  1.00  0.00     0.000 A 
ENDBRANCH  50  64
BRANCH  51  70
ATOM     70  C   UNL     1      -5.256   4.759   1.906  1.00  0.00    -0.014 A 
ATOM     71  C   UNL     1      -4.372   5.207   0.892  1.00  0.00     0.009 A 
ATOM     72  C   UNL     1      -6.603   4.571   1.562  1.00  0.00     0.009 A 
ATOM     73  C   UNL     1      -4.781   5.287  -0.447  1.00  0.00     0.001 A 
ATOM     74  C   UNL     1      -7.010   4.670   0.219  1.00  0.00     0.001 A 
ATOM     75  C   UNL     1      -6.091   4.974  -0.787  1.00  0.00     0.000 A 
ENDBRANCH  51  70
BRANCH  63  76
ATOM     76  C   UNL     1      -6.106   1.695   8.471  1.00  0.00    -0.014 A 
ATOM     77  C   UNL     1      -6.954   2.729   8.891  1.00  0.00     0.009 A 
ATOM     78  C   UNL     1      -5.988   0.570   9.310  1.00  0.00     0.009 A 
ATOM     79  C   UNL     1      -7.617   2.664  10.117  1.00  0.00     0.001 A 
ATOM     80  C   UNL     1      -6.694   0.476  10.506  1.00  0.00     0.001 A 
ATOM     81  C   UNL     1      -7.497   1.532  10.916  1.00  0.00     0.000 A 
ENDBRANCH  63  76
ENDBRANCH  37  38
ENDBRANCH  30  32
ENDBRANCH  29  30
ENDBRANCH  28  29
ENDBRANCH  27  28
ENDBRANCH  26  27
ENDBRANCH   1  26
TORSDOF 17
