REMARK SMILES O=C(OCCOCCOC(=O)c1ccc(C[N@H+]2CC[N@H+]3CCCC[C@@H]3C2)c(F)c1)c1ccc(-c2c3nc(c(-c4ccccc4)c4ccc([nH]4)c(-c4ccccc4)c4nc(c(-c5ccccc5)c5ccc2[nH]5)C=C4)C=C3)cc1
REMARK SMILES IDX 6 1 5 2 4 3 3 4 2 5 1 6 30 7 31 8 77 9 32 10 76 11 33 12
REMARK SMILES IDX 34 13 35 14 70 15 36 16 75 17 69 18 71 19 37 20 74 21 68 22
REMARK SMILES IDX 67 23 38 25 60 26 45 27 59 28 46 29 49 30 58 31 72 32 47 33
REMARK SMILES IDX 48 34 57 36 73 37 50 38 39 39 40 40 44 41 41 42 43 43 42 44
REMARK SMILES IDX 61 45 62 46 66 47 63 48 65 49 64 50 51 51 52 52 56 53 53 54
REMARK SMILES IDX 55 55 54 56 7 57 8 58 9 59 10 60 11 61 12 62 13 63 29 64
REMARK SMILES IDX 14 65 27 66 15 67 28 68 16 69 17 70 18 71 26 72 19 74 25 75
REMARK SMILES IDX 20 76 24 77 21 78 23 80 22 81
REMARK H PARENT 71 24 49 35 17 73 20 79
REMARK Flexibility Score: inf
ROOT
ATOM      1  O   UNL     1       4.224   1.621  -0.798  1.00  0.00    -0.374 OA
ENDROOT
BRANCH   1   2
ATOM      2  C   UNL     1       4.387   0.490  -1.652  1.00  0.00     0.202 C 
BRANCH   2   3
ATOM      3  C   UNL     1       3.913  -0.841  -1.069  1.00  0.00     0.261 C 
BRANCH   3   4
ATOM      4  O   UNL     1       2.529  -0.756  -0.690  1.00  0.00    -0.460 OA
BRANCH   4   5
ATOM      5  C   UNL     1       2.018  -0.829   0.562  1.00  0.00     0.338 C 
ATOM      6  O   UNL     1       0.804  -0.947   0.707  1.00  0.00    -0.246 OA
BRANCH   5   7
ATOM      7  C   UNL     1       2.867  -0.763   1.786  1.00  0.00     0.060 A 
ATOM      8  C   UNL     1       4.054  -0.033   1.877  1.00  0.00     0.016 A 
ATOM      9  C   UNL     1       2.382  -1.387   2.946  1.00  0.00     0.016 A 
ATOM     10  C   UNL     1       4.787   0.014   3.054  1.00  0.00     0.010 A 
ATOM     11  C   UNL     1       3.082  -1.294   4.154  1.00  0.00     0.010 A 
ATOM     12  C   UNL     1       4.296  -0.601   4.204  1.00  0.00    -0.014 A 
BRANCH  12  13
ATOM     13  C   UNL     1       5.109  -0.530   5.431  1.00  0.00     0.031 A 
ATOM     14  C   UNL     1       5.866  -1.744   5.870  1.00  0.00     0.074 A 
ATOM     15  C   UNL     1       5.246   0.650   6.063  1.00  0.00     0.049 A 
ATOM     16  N   UNL     1       6.624  -1.908   6.920  1.00  0.00    -0.248 NA
ATOM     17  C   UNL     1       5.769  -2.928   4.999  1.00  0.00     0.031 C 
ATOM     18  C   UNL     1       4.635   1.912   5.636  1.00  0.00     0.029 A 
ATOM     19  N   UNL     1       5.972   0.991   7.172  1.00  0.00    -0.354 N 
ATOM     20  C   UNL     1       7.074  -3.219   6.851  1.00  0.00     0.074 A 
ATOM     21  C   UNL     1       6.504  -3.808   5.660  1.00  0.00     0.031 C 
ATOM     22  C   UNL     1       5.042   2.895   6.454  1.00  0.00     0.029 A 
ATOM     23  C   UNL     1       5.881   2.322   7.498  1.00  0.00     0.049 A 
ATOM     24  H   UNL     1       6.507   0.344   7.687  1.00  0.00     0.167 HD
ATOM     25  C   UNL     1       7.884  -3.872   7.717  1.00  0.00     0.031 A 
ATOM     26  C   UNL     1       6.399   2.991   8.544  1.00  0.00     0.031 A 
ATOM     27  C   UNL     1       8.420  -3.269   8.906  1.00  0.00     0.049 A 
ATOM     28  C   UNL     1       7.214   2.218   9.543  1.00  0.00     0.074 A 
ATOM     29  C   UNL     1       9.188  -3.845   9.901  1.00  0.00     0.029 A 
ATOM     30  N   UNL     1       8.239  -1.938   9.255  1.00  0.00    -0.354 N 
ATOM     31  N   UNL     1       7.578   0.958   9.511  1.00  0.00    -0.248 NA
ATOM     32  C   UNL     1       7.674   2.951  10.729  1.00  0.00     0.031 C 
ATOM     33  C   UNL     1       9.435  -2.870  10.874  1.00  0.00     0.029 A 
ATOM     34  C   UNL     1       8.865  -1.675  10.459  1.00  0.00     0.049 A 
ATOM     35  H   UNL     1       7.739  -1.277   8.722  1.00  0.00     0.167 HD
ATOM     36  C   UNL     1       8.316   0.746  10.666  1.00  0.00     0.074 A 
ATOM     37  C   UNL     1       8.369   2.017  11.364  1.00  0.00     0.031 C 
ATOM     38  C   UNL     1       8.892  -0.395  11.119  1.00  0.00     0.031 A 
BRANCH  25  39
ATOM     39  C   UNL     1       8.149  -5.322   7.433  1.00  0.00    -0.014 A 
ATOM     40  C   UNL     1       8.996  -5.723   6.388  1.00  0.00     0.009 A 
ATOM     41  C   UNL     1       7.503  -6.304   8.198  1.00  0.00     0.009 A 
ATOM     42  C   UNL     1       9.156  -7.079   6.089  1.00  0.00     0.001 A 
ATOM     43  C   UNL     1       7.682  -7.658   7.913  1.00  0.00     0.001 A 
ATOM     44  C   UNL     1       8.499  -8.044   6.851  1.00  0.00     0.000 A 
ENDBRANCH  25  39
BRANCH  26  45
ATOM     45  C   UNL     1       6.116   4.440   8.728  1.00  0.00    -0.014 A 
ATOM     46  C   UNL     1       7.141   5.394   8.644  1.00  0.00     0.009 A 
ATOM     47  C   UNL     1       4.808   4.879   8.998  1.00  0.00     0.009 A 
ATOM     48  C   UNL     1       6.866   6.750   8.845  1.00  0.00     0.001 A 
ATOM     49  C   UNL     1       4.531   6.237   9.168  1.00  0.00     0.001 A 
ATOM     50  C   UNL     1       5.562   7.171   9.101  1.00  0.00     0.000 A 
ENDBRANCH  26  45
BRANCH  38  51
ATOM     51  C   UNL     1       9.644  -0.301  12.413  1.00  0.00    -0.014 A 
ATOM     52  C   UNL     1       8.967  -0.216  13.639  1.00  0.00     0.009 A 
ATOM     53  C   UNL     1      11.046  -0.346  12.404  1.00  0.00     0.009 A 
ATOM     54  C   UNL     1       9.684  -0.148  14.833  1.00  0.00     0.001 A 
ATOM     55  C   UNL     1      11.759  -0.305  13.602  1.00  0.00     0.001 A 
ATOM     56  C   UNL     1      11.078  -0.198  14.814  1.00  0.00     0.000 A 
ENDBRANCH  38  51
ENDBRANCH  12  13
ENDBRANCH   5   7
ENDBRANCH   4   5
ENDBRANCH   3   4
ENDBRANCH   2   3
ENDBRANCH   1   2
BRANCH   1  57
ATOM     57  C   UNL     1       2.936   2.248  -0.830  1.00  0.00     0.202 C 
BRANCH  57  58
ATOM     58  C   UNL     1       3.109   3.771  -0.767  1.00  0.00     0.261 C 
BRANCH  58  59
ATOM     59  O   UNL     1       3.886   4.204  -1.898  1.00  0.00    -0.460 OA
BRANCH  59  60
ATOM     60  C   UNL     1       5.232   4.226  -1.711  1.00  0.00     0.338 C 
ATOM     61  O   UNL     1       5.852   4.185  -0.663  1.00  0.00    -0.246 OA
BRANCH  60  62
ATOM     62  C   UNL     1       5.825   4.046  -3.045  1.00  0.00     0.063 A 
ATOM     63  C   UNL     1       5.610   4.983  -4.055  1.00  0.00     0.016 A 
ATOM     64  C   UNL     1       6.448   2.829  -3.321  1.00  0.00     0.055 A 
ATOM     65  C   UNL     1       5.930   4.648  -5.372  1.00  0.00     0.013 A 
ATOM     66  C   UNL     1       6.689   2.479  -4.643  1.00  0.00     0.132 A 
ATOM     67  C   UNL     1       6.375   3.349  -5.690  1.00  0.00     0.042 A 
ATOM     68  F   UNL     1       7.154   1.249  -4.906  1.00  0.00    -0.206 F 
BRANCH  67  69
ATOM     69  C   UNL     1       6.422   2.882  -7.126  1.00  0.00     0.302 C 
BRANCH  69  70
ATOM     70  N   UNL     1       5.170   2.411  -7.741  1.00  0.00    -0.322 N 
ATOM     71  C   UNL     1       4.779   1.025  -7.449  1.00  0.00     0.324 C 
ATOM     72  C   UNL     1       4.003   3.301  -7.649  1.00  0.00     0.328 C 
ATOM     73  H   UNL     1       5.470   2.436  -8.716  1.00  0.00     0.348 HD
ATOM     74  C   UNL     1       3.837   0.807  -6.237  1.00  0.00     0.324 C 
ATOM     75  C   UNL     1       3.165   3.125  -6.354  1.00  0.00     0.239 C 
ATOM     76  N   UNL     1       2.687   1.738  -6.173  1.00  0.00    -0.323 N 
ATOM     77  C   UNL     1       1.998   4.119  -6.316  1.00  0.00     0.071 C 
ATOM     78  C   UNL     1       1.997   1.598  -4.880  1.00  0.00     0.262 C 
ATOM     79  H   UNL     1       2.027   1.514  -6.918  1.00  0.00     0.348 HD
ATOM     80  C   UNL     1       1.281   4.024  -4.973  1.00  0.00     0.012 C 
ATOM     81  C   UNL     1       0.843   2.588  -4.708  1.00  0.00     0.062 C 
ENDBRANCH  69  70
ENDBRANCH  67  69
ENDBRANCH  60  62
ENDBRANCH  59  60
ENDBRANCH  58  59
ENDBRANCH  57  58
ENDBRANCH   1  57
TORSDOF 16
