REMARK SMILES C[C@H]1[C@@H](C(=O)OCCOCCOC(=O)c2ccc(-c3c4nc(c(-c5ccccc5)c5ccc([nH]5)c(-c5ccccc5)c5nc(c(-c6ccccc6)c6ccc3[nH]6)C=C5)C=C4)cc2)CCN1S(=O)(=O)Cc1cccc(C#N)c1
REMARK SMILES IDX 8 1 7 2 6 3 4 4 5 5 3 6 1 7 2 8 65 9 63 10 64 11 66 12 67 13
REMARK SMILES IDX 68 14 69 15 70 16 71 17 77 18 72 19 74 20 73 21 75 22 76 23
REMARK SMILES IDX 9 24 10 25 11 26 12 27 13 28 14 29 15 30 16 31 62 32 17 33
REMARK SMILES IDX 61 34 18 35 19 36 20 37 55 38 21 39 60 40 54 41 56 42 22 43
REMARK SMILES IDX 59 44 53 45 52 46 23 48 45 49 30 50 44 51 31 52 34 53 43 54
REMARK SMILES IDX 57 55 32 56 33 57 42 59 58 60 35 61 24 62 25 63 29 64 26 65
REMARK SMILES IDX 28 66 27 67 46 68 47 69 51 70 48 71 50 72 49 73 36 74 37 75
REMARK SMILES IDX 41 76 38 77 40 78 39 79
REMARK H PARENT 56 47 34 58
REMARK Flexibility Score: inf
ROOT
ATOM      1  C   UNL     1       1.399   2.478  -3.595  1.00  0.00     0.202 C 
ENDROOT
BRANCH   1   2
ATOM      2  C   UNL     1       1.649   3.258  -2.298  1.00  0.00     0.261 C 
BRANCH   2   3
ATOM      3  O   UNL     1       1.438   2.413  -1.148  1.00  0.00    -0.463 OA
BRANCH   3   4
ATOM      4  C   UNL     1       0.318   2.620  -0.424  1.00  0.00     0.310 C 
ATOM      5  O   UNL     1      -0.418   3.590  -0.566  1.00  0.00    -0.252 OA
BRANCH   4   6
ATOM      6  C   UNL     1      -0.009   1.496   0.556  1.00  0.00     0.118 C 
ATOM      7  C   UNL     1       1.928  -0.064  -0.338  1.00  0.00     0.027 C 
ATOM      8  C   UNL     1       0.861   0.230   0.711  1.00  0.00     0.084 C 
ATOM      9  N   UNL     1      -0.076  -0.949   0.716  1.00  0.00    -0.198 NA
ATOM     10  C   UNL     1      -1.434   0.987   0.306  1.00  0.00     0.034 C 
ATOM     11  C   UNL     1      -1.329  -0.504   0.051  1.00  0.00     0.103 C 
BRANCH   9  12
ATOM     12  S   UNL     1      -0.357  -1.767   2.180  1.00  0.00     0.218 S 
ATOM     13  O   UNL     1      -0.806  -0.753   3.114  1.00  0.00    -0.212 OA
ATOM     14  O   UNL     1      -1.211  -2.899   1.882  1.00  0.00    -0.212 OA
BRANCH  12  15
ATOM     15  C   UNL     1       1.245  -2.363   2.759  1.00  0.00     0.189 C 
BRANCH  15  16
ATOM     16  C   UNL     1       1.863  -3.420   1.879  1.00  0.00    -0.030 A 
ATOM     17  C   UNL     1       1.353  -4.725   1.834  1.00  0.00     0.005 A 
ATOM     18  C   UNL     1       3.030  -3.141   1.150  1.00  0.00     0.024 A 
ATOM     19  C   UNL     1       1.967  -5.709   1.053  1.00  0.00     0.002 A 
ATOM     20  C   UNL     1       3.622  -4.111   0.331  1.00  0.00     0.052 A 
ATOM     21  C   UNL     1       3.092  -5.401   0.290  1.00  0.00     0.019 A 
BRANCH  20  22
ATOM     22  C   UNL     1       4.752  -3.768  -0.479  1.00  0.00     0.099 C 
ATOM     23  N   UNL     1       5.649  -3.466  -1.153  1.00  0.00    -0.192 NA
ENDBRANCH  20  22
ENDBRANCH  15  16
ENDBRANCH  12  15
ENDBRANCH   9  12
ENDBRANCH   4   6
ENDBRANCH   3   4
ENDBRANCH   2   3
ENDBRANCH   1   2
BRANCH   1  24
ATOM     24  O   UNL     1       0.038   2.172  -3.906  1.00  0.00    -0.374 OA
BRANCH  24  25
ATOM     25  C   UNL     1      -0.549   1.056  -3.243  1.00  0.00     0.202 C 
BRANCH  25  26
ATOM     26  C   UNL     1      -0.294  -0.335  -3.837  1.00  0.00     0.261 C 
BRANCH  26  27
ATOM     27  O   UNL     1       1.099  -0.673  -3.834  1.00  0.00    -0.460 OA
BRANCH  27  28
ATOM     28  C   UNL     1       1.706  -0.466  -5.025  1.00  0.00     0.338 C 
ATOM     29  O   UNL     1       1.181  -0.122  -6.070  1.00  0.00    -0.246 OA
BRANCH  28  30
ATOM     30  C   UNL     1       3.168  -0.541  -4.866  1.00  0.00     0.060 A 
ATOM     31  C   UNL     1       3.917   0.453  -5.504  1.00  0.00     0.016 A 
ATOM     32  C   UNL     1       3.796  -1.591  -4.194  1.00  0.00     0.016 A 
ATOM     33  C   UNL     1       5.298   0.336  -5.577  1.00  0.00     0.010 A 
ATOM     34  C   UNL     1       5.187  -1.699  -4.257  1.00  0.00     0.010 A 
ATOM     35  C   UNL     1       5.934  -0.775  -5.008  1.00  0.00    -0.014 A 
BRANCH  35  36
ATOM     36  C   UNL     1       7.346  -1.043  -5.368  1.00  0.00     0.031 A 
ATOM     37  C   UNL     1       7.655  -2.136  -6.356  1.00  0.00     0.074 A 
ATOM     38  C   UNL     1       8.326  -0.254  -4.896  1.00  0.00     0.049 A 
ATOM     39  N   UNL     1       8.806  -2.479  -6.879  1.00  0.00    -0.248 NA
ATOM     40  C   UNL     1       6.520  -2.950  -6.822  1.00  0.00     0.031 C 
ATOM     41  C   UNL     1       8.141   0.859  -3.965  1.00  0.00     0.029 A 
ATOM     42  N   UNL     1       9.672  -0.258  -5.155  1.00  0.00    -0.354 N 
ATOM     43  C   UNL     1       8.532  -3.550  -7.723  1.00  0.00     0.074 A 
ATOM     44  C   UNL     1       7.118  -3.828  -7.612  1.00  0.00     0.031 C 
ATOM     45  C   UNL     1       9.329   1.445  -3.747  1.00  0.00     0.029 A 
ATOM     46  C   UNL     1      10.360   0.725  -4.490  1.00  0.00     0.049 A 
ATOM     47  H   UNL     1      10.103  -0.904  -5.760  1.00  0.00     0.167 HD
ATOM     48  C   UNL     1       9.380  -4.233  -8.528  1.00  0.00     0.031 A 
ATOM     49  C   UNL     1      11.677   1.004  -4.475  1.00  0.00     0.031 A 
ATOM     50  C   UNL     1      10.790  -3.964  -8.623  1.00  0.00     0.049 A 
ATOM     51  C   UNL     1      12.608   0.181  -5.322  1.00  0.00     0.074 A 
ATOM     52  C   UNL     1      11.736  -4.587  -9.419  1.00  0.00     0.029 A 
ATOM     53  N   UNL     1      11.460  -3.000  -7.885  1.00  0.00    -0.354 N 
ATOM     54  N   UNL     1      12.333  -0.803  -6.144  1.00  0.00    -0.248 NA
ATOM     55  C   UNL     1      14.035   0.523  -5.250  1.00  0.00     0.031 C 
ATOM     56  C   UNL     1      12.989  -4.050  -9.107  1.00  0.00     0.029 A 
ATOM     57  C   UNL     1      12.813  -3.033  -8.182  1.00  0.00     0.049 A 
ATOM     58  H   UNL     1      11.037  -2.383  -7.244  1.00  0.00     0.167 HD
ATOM     59  C   UNL     1      13.546  -1.175  -6.713  1.00  0.00     0.074 A 
ATOM     60  C   UNL     1      14.552  -0.292  -6.158  1.00  0.00     0.031 C 
ATOM     61  C   UNL     1      13.805  -2.154  -7.615  1.00  0.00     0.031 A 
BRANCH  48  62
ATOM     62  C   UNL     1       8.808  -5.366  -9.340  1.00  0.00    -0.014 A 
ATOM     63  C   UNL     1       7.909  -5.137 -10.395  1.00  0.00     0.009 A 
ATOM     64  C   UNL     1       9.200  -6.685  -9.062  1.00  0.00     0.009 A 
ATOM     65  C   UNL     1       7.387  -6.207 -11.126  1.00  0.00     0.001 A 
ATOM     66  C   UNL     1       8.705  -7.749  -9.818  1.00  0.00     0.001 A 
ATOM     67  C   UNL     1       7.790  -7.511 -10.841  1.00  0.00     0.000 A 
ENDBRANCH  48  62
BRANCH  49  68
ATOM     68  C   UNL     1      12.195   2.106  -3.621  1.00  0.00    -0.014 A 
ATOM     69  C   UNL     1      12.770   3.252  -4.190  1.00  0.00     0.009 A 
ATOM     70  C   UNL     1      12.136   2.003  -2.221  1.00  0.00     0.009 A 
ATOM     71  C   UNL     1      13.306   4.254  -3.377  1.00  0.00     0.001 A 
ATOM     72  C   UNL     1      12.638   3.022  -1.411  1.00  0.00     0.001 A 
ATOM     73  C   UNL     1      13.235   4.141  -1.990  1.00  0.00     0.000 A 
ENDBRANCH  49  68
BRANCH  61  74
ATOM     74  C   UNL     1      15.226  -2.286  -8.094  1.00  0.00    -0.014 A 
ATOM     75  C   UNL     1      16.259  -2.706  -7.241  1.00  0.00     0.009 A 
ATOM     76  C   UNL     1      15.533  -1.994  -9.433  1.00  0.00     0.009 A 
ATOM     77  C   UNL     1      17.576  -2.772  -7.703  1.00  0.00     0.001 A 
ATOM     78  C   UNL     1      16.841  -2.103  -9.904  1.00  0.00     0.001 A 
ATOM     79  C   UNL     1      17.865  -2.474  -9.034  1.00  0.00     0.000 A 
ENDBRANCH  61  74
ENDBRANCH  35  36
ENDBRANCH  28  30
ENDBRANCH  27  28
ENDBRANCH  26  27
ENDBRANCH  25  26
ENDBRANCH  24  25
ENDBRANCH   1  24
TORSDOF 18
