REMARK SMILES Cc1nc(C[N@@H+]2CCC[C@H]2C(=O)OCCOCCOC(=O)c2ccc(-c3c4nc(c(-c5ccccc5)c5ccc([nH]5)c(-c5ccccc5)c5nc(c(-c6ccccc6)c6ccc3[nH]6)C=C5)C=C4)cc2)cs1
REMARK SMILES IDX 16 1 15 2 14 3 13 4 11 5 12 6 10 7 6 8 7 9 8 11 9 12 5 13
REMARK SMILES IDX 4 14 1 15 2 16 3 17 71 18 70 19 17 20 18 21 19 22 20 23
REMARK SMILES IDX 21 24 22 25 23 26 69 27 24 28 68 29 25 30 26 31 27 32 62 33
REMARK SMILES IDX 28 34 67 35 61 36 63 37 29 38 66 39 60 40 59 41 30 43 52 44
REMARK SMILES IDX 37 45 51 46 38 47 41 48 50 49 64 50 39 51 40 52 49 54 65 55
REMARK SMILES IDX 42 56 31 57 32 58 36 59 33 60 35 61 34 62 53 63 54 64 58 65
REMARK SMILES IDX 55 66 57 67 56 68 43 69 44 70 48 71 45 72 47 73 46 74
REMARK H PARENT 6 10 63 42 41 53
REMARK Flexibility Score: inf
ROOT
ATOM      1  O   UNL     1       1.581  -5.312  -5.473  1.00  0.00    -0.374 OA
ENDROOT
BRANCH   1   2
ATOM      2  C   UNL     1       2.922  -5.632  -5.093  1.00  0.00     0.202 C 
BRANCH   2   3
ATOM      3  C   UNL     1       3.844  -4.455  -4.760  1.00  0.00     0.261 C 
BRANCH   3   4
ATOM      4  O   UNL     1       3.371  -3.762  -3.595  1.00  0.00    -0.459 OA
BRANCH   4   5
ATOM      5  C   UNL     1       3.299  -2.402  -3.710  1.00  0.00     0.365 C 
ATOM      6  O   UNL     1       3.802  -1.756  -4.622  1.00  0.00    -0.245 OA
BRANCH   5   7
ATOM      7  C   UNL     1       2.431  -1.809  -2.580  1.00  0.00     0.295 C 
ATOM      8  N   UNL     1       3.143  -1.919  -1.293  1.00  0.00    -0.318 N 
ATOM      9  C   UNL     1       3.978  -0.725  -1.185  1.00  0.00     0.263 C 
ATOM     10  H   UNL     1       3.737  -2.748  -1.274  1.00  0.00     0.349 HD
ATOM     11  C   UNL     1       3.313   0.367  -2.015  1.00  0.00     0.068 C 
ATOM     12  C   UNL     1       2.206  -0.317  -2.802  1.00  0.00     0.083 C 
BRANCH   8  13
ATOM     13  C   UNL     1       2.272  -2.200  -0.141  1.00  0.00     0.321 C 
BRANCH  13  14
ATOM     14  C   UNL     1       1.245  -1.148   0.180  1.00  0.00     0.106 A 
ATOM     15  C   UNL     1      -2.271  -0.177  -0.144  1.00  0.00     0.079 C 
ATOM     16  C   UNL     1      -0.815  -0.312   0.138  1.00  0.00     0.090 A 
ATOM     17  N   UNL     1      -0.060  -1.307  -0.281  1.00  0.00    -0.241 NA
ATOM     18  S   UNL     1      -0.008   0.888   1.065  1.00  0.00    -0.127 S 
ATOM     19  C   UNL     1       1.440  -0.015   0.950  1.00  0.00     0.096 A 
ENDBRANCH  13  14
ENDBRANCH   8  13
ENDBRANCH   5   7
ENDBRANCH   4   5
ENDBRANCH   3   4
ENDBRANCH   2   3
ENDBRANCH   1   2
BRANCH   1  20
ATOM     20  C   UNL     1       0.707  -4.811  -4.463  1.00  0.00     0.202 C 
BRANCH  20  21
ATOM     21  C   UNL     1       0.123  -5.819  -3.464  1.00  0.00     0.261 C 
BRANCH  21  22
ATOM     22  O   UNL     1       1.117  -6.638  -2.829  1.00  0.00    -0.460 OA
BRANCH  22  23
ATOM     23  C   UNL     1       1.142  -7.918  -3.265  1.00  0.00     0.338 C 
ATOM     24  O   UNL     1       0.363  -8.452  -4.047  1.00  0.00    -0.246 OA
BRANCH  23  25
ATOM     25  C   UNL     1       2.360  -8.602  -2.799  1.00  0.00     0.060 A 
ATOM     26  C   UNL     1       3.154  -9.219  -3.773  1.00  0.00     0.016 A 
ATOM     27  C   UNL     1       2.680  -8.717  -1.444  1.00  0.00     0.016 A 
ATOM     28  C   UNL     1       4.239 -10.004  -3.392  1.00  0.00     0.010 A 
ATOM     29  C   UNL     1       3.768  -9.513  -1.062  1.00  0.00     0.010 A 
ATOM     30  C   UNL     1       4.528 -10.191  -2.033  1.00  0.00    -0.014 A 
BRANCH  30  31
ATOM     31  C   UNL     1       5.537 -11.211  -1.659  1.00  0.00     0.031 A 
ATOM     32  C   UNL     1       5.078 -12.592  -1.276  1.00  0.00     0.074 A 
ATOM     33  C   UNL     1       6.851 -10.941  -1.758  1.00  0.00     0.049 A 
ATOM     34  N   UNL     1       5.791 -13.660  -1.019  1.00  0.00    -0.248 NA
ATOM     35  C   UNL     1       3.624 -12.802  -1.181  1.00  0.00     0.031 C 
ATOM     36  C   UNL     1       7.425  -9.656  -2.158  1.00  0.00     0.029 A 
ATOM     37  N   UNL     1       7.943 -11.747  -1.549  1.00  0.00    -0.354 N 
ATOM     38  C   UNL     1       4.875 -14.669  -0.750  1.00  0.00     0.074 A 
ATOM     39  C   UNL     1       3.557 -14.079  -0.832  1.00  0.00     0.031 C 
ATOM     40  C   UNL     1       8.765  -9.765  -2.180  1.00  0.00     0.029 A 
ATOM     41  C   UNL     1       9.142 -11.119  -1.778  1.00  0.00     0.049 A 
ATOM     42  H   UNL     1       7.872 -12.686  -1.261  1.00  0.00     0.167 HD
ATOM     43  C   UNL     1       5.106 -15.975  -0.476  1.00  0.00     0.031 A 
ATOM     44  C   UNL     1      10.402 -11.585  -1.678  1.00  0.00     0.031 A 
ATOM     45  C   UNL     1       6.414 -16.566  -0.371  1.00  0.00     0.049 A 
ATOM     46  C   UNL     1      10.630 -13.022  -1.291  1.00  0.00     0.074 A 
ATOM     47  C   UNL     1       6.748 -17.878  -0.082  1.00  0.00     0.029 A 
ATOM     48  N   UNL     1       7.604 -15.880  -0.550  1.00  0.00    -0.354 N 
ATOM     49  N   UNL     1       9.753 -13.969  -1.063  1.00  0.00    -0.248 NA
ATOM     50  C   UNL     1      12.030 -13.455  -1.164  1.00  0.00     0.031 C 
ATOM     51  C   UNL     1       8.143 -17.976  -0.045  1.00  0.00     0.029 A 
ATOM     52  C   UNL     1       8.675 -16.737  -0.360  1.00  0.00     0.049 A 
ATOM     53  H   UNL     1       7.677 -14.925  -0.778  1.00  0.00     0.167 HD
ATOM     54  C   UNL     1      10.493 -15.113  -0.794  1.00  0.00     0.074 A 
ATOM     55  C   UNL     1      11.889 -14.748  -0.909  1.00  0.00     0.031 C 
ATOM     56  C   UNL     1      10.057 -16.357  -0.478  1.00  0.00     0.031 A 
BRANCH  43  57
ATOM     57  C   UNL     1       3.911 -16.858  -0.256  1.00  0.00    -0.014 A 
ATOM     58  C   UNL     1       3.109 -17.268  -1.334  1.00  0.00     0.009 A 
ATOM     59  C   UNL     1       3.611 -17.326   1.032  1.00  0.00     0.009 A 
ATOM     60  C   UNL     1       2.018 -18.112  -1.121  1.00  0.00     0.001 A 
ATOM     61  C   UNL     1       2.532 -18.188   1.238  1.00  0.00     0.001 A 
ATOM     62  C   UNL     1       1.734 -18.576   0.163  1.00  0.00     0.000 A 
ENDBRANCH  43  57
BRANCH  44  63
ATOM     63  C   UNL     1      11.559 -10.689  -1.937  1.00  0.00    -0.014 A 
ATOM     64  C   UNL     1      12.390 -10.891  -3.050  1.00  0.00     0.009 A 
ATOM     65  C   UNL     1      11.870  -9.658  -1.037  1.00  0.00     0.009 A 
ATOM     66  C   UNL     1      13.529 -10.104  -3.235  1.00  0.00     0.001 A 
ATOM     67  C   UNL     1      12.993  -8.853  -1.241  1.00  0.00     0.001 A 
ATOM     68  C   UNL     1      13.828  -9.085  -2.332  1.00  0.00     0.000 A 
ENDBRANCH  44  63
BRANCH  56  69
ATOM     69  C   UNL     1      11.104 -17.415  -0.270  1.00  0.00    -0.014 A 
ATOM     70  C   UNL     1      11.922 -17.417   0.871  1.00  0.00     0.009 A 
ATOM     71  C   UNL     1      11.264 -18.433  -1.223  1.00  0.00     0.009 A 
ATOM     72  C   UNL     1      12.908 -18.392   1.031  1.00  0.00     0.001 A 
ATOM     73  C   UNL     1      12.232 -19.423  -1.047  1.00  0.00     0.001 A 
ATOM     74  C   UNL     1      13.061 -19.394   0.074  1.00  0.00     0.000 A 
ENDBRANCH  56  69
ENDBRANCH  30  31
ENDBRANCH  23  25
ENDBRANCH  22  23
ENDBRANCH  21  22
ENDBRANCH  20  21
ENDBRANCH   1  20
TORSDOF 16
