REMARK SMILES CC[C@H](CCO)CNc1cc(C(=O)OCCOCCOC(=O)c2ccc(-c3c4nc(c(-c5ccccc5)c5ccc([nH]5)c(-c5ccccc5)c5nc(c(-c6ccccc6)c6ccc3[nH]6)C=C5)C=C4)cc2)ccn1
REMARK SMILES IDX 15 1 14 2 12 3 13 4 11 5 9 6 10 7 73 8 72 9 71 10 8 11 7 13
REMARK SMILES IDX 3 14 2 15 1 16 4 17 5 18 6 19 16 21 17 22 18 23 19 24 20 25
REMARK SMILES IDX 21 26 22 27 23 28 24 29 70 30 25 31 69 32 26 33 27 34 28 35
REMARK SMILES IDX 63 36 29 37 68 38 62 39 64 40 30 41 67 42 61 43 60 44 31 46
REMARK SMILES IDX 53 47 38 48 52 49 39 50 42 51 51 52 65 53 40 54 41 55 50 57
REMARK SMILES IDX 66 58 43 59 32 60 33 61 37 62 34 63 36 64 35 65 54 66 55 67
REMARK SMILES IDX 59 68 56 69 58 70 57 71 44 72 45 73 49 74 46 75 48 76 47 77
REMARK H PARENT 8 12 6 20 64 45 42 56
REMARK Flexibility Score: inf
ROOT
ATOM      1  C   UNL     1       1.137   3.801  -9.629  1.00  0.00     0.261 C 
ENDROOT
BRANCH   1   2
ATOM      2  O   UNL     1       1.359   3.697  -8.216  1.00  0.00    -0.460 OA
BRANCH   2   3
ATOM      3  C   UNL     1       2.657   3.774  -7.835  1.00  0.00     0.338 C 
ATOM      4  O   UNL     1       3.638   3.765  -8.562  1.00  0.00    -0.246 OA
BRANCH   3   5
ATOM      5  C   UNL     1       2.737   4.042  -6.386  1.00  0.00     0.065 A 
ATOM      6  C   UNL     1       1.987   3.763  -4.142  1.00  0.00     0.126 A 
ATOM      7  C   UNL     1       1.788   3.550  -5.493  1.00  0.00     0.062 A 
ATOM      8  N   UNL     1       2.990   4.538  -3.684  1.00  0.00    -0.240 NA
ATOM      9  C   UNL     1       3.861   5.059  -4.573  1.00  0.00     0.114 A 
ATOM     10  C   UNL     1       3.796   4.818  -5.925  1.00  0.00     0.036 A 
BRANCH   6  11
ATOM     11  N   UNL     1       1.234   3.188  -3.151  1.00  0.00    -0.370 N 
ATOM     12  H   UNL     1       1.225   3.620  -2.267  1.00  0.00     0.162 HD
BRANCH  11  13
ATOM     13  C   UNL     1       0.450   1.980  -3.327  1.00  0.00     0.118 C 
BRANCH  13  14
ATOM     14  C   UNL     1       0.762   0.927  -2.252  1.00  0.00     0.010 C 
BRANCH  14  15
ATOM     15  C   UNL     1       0.276  -0.468  -2.735  1.00  0.00     0.002 C 
ATOM     16  C   UNL     1      -1.181  -0.502  -3.199  1.00  0.00     0.004 C 
ENDBRANCH  14  15
BRANCH  14  17
ATOM     17  C   UNL     1       0.223   1.180  -0.821  1.00  0.00     0.033 C 
BRANCH  17  18
ATOM     18  C   UNL     1       0.243   2.598  -0.267  1.00  0.00     0.156 C 
BRANCH  18  19
ATOM     19  O   UNL     1      -0.713   3.417  -0.924  1.00  0.00    -0.396 OA
ATOM     20  H   UNL     1      -0.504   3.461  -1.870  1.00  0.00     0.210 HD
ENDBRANCH  18  19
ENDBRANCH  17  18
ENDBRANCH  14  17
ENDBRANCH  13  14
ENDBRANCH  11  13
ENDBRANCH   6  11
ENDBRANCH   3   5
ENDBRANCH   2   3
ENDBRANCH   1   2
BRANCH   1  21
ATOM     21  C   UNL     1       0.580   5.177 -10.007  1.00  0.00     0.202 C 
BRANCH  21  22
ATOM     22  O   UNL     1       1.390   6.312  -9.711  1.00  0.00    -0.374 OA
BRANCH  22  23
ATOM     23  C   UNL     1       1.375   6.806  -8.371  1.00  0.00     0.202 C 
BRANCH  23  24
ATOM     24  C   UNL     1       0.169   7.645  -7.935  1.00  0.00     0.261 C 
BRANCH  24  25
ATOM     25  O   UNL     1      -1.055   6.891  -7.938  1.00  0.00    -0.460 OA
BRANCH  25  26
ATOM     26  C   UNL     1      -1.887   7.179  -8.967  1.00  0.00     0.338 C 
ATOM     27  O   UNL     1      -1.734   8.025  -9.832  1.00  0.00    -0.246 OA
BRANCH  26  28
ATOM     28  C   UNL     1      -2.968   6.179  -9.026  1.00  0.00     0.060 A 
ATOM     29  C   UNL     1      -3.158   5.503 -10.238  1.00  0.00     0.016 A 
ATOM     30  C   UNL     1      -3.826   5.964  -7.947  1.00  0.00     0.016 A 
ATOM     31  C   UNL     1      -4.244   4.645 -10.394  1.00  0.00     0.010 A 
ATOM     32  C   UNL     1      -4.919   5.108  -8.108  1.00  0.00     0.010 A 
ATOM     33  C   UNL     1      -5.154   4.474  -9.342  1.00  0.00    -0.014 A 
BRANCH  33  34
ATOM     34  C   UNL     1      -6.420   3.742  -9.580  1.00  0.00     0.031 A 
ATOM     35  C   UNL     1      -7.694   4.521  -9.761  1.00  0.00     0.074 A 
ATOM     36  C   UNL     1      -6.432   2.400  -9.655  1.00  0.00     0.049 A 
ATOM     37  N   UNL     1      -8.915   4.083  -9.938  1.00  0.00    -0.248 NA
ATOM     38  C   UNL     1      -7.577   5.988  -9.737  1.00  0.00     0.031 C 
ATOM     39  C   UNL     1      -5.258   1.535  -9.543  1.00  0.00     0.029 A 
ATOM     40  N   UNL     1      -7.476   1.530  -9.841  1.00  0.00    -0.354 N 
ATOM     41  C   UNL     1      -9.711   5.218 -10.030  1.00  0.00     0.074 A 
ATOM     42  C   UNL     1      -8.842   6.362  -9.861  1.00  0.00     0.031 C 
ATOM     43  C   UNL     1      -5.649   0.255  -9.656  1.00  0.00     0.029 A 
ATOM     44  C   UNL     1      -7.101   0.209  -9.809  1.00  0.00     0.049 A 
ATOM     45  H   UNL     1      -8.405   1.824  -9.984  1.00  0.00     0.167 HD
ATOM     46  C   UNL     1     -11.047   5.300 -10.242  1.00  0.00     0.031 A 
ATOM     47  C   UNL     1      -7.849  -0.910  -9.869  1.00  0.00     0.031 A 
ATOM     48  C   UNL     1     -11.912   4.161 -10.399  1.00  0.00     0.049 A 
ATOM     49  C   UNL     1      -9.342  -0.792 -10.023  1.00  0.00     0.074 A 
ATOM     50  C   UNL     1     -13.275   4.141 -10.639  1.00  0.00     0.029 A 
ATOM     51  N   UNL     1     -11.500   2.840 -10.320  1.00  0.00    -0.354 N 
ATOM     52  N   UNL     1     -10.080   0.285 -10.139  1.00  0.00    -0.248 NA
ATOM     53  C   UNL     1     -10.103  -2.049 -10.063  1.00  0.00     0.031 C 
ATOM     54  C   UNL     1     -13.698   2.808 -10.636  1.00  0.00     0.029 A 
ATOM     55  C   UNL     1     -12.588   1.996 -10.472  1.00  0.00     0.049 A 
ATOM     56  H   UNL     1     -10.571   2.545 -10.177  1.00  0.00     0.167 HD
ATOM     57  C   UNL     1     -11.386  -0.164 -10.298  1.00  0.00     0.074 A 
ATOM     58  C   UNL     1     -11.335  -1.611 -10.279  1.00  0.00     0.031 C 
ATOM     59  C   UNL     1     -12.524   0.557 -10.449  1.00  0.00     0.031 A 
BRANCH  46  60
ATOM     60  C   UNL     1     -11.662   6.673 -10.276  1.00  0.00    -0.014 A 
ATOM     61  C   UNL     1     -11.417   7.563 -11.334  1.00  0.00     0.009 A 
ATOM     62  C   UNL     1     -12.532   7.068  -9.247  1.00  0.00     0.009 A 
ATOM     63  C   UNL     1     -12.002   8.831 -11.342  1.00  0.00     0.001 A 
ATOM     64  C   UNL     1     -13.142   8.323  -9.274  1.00  0.00     0.001 A 
ATOM     65  C   UNL     1     -12.868   9.208 -10.316  1.00  0.00     0.000 A 
ENDBRANCH  46  60
BRANCH  47  66
ATOM     66  C   UNL     1      -7.201  -2.244  -9.760  1.00  0.00    -0.014 A 
ATOM     67  C   UNL     1      -7.178  -3.122 -10.854  1.00  0.00     0.009 A 
ATOM     68  C   UNL     1      -6.619  -2.654  -8.550  1.00  0.00     0.009 A 
ATOM     69  C   UNL     1      -6.610  -4.393 -10.730  1.00  0.00     0.001 A 
ATOM     70  C   UNL     1      -6.022  -3.911  -8.438  1.00  0.00     0.001 A 
ATOM     71  C   UNL     1      -6.029  -4.784  -9.525  1.00  0.00     0.000 A 
ENDBRANCH  47  66
BRANCH  59  72
ATOM     72  C   UNL     1     -13.805  -0.206 -10.652  1.00  0.00    -0.014 A 
ATOM     73  C   UNL     1     -14.395  -0.941  -9.612  1.00  0.00     0.009 A 
ATOM     74  C   UNL     1     -14.454  -0.152 -11.896  1.00  0.00     0.009 A 
ATOM     75  C   UNL     1     -15.588  -1.636  -9.826  1.00  0.00     0.001 A 
ATOM     76  C   UNL     1     -15.663  -0.818 -12.098  1.00  0.00     0.001 A 
ATOM     77  C   UNL     1     -16.223  -1.569 -11.066  1.00  0.00     0.000 A 
ENDBRANCH  59  72
ENDBRANCH  33  34
ENDBRANCH  26  28
ENDBRANCH  25  26
ENDBRANCH  24  25
ENDBRANCH  23  24
ENDBRANCH  22  23
ENDBRANCH  21  22
ENDBRANCH   1  21
TORSDOF 21
