REMARK SMILES O=C(OCCOCCOC(=O)[C@@H]1[C@H](C(=O)NCc2ccncc2)[C@H]2C=C[C@@H]1O2)c1ccc(-c2c3nc(c(-c4ccccc4)c4ccc([nH]4)c(-c4ccccc4)c4nc(c(-c5ccccc5)c5ccc2[nH]5)C=C4)C=C3)cc1
REMARK SMILES IDX 7 1 6 2 5 3 4 4 3 5 2 6 1 7 29 8 30 9 76 10 31 11 75 12
REMARK SMILES IDX 32 13 33 14 34 15 69 16 35 17 74 18 68 19 70 20 36 21 73 22
REMARK SMILES IDX 67 23 66 24 37 26 59 27 44 28 58 29 45 30 48 31 57 32 71 33
REMARK SMILES IDX 46 34 47 35 56 37 72 38 49 39 38 40 39 41 43 42 40 43 42 44
REMARK SMILES IDX 41 45 60 46 61 47 65 48 62 49 64 50 63 51 50 52 51 53 55 54
REMARK SMILES IDX 52 55 54 56 53 57 8 58 9 59 10 60 11 61 12 62 13 63 27 64
REMARK SMILES IDX 24 65 26 66 28 67 25 68 14 69 15 70 16 71 17 73 18 74 19 75
REMARK SMILES IDX 23 76 20 77 22 78 21 79
REMARK H PARENT 70 25 48 36 16 72
REMARK Flexibility Score: inf
ROOT
ATOM      1  C   UNL     1       3.999  -1.038   1.466  1.00  0.00     0.202 C 
ENDROOT
BRANCH   1   2
ATOM      2  O   UNL     1       5.254  -0.604   0.925  1.00  0.00    -0.374 OA
BRANCH   2   3
ATOM      3  C   UNL     1       5.433   0.805   0.814  1.00  0.00     0.202 C 
BRANCH   3   4
ATOM      4  C   UNL     1       4.829   1.497  -0.420  1.00  0.00     0.261 C 
BRANCH   4   5
ATOM      5  O   UNL     1       3.424   1.228  -0.583  1.00  0.00    -0.460 OA
BRANCH   5   6
ATOM      6  C   UNL     1       2.879   0.462  -1.565  1.00  0.00     0.338 C 
ATOM      7  O   UNL     1       1.785   0.769  -2.032  1.00  0.00    -0.246 OA
BRANCH   6   8
ATOM      8  C   UNL     1       3.449  -0.886  -1.883  1.00  0.00     0.060 A 
ATOM      9  C   UNL     1       4.776  -1.245  -1.671  1.00  0.00     0.016 A 
ATOM     10  C   UNL     1       2.570  -1.880  -2.353  1.00  0.00     0.016 A 
ATOM     11  C   UNL     1       5.182  -2.564  -1.709  1.00  0.00     0.010 A 
ATOM     12  C   UNL     1       3.003  -3.203  -2.521  1.00  0.00     0.010 A 
ATOM     13  C   UNL     1       4.309  -3.542  -2.164  1.00  0.00    -0.014 A 
BRANCH  13  14
ATOM     14  C   UNL     1       4.943  -4.835  -2.442  1.00  0.00     0.031 A 
ATOM     15  C   UNL     1       5.771  -4.917  -3.690  1.00  0.00     0.074 A 
ATOM     16  C   UNL     1       5.000  -5.772  -1.481  1.00  0.00     0.049 A 
ATOM     17  N   UNL     1       6.586  -5.856  -4.082  1.00  0.00    -0.248 NA
ATOM     18  C   UNL     1       5.725  -3.742  -4.585  1.00  0.00     0.031 C 
ATOM     19  C   UNL     1       4.383  -5.669  -0.156  1.00  0.00     0.029 A 
ATOM     20  N   UNL     1       5.653  -6.974  -1.455  1.00  0.00    -0.354 N 
ATOM     21  C   UNL     1       7.155  -5.380  -5.256  1.00  0.00     0.074 A 
ATOM     22  C   UNL     1       6.616  -4.066  -5.507  1.00  0.00     0.031 C 
ATOM     23  C   UNL     1       4.681  -6.775   0.550  1.00  0.00     0.029 A 
ATOM     24  C   UNL     1       5.472  -7.672  -0.287  1.00  0.00     0.049 A 
ATOM     25  H   UNL     1       6.201  -7.306  -2.203  1.00  0.00     0.167 HD
ATOM     26  C   UNL     1       8.035  -6.007  -6.066  1.00  0.00     0.031 A 
ATOM     27  C   UNL     1       5.878  -8.915   0.035  1.00  0.00     0.031 A 
ATOM     28  C   UNL     1       8.493  -7.345  -5.830  1.00  0.00     0.049 A 
ATOM     29  C   UNL     1       6.697  -9.667  -0.984  1.00  0.00     0.074 A 
ATOM     30  C   UNL     1       9.289  -8.139  -6.630  1.00  0.00     0.029 A 
ATOM     31  N   UNL     1       8.162  -8.093  -4.709  1.00  0.00    -0.354 N 
ATOM     32  N   UNL     1       7.197  -9.240  -2.122  1.00  0.00    -0.248 NA
ATOM     33  C   UNL     1       6.998 -11.073  -0.686  1.00  0.00     0.031 C 
ATOM     34  C   UNL     1       9.378  -9.396  -6.027  1.00  0.00     0.029 A 
ATOM     35  C   UNL     1       8.701  -9.359  -4.816  1.00  0.00     0.049 A 
ATOM     36  H   UNL     1       7.624  -7.769  -3.951  1.00  0.00     0.167 HD
ATOM     37  C   UNL     1       7.886 -10.316  -2.664  1.00  0.00     0.074 A 
ATOM     38  C   UNL     1       7.764 -11.406  -1.715  1.00  0.00     0.031 C 
ATOM     39  C   UNL     1       8.553 -10.409  -3.841  1.00  0.00     0.031 A 
BRANCH  26  40
ATOM     40  C   UNL     1       8.431  -5.299  -7.326  1.00  0.00    -0.014 A 
ATOM     41  C   UNL     1       9.331  -4.222  -7.320  1.00  0.00     0.009 A 
ATOM     42  C   UNL     1       7.869  -5.712  -8.544  1.00  0.00     0.009 A 
ATOM     43  C   UNL     1       9.646  -3.563  -8.511  1.00  0.00     0.001 A 
ATOM     44  C   UNL     1       8.203  -5.067  -9.734  1.00  0.00     0.001 A 
ATOM     45  C   UNL     1       9.086  -3.989  -9.716  1.00  0.00     0.000 A 
ENDBRANCH  26  40
BRANCH  27  46
ATOM     46  C   UNL     1       5.438  -9.567   1.300  1.00  0.00    -0.014 A 
ATOM     47  C   UNL     1       6.361 -10.032   2.249  1.00  0.00     0.009 A 
ATOM     48  C   UNL     1       4.070  -9.807   1.524  1.00  0.00     0.009 A 
ATOM     49  C   UNL     1       5.928 -10.759   3.364  1.00  0.00     0.001 A 
ATOM     50  C   UNL     1       3.638 -10.502   2.655  1.00  0.00     0.001 A 
ATOM     51  C   UNL     1       4.569 -10.993   3.566  1.00  0.00     0.000 A 
ENDBRANCH  27  46
BRANCH  39  52
ATOM     52  C   UNL     1       9.220 -11.718  -4.144  1.00  0.00    -0.014 A 
ATOM     53  C   UNL     1       8.470 -12.854  -4.484  1.00  0.00     0.009 A 
ATOM     54  C   UNL     1      10.621 -11.793  -4.154  1.00  0.00     0.009 A 
ATOM     55  C   UNL     1       9.113 -14.051  -4.797  1.00  0.00     0.001 A 
ATOM     56  C   UNL     1      11.261 -12.981  -4.502  1.00  0.00     0.001 A 
ATOM     57  C   UNL     1      10.507 -14.111  -4.814  1.00  0.00     0.000 A 
ENDBRANCH  39  52
ENDBRANCH  13  14
ENDBRANCH   6   8
ENDBRANCH   5   6
ENDBRANCH   4   5
ENDBRANCH   3   4
ENDBRANCH   2   3
ENDBRANCH   1   2
BRANCH   1  58
ATOM     58  C   UNL     1       4.105  -1.336   2.953  1.00  0.00     0.261 C 
BRANCH  58  59
ATOM     59  O   UNL     1       3.957  -0.094   3.660  1.00  0.00    -0.463 OA
BRANCH  59  60
ATOM     60  C   UNL     1       5.090   0.500   4.065  1.00  0.00     0.312 C 
ATOM     61  O   UNL     1       6.218   0.027   3.931  1.00  0.00    -0.252 OA
BRANCH  60  62
ATOM     62  C   UNL     1       4.873   1.871   4.627  1.00  0.00     0.147 C 
ATOM     63  C   UNL     1       3.917   2.042   5.821  1.00  0.00     0.128 C 
ATOM     64  C   UNL     1       4.365   2.961   3.661  1.00  0.00     0.157 C 
ATOM     65  C   UNL     1       3.241   3.370   5.477  1.00  0.00     0.155 C 
ATOM     66  C   UNL     1       4.891   4.270   4.159  1.00  0.00     0.004 C 
ATOM     67  O   UNL     1       2.991   3.156   4.071  1.00  0.00    -0.365 OA
ATOM     68  C   UNL     1       4.240   4.497   5.313  1.00  0.00     0.004 C 
BRANCH  63  69
ATOM     69  C   UNL     1       3.008   0.863   6.182  1.00  0.00     0.227 C 
ATOM     70  O   UNL     1       3.336   0.177   7.163  1.00  0.00    -0.275 OA
ATOM     71  N   UNL     1       1.897   0.425   5.540  1.00  0.00    -0.352 N 
ATOM     72  H   UNL     1       1.518  -0.383   5.954  1.00  0.00     0.163 HD
BRANCH  71  73
ATOM     73  C   UNL     1       1.130   0.867   4.382  1.00  0.00     0.151 C 
BRANCH  73  74
ATOM     74  C   UNL     1       0.735  -0.213   3.393  1.00  0.00    -0.026 A 
ATOM     75  C   UNL     1       0.493   0.164   2.060  1.00  0.00     0.025 A 
ATOM     76  C   UNL     1       0.584  -1.563   3.717  1.00  0.00     0.025 A 
ATOM     77  C   UNL     1       0.187  -0.808   1.119  1.00  0.00     0.111 A 
ATOM     78  C   UNL     1       0.278  -2.464   2.704  1.00  0.00     0.111 A 
ATOM     79  N   UNL     1       0.093  -2.120   1.411  1.00  0.00    -0.265 NA
ENDBRANCH  73  74
ENDBRANCH  71  73
ENDBRANCH  63  69
ENDBRANCH  60  62
ENDBRANCH  59  60
ENDBRANCH  58  59
ENDBRANCH   1  58
TORSDOF 17
