REMARK SMILES CC(C)(C)[N@H+](CCC(=O)OCCOCCOC(=O)c1ccc(-c2c3nc(c(-c4ccccc4)c4ccc([nH]4)c(-c4ccccc4)c4nc(c(-c5ccccc5)c5ccc2[nH]5)C=C4)C=C3)cc1)C[C@H]1COc2ccccc21
REMARK SMILES IDX 12 1 11 2 10 3 8 4 9 5 7 6 6 7 5 8 2 10 1 11 3 12 4 13 67 14
REMARK SMILES IDX 68 15 69 16 76 17 70 18 71 19 75 20 72 21 74 22 73 23 13 24
REMARK SMILES IDX 14 25 15 26 16 27 17 28 18 29 19 30 20 31 66 32 21 33 65 34
REMARK SMILES IDX 22 35 23 36 24 37 59 38 25 39 64 40 58 41 60 42 26 43 63 44
REMARK SMILES IDX 57 45 56 46 27 48 49 49 34 50 48 51 35 52 38 53 47 54 61 55
REMARK SMILES IDX 36 56 37 57 46 59 62 60 39 61 28 62 29 63 33 64 30 65 32 66
REMARK SMILES IDX 31 67 50 68 51 69 55 70 52 71 54 72 53 73 40 74 41 75 45 76
REMARK SMILES IDX 42 77 44 78 43 79
REMARK H PARENT 5 9 60 47 38 58
REMARK Flexibility Score: inf
ROOT
ATOM      1  C   UNL     1       2.719  -7.013  -2.538  1.00  0.00     0.202 C 
ENDROOT
BRANCH   1   2
ATOM      2  C   UNL     1       2.529  -6.547  -1.094  1.00  0.00     0.261 C 
BRANCH   2   3
ATOM      3  O   UNL     1       2.625  -5.124  -0.969  1.00  0.00    -0.463 OA
BRANCH   3   4
ATOM      4  C   UNL     1       3.240  -4.640   0.137  1.00  0.00     0.311 C 
ATOM      5  O   UNL     1       3.695  -5.327   1.047  1.00  0.00    -0.252 OA
BRANCH   4   6
ATOM      6  C   UNL     1       3.426  -3.142   0.085  1.00  0.00     0.184 C 
BRANCH   6   7
ATOM      7  C   UNL     1       2.390  -2.345  -0.708  1.00  0.00     0.274 C 
BRANCH   7   8
ATOM      8  N   UNL     1       1.114  -2.240   0.006  1.00  0.00    -0.330 N 
ATOM      9  H   UNL     1       1.352  -2.582   0.937  1.00  0.00     0.348 HD
BRANCH   8  10
ATOM     10  C   UNL     1       0.678  -0.934   0.570  1.00  0.00     0.089 C 
ATOM     11  C   UNL     1       1.389   0.311  -0.016  1.00  0.00     0.078 C 
ATOM     12  C   UNL     1       1.021  -0.986   2.074  1.00  0.00     0.078 C 
ATOM     13  C   UNL     1      -0.837  -0.631   0.428  1.00  0.00     0.078 C 
ENDBRANCH   8  10
BRANCH   8  14
ATOM     14  C   UNL     1       0.102  -3.191  -0.476  1.00  0.00     0.274 C 
BRANCH  14  15
ATOM     15  C   UNL     1      -0.721  -3.844   0.655  1.00  0.00     0.116 C 
ATOM     16  C   UNL     1      -2.171  -3.995   0.186  1.00  0.00     0.244 C 
ATOM     17  C   UNL     1      -0.460  -5.296   0.903  1.00  0.00     0.006 A 
ATOM     18  O   UNL     1      -2.265  -5.258  -0.498  1.00  0.00    -0.492 OA
ATOM     19  C   UNL     1      -1.396  -6.043   0.204  1.00  0.00     0.123 A 
ATOM     20  C   UNL     1       0.464  -5.937   1.704  1.00  0.00     0.008 A 
ATOM     21  C   UNL     1      -1.453  -7.420   0.243  1.00  0.00     0.047 A 
ATOM     22  C   UNL     1       0.429  -7.338   1.770  1.00  0.00     0.001 A 
ATOM     23  C   UNL     1      -0.525  -8.076   1.045  1.00  0.00     0.004 A 
ENDBRANCH  14  15
ENDBRANCH   8  14
ENDBRANCH   7   8
ENDBRANCH   6   7
ENDBRANCH   4   6
ENDBRANCH   3   4
ENDBRANCH   2   3
ENDBRANCH   1   2
BRANCH   1  24
ATOM     24  O   UNL     1       3.767  -6.382  -3.263  1.00  0.00    -0.374 OA
BRANCH  24  25
ATOM     25  C   UNL     1       3.539  -5.040  -3.701  1.00  0.00     0.202 C 
BRANCH  25  26
ATOM     26  C   UNL     1       2.350  -4.810  -4.647  1.00  0.00     0.261 C 
BRANCH  26  27
ATOM     27  O   UNL     1       1.055  -4.785  -3.992  1.00  0.00    -0.460 OA
BRANCH  27  28
ATOM     28  C   UNL     1       0.139  -5.644  -4.500  1.00  0.00     0.338 C 
ATOM     29  O   UNL     1       0.348  -6.499  -5.367  1.00  0.00    -0.246 OA
BRANCH  28  30
ATOM     30  C   UNL     1      -1.202  -5.513  -3.894  1.00  0.00     0.060 A 
ATOM     31  C   UNL     1      -1.858  -6.684  -3.488  1.00  0.00     0.016 A 
ATOM     32  C   UNL     1      -1.902  -4.303  -3.922  1.00  0.00     0.016 A 
ATOM     33  C   UNL     1      -3.217  -6.659  -3.149  1.00  0.00     0.010 A 
ATOM     34  C   UNL     1      -3.269  -4.281  -3.588  1.00  0.00     0.010 A 
ATOM     35  C   UNL     1      -3.946  -5.463  -3.226  1.00  0.00    -0.014 A 
BRANCH  35  36
ATOM     36  C   UNL     1      -5.435  -5.487  -3.111  1.00  0.00     0.031 A 
ATOM     37  C   UNL     1      -6.252  -5.636  -4.364  1.00  0.00     0.074 A 
ATOM     38  C   UNL     1      -6.079  -5.404  -1.930  1.00  0.00     0.049 A 
ATOM     39  N   UNL     1      -7.553  -5.696  -4.500  1.00  0.00    -0.248 NA
ATOM     40  C   UNL     1      -5.506  -5.752  -5.627  1.00  0.00     0.031 C 
ATOM     41  C   UNL     1      -5.442  -5.350  -0.626  1.00  0.00     0.029 A 
ATOM     42  N   UNL     1      -7.421  -5.346  -1.631  1.00  0.00    -0.354 N 
ATOM     43  C   UNL     1      -7.782  -5.876  -5.856  1.00  0.00     0.074 A 
ATOM     44  C   UNL     1      -6.489  -5.877  -6.508  1.00  0.00     0.031 C 
ATOM     45  C   UNL     1      -6.367  -5.213   0.334  1.00  0.00     0.029 A 
ATOM     46  C   UNL     1      -7.682  -5.184  -0.290  1.00  0.00     0.049 A 
ATOM     47  H   UNL     1      -8.128  -5.415  -2.313  1.00  0.00     0.167 HD
ATOM     48  C   UNL     1      -8.960  -6.040  -6.502  1.00  0.00     0.031 A 
ATOM     49  C   UNL     1      -8.842  -5.034   0.377  1.00  0.00     0.031 A 
ATOM     50  C   UNL     1     -10.252  -6.008  -5.872  1.00  0.00     0.049 A 
ATOM     51  C   UNL     1     -10.135  -5.098  -0.379  1.00  0.00     0.074 A 
ATOM     52  C   UNL     1     -11.497  -6.173  -6.455  1.00  0.00     0.029 A 
ATOM     53  N   UNL     1     -10.470  -5.778  -4.523  1.00  0.00    -0.354 N 
ATOM     54  N   UNL     1     -10.331  -5.315  -1.655  1.00  0.00    -0.248 NA
ATOM     55  C   UNL     1     -11.369  -4.922   0.401  1.00  0.00     0.031 C 
ATOM     56  C   UNL     1     -12.471  -5.985  -5.468  1.00  0.00     0.029 A 
ATOM     57  C   UNL     1     -11.831  -5.759  -4.261  1.00  0.00     0.049 A 
ATOM     58  H   UNL     1      -9.763  -5.647  -3.851  1.00  0.00     0.167 HD
ATOM     59  C   UNL     1     -11.707  -5.339  -1.826  1.00  0.00     0.074 A 
ATOM     60  C   UNL     1     -12.299  -5.121  -0.522  1.00  0.00     0.031 C 
ATOM     61  C   UNL     1     -12.414  -5.535  -2.965  1.00  0.00     0.031 A 
BRANCH  48  62
ATOM     62  C   UNL     1      -8.898  -6.237  -7.989  1.00  0.00    -0.014 A 
ATOM     63  C   UNL     1      -8.457  -7.449  -8.542  1.00  0.00     0.009 A 
ATOM     64  C   UNL     1      -9.310  -5.205  -8.845  1.00  0.00     0.009 A 
ATOM     65  C   UNL     1      -8.402  -7.612  -9.928  1.00  0.00     0.001 A 
ATOM     66  C   UNL     1      -9.276  -5.379 -10.228  1.00  0.00     0.001 A 
ATOM     67  C   UNL     1      -8.814  -6.579 -10.769  1.00  0.00     0.000 A 
ENDBRANCH  48  62
BRANCH  49  68
ATOM     68  C   UNL     1      -8.838  -4.812   1.848  1.00  0.00    -0.014 A 
ATOM     69  C   UNL     1      -9.292  -5.807   2.726  1.00  0.00     0.009 A 
ATOM     70  C   UNL     1      -8.402  -3.587   2.378  1.00  0.00     0.009 A 
ATOM     71  C   UNL     1      -9.339  -5.569   4.102  1.00  0.00     0.001 A 
ATOM     72  C   UNL     1      -8.426  -3.361   3.756  1.00  0.00     0.001 A 
ATOM     73  C   UNL     1      -8.904  -4.348   4.616  1.00  0.00     0.000 A 
ENDBRANCH  49  68
BRANCH  61  74
ATOM     74  C   UNL     1     -13.911  -5.553  -2.847  1.00  0.00    -0.014 A 
ATOM     75  C   UNL     1     -14.638  -4.375  -2.616  1.00  0.00     0.009 A 
ATOM     76  C   UNL     1     -14.605  -6.763  -2.999  1.00  0.00     0.009 A 
ATOM     77  C   UNL     1     -16.030  -4.415  -2.510  1.00  0.00     0.001 A 
ATOM     78  C   UNL     1     -15.997  -6.796  -2.921  1.00  0.00     0.001 A 
ATOM     79  C   UNL     1     -16.708  -5.623  -2.668  1.00  0.00     0.000 A 
ENDBRANCH  61  74
ENDBRANCH  35  36
ENDBRANCH  28  30
ENDBRANCH  27  28
ENDBRANCH  26  27
ENDBRANCH  25  26
ENDBRANCH  24  25
ENDBRANCH   1  24
TORSDOF 19
