REMARK SMILES CCCCCCNC(=O)Oc1cccc(-c2ccc([C@@H](C)C(=O)OCCOCCOC(=O)c3ccc(-c4c5nc(c(-c6ccccc6)c6ccc([nH]6)c(-c6ccccc6)c6nc(c(-c7ccccc7)c7ccc4[nH]7)C=C6)C=C5)cc3)cc2O)c1
REMARK SMILES IDX 22 1 23 2 20 3 21 4 19 5 16 6 17 7 82 8 18 9 81 10 15 11
REMARK SMILES IDX 11 12 12 13 84 14 13 15 14 16 10 17 8 18 7 19 9 21 6 22 5 23
REMARK SMILES IDX 4 24 3 25 2 26 1 27 83 28 24 30 25 31 26 32 27 33 28 34
REMARK SMILES IDX 29 35 30 36 31 37 32 38 33 39 34 40 80 41 35 42 79 43 36 44
REMARK SMILES IDX 37 45 38 46 73 47 39 48 78 49 72 50 74 51 40 52 77 53 71 54
REMARK SMILES IDX 70 55 41 57 63 58 48 59 62 60 49 61 52 62 61 63 75 64 50 65
REMARK SMILES IDX 51 66 60 68 76 69 53 70 42 71 43 72 47 73 44 74 46 75 45 76
REMARK SMILES IDX 64 77 65 78 69 79 66 80 68 81 67 82 54 83 55 84 59 85 56 86
REMARK SMILES IDX 58 87 57 88
REMARK H PARENT 7 20 83 29 74 56 52 67
REMARK Flexibility Score: inf
ROOT
ATOM      1  C   UNL     1      -4.320   6.568 -13.561  1.00  0.00     0.313 C 
ATOM      2  O   UNL     1      -4.123   6.164 -14.704  1.00  0.00    -0.252 OA
ENDROOT
BRANCH   1   3
ATOM      3  C   UNL     1      -5.414   5.981 -12.683  1.00  0.00     0.126 C 
ATOM      4  C   UNL     1      -6.758   6.572 -13.102  1.00  0.00     0.025 C 
BRANCH   3   5
ATOM      5  C   UNL     1      -5.224   6.022 -11.170  1.00  0.00    -0.030 A 
ATOM      6  C   UNL     1      -5.122   5.986  -8.309  1.00  0.00     0.024 A 
ATOM      7  C   UNL     1      -5.161   7.193  -9.031  1.00  0.00     0.013 A 
ATOM      8  C   UNL     1      -5.099   4.800  -9.060  1.00  0.00     0.123 A 
ATOM      9  C   UNL     1      -5.218   7.213 -10.434  1.00  0.00     0.005 A 
ATOM     10  C   UNL     1      -5.135   4.814 -10.458  1.00  0.00     0.051 A 
BRANCH   6  11
ATOM     11  C   UNL     1      -5.168   6.004  -6.833  1.00  0.00    -0.011 A 
ATOM     12  C   UNL     1      -4.287   5.373  -4.658  1.00  0.00     0.133 A 
ATOM     13  C   UNL     1      -5.381   5.950  -4.016  1.00  0.00     0.047 A 
ATOM     14  C   UNL     1      -4.173   5.391  -6.052  1.00  0.00     0.056 A 
ATOM     15  C   UNL     1      -6.364   6.576  -4.775  1.00  0.00     0.004 A 
ATOM     16  C   UNL     1      -6.258   6.600  -6.169  1.00  0.00     0.009 A 
BRANCH  12  17
ATOM     17  O   UNL     1      -3.385   4.666  -3.846  1.00  0.00    -0.410 OA
BRANCH  17  18
ATOM     18  C   UNL     1      -2.038   4.980  -3.935  1.00  0.00     0.412 C 
ATOM     19  N   UNL     1      -1.254   4.250  -3.087  1.00  0.00    -0.321 N 
ATOM     20  H   UNL     1      -0.285   4.419  -3.133  1.00  0.00     0.167 HD
ATOM     21  O   UNL     1      -1.546   5.829  -4.676  1.00  0.00    -0.224 OA
BRANCH  19  22
ATOM     22  C   UNL     1      -1.690   3.254  -2.127  1.00  0.00     0.119 C 
BRANCH  22  23
ATOM     23  C   UNL     1      -1.085   1.877  -2.405  1.00  0.00     0.021 C 
BRANCH  23  24
ATOM     24  C   UNL     1       0.444   1.806  -2.293  1.00  0.00     0.002 C 
BRANCH  24  25
ATOM     25  C   UNL     1       1.028   2.174  -0.925  1.00  0.00    -0.000 C 
BRANCH  25  26
ATOM     26  C   UNL     1       0.554   1.312   0.248  1.00  0.00    -0.003 C 
ATOM     27  C   UNL     1       0.945  -0.152   0.118  1.00  0.00     0.004 C 
ENDBRANCH  25  26
ENDBRANCH  24  25
ENDBRANCH  23  24
ENDBRANCH  22  23
ENDBRANCH  19  22
ENDBRANCH  17  18
ENDBRANCH  12  17
ENDBRANCH   6  11
BRANCH   8  28
ATOM     28  O   UNL     1      -5.098   3.554  -8.487  1.00  0.00    -0.507 OA
ATOM     29  H   UNL     1      -5.074   3.467  -7.554  1.00  0.00     0.293 HD
ENDBRANCH   8  28
ENDBRANCH   3   5
ENDBRANCH   1   3
BRANCH   1  30
ATOM     30  O   UNL     1      -3.632   7.585 -12.980  1.00  0.00    -0.463 OA
BRANCH  30  31
ATOM     31  C   UNL     1      -2.495   8.074 -13.714  1.00  0.00     0.261 C 
BRANCH  31  32
ATOM     32  C   UNL     1      -1.198   7.853 -12.933  1.00  0.00     0.202 C 
BRANCH  32  33
ATOM     33  O   UNL     1      -0.790   6.497 -12.755  1.00  0.00    -0.374 OA
BRANCH  33  34
ATOM     34  C   UNL     1      -1.490   5.720 -11.782  1.00  0.00     0.202 C 
BRANCH  34  35
ATOM     35  C   UNL     1      -1.137   5.974 -10.312  1.00  0.00     0.261 C 
BRANCH  35  36
ATOM     36  O   UNL     1      -1.495   7.299  -9.880  1.00  0.00    -0.460 OA
BRANCH  36  37
ATOM     37  C   UNL     1      -0.443   8.115  -9.629  1.00  0.00     0.338 C 
ATOM     38  O   UNL     1       0.742   7.834  -9.680  1.00  0.00    -0.246 OA
BRANCH  37  39
ATOM     39  C   UNL     1      -0.909   9.505  -9.456  1.00  0.00     0.060 A 
ATOM     40  C   UNL     1      -0.267  10.492 -10.214  1.00  0.00     0.016 A 
ATOM     41  C   UNL     1      -1.882   9.852  -8.517  1.00  0.00     0.016 A 
ATOM     42  C   UNL     1      -0.547  11.837  -9.991  1.00  0.00     0.010 A 
ATOM     43  C   UNL     1      -2.161  11.206  -8.291  1.00  0.00     0.010 A 
ATOM     44  C   UNL     1      -1.463  12.205  -8.996  1.00  0.00    -0.014 A 
BRANCH  44  45
ATOM     45  C   UNL     1      -1.557  13.631  -8.598  1.00  0.00     0.031 A 
ATOM     46  C   UNL     1      -0.827  14.097  -7.367  1.00  0.00     0.074 A 
ATOM     47  C   UNL     1      -2.226  14.518  -9.357  1.00  0.00     0.049 A 
ATOM     48  N   UNL     1      -0.740  15.302  -6.860  1.00  0.00    -0.248 NA
ATOM     49  C   UNL     1      -0.096  13.070  -6.608  1.00  0.00     0.031 C 
ATOM     50  C   UNL     1      -2.933  14.206 -10.598  1.00  0.00     0.029 A 
ATOM     51  N   UNL     1      -2.408  15.868  -9.194  1.00  0.00    -0.354 N 
ATOM     52  C   UNL     1       0.050  15.176  -5.724  1.00  0.00     0.074 A 
ATOM     53  C   UNL     1       0.389  13.775  -5.596  1.00  0.00     0.031 C 
ATOM     54  C   UNL     1      -3.469  15.337 -11.088  1.00  0.00     0.029 A 
ATOM     55  C   UNL     1      -3.167  16.444 -10.182  1.00  0.00     0.049 A 
ATOM     56  H   UNL     1      -2.030  16.376  -8.439  1.00  0.00     0.167 HD
ATOM     57  C   UNL     1       0.466  16.139  -4.868  1.00  0.00     0.031 A 
ATOM     58  C   UNL     1      -3.579  17.717 -10.335  1.00  0.00     0.031 A 
ATOM     59  C   UNL     1       0.123  17.532  -4.983  1.00  0.00     0.049 A 
ATOM     60  C   UNL     1      -3.170  18.756  -9.326  1.00  0.00     0.074 A 
ATOM     61  C   UNL     1       0.509  18.585  -4.172  1.00  0.00     0.029 A 
ATOM     62  N   UNL     1      -0.694  18.063  -5.967  1.00  0.00    -0.354 N 
ATOM     63  N   UNL     1      -2.400  18.629  -8.272  1.00  0.00    -0.248 NA
ATOM     64  C   UNL     1      -3.681  20.119  -9.536  1.00  0.00     0.031 C 
ATOM     65  C   UNL     1      -0.121  19.745  -4.633  1.00  0.00     0.029 A 
ATOM     66  C   UNL     1      -0.850  19.424  -5.767  1.00  0.00     0.049 A 
ATOM     67  H   UNL     1      -1.104  17.549  -6.700  1.00  0.00     0.167 HD
ATOM     68  C   UNL     1      -2.311  19.897  -7.711  1.00  0.00     0.074 A 
ATOM     69  C   UNL     1      -3.095  20.782  -8.547  1.00  0.00     0.031 C 
ATOM     70  C   UNL     1      -1.636  20.293  -6.604  1.00  0.00     0.031 A 
BRANCH  57  71
ATOM     71  C   UNL     1       1.315  15.707  -3.705  1.00  0.00    -0.014 A 
ATOM     72  C   UNL     1       2.645  15.293  -3.884  1.00  0.00     0.009 A 
ATOM     73  C   UNL     1       0.782  15.736  -2.406  1.00  0.00     0.009 A 
ATOM     74  C   UNL     1       3.411  14.883  -2.790  1.00  0.00     0.001 A 
ATOM     75  C   UNL     1       1.559  15.352  -1.312  1.00  0.00     0.001 A 
ATOM     76  C   UNL     1       2.869  14.917  -1.506  1.00  0.00     0.000 A 
ENDBRANCH  57  71
BRANCH  58  77
ATOM     77  C   UNL     1      -4.441  18.084 -11.489  1.00  0.00    -0.014 A 
ATOM     78  C   UNL     1      -3.945  18.887 -12.527  1.00  0.00     0.009 A 
ATOM     79  C   UNL     1      -5.772  17.641 -11.549  1.00  0.00     0.009 A 
ATOM     80  C   UNL     1      -4.771  19.256 -13.591  1.00  0.00     0.001 A 
ATOM     81  C   UNL     1      -6.587  17.989 -12.628  1.00  0.00     0.001 A 
ATOM     82  C   UNL     1      -6.089  18.803 -13.644  1.00  0.00     0.000 A 
ENDBRANCH  58  77
BRANCH  70  83
ATOM     83  C   UNL     1      -1.687  21.754  -6.250  1.00  0.00    -0.014 A 
ATOM     84  C   UNL     1      -2.849  22.338  -5.724  1.00  0.00     0.009 A 
ATOM     85  C   UNL     1      -0.538  22.546  -6.407  1.00  0.00     0.009 A 
ATOM     86  C   UNL     1      -2.868  23.695  -5.391  1.00  0.00     0.001 A 
ATOM     87  C   UNL     1      -0.551  23.894  -6.047  1.00  0.00     0.001 A 
ATOM     88  C   UNL     1      -1.718  24.470  -5.548  1.00  0.00     0.000 A 
ENDBRANCH  70  83
ENDBRANCH  44  45
ENDBRANCH  37  39
ENDBRANCH  36  37
ENDBRANCH  35  36
ENDBRANCH  34  35
ENDBRANCH  33  34
ENDBRANCH  32  33
ENDBRANCH  31  32
ENDBRANCH  30  31
ENDBRANCH   1  30
TORSDOF 24
