REMARK SMILES CCn1ncc(NC(=O)[C@@H]2CCCC[C@@H]2C(=O)OCCOCCOC(=O)c2ccc(-c3c4nc(c(-c5ccccc5)c5ccc([nH]5)c(-c5ccccc5)c5nc(c(-c6ccccc6)c6ccc3[nH]6)C=C5)C=C4)cc2)c1C(=O)Nc1cnn(C)c1C
REMARK SMILES IDX 20 1 19 2 18 3 16 4 17 5 15 6 10 7 11 8 12 9 14 10 13 11
REMARK SMILES IDX 8 12 7 13 9 15 6 16 3 17 4 18 75 19 5 20 2 21 1 22 76 23
REMARK SMILES IDX 77 24 78 25 79 27 80 28 84 29 81 30 82 31 85 32 83 33 21 34
REMARK SMILES IDX 22 35 23 36 24 37 25 38 26 39 27 40 28 41 74 42 29 43 73 44
REMARK SMILES IDX 30 45 31 46 32 47 67 48 33 49 72 50 66 51 68 52 34 53 71 54
REMARK SMILES IDX 65 55 64 56 35 58 57 59 42 60 56 61 43 62 46 63 55 64 69 65
REMARK SMILES IDX 44 66 45 67 54 69 70 70 47 71 36 72 37 73 41 74 38 75 40 76
REMARK SMILES IDX 39 77 58 78 59 79 63 80 60 81 62 82 61 83 48 84 49 85 53 86
REMARK SMILES IDX 50 87 52 88 51 89
REMARK H PARENT 7 14 78 26 68 57 46 68
REMARK Flexibility Score: inf
ROOT
ATOM      1  C   UNL     1      -0.003   1.738   4.405  1.00  0.00     0.202 C 
ENDROOT
BRANCH   1   2
ATOM      2  C   UNL     1       1.466   2.009   4.883  1.00  0.00     0.261 C 
BRANCH   2   3
ATOM      3  O   UNL     1       2.605   2.073   3.982  1.00  0.00    -0.463 OA
BRANCH   3   4
ATOM      4  C   UNL     1       3.706   1.362   4.333  1.00  0.00     0.309 C 
ATOM      5  O   UNL     1       3.660   0.487   5.196  1.00  0.00    -0.252 OA
BRANCH   4   6
ATOM      6  C   UNL     1       5.063   1.848   3.766  1.00  0.00     0.111 C 
ATOM      7  C   UNL     1       5.389   2.629   2.484  1.00  0.00     0.093 C 
ATOM      8  C   UNL     1       6.027   1.965   1.256  1.00  0.00     0.014 C 
ATOM      9  C   UNL     1       6.581   0.562   1.392  1.00  0.00     0.001 C 
ATOM     10  C   UNL     1       6.159   0.760   3.940  1.00  0.00     0.016 C 
ATOM     11  C   UNL     1       6.411  -0.134   2.731  1.00  0.00     0.001 C 
BRANCH   7  12
ATOM     12  C   UNL     1       4.668   3.864   2.016  1.00  0.00     0.228 C 
ATOM     13  N   UNL     1       3.427   4.042   1.574  1.00  0.00    -0.322 N 
ATOM     14  H   UNL     1       3.385   4.896   1.087  1.00  0.00     0.170 HD
ATOM     15  O   UNL     1       5.338   4.915   1.958  1.00  0.00    -0.274 OA
BRANCH  13  16
ATOM     16  C   UNL     1       2.180   3.460   1.556  1.00  0.00     0.092 A 
ATOM     17  N   UNL     1       0.082   2.557   1.583  1.00  0.00    -0.258 N 
ATOM     18  N   UNL     1      -0.014   3.878   1.893  1.00  0.00    -0.178 NA
ATOM     19  C   UNL     1       1.602   2.162   1.560  1.00  0.00     0.150 A 
ATOM     20  C   UNL     1       1.136   4.396   1.571  1.00  0.00     0.162 A 
BRANCH  17  21
ATOM     21  C   UNL     1      -1.353   2.059   1.460  1.00  0.00     0.142 C 
ATOM     22  C   UNL     1      -2.260   1.410   0.330  1.00  0.00     0.029 C 
ENDBRANCH  17  21
BRANCH  19  23
ATOM     23  C   UNL     1       2.527   0.896   1.196  1.00  0.00     0.276 C 
ATOM     24  O   UNL     1       3.340   1.011   0.269  1.00  0.00    -0.267 OA
ATOM     25  N   UNL     1       2.909  -0.244   1.998  1.00  0.00    -0.318 N 
ATOM     26  H   UNL     1       3.533  -0.070   2.740  1.00  0.00     0.170 HD
BRANCH  25  27
ATOM     27  C   UNL     1       2.474  -1.606   1.831  1.00  0.00     0.082 A 
ATOM     28  C   UNL     1       2.336  -2.414   0.670  1.00  0.00     0.161 A 
ATOM     29  C   UNL     1       2.059  -2.473   2.849  1.00  0.00     0.059 A 
ATOM     30  N   UNL     1       1.591  -3.509   0.895  1.00  0.00    -0.179 NA
ATOM     31  N   UNL     1       1.279  -3.419   2.202  1.00  0.00    -0.271 N 
ATOM     32  C   UNL     1       2.127  -2.444   4.335  1.00  0.00     0.068 C 
ATOM     33  C   UNL     1       0.024  -3.976   2.689  1.00  0.00     0.174 C 
ENDBRANCH  25  27
ENDBRANCH  19  23
ENDBRANCH  13  16
ENDBRANCH   7  12
ENDBRANCH   4   6
ENDBRANCH   3   4
ENDBRANCH   2   3
ENDBRANCH   1   2
BRANCH   1  34
ATOM     34  O   UNL     1      -0.565   0.592   3.726  1.00  0.00    -0.374 OA
BRANCH  34  35
ATOM     35  C   UNL     1       0.154  -0.138   2.743  1.00  0.00     0.202 C 
BRANCH  35  36
ATOM     36  C   UNL     1      -0.195  -0.327   1.135  1.00  0.00     0.261 C 
BRANCH  36  37
ATOM     37  O   UNL     1       0.442   0.397  -0.080  1.00  0.00    -0.460 OA
BRANCH  37  38
ATOM     38  C   UNL     1       0.347   1.527  -0.850  1.00  0.00     0.338 C 
ATOM     39  O   UNL     1      -0.304   2.589  -0.792  1.00  0.00    -0.246 OA
BRANCH  38  40
ATOM     40  C   UNL     1       0.883   1.266  -2.117  1.00  0.00     0.060 A 
ATOM     41  C   UNL     1      -0.108   0.959  -3.041  1.00  0.00     0.016 A 
ATOM     42  C   UNL     1       2.254   1.169  -2.323  1.00  0.00     0.016 A 
ATOM     43  C   UNL     1       0.291   0.291  -4.137  1.00  0.00     0.010 A 
ATOM     44  C   UNL     1       2.666   0.487  -3.419  1.00  0.00     0.010 A 
ATOM     45  C   UNL     1       1.667   0.063  -4.290  1.00  0.00    -0.014 A 
BRANCH  45  46
ATOM     46  C   UNL     1       2.013  -0.248  -5.630  1.00  0.00     0.031 A 
ATOM     47  C   UNL     1       1.722   0.887  -6.537  1.00  0.00     0.074 A 
ATOM     48  C   UNL     1       2.521  -1.432  -5.958  1.00  0.00     0.049 A 
ATOM     49  N   UNL     1       0.802   0.945  -7.439  1.00  0.00    -0.248 NA
ATOM     50  C   UNL     1       2.356   2.181  -6.220  1.00  0.00     0.031 C 
ATOM     51  C   UNL     1       3.151  -2.442  -5.121  1.00  0.00     0.029 A 
ATOM     52  N   UNL     1       2.716  -1.857  -7.212  1.00  0.00    -0.354 N 
ATOM     53  C   UNL     1       0.818   2.255  -7.898  1.00  0.00     0.074 A 
ATOM     54  C   UNL     1       1.662   3.002  -7.004  1.00  0.00     0.031 C 
ATOM     55  C   UNL     1       3.928  -3.203  -5.927  1.00  0.00     0.029 A 
ATOM     56  C   UNL     1       3.726  -2.779  -7.309  1.00  0.00     0.049 A 
ATOM     57  H   UNL     1       2.191  -1.541  -7.982  1.00  0.00     0.167 HD
ATOM     58  C   UNL     1       0.298   2.597  -9.104  1.00  0.00     0.031 A 
ATOM     59  C   UNL     1       4.430  -2.979  -8.443  1.00  0.00     0.031 A 
ATOM     60  C   UNL     1      -0.592   1.589  -9.612  1.00  0.00     0.049 A 
ATOM     61  C   UNL     1       3.641  -2.406  -9.579  1.00  0.00     0.074 A 
ATOM     62  C   UNL     1      -1.795   1.065  -9.178  1.00  0.00     0.029 A 
ATOM     63  N   UNL     1      -0.074   0.668 -10.494  1.00  0.00    -0.354 N 
ATOM     64  N   UNL     1       2.482  -2.876  -9.958  1.00  0.00    -0.248 NA
ATOM     65  C   UNL     1       3.895  -1.026  -9.988  1.00  0.00     0.031 C 
ATOM     66  C   UNL     1      -1.703  -0.334  -9.441  1.00  0.00     0.029 A 
ATOM     67  C   UNL     1      -0.469  -0.572 -10.053  1.00  0.00     0.049 A 
ATOM     68  H   UNL     1       0.473   0.860 -11.289  1.00  0.00     0.167 HD
ATOM     69  C   UNL     1       1.712  -1.762 -10.283  1.00  0.00     0.074 A 
ATOM     70  C   UNL     1       2.669  -0.663 -10.388  1.00  0.00     0.031 C 
ATOM     71  C   UNL     1       0.349  -1.764 -10.148  1.00  0.00     0.031 A 
BRANCH  58  72
ATOM     72  C   UNL     1       0.922   3.657  -9.967  1.00  0.00    -0.014 A 
ATOM     73  C   UNL     1       0.315   3.976 -11.190  1.00  0.00     0.009 A 
ATOM     74  C   UNL     1       2.223   4.158  -9.752  1.00  0.00     0.009 A 
ATOM     75  C   UNL     1       1.006   4.696 -12.171  1.00  0.00     0.001 A 
ATOM     76  C   UNL     1       2.898   4.912 -10.710  1.00  0.00     0.001 A 
ATOM     77  C   UNL     1       2.299   5.154 -11.934  1.00  0.00     0.000 A 
ENDBRANCH  58  72
BRANCH  59  78
ATOM     78  C   UNL     1       5.872  -3.272  -8.494  1.00  0.00    -0.014 A 
ATOM     79  C   UNL     1       6.449  -3.752  -9.673  1.00  0.00     0.009 A 
ATOM     80  C   UNL     1       6.733  -2.905  -7.439  1.00  0.00     0.009 A 
ATOM     81  C   UNL     1       7.839  -3.856  -9.792  1.00  0.00     0.001 A 
ATOM     82  C   UNL     1       8.118  -3.023  -7.550  1.00  0.00     0.001 A 
ATOM     83  C   UNL     1       8.671  -3.490  -8.735  1.00  0.00     0.000 A 
ENDBRANCH  59  78
BRANCH  71  84
ATOM     84  C   UNL     1      -0.322  -3.067  -9.774  1.00  0.00    -0.014 A 
ATOM     85  C   UNL     1      -0.003  -3.770  -8.598  1.00  0.00     0.009 A 
ATOM     86  C   UNL     1      -1.412  -3.518 -10.532  1.00  0.00     0.009 A 
ATOM     87  C   UNL     1      -0.713  -4.913  -8.219  1.00  0.00     0.001 A 
ATOM     88  C   UNL     1      -2.138  -4.648 -10.143  1.00  0.00     0.001 A 
ATOM     89  C   UNL     1      -1.782  -5.351  -8.993  1.00  0.00     0.000 A 
ENDBRANCH  71  84
ENDBRANCH  45  46
ENDBRANCH  38  40
ENDBRANCH  37  38
ENDBRANCH  36  37
ENDBRANCH  35  36
ENDBRANCH  34  35
ENDBRANCH   1  34
TORSDOF 19
