REMARK SMILES O=C(NCc1ccc(C(=O)OCCOCCOC(=O)c2ccc(-c3c4nc(c(-c5ccccc5)c5ccc([nH]5)c(-c5ccccc5)c5nc(c(-c6ccccc6)c6ccc3[nH]6)C=C5)C=C4)cc2)cc1)Nc1ccccc1Br
REMARK SMILES IDX 13 1 12 2 11 3 9 4 10 5 8 6 5 7 6 8 69 9 7 10 68 11 4 12
REMARK SMILES IDX 3 13 1 14 2 15 70 16 71 19 72 20 76 21 73 22 75 23 77 24
REMARK SMILES IDX 74 25 14 26 15 27 16 28 17 29 18 30 19 31 20 32 21 33 67 34
REMARK SMILES IDX 22 35 66 36 23 37 24 38 25 39 60 40 26 41 65 42 59 43 61 44
REMARK SMILES IDX 27 45 64 46 58 47 57 48 28 50 50 51 35 52 49 53 36 54 39 55
REMARK SMILES IDX 48 56 62 57 37 58 38 59 47 61 63 62 40 63 29 64 30 65 34 66
REMARK SMILES IDX 31 67 33 68 32 69 51 70 52 71 56 72 53 73 55 74 54 75 41 76
REMARK SMILES IDX 42 77 46 78 43 79 45 80 44 81
REMARK H PARENT 3 17 70 18 61 49 39 60
REMARK Flexibility Score: inf
ROOT
ATOM      1  C   UNL     1       6.824   7.139  -5.325  1.00  0.00     0.202 C 
ENDROOT
BRANCH   1   2
ATOM      2  C   UNL     1       5.442   6.497  -5.477  1.00  0.00     0.261 C 
BRANCH   2   3
ATOM      3  O   UNL     1       5.091   5.727  -4.316  1.00  0.00    -0.460 OA
BRANCH   3   4
ATOM      4  C   UNL     1       5.086   4.385  -4.508  1.00  0.00     0.338 C 
ATOM      5  O   UNL     1       5.232   3.803  -5.572  1.00  0.00    -0.246 OA
BRANCH   4   6
ATOM      6  C   UNL     1       5.000   3.666  -3.214  1.00  0.00     0.060 A 
ATOM      7  C   UNL     1       4.773   2.119  -0.879  1.00  0.00    -0.029 A 
ATOM      8  C   UNL     1       5.419   1.603  -2.008  1.00  0.00     0.006 A 
ATOM      9  C   UNL     1       4.298   3.443  -0.910  1.00  0.00     0.006 A 
ATOM     10  C   UNL     1       5.530   2.371  -3.167  1.00  0.00     0.016 A 
ATOM     11  C   UNL     1       4.409   4.215  -2.072  1.00  0.00     0.016 A 
BRANCH   7  12
ATOM     12  C   UNL     1       4.540   1.242   0.326  1.00  0.00     0.153 C 
BRANCH  12  13
ATOM     13  N   UNL     1       3.122   1.016   0.522  1.00  0.00    -0.334 N 
ATOM     14  O   UNL     1       1.118   0.089   0.349  1.00  0.00    -0.248 OA
ATOM     15  C   UNL     1       2.331  -0.042   0.206  1.00  0.00     0.319 C 
ATOM     16  N   UNL     1       2.965  -1.192  -0.171  1.00  0.00    -0.307 N 
ATOM     17  H   UNL     1       2.649   1.760   0.960  1.00  0.00     0.165 HD
ATOM     18  H   UNL     1       3.947  -1.215  -0.107  1.00  0.00     0.171 HD
BRANCH  16  19
ATOM     19  C   UNL     1       2.308  -2.352  -0.647  1.00  0.00     0.057 A 
ATOM     20  C   UNL     1       2.785  -3.575  -0.146  1.00  0.00     0.027 A 
ATOM     21  C   UNL     1       1.246  -2.373  -1.569  1.00  0.00     0.041 A 
ATOM     22  C   UNL     1       2.166  -4.782  -0.481  1.00  0.00     0.002 A 
ATOM     23  C   UNL     1       0.628  -3.589  -1.900  1.00  0.00     0.018 A 
ATOM     24  Br  UNL     1       0.709  -0.864  -2.598  1.00  0.00    -0.049 Br
ATOM     25  C   UNL     1       1.076  -4.787  -1.345  1.00  0.00     0.001 A 
ENDBRANCH  16  19
ENDBRANCH  12  13
ENDBRANCH   7  12
ENDBRANCH   4   6
ENDBRANCH   3   4
ENDBRANCH   2   3
ENDBRANCH   1   2
BRANCH   1  26
ATOM     26  O   UNL     1       7.923   6.237  -5.202  1.00  0.00    -0.374 OA
BRANCH  26  27
ATOM     27  C   UNL     1       8.175   5.698  -3.902  1.00  0.00     0.202 C 
BRANCH  27  28
ATOM     28  C   UNL     1       8.936   6.614  -2.936  1.00  0.00     0.261 C 
BRANCH  28  29
ATOM     29  O   UNL     1       8.143   7.750  -2.544  1.00  0.00    -0.460 OA
BRANCH  29  30
ATOM     30  C   UNL     1       8.575   8.940  -3.022  1.00  0.00     0.338 C 
ATOM     31  O   UNL     1       9.600   9.160  -3.652  1.00  0.00    -0.246 OA
BRANCH  30  32
ATOM     32  C   UNL     1       7.532   9.965  -2.835  1.00  0.00     0.060 A 
ATOM     33  C   UNL     1       7.152  10.712  -3.957  1.00  0.00     0.016 A 
ATOM     34  C   UNL     1       6.979  10.236  -1.582  1.00  0.00     0.016 A 
ATOM     35  C   UNL     1       6.253  11.767  -3.822  1.00  0.00     0.010 A 
ATOM     36  C   UNL     1       6.081  11.302  -1.446  1.00  0.00     0.010 A 
ATOM     37  C   UNL     1       5.740  12.092  -2.559  1.00  0.00    -0.014 A 
BRANCH  37  38
ATOM     38  C   UNL     1       4.951  13.335  -2.389  1.00  0.00     0.031 A 
ATOM     39  C   UNL     1       5.627  14.567  -1.855  1.00  0.00     0.074 A 
ATOM     40  C   UNL     1       3.652  13.376  -2.736  1.00  0.00     0.049 A 
ATOM     41  N   UNL     1       5.125  15.755  -1.629  1.00  0.00    -0.248 NA
ATOM     42  C   UNL     1       7.057  14.445  -1.532  1.00  0.00     0.031 C 
ATOM     43  C   UNL     1       2.892  12.261  -3.299  1.00  0.00     0.029 A 
ATOM     44  N   UNL     1       2.745  14.402  -2.662  1.00  0.00    -0.354 N 
ATOM     45  C   UNL     1       6.174  16.519  -1.133  1.00  0.00     0.074 A 
ATOM     46  C   UNL     1       7.332  15.654  -1.063  1.00  0.00     0.031 C 
ATOM     47  C   UNL     1       1.628  12.664  -3.516  1.00  0.00     0.029 A 
ATOM     48  C   UNL     1       1.486  14.053  -3.081  1.00  0.00     0.049 A 
ATOM     49  H   UNL     1       2.975  15.304  -2.340  1.00  0.00     0.167 HD
ATOM     50  C   UNL     1       6.176  17.824  -0.772  1.00  0.00     0.031 A 
ATOM     51  C   UNL     1       0.344  14.766  -3.097  1.00  0.00     0.031 A 
ATOM     52  C   UNL     1       5.024  18.683  -0.827  1.00  0.00     0.049 A 
ATOM     53  C   UNL     1       0.355  16.195  -2.626  1.00  0.00     0.074 A 
ATOM     54  C   UNL     1       4.934  20.027  -0.506  1.00  0.00     0.029 A 
ATOM     55  N   UNL     1       3.758  18.280  -1.220  1.00  0.00    -0.354 N 
ATOM     56  N   UNL     1       1.362  16.915  -2.194  1.00  0.00    -0.248 NA
ATOM     57  C   UNL     1      -0.929  16.911  -2.653  1.00  0.00     0.031 C 
ATOM     58  C   UNL     1       3.600  20.423  -0.652  1.00  0.00     0.029 A 
ATOM     59  C   UNL     1       2.873  19.340  -1.120  1.00  0.00     0.049 A 
ATOM     60  H   UNL     1       3.523  17.374  -1.526  1.00  0.00     0.167 HD
ATOM     61  C   UNL     1       0.839  18.173  -1.922  1.00  0.00     0.074 A 
ATOM     62  C   UNL     1      -0.570  18.123  -2.251  1.00  0.00     0.031 C 
ATOM     63  C   UNL     1       1.471  19.274  -1.444  1.00  0.00     0.031 A 
BRANCH  50  64
ATOM     64  C   UNL     1       7.465  18.393  -0.249  1.00  0.00    -0.014 A 
ATOM     65  C   UNL     1       8.553  18.641  -1.101  1.00  0.00     0.009 A 
ATOM     66  C   UNL     1       7.581  18.715   1.112  1.00  0.00     0.009 A 
ATOM     67  C   UNL     1       9.742  19.168  -0.593  1.00  0.00     0.001 A 
ATOM     68  C   UNL     1       8.762  19.266   1.612  1.00  0.00     0.001 A 
ATOM     69  C   UNL     1       9.844  19.484   0.761  1.00  0.00     0.000 A 
ENDBRANCH  50  64
BRANCH  51  70
ATOM     70  C   UNL     1      -0.918  14.134  -3.562  1.00  0.00    -0.014 A 
ATOM     71  C   UNL     1      -1.509  14.518  -4.775  1.00  0.00     0.009 A 
ATOM     72  C   UNL     1      -1.545  13.149  -2.783  1.00  0.00     0.009 A 
ATOM     73  C   UNL     1      -2.713  13.942  -5.188  1.00  0.00     0.001 A 
ATOM     74  C   UNL     1      -2.734  12.555  -3.211  1.00  0.00     0.001 A 
ATOM     75  C   UNL     1      -3.321  12.958  -4.409  1.00  0.00     0.000 A 
ENDBRANCH  51  70
BRANCH  63  76
ATOM     76  C   UNL     1       0.650  20.521  -1.276  1.00  0.00    -0.014 A 
ATOM     77  C   UNL     1      -0.290  20.641  -0.240  1.00  0.00     0.009 A 
ATOM     78  C   UNL     1       0.849  21.607  -2.144  1.00  0.00     0.009 A 
ATOM     79  C   UNL     1      -1.036  21.813  -0.098  1.00  0.00     0.001 A 
ATOM     80  C   UNL     1       0.121  22.787  -1.981  1.00  0.00     0.001 A 
ATOM     81  C   UNL     1      -0.827  22.885  -0.965  1.00  0.00     0.000 A 
ENDBRANCH  63  76
ENDBRANCH  37  38
ENDBRANCH  30  32
ENDBRANCH  29  30
ENDBRANCH  28  29
ENDBRANCH  27  28
ENDBRANCH  26  27
ENDBRANCH   1  26
TORSDOF 17
