REMARK SMILES C#CC[N@H+](CC(=O)OCCOCCOC(=O)c1ccc(-c2c3nc(c(-c4ccccc4)c4ccc([nH]4)c(-c4ccccc4)c4nc(c(-c5ccccc5)c5ccc2[nH]5)C=C4)C=C3)cc1)[C@H](C)C(=O)NCCC
REMARK SMILES IDX 9 1 8 2 6 3 7 4 5 5 4 6 3 8 2 9 1 10 65 11 66 12 67 13 68 14
REMARK SMILES IDX 69 15 70 17 71 18 72 19 10 20 11 21 12 22 13 23 14 24 15 25
REMARK SMILES IDX 16 26 17 27 18 28 64 29 19 30 63 31 20 32 21 33 22 34 57 35
REMARK SMILES IDX 23 36 62 37 56 38 58 39 24 40 61 41 55 42 54 43 25 45 47 46
REMARK SMILES IDX 32 47 46 48 33 49 36 50 45 51 59 52 34 53 35 54 44 56 60 57
REMARK SMILES IDX 37 58 26 59 27 60 31 61 28 62 30 63 29 64 48 65 49 66 53 67
REMARK SMILES IDX 50 68 52 69 51 70 38 71 39 72 43 73 40 74 42 75 41 76
REMARK H PARENT 4 7 69 16 58 44 36 55
REMARK Flexibility Score: inf
ROOT
ATOM      1  C   UNL     1      -5.466  -4.317  -2.256  1.00  0.00     0.261 C 
ENDROOT
BRANCH   1   2
ATOM      2  O   UNL     1      -4.772  -3.293  -1.524  1.00  0.00    -0.459 OA
BRANCH   2   3
ATOM      3  C   UNL     1      -5.090  -3.183  -0.207  1.00  0.00     0.361 C 
ATOM      4  O   UNL     1      -6.056  -3.723   0.318  1.00  0.00    -0.245 OA
BRANCH   3   5
ATOM      5  C   UNL     1      -4.162  -2.226   0.531  1.00  0.00     0.387 C 
BRANCH   5   6
ATOM      6  N   UNL     1      -2.684  -2.500   0.557  1.00  0.00    -0.306 N 
ATOM      7  H   UNL     1      -2.511  -3.414   0.974  1.00  0.00     0.350 HD
BRANCH   6   8
ATOM      8  C   UNL     1      -2.085  -2.716  -0.762  1.00  0.00     0.355 C 
BRANCH   8   9
ATOM      9  C   UNL     1      -0.704  -3.245  -0.728  1.00  0.00    -0.047 C 
ATOM     10  C   UNL     1       0.433  -3.628  -0.726  1.00  0.00     0.010 C 
ENDBRANCH   8   9
ENDBRANCH   6   8
BRANCH   6  11
ATOM     11  C   UNL     1      -2.018  -1.486   1.458  1.00  0.00     0.272 C 
ATOM     12  C   UNL     1      -2.624  -0.073   1.540  1.00  0.00     0.086 C 
BRANCH  11  13
ATOM     13  C   UNL     1      -0.475  -1.400   1.436  1.00  0.00     0.278 C 
ATOM     14  O   UNL     1       0.205  -1.988   2.285  1.00  0.00    -0.268 OA
ATOM     15  N   UNL     1       0.196  -0.619   0.530  1.00  0.00    -0.351 N 
ATOM     16  H   UNL     1       1.124  -0.397   0.773  1.00  0.00     0.163 HD
BRANCH  15  17
ATOM     17  C   UNL     1      -0.260  -0.072  -0.734  1.00  0.00     0.116 C 
BRANCH  17  18
ATOM     18  C   UNL     1       0.461   1.198  -1.153  1.00  0.00     0.018 C 
ATOM     19  C   UNL     1       1.902   0.930  -1.559  1.00  0.00     0.006 C 
ENDBRANCH  17  18
ENDBRANCH  15  17
ENDBRANCH  11  13
ENDBRANCH   6  11
ENDBRANCH   5   6
ENDBRANCH   3   5
ENDBRANCH   2   3
ENDBRANCH   1   2
BRANCH   1  20
ATOM     20  C   UNL     1      -4.663  -5.621  -2.272  1.00  0.00     0.202 C 
BRANCH  20  21
ATOM     21  O   UNL     1      -4.627  -6.372  -1.062  1.00  0.00    -0.374 OA
BRANCH  21  22
ATOM     22  C   UNL     1      -3.600  -6.064  -0.117  1.00  0.00     0.202 C 
BRANCH  22  23
ATOM     23  C   UNL     1      -2.184  -6.574  -0.425  1.00  0.00     0.261 C 
BRANCH  23  24
ATOM     24  O   UNL     1      -1.631  -5.997  -1.622  1.00  0.00    -0.460 OA
BRANCH  24  25
ATOM     25  C   UNL     1      -1.639  -6.788  -2.719  1.00  0.00     0.338 C 
ATOM     26  O   UNL     1      -2.005  -7.947  -2.792  1.00  0.00    -0.246 OA
BRANCH  25  27
ATOM     27  C   UNL     1      -1.326  -5.969  -3.912  1.00  0.00     0.060 A 
ATOM     28  C   UNL     1      -2.208  -6.038  -4.998  1.00  0.00     0.016 A 
ATOM     29  C   UNL     1      -0.173  -5.187  -3.993  1.00  0.00     0.016 A 
ATOM     30  C   UNL     1      -1.911  -5.374  -6.188  1.00  0.00     0.010 A 
ATOM     31  C   UNL     1       0.122  -4.517  -5.186  1.00  0.00     0.010 A 
ATOM     32  C   UNL     1      -0.723  -4.642  -6.305  1.00  0.00    -0.014 A 
BRANCH  32  33
ATOM     33  C   UNL     1      -0.276  -4.142  -7.631  1.00  0.00     0.031 A 
ATOM     34  C   UNL     1       0.850  -4.853  -8.335  1.00  0.00     0.074 A 
ATOM     35  C   UNL     1      -0.859  -3.077  -8.211  1.00  0.00     0.049 A 
ATOM     36  N   UNL     1       1.462  -4.541  -9.449  1.00  0.00    -0.248 NA
ATOM     37  C   UNL     1       1.356  -6.077  -7.692  1.00  0.00     0.031 C 
ATOM     38  C   UNL     1      -1.994  -2.332  -7.670  1.00  0.00     0.029 A 
ATOM     39  N   UNL     1      -0.562  -2.432  -9.387  1.00  0.00    -0.354 N 
ATOM     40  C   UNL     1       2.437  -5.515  -9.629  1.00  0.00     0.074 A 
ATOM     41  C   UNL     1       2.356  -6.410  -8.495  1.00  0.00     0.031 C 
ATOM     42  C   UNL     1      -2.292  -1.324  -8.509  1.00  0.00     0.029 A 
ATOM     43  C   UNL     1      -1.339  -1.323  -9.618  1.00  0.00     0.049 A 
ATOM     44  H   UNL     1       0.141  -2.736 -10.006  1.00  0.00     0.167 HD
ATOM     45  C   UNL     1       3.320  -5.655 -10.646  1.00  0.00     0.031 A 
ATOM     46  C   UNL     1      -1.270  -0.394 -10.592  1.00  0.00     0.031 A 
ATOM     47  C   UNL     1       3.409  -4.760 -11.770  1.00  0.00     0.049 A 
ATOM     48  C   UNL     1      -0.215  -0.514 -11.662  1.00  0.00     0.074 A 
ATOM     49  C   UNL     1       4.257  -4.831 -12.861  1.00  0.00     0.029 A 
ATOM     50  N   UNL     1       2.629  -3.627 -11.941  1.00  0.00    -0.354 N 
ATOM     51  N   UNL     1       0.688  -1.450 -11.832  1.00  0.00    -0.248 NA
ATOM     52  C   UNL     1      -0.173   0.549 -12.678  1.00  0.00     0.031 C 
ATOM     53  C   UNL     1       4.046  -3.699 -13.652  1.00  0.00     0.029 A 
ATOM     54  C   UNL     1       3.005  -2.970 -13.100  1.00  0.00     0.049 A 
ATOM     55  H   UNL     1       1.915  -3.333 -11.330  1.00  0.00     0.167 HD
ATOM     56  C   UNL     1       1.375  -1.109 -12.992  1.00  0.00     0.074 A 
ATOM     57  C   UNL     1       0.782   0.113 -13.488  1.00  0.00     0.031 C 
ATOM     58  C   UNL     1       2.403  -1.758 -13.594  1.00  0.00     0.031 A 
BRANCH  45  59
ATOM     59  C   UNL     1       4.299  -6.796 -10.570  1.00  0.00    -0.014 A 
ATOM     60  C   UNL     1       3.887  -8.131 -10.701  1.00  0.00     0.009 A 
ATOM     61  C   UNL     1       5.667  -6.523 -10.407  1.00  0.00     0.009 A 
ATOM     62  C   UNL     1       4.819  -9.169 -10.632  1.00  0.00     0.001 A 
ATOM     63  C   UNL     1       6.601  -7.560 -10.375  1.00  0.00     0.001 A 
ATOM     64  C   UNL     1       6.175  -8.883 -10.476  1.00  0.00     0.000 A 
ENDBRANCH  45  59
BRANCH  46  65
ATOM     65  C   UNL     1      -2.209   0.761 -10.588  1.00  0.00    -0.014 A 
ATOM     66  C   UNL     1      -3.166   0.914 -11.603  1.00  0.00     0.009 A 
ATOM     67  C   UNL     1      -2.135   1.736  -9.579  1.00  0.00     0.009 A 
ATOM     68  C   UNL     1      -4.006   2.030 -11.624  1.00  0.00     0.001 A 
ATOM     69  C   UNL     1      -3.001   2.831  -9.581  1.00  0.00     0.001 A 
ATOM     70  C   UNL     1      -3.927   2.984 -10.610  1.00  0.00     0.000 A 
ENDBRANCH  46  65
BRANCH  58  71
ATOM     71  C   UNL     1       2.924  -1.200 -14.891  1.00  0.00    -0.014 A 
ATOM     72  C   UNL     1       3.666  -0.011 -14.939  1.00  0.00     0.009 A 
ATOM     73  C   UNL     1       2.732  -1.928 -16.078  1.00  0.00     0.009 A 
ATOM     74  C   UNL     1       4.184   0.450 -16.153  1.00  0.00     0.001 A 
ATOM     75  C   UNL     1       3.280  -1.484 -17.282  1.00  0.00     0.001 A 
ATOM     76  C   UNL     1       3.999  -0.291 -17.320  1.00  0.00     0.000 A 
ENDBRANCH  58  71
ENDBRANCH  32  33
ENDBRANCH  25  27
ENDBRANCH  24  25
ENDBRANCH  23  24
ENDBRANCH  22  23
ENDBRANCH  21  22
ENDBRANCH  20  21
ENDBRANCH   1  20
TORSDOF 21
