REMARK SMILES Cc1cc(S(=O)(=O)Nc2ccc(F)c(F)c2)sc1C(=O)OCCOCCOC(=O)c1ccc(-c2c3nc(c(-c4ccccc4)c4ccc([nH]4)c(-c4ccccc4)c4nc(c(-c5ccccc5)c5ccc2[nH]5)C=C4)C=C3)cc1
REMARK SMILES IDX 23 1 22 2 21 3 19 4 20 5 18 6 1 7 2 8 3 9 4 10 17 11 5 12
REMARK SMILES IDX 6 13 7 14 8 15 9 17 10 18 16 19 11 20 14 21 12 22 15 23
REMARK SMILES IDX 13 24 24 25 25 26 26 27 27 28 28 29 29 30 30 31 31 32 77 33
REMARK SMILES IDX 32 34 76 35 33 36 34 37 35 38 70 39 36 40 75 41 69 42 71 43
REMARK SMILES IDX 37 44 74 45 68 46 67 47 38 49 60 50 45 51 59 52 46 53 49 54
REMARK SMILES IDX 58 55 72 56 47 57 48 58 57 60 73 61 50 62 39 63 40 64 44 65
REMARK SMILES IDX 41 66 43 67 42 68 61 69 62 70 66 71 63 72 65 73 64 74 51 75
REMARK SMILES IDX 52 76 56 77 53 78 55 79 54 80
REMARK H PARENT 8 16 71 48 49 59
REMARK Flexibility Score: inf
ROOT
ATOM      1  C   UNL     1       1.230  -4.955   0.427  1.00  0.00     0.202 C 
ENDROOT
BRANCH   1   2
ATOM      2  C   UNL     1       1.457  -4.309  -0.943  1.00  0.00     0.261 C 
BRANCH   2   3
ATOM      3  O   UNL     1       1.483  -2.875  -0.840  1.00  0.00    -0.459 OA
BRANCH   3   4
ATOM      4  C   UNL     1       0.499  -2.202  -1.503  1.00  0.00     0.348 C 
ATOM      5  O   UNL     1      -0.281  -2.731  -2.288  1.00  0.00    -0.245 OA
BRANCH   4   6
ATOM      6  C   UNL     1       0.431  -0.818  -1.044  1.00  0.00     0.116 A 
ATOM      7  C   UNL     1       2.759  -0.305  -0.011  1.00  0.00     0.046 C 
ATOM      8  C   UNL     1       1.330  -0.011  -0.349  1.00  0.00    -0.024 A 
ATOM      9  C   UNL     1       0.702   1.220   0.044  1.00  0.00     0.038 A 
ATOM     10  C   UNL     1      -0.615   1.328  -0.356  1.00  0.00     0.141 A 
ATOM     11  S   UNL     1      -1.034   0.037  -1.374  1.00  0.00    -0.115 S 
BRANCH  10  12
ATOM     12  S   UNL     1      -1.806   2.607  -0.020  1.00  0.00     0.271 S 
ATOM     13  O   UNL     1      -1.515   2.983   1.348  1.00  0.00    -0.200 OA
ATOM     14  O   UNL     1      -1.630   3.553  -1.102  1.00  0.00    -0.200 OA
BRANCH  12  15
ATOM     15  N   UNL     1      -3.418   2.152  -0.082  1.00  0.00    -0.279 N 
ATOM     16  H   UNL     1      -4.090   2.850  -0.256  1.00  0.00     0.180 HD
BRANCH  15  17
ATOM     17  C   UNL     1      -3.873   0.822   0.101  1.00  0.00     0.052 A 
ATOM     18  C   UNL     1      -3.433   0.001   1.144  1.00  0.00     0.030 A 
ATOM     19  C   UNL     1      -4.817   0.344  -0.813  1.00  0.00     0.069 A 
ATOM     20  C   UNL     1      -3.877  -1.325   1.216  1.00  0.00     0.044 A 
ATOM     21  C   UNL     1      -5.256  -0.971  -0.729  1.00  0.00     0.160 A 
ATOM     22  C   UNL     1      -4.778  -1.806   0.270  1.00  0.00     0.158 A 
ATOM     23  F   UNL     1      -6.139  -1.423  -1.629  1.00  0.00    -0.204 F 
ATOM     24  F   UNL     1      -5.188  -3.080   0.336  1.00  0.00    -0.204 F 
ENDBRANCH  15  17
ENDBRANCH  12  15
ENDBRANCH  10  12
ENDBRANCH   4   6
ENDBRANCH   3   4
ENDBRANCH   2   3
ENDBRANCH   1   2
BRANCH   1  25
ATOM     25  O   UNL     1      -0.024  -4.689   1.053  1.00  0.00    -0.374 OA
BRANCH  25  26
ATOM     26  C   UNL     1      -0.175  -3.438   1.722  1.00  0.00     0.202 C 
BRANCH  26  27
ATOM     27  C   UNL     1       0.485  -3.301   3.100  1.00  0.00     0.261 C 
BRANCH  27  28
ATOM     28  O   UNL     1       1.921  -3.362   3.037  1.00  0.00    -0.460 OA
BRANCH  28  29
ATOM     29  C   UNL     1       2.461  -4.502   3.534  1.00  0.00     0.338 C 
ATOM     30  O   UNL     1       1.876  -5.432   4.062  1.00  0.00    -0.246 OA
BRANCH  29  31
ATOM     31  C   UNL     1       3.893  -4.564   3.190  1.00  0.00     0.060 A 
ATOM     32  C   UNL     1       4.348  -5.694   2.497  1.00  0.00     0.016 A 
ATOM     33  C   UNL     1       4.787  -3.575   3.600  1.00  0.00     0.016 A 
ATOM     34  C   UNL     1       5.709  -5.858   2.247  1.00  0.00     0.010 A 
ATOM     35  C   UNL     1       6.153  -3.744   3.353  1.00  0.00     0.010 A 
ATOM     36  C   UNL     1       6.624  -4.901   2.704  1.00  0.00    -0.014 A 
BRANCH  36  37
ATOM     37  C   UNL     1       8.081  -5.166   2.610  1.00  0.00     0.031 A 
ATOM     38  C   UNL     1       8.835  -5.582   3.843  1.00  0.00     0.074 A 
ATOM     39  C   UNL     1       8.724  -5.053   1.434  1.00  0.00     0.049 A 
ATOM     40  N   UNL     1      10.113  -5.817   3.993  1.00  0.00    -0.248 NA
ATOM     41  C   UNL     1       8.042  -5.752   5.071  1.00  0.00     0.031 C 
ATOM     42  C   UNL     1       8.102  -4.700   0.159  1.00  0.00     0.029 A 
ATOM     43  N   UNL     1      10.052  -5.218   1.127  1.00  0.00    -0.354 N 
ATOM     44  C   UNL     1      10.280  -6.151   5.332  1.00  0.00     0.074 A 
ATOM     45  C   UNL     1       8.979  -6.055   5.957  1.00  0.00     0.031 C 
ATOM     46  C   UNL     1       9.049  -4.671  -0.794  1.00  0.00     0.029 A 
ATOM     47  C   UNL     1      10.346  -4.963  -0.189  1.00  0.00     0.049 A 
ATOM     48  H   UNL     1      10.727  -5.494   1.788  1.00  0.00     0.167 HD
ATOM     49  C   UNL     1      11.414  -6.510   5.982  1.00  0.00     0.031 A 
ATOM     50  C   UNL     1      11.531  -4.943  -0.830  1.00  0.00     0.031 A 
ATOM     51  C   UNL     1      12.711  -6.590   5.363  1.00  0.00     0.049 A 
ATOM     52  C   UNL     1      12.789  -5.264  -0.066  1.00  0.00     0.074 A 
ATOM     53  C   UNL     1      13.916  -6.962   5.934  1.00  0.00     0.029 A 
ATOM     54  N   UNL     1      12.973  -6.286   4.037  1.00  0.00    -0.354 N 
ATOM     55  N   UNL     1      12.930  -5.604   1.192  1.00  0.00    -0.248 NA
ATOM     56  C   UNL     1      14.052  -5.206  -0.818  1.00  0.00     0.031 C 
ATOM     57  C   UNL     1      14.919  -6.817   4.969  1.00  0.00     0.029 A 
ATOM     58  C   UNL     1      14.327  -6.428   3.778  1.00  0.00     0.049 A 
ATOM     59  H   UNL     1      12.298  -6.009   3.376  1.00  0.00     0.167 HD
ATOM     60  C   UNL     1      14.290  -5.832   1.374  1.00  0.00     0.074 A 
ATOM     61  C   UNL     1      14.927  -5.606   0.093  1.00  0.00     0.031 C 
ATOM     62  C   UNL     1      14.950  -6.199   2.500  1.00  0.00     0.031 A 
BRANCH  49  63
ATOM     63  C   UNL     1      11.305  -6.807   7.453  1.00  0.00    -0.014 A 
ATOM     64  C   UNL     1      10.643  -7.953   7.923  1.00  0.00     0.009 A 
ATOM     65  C   UNL     1      11.907  -5.944   8.382  1.00  0.00     0.009 A 
ATOM     66  C   UNL     1      10.555  -8.206   9.294  1.00  0.00     0.001 A 
ATOM     67  C   UNL     1      11.845  -6.216   9.750  1.00  0.00     0.001 A 
ATOM     68  C   UNL     1      11.160  -7.342  10.205  1.00  0.00     0.000 A 
ENDBRANCH  49  63
BRANCH  50  69
ATOM     69  C   UNL     1      11.593  -4.585  -2.272  1.00  0.00    -0.014 A 
ATOM     70  C   UNL     1      11.957  -5.540  -3.233  1.00  0.00     0.009 A 
ATOM     71  C   UNL     1      11.307  -3.276  -2.692  1.00  0.00     0.009 A 
ATOM     72  C   UNL     1      12.060  -5.184  -4.580  1.00  0.00     0.001 A 
ATOM     73  C   UNL     1      11.379  -2.931  -4.043  1.00  0.00     0.001 A 
ATOM     74  C   UNL     1      11.766  -3.882  -4.984  1.00  0.00     0.000 A 
ENDBRANCH  50  69
BRANCH  62  75
ATOM     75  C   UNL     1      16.434  -6.423   2.390  1.00  0.00    -0.014 A 
ATOM     76  C   UNL     1      17.327  -5.356   2.203  1.00  0.00     0.009 A 
ATOM     77  C   UNL     1      16.949  -7.723   2.518  1.00  0.00     0.009 A 
ATOM     78  C   UNL     1      18.701  -5.593   2.109  1.00  0.00     0.001 A 
ATOM     79  C   UNL     1      18.325  -7.952   2.458  1.00  0.00     0.001 A 
ATOM     80  C   UNL     1      19.198  -6.888   2.243  1.00  0.00     0.000 A 
ENDBRANCH  62  75
ENDBRANCH  36  37
ENDBRANCH  29  31
ENDBRANCH  28  29
ENDBRANCH  27  28
ENDBRANCH  26  27
ENDBRANCH  25  26
ENDBRANCH   1  25
TORSDOF 17
