REMARK SMILES CC1=C[C@H](C)[C@H](CN2C[C@]34C=C[C@@H](O3)[C@H](C(=O)OCCOCCOC(=O)c3ccc(-c5c6nc(c(-c7ccccc7)c7ccc([nH]7)c(-c7ccccc7)c7nc(c(-c8ccccc8)c8ccc5[nH]8)C=C7)C=C6)cc3)[C@@H]4C2=O)[C@H](C)C1
REMARK SMILES IDX 21 1 20 2 19 3 18 4 16 5 17 6 15 7 8 8 9 9 76 10 10 11 75 12
REMARK SMILES IDX 77 13 11 14 14 15 12 16 13 17 7 18 6 19 1 20 2 21 3 22 80 23
REMARK SMILES IDX 4 24 78 25 5 26 79 27 22 28 23 29 24 30 25 31 26 32 27 33
REMARK SMILES IDX 28 34 74 35 29 36 73 37 30 38 31 39 32 40 67 41 33 42 72 43
REMARK SMILES IDX 66 44 68 45 34 46 71 47 65 48 64 49 35 51 57 52 42 53 56 54
REMARK SMILES IDX 43 55 46 56 55 57 69 58 44 59 45 60 54 62 70 63 47 64 36 65
REMARK SMILES IDX 37 66 41 67 38 68 40 69 39 70 58 71 59 72 63 73 60 74 62 75
REMARK SMILES IDX 61 76 48 77 49 78 53 79 50 80 52 81 51 82
REMARK H PARENT 68 50 46 61
REMARK Flexibility Score: inf
ROOT
ATOM      1  O   UNL     1      -0.558   7.141   3.337  1.00  0.00    -0.374 OA
ENDROOT
BRANCH   1   2
ATOM      2  C   UNL     1      -0.909   5.780   3.058  1.00  0.00     0.202 C 
BRANCH   2   3
ATOM      3  C   UNL     1      -2.345   5.600   2.544  1.00  0.00     0.261 C 
BRANCH   3   4
ATOM      4  O   UNL     1      -2.501   6.143   1.208  1.00  0.00    -0.463 OA
BRANCH   4   5
ATOM      5  C   UNL     1      -3.784   6.362   0.836  1.00  0.00     0.312 C 
ATOM      6  O   UNL     1      -4.746   6.016   1.516  1.00  0.00    -0.252 OA
BRANCH   5   7
ATOM      7  C   UNL     1      -3.967   7.159  -0.437  1.00  0.00     0.148 C 
ATOM      8  N   UNL     1      -1.847   5.337  -2.376  1.00  0.00    -0.339 N 
ATOM      9  C   UNL     1      -1.394   6.586  -1.886  1.00  0.00     0.160 C 
ATOM     10  C   UNL     1      -3.201   5.278  -2.226  1.00  0.00     0.230 C 
ATOM     11  C   UNL     1      -2.463   7.682  -2.357  1.00  0.00     0.117 C 
ATOM     12  C   UNL     1      -3.629   6.671  -1.859  1.00  0.00     0.133 C 
ATOM     13  O   UNL     1      -3.939   4.324  -2.407  1.00  0.00    -0.274 OA
ATOM     14  C   UNL     1      -1.498   8.648  -1.633  1.00  0.00     0.009 C 
ATOM     15  O   UNL     1      -3.462   8.699  -1.929  1.00  0.00    -0.360 OA
ATOM     16  C   UNL     1      -1.995   8.992  -0.438  1.00  0.00     0.004 C 
ATOM     17  C   UNL     1      -3.418   8.586  -0.473  1.00  0.00     0.157 C 
BRANCH   8  18
ATOM     18  C   UNL     1      -0.896   4.308  -2.747  1.00  0.00     0.124 C 
BRANCH  18  19
ATOM     19  C   UNL     1      -0.682   3.292  -1.614  1.00  0.00     0.018 C 
ATOM     20  C   UNL     1       0.791  -0.828  -0.826  1.00  0.00     0.039 C 
ATOM     21  C   UNL     1       0.249   0.560  -0.957  1.00  0.00    -0.077 C 
ATOM     22  C   UNL     1      -1.036   0.751  -1.256  1.00  0.00    -0.025 C 
ATOM     23  C   UNL     1       1.214   1.671  -0.771  1.00  0.00     0.034 C 
ATOM     24  C   UNL     1      -1.614   2.043  -1.735  1.00  0.00     0.014 C 
ATOM     25  C   UNL     1       0.812   3.087  -1.198  1.00  0.00    -0.005 C 
ATOM     26  C   UNL     1      -2.120   1.700  -3.147  1.00  0.00     0.012 C 
ATOM     27  C   UNL     1       1.902   3.675  -2.112  1.00  0.00     0.008 C 
ENDBRANCH  18  19
ENDBRANCH   8  18
ENDBRANCH   5   7
ENDBRANCH   4   5
ENDBRANCH   3   4
ENDBRANCH   2   3
ENDBRANCH   1   2
BRANCH   1  28
ATOM     28  C   UNL     1      -0.225   7.914   2.187  1.00  0.00     0.202 C 
BRANCH  28  29
ATOM     29  C   UNL     1       1.261   7.933   1.826  1.00  0.00     0.261 C 
BRANCH  29  30
ATOM     30  O   UNL     1       1.778   6.604   1.651  1.00  0.00    -0.460 OA
BRANCH  30  31
ATOM     31  C   UNL     1       2.555   6.160   2.670  1.00  0.00     0.338 C 
ATOM     32  O   UNL     1       2.949   6.792   3.635  1.00  0.00    -0.246 OA
BRANCH  31  33
ATOM     33  C   UNL     1       2.779   4.712   2.514  1.00  0.00     0.060 A 
ATOM     34  C   UNL     1       2.440   3.861   3.571  1.00  0.00     0.016 A 
ATOM     35  C   UNL     1       3.341   4.191   1.354  1.00  0.00     0.016 A 
ATOM     36  C   UNL     1       2.664   2.480   3.469  1.00  0.00     0.010 A 
ATOM     37  C   UNL     1       3.535   2.809   1.251  1.00  0.00     0.010 A 
ATOM     38  C   UNL     1       3.207   1.923   2.303  1.00  0.00    -0.014 A 
BRANCH  38  39
ATOM     39  C   UNL     1       3.457   0.443   2.160  1.00  0.00     0.031 A 
ATOM     40  C   UNL     1       4.814  -0.048   1.698  1.00  0.00     0.074 A 
ATOM     41  C   UNL     1       2.480  -0.479   2.332  1.00  0.00     0.049 A 
ATOM     42  N   UNL     1       5.188  -1.253   1.338  1.00  0.00    -0.248 NA
ATOM     43  C   UNL     1       5.878   0.962   1.577  1.00  0.00     0.031 C 
ATOM     44  C   UNL     1       1.085  -0.205   2.686  1.00  0.00     0.029 A 
ATOM     45  N   UNL     1       2.503  -1.850   2.157  1.00  0.00    -0.354 N 
ATOM     46  C   UNL     1       6.511  -1.132   0.927  1.00  0.00     0.074 A 
ATOM     47  C   UNL     1       6.835   0.276   0.974  1.00  0.00     0.031 C 
ATOM     48  C   UNL     1       0.386  -1.354   2.668  1.00  0.00     0.029 A 
ATOM     49  C   UNL     1       1.267  -2.449   2.272  1.00  0.00     0.049 A 
ATOM     50  H   UNL     1       3.328  -2.353   1.967  1.00  0.00     0.167 HD
ATOM     51  C   UNL     1       7.411  -2.094   0.607  1.00  0.00     0.031 A 
ATOM     52  C   UNL     1       0.867  -3.718   2.040  1.00  0.00     0.031 A 
ATOM     53  C   UNL     1       7.145  -3.505   0.629  1.00  0.00     0.049 A 
ATOM     54  C   UNL     1       1.867  -4.774   1.644  1.00  0.00     0.074 A 
ATOM     55  C   UNL     1       8.040  -4.551   0.476  1.00  0.00     0.029 A 
ATOM     56  N   UNL     1       5.897  -4.070   0.818  1.00  0.00    -0.354 N 
ATOM     57  N   UNL     1       3.147  -4.651   1.398  1.00  0.00    -0.248 NA
ATOM     58  C   UNL     1       1.367  -6.155   1.530  1.00  0.00     0.031 C 
ATOM     59  C   UNL     1       7.325  -5.751   0.527  1.00  0.00     0.029 A 
ATOM     60  C   UNL     1       5.994  -5.450   0.763  1.00  0.00     0.049 A 
ATOM     61  H   UNL     1       5.065  -3.566   0.969  1.00  0.00     0.167 HD
ATOM     62  C   UNL     1       3.614  -5.943   1.172  1.00  0.00     0.074 A 
ATOM     63  C   UNL     1       2.481  -6.832   1.290  1.00  0.00     0.031 C 
ATOM     64  C   UNL     1       4.880  -6.348   0.911  1.00  0.00     0.031 A 
BRANCH  51  65
ATOM     65  C   UNL     1       8.806  -1.644   0.265  1.00  0.00    -0.014 A 
ATOM     66  C   UNL     1       9.633  -1.058   1.239  1.00  0.00     0.009 A 
ATOM     67  C   UNL     1       9.314  -1.836  -1.028  1.00  0.00     0.009 A 
ATOM     68  C   UNL     1      10.913  -0.615   0.909  1.00  0.00     0.001 A 
ATOM     69  C   UNL     1      10.611  -1.428  -1.345  1.00  0.00     0.001 A 
ATOM     70  C   UNL     1      11.403  -0.804  -0.382  1.00  0.00     0.000 A 
ENDBRANCH  51  65
BRANCH  52  71
ATOM     71  C   UNL     1      -0.568  -4.099   2.173  1.00  0.00    -0.014 A 
ATOM     72  C   UNL     1      -1.002  -4.860   3.269  1.00  0.00     0.009 A 
ATOM     73  C   UNL     1      -1.491  -3.778   1.166  1.00  0.00     0.009 A 
ATOM     74  C   UNL     1      -2.318  -5.325   3.333  1.00  0.00     0.001 A 
ATOM     75  C   UNL     1      -2.814  -4.219   1.247  1.00  0.00     0.001 A 
ATOM     76  C   UNL     1      -3.224  -5.003   2.323  1.00  0.00     0.000 A 
ENDBRANCH  52  71
BRANCH  64  77
ATOM     77  C   UNL     1       5.149  -7.825   0.825  1.00  0.00    -0.014 A 
ATOM     78  C   UNL     1       4.734  -8.591  -0.274  1.00  0.00     0.009 A 
ATOM     79  C   UNL     1       5.894  -8.446   1.842  1.00  0.00     0.009 A 
ATOM     80  C   UNL     1       5.043  -9.952  -0.343  1.00  0.00     0.001 A 
ATOM     81  C   UNL     1       6.227  -9.799   1.756  1.00  0.00     0.001 A 
ATOM     82  C   UNL     1       5.796 -10.553   0.667  1.00  0.00     0.000 A 
ENDBRANCH  64  77
ENDBRANCH  38  39
ENDBRANCH  31  33
ENDBRANCH  30  31
ENDBRANCH  29  30
ENDBRANCH  28  29
ENDBRANCH   1  28
TORSDOF 16
