REMARK SMILES Cc1nc(/C=C/C(=O)N2CCC[C@@H]2C(=O)OCCOCCOC(=O)c2ccc(-c3c4nc(c(-c5ccccc5)c5ccc([nH]5)c(-c5ccccc5)c5nc(c(-c6ccccc6)c6ccc3[nH]6)C=C5)C=C4)cc2)cs1
REMARK SMILES IDX 18 1 17 2 16 3 14 4 15 5 13 6 9 7 10 8 11 9 12 10 7 11 8 12
REMARK SMILES IDX 6 13 5 14 4 15 1 16 2 17 3 18 74 19 73 20 19 21 20 22 21 23
REMARK SMILES IDX 22 24 23 25 24 26 25 27 26 28 72 29 27 30 71 31 28 32 29 33
REMARK SMILES IDX 30 34 65 35 31 36 70 37 64 38 66 39 32 40 69 41 63 42 62 43
REMARK SMILES IDX 33 45 55 46 40 47 54 48 41 49 44 50 53 51 67 52 42 53 43 54
REMARK SMILES IDX 52 56 68 57 45 58 34 59 35 60 39 61 36 62 38 63 37 64 56 65
REMARK SMILES IDX 57 66 61 67 58 68 60 69 59 70 46 71 47 72 51 73 48 74 50 75
REMARK SMILES IDX 49 76
REMARK H PARENT 66 44 44 55
REMARK Flexibility Score: inf
ROOT
ATOM      1  C   UNL     1       4.500  -5.907   4.779  1.00  0.00     0.202 C 
ENDROOT
BRANCH   1   2
ATOM      2  C   UNL     1       4.558  -4.708   3.823  1.00  0.00     0.261 C 
BRANCH   2   3
ATOM      3  O   UNL     1       4.015  -4.987   2.518  1.00  0.00    -0.462 OA
BRANCH   3   4
ATOM      4  C   UNL     1       4.944  -5.240   1.550  1.00  0.00     0.328 C 
ATOM      5  O   UNL     1       6.150  -5.324   1.754  1.00  0.00    -0.250 OA
BRANCH   4   6
ATOM      6  C   UNL     1       4.309  -5.538   0.185  1.00  0.00     0.195 C 
ATOM      7  N   UNL     1       3.527  -4.435  -0.361  1.00  0.00    -0.325 N 
ATOM      8  C   UNL     1       2.370  -4.946  -1.075  1.00  0.00     0.121 C 
ATOM      9  C   UNL     1       1.974  -6.150  -0.254  1.00  0.00     0.024 C 
ATOM     10  C   UNL     1       3.313  -6.718   0.223  1.00  0.00     0.039 C 
BRANCH   7  11
ATOM     11  C   UNL     1       4.101  -3.202  -0.531  1.00  0.00     0.247 C 
ATOM     12  O   UNL     1       5.310  -3.004  -0.461  1.00  0.00    -0.270 OA
BRANCH  11  13
ATOM     13  C   UNL     1       3.202  -2.041  -0.707  1.00  0.00     0.073 C 
ATOM     14  C   UNL     1       2.056  -1.948  -0.015  1.00  0.00     0.035 C 
BRANCH  14  15
ATOM     15  C   UNL     1       1.155  -0.852  -0.034  1.00  0.00     0.074 A 
ATOM     16  C   UNL     1      -2.363   0.047   0.054  1.00  0.00     0.079 C 
ATOM     17  C   UNL     1      -0.878  -0.022   0.023  1.00  0.00     0.090 A 
ATOM     18  N   UNL     1      -0.187  -1.141   0.060  1.00  0.00    -0.242 NA
ATOM     19  S   UNL     1       0.053   1.423  -0.069  1.00  0.00    -0.127 S 
ATOM     20  C   UNL     1       1.487   0.482  -0.100  1.00  0.00     0.095 A 
ENDBRANCH  14  15
ENDBRANCH  11  13
ENDBRANCH   7  11
ENDBRANCH   4   6
ENDBRANCH   3   4
ENDBRANCH   2   3
ENDBRANCH   1   2
BRANCH   1  21
ATOM     21  O   UNL     1       5.390  -6.992   4.522  1.00  0.00    -0.374 OA
BRANCH  21  22
ATOM     22  C   UNL     1       5.017  -7.918   3.506  1.00  0.00     0.202 C 
BRANCH  22  23
ATOM     23  C   UNL     1       3.979  -8.976   3.899  1.00  0.00     0.261 C 
BRANCH  23  24
ATOM     24  O   UNL     1       2.715  -8.385   4.252  1.00  0.00    -0.460 OA
BRANCH  24  25
ATOM     25  C   UNL     1       2.382  -8.511   5.557  1.00  0.00     0.338 C 
ATOM     26  O   UNL     1       2.968  -9.163   6.413  1.00  0.00    -0.246 OA
BRANCH  25  27
ATOM     27  C   UNL     1       1.270  -7.607   5.897  1.00  0.00     0.060 A 
ATOM     28  C   UNL     1       1.452  -6.755   6.994  1.00  0.00     0.016 A 
ATOM     29  C   UNL     1       0.046  -7.645   5.224  1.00  0.00     0.016 A 
ATOM     30  C   UNL     1       0.392  -5.984   7.462  1.00  0.00     0.010 A 
ATOM     31  C   UNL     1      -1.020  -6.874   5.700  1.00  0.00     0.010 A 
ATOM     32  C   UNL     1      -0.863  -6.072   6.846  1.00  0.00    -0.014 A 
BRANCH  32  33
ATOM     33  C   UNL     1      -2.033  -5.440   7.502  1.00  0.00     0.031 A 
ATOM     34  C   UNL     1      -2.934  -6.282   8.362  1.00  0.00     0.074 A 
ATOM     35  C   UNL     1      -2.266  -4.123   7.374  1.00  0.00     0.049 A 
ATOM     36  N   UNL     1      -3.987  -5.928   9.055  1.00  0.00    -0.248 NA
ATOM     37  C   UNL     1      -2.604  -7.713   8.454  1.00  0.00     0.031 C 
ATOM     38  C   UNL     1      -1.454  -3.192   6.593  1.00  0.00     0.029 A 
ATOM     39  N   UNL     1      -3.261  -3.343   7.906  1.00  0.00    -0.354 N 
ATOM     40  C   UNL     1      -4.446  -7.090   9.662  1.00  0.00     0.074 A 
ATOM     41  C   UNL     1      -3.578  -8.165   9.230  1.00  0.00     0.031 C 
ATOM     42  C   UNL     1      -1.992  -1.964   6.688  1.00  0.00     0.029 A 
ATOM     43  C   UNL     1      -3.192  -2.028   7.519  1.00  0.00     0.049 A 
ATOM     44  H   UNL     1      -3.958  -3.693   8.507  1.00  0.00     0.167 HD
ATOM     45  C   UNL     1      -5.491  -7.251  10.509  1.00  0.00     0.031 A 
ATOM     46  C   UNL     1      -4.012  -0.996   7.792  1.00  0.00     0.031 A 
ATOM     47  C   UNL     1      -6.368  -6.191  10.928  1.00  0.00     0.049 A 
ATOM     48  C   UNL     1      -5.200  -1.206   8.690  1.00  0.00     0.074 A 
ATOM     49  C   UNL     1      -7.438  -6.251  11.804  1.00  0.00     0.029 A 
ATOM     50  N   UNL     1      -6.283  -4.880  10.488  1.00  0.00    -0.354 N 
ATOM     51  N   UNL     1      -5.597  -2.301   9.293  1.00  0.00    -0.248 NA
ATOM     52  C   UNL     1      -6.047  -0.033   8.953  1.00  0.00     0.031 C 
ATOM     53  C   UNL     1      -8.034  -4.985  11.853  1.00  0.00     0.029 A 
ATOM     54  C   UNL     1      -7.302  -4.127  11.048  1.00  0.00     0.049 A 
ATOM     55  H   UNL     1      -5.600  -4.534   9.869  1.00  0.00     0.167 HD
ATOM     56  C   UNL     1      -6.727  -1.946  10.019  1.00  0.00     0.074 A 
ATOM     57  C   UNL     1      -6.943  -0.532   9.795  1.00  0.00     0.031 C 
ATOM     58  C   UNL     1      -7.515  -2.724  10.803  1.00  0.00     0.031 A 
BRANCH  45  59
ATOM     59  C   UNL     1      -5.759  -8.644  11.006  1.00  0.00    -0.014 A 
ATOM     60  C   UNL     1      -4.911  -9.262  11.939  1.00  0.00     0.009 A 
ATOM     61  C   UNL     1      -6.880  -9.345  10.537  1.00  0.00     0.009 A 
ATOM     62  C   UNL     1      -5.159 -10.570  12.361  1.00  0.00     0.001 A 
ATOM     63  C   UNL     1      -7.140 -10.643  10.980  1.00  0.00     0.001 A 
ATOM     64  C   UNL     1      -6.274 -11.258  11.883  1.00  0.00     0.000 A 
ENDBRANCH  45  59
BRANCH  46  65
ATOM     65  C   UNL     1      -3.743   0.333   7.186  1.00  0.00    -0.014 A 
ATOM     66  C   UNL     1      -3.267   1.398   7.966  1.00  0.00     0.009 A 
ATOM     67  C   UNL     1      -3.957   0.537   5.814  1.00  0.00     0.009 A 
ATOM     68  C   UNL     1      -3.024   2.644   7.384  1.00  0.00     0.001 A 
ATOM     69  C   UNL     1      -3.689   1.776   5.230  1.00  0.00     0.001 A 
ATOM     70  C   UNL     1      -3.230   2.830   6.016  1.00  0.00     0.000 A 
ENDBRANCH  46  65
BRANCH  58  71
ATOM     71  C   UNL     1      -8.677  -2.057  11.485  1.00  0.00    -0.014 A 
ATOM     72  C   UNL     1      -9.819  -1.673  10.765  1.00  0.00     0.009 A 
ATOM     73  C   UNL     1      -8.642  -1.842  12.872  1.00  0.00     0.009 A 
ATOM     74  C   UNL     1     -10.890  -1.058  11.417  1.00  0.00     0.001 A 
ATOM     75  C   UNL     1      -9.725  -1.251  13.524  1.00  0.00     0.001 A 
ATOM     76  C   UNL     1     -10.844  -0.851  12.795  1.00  0.00     0.000 A 
ENDBRANCH  58  71
ENDBRANCH  32  33
ENDBRANCH  25  27
ENDBRANCH  24  25
ENDBRANCH  23  24
ENDBRANCH  22  23
ENDBRANCH  21  22
ENDBRANCH   1  21
TORSDOF 17
