REMARK SMILES CC1=Nc2c(c(C)nn2-c2ccc(F)cc2)[C@H](c2ccc(C(=O)OCCOCCOC(=O)c3ccc(-c4c5nc(c(-c6ccccc6)c6ccc([nH]6)c(-c6ccccc6)c6nc(c(-c7ccccc7)c7ccc4[nH]7)C=C6)C=C5)cc3)cc2)S1
REMARK SMILES IDX 27 1 26 2 25 3 24 4 22 5 23 6 21 7 18 8 19 9 82 10 20 11
REMARK SMILES IDX 81 12 17 13 1 14 2 15 3 16 83 17 4 18 5 19 9 20 6 21 8 22
REMARK SMILES IDX 7 23 10 24 11 25 16 26 12 27 15 28 13 29 14 30 28 31 29 32
REMARK SMILES IDX 30 33 31 34 32 35 33 36 34 37 80 38 35 39 79 40 36 41 37 42
REMARK SMILES IDX 38 43 73 44 39 45 78 46 72 47 74 48 40 49 77 50 71 51 70 52
REMARK SMILES IDX 41 54 63 55 48 56 62 57 49 58 52 59 61 60 75 61 50 62 51 63
REMARK SMILES IDX 60 65 76 66 53 67 42 68 43 69 47 70 44 71 46 72 45 73 64 74
REMARK SMILES IDX 65 75 69 76 66 77 68 78 67 79 54 80 55 81 59 82 56 83 58 84
REMARK SMILES IDX 57 85
REMARK H PARENT 74 53 52 64
REMARK Flexibility Score: inf
ROOT
ATOM      1  O   UNL     1      -0.315  -8.142   6.790  1.00  0.00    -0.374 OA
ENDROOT
BRANCH   1   2
ATOM      2  C   UNL     1       0.399  -7.255   7.650  1.00  0.00     0.202 C 
BRANCH   2   3
ATOM      3  C   UNL     1       1.669  -6.566   7.146  1.00  0.00     0.261 C 
BRANCH   3   4
ATOM      4  O   UNL     1       1.450  -5.764   5.973  1.00  0.00    -0.460 OA
BRANCH   4   5
ATOM      5  C   UNL     1       2.017  -6.286   4.859  1.00  0.00     0.338 C 
ATOM      6  O   UNL     1       2.714  -7.288   4.799  1.00  0.00    -0.246 OA
BRANCH   5   7
ATOM      7  C   UNL     1       1.556  -5.601   3.633  1.00  0.00     0.060 A 
ATOM      8  C   UNL     1       1.038  -4.460   1.103  1.00  0.00    -0.030 A 
ATOM      9  C   UNL     1       1.123  -5.853   1.270  1.00  0.00     0.006 A 
ATOM     10  C   UNL     1       1.118  -3.657   2.261  1.00  0.00     0.006 A 
ATOM     11  C   UNL     1       1.366  -6.417   2.517  1.00  0.00     0.016 A 
ATOM     12  C   UNL     1       1.388  -4.221   3.521  1.00  0.00     0.016 A 
BRANCH   8  13
ATOM     13  C   UNL     1       0.970  -3.925  -0.324  1.00  0.00     0.119 C 
ATOM     14  C   UNL     1       1.022   0.217  -0.171  1.00  0.00     0.075 C 
ATOM     15  C   UNL     1       0.589  -1.183  -0.518  1.00  0.00     0.074 C 
ATOM     16  N   UNL     1      -0.673  -1.382  -0.732  1.00  0.00    -0.227 NA
ATOM     17  S   UNL     1       1.879  -2.370  -0.591  1.00  0.00    -0.098 SA
ATOM     18  C   UNL     1      -1.095  -2.648  -0.960  1.00  0.00     0.161 A 
ATOM     19  C   UNL     1      -0.448  -3.843  -0.739  1.00  0.00     0.038 A 
ATOM     20  N   UNL     1      -2.364  -2.966  -1.414  1.00  0.00    -0.215 N 
ATOM     21  C   UNL     1      -1.407  -4.838  -1.078  1.00  0.00     0.067 A 
ATOM     22  N   UNL     1      -2.601  -4.300  -1.357  1.00  0.00    -0.171 NA
ATOM     23  C   UNL     1      -1.253  -6.314  -1.144  1.00  0.00     0.069 C 
BRANCH  20  24
ATOM     24  C   UNL     1      -3.344  -2.073  -1.904  1.00  0.00     0.067 A 
ATOM     25  C   UNL     1      -2.969  -1.024  -2.757  1.00  0.00     0.031 A 
ATOM     26  C   UNL     1      -4.677  -2.234  -1.512  1.00  0.00     0.031 A 
ATOM     27  C   UNL     1      -3.932  -0.119  -3.199  1.00  0.00     0.041 A 
ATOM     28  C   UNL     1      -5.623  -1.291  -1.914  1.00  0.00     0.041 A 
ATOM     29  C   UNL     1      -5.243  -0.246  -2.754  1.00  0.00     0.123 A 
ATOM     30  F   UNL     1      -6.156   0.656  -3.136  1.00  0.00    -0.207 F 
ENDBRANCH  20  24
ENDBRANCH   8  13
ENDBRANCH   5   7
ENDBRANCH   4   5
ENDBRANCH   3   4
ENDBRANCH   2   3
ENDBRANCH   1   2
BRANCH   1  31
ATOM     31  C   UNL     1      -0.936  -7.671   5.598  1.00  0.00     0.202 C 
BRANCH  31  32
ATOM     32  C   UNL     1      -2.162  -6.774   5.706  1.00  0.00     0.261 C 
BRANCH  32  33
ATOM     33  O   UNL     1      -1.895  -5.633   6.497  1.00  0.00    -0.460 OA
BRANCH  33  34
ATOM     34  C   UNL     1      -2.305  -5.756   7.782  1.00  0.00     0.338 C 
ATOM     35  O   UNL     1      -2.773  -6.738   8.321  1.00  0.00    -0.246 OA
BRANCH  34  36
ATOM     36  C   UNL     1      -2.197  -4.439   8.425  1.00  0.00     0.060 A 
ATOM     37  C   UNL     1      -2.718  -4.378   9.720  1.00  0.00     0.016 A 
ATOM     38  C   UNL     1      -2.103  -3.319   7.593  1.00  0.00     0.016 A 
ATOM     39  C   UNL     1      -3.494  -3.292  10.035  1.00  0.00     0.010 A 
ATOM     40  C   UNL     1      -2.917  -2.263   7.885  1.00  0.00     0.010 A 
ATOM     41  C   UNL     1      -3.684  -2.325   9.047  1.00  0.00    -0.014 A 
BRANCH  41  42
ATOM     42  C   UNL     1      -4.696  -1.320   9.248  1.00  0.00     0.031 A 
ATOM     43  C   UNL     1      -4.180  -0.169  10.012  1.00  0.00     0.074 A 
ATOM     44  C   UNL     1      -5.896  -1.406   8.645  1.00  0.00     0.049 A 
ATOM     45  N   UNL     1      -4.454   0.157  11.230  1.00  0.00    -0.248 NA
ATOM     46  C   UNL     1      -3.040   0.565   9.429  1.00  0.00     0.031 C 
ATOM     47  C   UNL     1      -6.353  -2.370   7.638  1.00  0.00     0.029 A 
ATOM     48  N   UNL     1      -6.937  -0.545   8.726  1.00  0.00    -0.354 N 
ATOM     49  C   UNL     1      -3.657   1.266  11.487  1.00  0.00     0.074 A 
ATOM     50  C   UNL     1      -2.635   1.275  10.477  1.00  0.00     0.031 C 
ATOM     51  C   UNL     1      -7.465  -1.886   7.034  1.00  0.00     0.029 A 
ATOM     52  C   UNL     1      -7.856  -0.650   7.692  1.00  0.00     0.049 A 
ATOM     53  H   UNL     1      -7.035   0.104   9.460  1.00  0.00     0.167 HD
ATOM     54  C   UNL     1      -4.085   2.281  12.284  1.00  0.00     0.031 A 
ATOM     55  C   UNL     1      -8.798   0.273   7.368  1.00  0.00     0.031 A 
ATOM     56  C   UNL     1      -5.216   1.884  13.080  1.00  0.00     0.049 A 
ATOM     57  C   UNL     1      -8.931   1.194   8.527  1.00  0.00     0.074 A 
ATOM     58  C   UNL     1      -5.427   0.929  14.054  1.00  0.00     0.029 A 
ATOM     59  N   UNL     1      -6.461   2.232  12.607  1.00  0.00    -0.354 N 
ATOM     60  N   UNL     1      -9.418   0.827   9.678  1.00  0.00    -0.248 NA
ATOM     61  C   UNL     1      -8.065   2.365   8.566  1.00  0.00     0.031 C 
ATOM     62  C   UNL     1      -6.736   0.425  13.800  1.00  0.00     0.029 A 
ATOM     63  C   UNL     1      -7.285   1.144  12.735  1.00  0.00     0.049 A 
ATOM     64  H   UNL     1      -6.715   3.110  12.241  1.00  0.00     0.167 HD
ATOM     65  C   UNL     1      -8.595   1.426  10.624  1.00  0.00     0.074 A 
ATOM     66  C   UNL     1      -7.835   2.433   9.882  1.00  0.00     0.031 C 
ATOM     67  C   UNL     1      -8.388   0.849  11.845  1.00  0.00     0.031 A 
BRANCH  54  68
ATOM     68  C   UNL     1      -3.760   3.728  11.999  1.00  0.00    -0.014 A 
ATOM     69  C   UNL     1      -4.221   4.704  12.895  1.00  0.00     0.009 A 
ATOM     70  C   UNL     1      -3.249   4.195  10.770  1.00  0.00     0.009 A 
ATOM     71  C   UNL     1      -4.230   6.060  12.549  1.00  0.00     0.001 A 
ATOM     72  C   UNL     1      -3.215   5.549  10.438  1.00  0.00     0.001 A 
ATOM     73  C   UNL     1      -3.733   6.481  11.319  1.00  0.00     0.000 A 
ENDBRANCH  54  68
BRANCH  55  74
ATOM     74  C   UNL     1      -9.331   0.610   6.028  1.00  0.00    -0.014 A 
ATOM     75  C   UNL     1     -10.538   1.313   5.878  1.00  0.00     0.009 A 
ATOM     76  C   UNL     1      -8.517   0.466   4.889  1.00  0.00     0.009 A 
ATOM     77  C   UNL     1     -10.903   1.865   4.640  1.00  0.00     0.001 A 
ATOM     78  C   UNL     1      -8.880   1.017   3.655  1.00  0.00     0.001 A 
ATOM     79  C   UNL     1     -10.069   1.727   3.533  1.00  0.00     0.000 A 
ENDBRANCH  55  74
BRANCH  67  80
ATOM     80  C   UNL     1      -9.226  -0.360  12.198  1.00  0.00    -0.014 A 
ATOM     81  C   UNL     1      -9.157  -1.576  11.493  1.00  0.00     0.009 A 
ATOM     82  C   UNL     1      -9.981  -0.321  13.378  1.00  0.00     0.009 A 
ATOM     83  C   UNL     1      -9.844  -2.709  11.945  1.00  0.00     0.001 A 
ATOM     84  C   UNL     1     -10.649  -1.456  13.841  1.00  0.00     0.001 A 
ATOM     85  C   UNL     1     -10.584  -2.649  13.123  1.00  0.00     0.000 A 
ENDBRANCH  67  80
ENDBRANCH  41  42
ENDBRANCH  34  36
ENDBRANCH  33  34
ENDBRANCH  32  33
ENDBRANCH  31  32
ENDBRANCH   1  31
TORSDOF 16
