REMARK SMILES Cc1ccc(-c2nc(C)cc(N3CCCC[C@H]3C(=O)OCCOCCOC(=O)c3ccc(-c4c5nc(c(-c6ccccc6)c6ccc([nH]6)c(-c6ccccc6)c6nc(c(-c7ccccc7)c7ccc4[nH]7)C=C6)C=C5)cc3)n2)cc1
REMARK SMILES IDX 23 1 22 2 21 3 20 4 18 5 19 6 17 7 12 8 13 9 14 10 16 11
REMARK SMILES IDX 15 12 11 13 6 14 7 15 77 16 8 17 9 18 10 19 5 20 1 21 2 22
REMARK SMILES IDX 3 23 79 24 4 25 78 26 24 27 25 28 26 29 27 30 28 31 29 32
REMARK SMILES IDX 30 33 76 34 31 35 75 36 32 37 33 38 34 39 69 40 35 41 74 42
REMARK SMILES IDX 68 43 70 44 36 45 73 46 67 47 66 48 37 50 59 51 44 52 58 53
REMARK SMILES IDX 45 54 48 55 57 56 71 57 46 58 47 59 56 61 72 62 49 63 38 64
REMARK SMILES IDX 39 65 43 66 40 67 42 68 41 69 60 70 61 71 65 72 62 73 64 74
REMARK SMILES IDX 63 75 50 76 51 77 55 78 52 79 54 80 53 81
REMARK H PARENT 70 49 48 60
REMARK Flexibility Score: inf
ROOT
ATOM      1  O   UNL     1      -8.275   0.398  -4.184  1.00  0.00    -0.374 OA
ENDROOT
BRANCH   1   2
ATOM      2  C   UNL     1      -7.979   1.439  -5.095  1.00  0.00     0.202 C 
BRANCH   2   3
ATOM      3  C   UNL     1      -8.485   2.725  -4.504  1.00  0.00     0.261 C 
BRANCH   3   4
ATOM      4  O   UNL     1      -7.703   3.220  -3.404  1.00  0.00    -0.462 OA
BRANCH   4   5
ATOM      5  C   UNL     1      -7.449   2.461  -2.304  1.00  0.00     0.328 C 
ATOM      6  O   UNL     1      -8.229   1.681  -1.775  1.00  0.00    -0.250 OA
BRANCH   5   7
ATOM      7  C   UNL     1      -6.003   2.691  -1.850  1.00  0.00     0.193 C 
ATOM      8  N   UNL     1      -5.222   1.472  -2.039  1.00  0.00    -0.343 N 
ATOM      9  C   UNL     1      -4.662   1.103  -3.333  1.00  0.00     0.119 C 
ATOM     10  C   UNL     1      -4.176   2.277  -4.177  1.00  0.00     0.022 C 
ATOM     11  C   UNL     1      -5.296   3.857  -2.570  1.00  0.00     0.037 C 
ATOM     12  C   UNL     1      -4.981   3.555  -4.036  1.00  0.00     0.005 C 
BRANCH   8  13
ATOM     13  C   UNL     1      -4.826   0.745  -0.946  1.00  0.00     0.133 A 
ATOM     14  C   UNL     1      -3.046  -0.102   0.214  1.00  0.00     0.161 A 
ATOM     15  N   UNL     1      -3.795  -0.686   1.159  1.00  0.00    -0.233 NA
ATOM     16  N   UNL     1      -3.513   0.581  -0.835  1.00  0.00    -0.211 NA
ATOM     17  C   UNL     1      -5.129  -0.509   1.035  1.00  0.00     0.043 A 
ATOM     18  C   UNL     1      -5.984  -1.133   2.099  1.00  0.00     0.067 C 
ATOM     19  C   UNL     1      -5.689   0.222  -0.003  1.00  0.00     0.070 A 
BRANCH  14  20
ATOM     20  C   UNL     1      -1.594  -0.122   0.290  1.00  0.00     0.019 A 
ATOM     21  C   UNL     1       2.707  -0.068  -0.018  1.00  0.00     0.044 C 
ATOM     22  C   UNL     1       1.215  -0.079   0.111  1.00  0.00    -0.051 A 
ATOM     23  C   UNL     1       0.524  -1.296   0.209  1.00  0.00     0.004 A 
ATOM     24  C   UNL     1       0.498   1.119   0.113  1.00  0.00     0.004 A 
ATOM     25  C   UNL     1      -0.870  -1.317   0.307  1.00  0.00     0.012 A 
ATOM     26  C   UNL     1      -0.889   1.094   0.200  1.00  0.00     0.012 A 
ENDBRANCH  14  20
ENDBRANCH   8  13
ENDBRANCH   5   7
ENDBRANCH   4   5
ENDBRANCH   3   4
ENDBRANCH   2   3
ENDBRANCH   1   2
BRANCH   1  27
ATOM     27  C   UNL     1      -7.883  -0.909  -4.565  1.00  0.00     0.202 C 
BRANCH  27  28
ATOM     28  C   UNL     1      -8.383  -1.331  -5.955  1.00  0.00     0.261 C 
BRANCH  28  29
ATOM     29  O   UNL     1      -9.821  -1.489  -5.962  1.00  0.00    -0.460 OA
BRANCH  29  30
ATOM     30  C   UNL     1     -10.553  -0.431  -6.403  1.00  0.00     0.338 C 
ATOM     31  O   UNL     1     -10.432   0.100  -7.506  1.00  0.00    -0.246 OA
BRANCH  30  32
ATOM     32  C   UNL     1     -11.317   0.171  -5.274  1.00  0.00     0.060 A 
ATOM     33  C   UNL     1     -11.945   1.424  -5.412  1.00  0.00     0.016 A 
ATOM     34  C   UNL     1     -11.063  -0.336  -4.007  1.00  0.00     0.016 A 
ATOM     35  C   UNL     1     -12.152   2.233  -4.282  1.00  0.00     0.010 A 
ATOM     36  C   UNL     1     -11.071   0.541  -2.950  1.00  0.00     0.010 A 
ATOM     37  C   UNL     1     -11.621   1.824  -3.061  1.00  0.00    -0.014 A 
BRANCH  37  38
ATOM     38  C   UNL     1     -11.527   2.612  -1.830  1.00  0.00     0.031 A 
ATOM     39  C   UNL     1     -12.261   2.103  -0.651  1.00  0.00     0.074 A 
ATOM     40  C   UNL     1     -10.666   3.650  -1.678  1.00  0.00     0.049 A 
ATOM     41  N   UNL     1     -12.645   2.854   0.320  1.00  0.00    -0.248 NA
ATOM     42  C   UNL     1     -12.687   0.711  -0.482  1.00  0.00     0.031 C 
ATOM     43  C   UNL     1     -10.152   4.234  -0.438  1.00  0.00     0.029 A 
ATOM     44  N   UNL     1     -10.068   4.438  -2.658  1.00  0.00    -0.354 N 
ATOM     45  C   UNL     1     -13.017   2.023   1.348  1.00  0.00     0.074 A 
ATOM     46  C   UNL     1     -13.154   0.716   0.765  1.00  0.00     0.031 C 
ATOM     47  C   UNL     1      -9.547   5.407  -0.708  1.00  0.00     0.029 A 
ATOM     48  C   UNL     1      -9.739   5.687  -2.121  1.00  0.00     0.049 A 
ATOM     49  H   UNL     1      -9.902   4.159  -3.587  1.00  0.00     0.167 HD
ATOM     50  C   UNL     1     -12.989   2.495   2.622  1.00  0.00     0.031 A 
ATOM     51  C   UNL     1     -10.211   6.824  -2.702  1.00  0.00     0.031 A 
ATOM     52  C   UNL     1     -12.527   3.886   2.652  1.00  0.00     0.049 A 
ATOM     53  C   UNL     1     -11.193   7.457  -1.758  1.00  0.00     0.074 A 
ATOM     54  C   UNL     1     -11.309   4.460   2.979  1.00  0.00     0.029 A 
ATOM     55  N   UNL     1     -13.234   4.854   1.943  1.00  0.00    -0.354 N 
ATOM     56  N   UNL     1     -11.744   6.787  -0.783  1.00  0.00    -0.248 NA
ATOM     57  C   UNL     1     -11.588   8.859  -1.763  1.00  0.00     0.031 C 
ATOM     58  C   UNL     1     -11.278   5.771   2.424  1.00  0.00     0.029 A 
ATOM     59  C   UNL     1     -12.485   6.005   1.786  1.00  0.00     0.049 A 
ATOM     60  H   UNL     1     -14.149   4.734   1.599  1.00  0.00     0.167 HD
ATOM     61  C   UNL     1     -12.466   7.625   0.002  1.00  0.00     0.074 A 
ATOM     62  C   UNL     1     -12.378   8.909  -0.673  1.00  0.00     0.031 C 
ATOM     63  C   UNL     1     -13.063   7.186   1.145  1.00  0.00     0.031 A 
BRANCH  50  64
ATOM     64  C   UNL     1     -13.084   1.598   3.831  1.00  0.00    -0.014 A 
ATOM     65  C   UNL     1     -12.507   2.007   5.045  1.00  0.00     0.009 A 
ATOM     66  C   UNL     1     -13.709   0.337   3.843  1.00  0.00     0.009 A 
ATOM     67  C   UNL     1     -12.492   1.181   6.177  1.00  0.00     0.001 A 
ATOM     68  C   UNL     1     -13.660  -0.514   4.955  1.00  0.00     0.001 A 
ATOM     69  C   UNL     1     -13.048  -0.091   6.125  1.00  0.00     0.000 A 
ENDBRANCH  50  64
BRANCH  51  70
ATOM     70  C   UNL     1     -10.293   6.705  -4.194  1.00  0.00    -0.014 A 
ATOM     71  C   UNL     1      -9.080   6.773  -4.918  1.00  0.00     0.009 A 
ATOM     72  C   UNL     1     -11.382   6.058  -4.802  1.00  0.00     0.009 A 
ATOM     73  C   UNL     1      -8.927   6.110  -6.145  1.00  0.00     0.001 A 
ATOM     74  C   UNL     1     -11.217   5.379  -6.021  1.00  0.00     0.001 A 
ATOM     75  C   UNL     1      -9.986   5.378  -6.675  1.00  0.00     0.000 A 
ENDBRANCH  51  70
BRANCH  63  76
ATOM     76  C   UNL     1     -14.223   7.867   1.810  1.00  0.00    -0.014 A 
ATOM     77  C   UNL     1     -15.009   8.844   1.188  1.00  0.00     0.009 A 
ATOM     78  C   UNL     1     -14.673   7.387   3.060  1.00  0.00     0.009 A 
ATOM     79  C   UNL     1     -16.155   9.351   1.804  1.00  0.00     0.001 A 
ATOM     80  C   UNL     1     -15.852   7.840   3.646  1.00  0.00     0.001 A 
ATOM     81  C   UNL     1     -16.585   8.838   3.024  1.00  0.00     0.000 A 
ENDBRANCH  63  76
ENDBRANCH  37  38
ENDBRANCH  30  32
ENDBRANCH  29  30
ENDBRANCH  28  29
ENDBRANCH  27  28
ENDBRANCH   1  27
TORSDOF 16
