REMARK SMILES COc1ccc(NC(=O)[C@@H]2[C@@H](C(=O)OCCOCCOC(=O)c3ccc(-c4c5nc(c(-c6ccccc6)c6ccc([nH]6)c(-c6ccccc6)c6nc(c(-c7ccccc7)c7ccc4[nH]7)C=C6)C=C5)cc3)[C@H]3C=C[C@@H]2C3)cc1O
REMARK SMILES IDX 16 1 15 2 14 3 12 4 13 5 11 6 10 7 74 8 71 9 73 10 75 11
REMARK SMILES IDX 72 12 8 13 7 14 9 16 6 17 3 18 4 19 77 20 5 21 76 22 2 23
REMARK SMILES IDX 1 24 78 25 17 27 18 28 19 29 20 30 21 31 22 32 23 33 24 34
REMARK SMILES IDX 70 35 25 36 69 37 26 38 27 39 28 40 63 41 29 42 68 43 62 44
REMARK SMILES IDX 64 45 30 46 67 47 61 48 60 49 31 51 53 52 38 53 52 54 39 55
REMARK SMILES IDX 42 56 51 57 65 58 40 59 41 60 50 62 66 63 43 64 32 65 33 66
REMARK SMILES IDX 37 67 34 68 36 69 35 70 54 71 55 72 59 73 56 74 58 75 57 76
REMARK SMILES IDX 44 77 45 78 49 79 46 80 48 81 47 82
REMARK H PARENT 7 15 78 26 64 50 42 61
REMARK Flexibility Score: inf
ROOT
ATOM      1  C   UNL     1       0.714   4.334  -2.210  1.00  0.00     0.202 C 
ENDROOT
BRANCH   1   2
ATOM      2  C   UNL     1       0.545   5.110  -0.893  1.00  0.00     0.261 C 
BRANCH   2   3
ATOM      3  O   UNL     1      -0.777   4.864  -0.357  1.00  0.00    -0.463 OA
BRANCH   3   4
ATOM      4  C   UNL     1      -1.543   5.912   0.039  1.00  0.00     0.310 C 
ATOM      5  O   UNL     1      -1.083   7.040   0.135  1.00  0.00    -0.252 OA
BRANCH   4   6
ATOM      6  C   UNL     1      -3.010   5.471   0.368  1.00  0.00     0.119 C 
ATOM      7  C   UNL     1      -4.008   5.314  -0.868  1.00  0.00     0.100 C 
ATOM      8  C   UNL     1      -5.037   6.465  -0.543  1.00  0.00     0.025 C 
ATOM      9  C   UNL     1      -3.691   6.590   1.227  1.00  0.00     0.027 C 
ATOM     10  C   UNL     1      -4.363   7.809  -0.601  1.00  0.00    -0.027 C 
ATOM     11  C   UNL     1      -5.167   6.309   0.980  1.00  0.00     0.017 C 
ATOM     12  C   UNL     1      -3.613   7.916   0.502  1.00  0.00    -0.027 C 
BRANCH   7  13
ATOM     13  C   UNL     1      -4.915   4.060  -1.176  1.00  0.00     0.228 C 
ATOM     14  N   UNL     1      -4.640   2.731  -1.177  1.00  0.00    -0.326 N 
ATOM     15  H   UNL     1      -5.391   2.202  -1.532  1.00  0.00     0.169 HD
ATOM     16  O   UNL     1      -6.078   4.267  -1.572  1.00  0.00    -0.274 OA
BRANCH  14  17
ATOM     17  C   UNL     1      -3.568   1.924  -0.807  1.00  0.00     0.045 A 
ATOM     18  C   UNL     1      -1.522   0.411   0.367  1.00  0.00     0.160 A 
ATOM     19  C   UNL     1      -1.344   1.760   0.122  1.00  0.00     0.052 A 
ATOM     20  C   UNL     1      -2.695  -0.198  -0.085  1.00  0.00     0.159 A 
ATOM     21  C   UNL     1      -2.344   2.466  -0.528  1.00  0.00     0.030 A 
ATOM     22  C   UNL     1      -3.724   0.546  -0.665  1.00  0.00     0.076 A 
BRANCH  18  23
ATOM     23  O   UNL     1      -0.628  -0.378   1.035  1.00  0.00    -0.493 OA
ATOM     24  C   UNL     1       0.709   0.105   0.994  1.00  0.00     0.278 C 
ENDBRANCH  18  23
BRANCH  20  25
ATOM     25  O   UNL     1      -2.848  -1.551   0.037  1.00  0.00    -0.504 OA
ATOM     26  H   UNL     1      -2.168  -2.067   0.424  1.00  0.00     0.293 HD
ENDBRANCH  20  25
ENDBRANCH  14  17
ENDBRANCH   7  13
ENDBRANCH   4   6
ENDBRANCH   3   4
ENDBRANCH   2   3
ENDBRANCH   1   2
BRANCH   1  27
ATOM     27  O   UNL     1       0.158   4.995  -3.353  1.00  0.00    -0.374 OA
BRANCH  27  28
ATOM     28  C   UNL     1      -1.260   4.937  -3.469  1.00  0.00     0.202 C 
BRANCH  28  29
ATOM     29  C   UNL     1      -1.802   3.785  -4.320  1.00  0.00     0.261 C 
BRANCH  29  30
ATOM     30  O   UNL     1      -1.398   2.501  -3.813  1.00  0.00    -0.460 OA
BRANCH  30  31
ATOM     31  C   UNL     1      -0.327   1.970  -4.452  1.00  0.00     0.338 C 
ATOM     32  O   UNL     1       0.274   2.446  -5.399  1.00  0.00    -0.246 OA
BRANCH  31  33
ATOM     33  C   UNL     1       0.129   0.734  -3.784  1.00  0.00     0.060 A 
ATOM     34  C   UNL     1       1.507   0.588  -3.583  1.00  0.00     0.016 A 
ATOM     35  C   UNL     1      -0.741  -0.313  -3.477  1.00  0.00     0.016 A 
ATOM     36  C   UNL     1       2.029  -0.628  -3.137  1.00  0.00     0.010 A 
ATOM     37  C   UNL     1      -0.215  -1.531  -3.022  1.00  0.00     0.010 A 
ATOM     38  C   UNL     1       1.177  -1.711  -2.888  1.00  0.00    -0.014 A 
BRANCH  38  39
ATOM     39  C   UNL     1       1.735  -3.061  -2.603  1.00  0.00     0.031 A 
ATOM     40  C   UNL     1       1.724  -4.109  -3.678  1.00  0.00     0.074 A 
ATOM     41  C   UNL     1       2.255  -3.368  -1.401  1.00  0.00     0.049 A 
ATOM     42  N   UNL     1       2.146  -5.346  -3.618  1.00  0.00    -0.248 NA
ATOM     43  C   UNL     1       1.212  -3.708  -4.998  1.00  0.00     0.031 C 
ATOM     44  C   UNL     1       2.457  -2.426  -0.312  1.00  0.00     0.029 A 
ATOM     45  N   UNL     1       2.678  -4.564  -0.875  1.00  0.00    -0.354 N 
ATOM     46  C   UNL     1       1.983  -5.861  -4.896  1.00  0.00     0.074 A 
ATOM     47  C   UNL     1       1.368  -4.824  -5.697  1.00  0.00     0.031 C 
ATOM     48  C   UNL     1       2.830  -3.086   0.795  1.00  0.00     0.029 A 
ATOM     49  C   UNL     1       2.952  -4.501   0.471  1.00  0.00     0.049 A 
ATOM     50  H   UNL     1       2.776  -5.385  -1.409  1.00  0.00     0.167 HD
ATOM     51  C   UNL     1       2.345  -7.077  -5.364  1.00  0.00     0.031 A 
ATOM     52  C   UNL     1       3.271  -5.468   1.351  1.00  0.00     0.031 A 
ATOM     53  C   UNL     1       2.946  -8.112  -4.566  1.00  0.00     0.049 A 
ATOM     54  C   UNL     1       3.526  -6.854   0.837  1.00  0.00     0.074 A 
ATOM     55  C   UNL     1       3.390  -9.360  -4.968  1.00  0.00     0.029 A 
ATOM     56  N   UNL     1       3.171  -8.028  -3.202  1.00  0.00    -0.354 N 
ATOM     57  N   UNL     1       3.449  -7.298  -0.392  1.00  0.00    -0.248 NA
ATOM     58  C   UNL     1       3.978  -7.852   1.816  1.00  0.00     0.031 C 
ATOM     59  C   UNL     1       3.826 -10.055  -3.836  1.00  0.00     0.029 A 
ATOM     60  C   UNL     1       3.708  -9.219  -2.738  1.00  0.00     0.049 A 
ATOM     61  H   UNL     1       2.979  -7.240  -2.644  1.00  0.00     0.167 HD
ATOM     62  C   UNL     1       3.905  -8.607  -0.347  1.00  0.00     0.074 A 
ATOM     63  C   UNL     1       4.248  -8.886   1.032  1.00  0.00     0.031 C 
ATOM     64  C   UNL     1       4.048  -9.489  -1.366  1.00  0.00     0.031 A 
BRANCH  51  65
ATOM     65  C   UNL     1       2.093  -7.362  -6.816  1.00  0.00    -0.014 A 
ATOM     66  C   UNL     1       2.885  -6.777  -7.817  1.00  0.00     0.009 A 
ATOM     67  C   UNL     1       1.092  -8.273  -7.184  1.00  0.00     0.009 A 
ATOM     68  C   UNL     1       2.665  -7.086  -9.161  1.00  0.00     0.001 A 
ATOM     69  C   UNL     1       0.889  -8.596  -8.526  1.00  0.00     0.001 A 
ATOM     70  C   UNL     1       1.672  -7.999  -9.513  1.00  0.00     0.000 A 
ENDBRANCH  51  65
BRANCH  52  71
ATOM     71  C   UNL     1       3.399  -5.158   2.799  1.00  0.00    -0.014 A 
ATOM     72  C   UNL     1       4.653  -5.144   3.426  1.00  0.00     0.009 A 
ATOM     73  C   UNL     1       2.251  -4.914   3.570  1.00  0.00     0.009 A 
ATOM     74  C   UNL     1       4.752  -4.933   4.804  1.00  0.00     0.001 A 
ATOM     75  C   UNL     1       2.355  -4.681   4.943  1.00  0.00     0.001 A 
ATOM     76  C   UNL     1       3.604  -4.703   5.561  1.00  0.00     0.000 A 
ENDBRANCH  52  71
BRANCH  64  77
ATOM     77  C   UNL     1       4.644 -10.826  -1.034  1.00  0.00    -0.014 A 
ATOM     78  C   UNL     1       3.926 -11.785  -0.304  1.00  0.00     0.009 A 
ATOM     79  C   UNL     1       5.936 -11.139  -1.486  1.00  0.00     0.009 A 
ATOM     80  C   UNL     1       4.505 -13.019  -0.002  1.00  0.00     0.001 A 
ATOM     81  C   UNL     1       6.500 -12.384  -1.210  1.00  0.00     0.001 A 
ATOM     82  C   UNL     1       5.788 -13.319  -0.460  1.00  0.00     0.000 A 
ENDBRANCH  64  77
ENDBRANCH  38  39
ENDBRANCH  31  33
ENDBRANCH  30  31
ENDBRANCH  29  30
ENDBRANCH  28  29
ENDBRANCH  27  28
ENDBRANCH   1  27
TORSDOF 18
