REMARK SMILES Cc1ncccc1NC(=O)Nc1ccc(C(=O)OCCOCCOC(=O)c2ccc(-c3c4nc(c(-c5ccccc5)c5ccc([nH]5)c(-c5ccccc5)c5nc(c(-c6ccccc6)c6ccc3[nH]6)C=C5)C=C4)cc2)c(O)c1
REMARK SMILES IDX 21 1 20 2 19 3 18 4 16 5 17 6 15 7 12 8 13 9 77 10 14 11
REMARK SMILES IDX 75 12 11 13 8 14 9 15 10 17 7 19 1 20 2 21 3 22 4 23 6 24
REMARK SMILES IDX 5 25 76 26 22 28 23 29 24 30 25 31 26 32 27 33 28 34 74 35
REMARK SMILES IDX 29 36 73 37 30 38 31 39 32 40 67 41 33 42 72 43 66 44 68 45
REMARK SMILES IDX 34 46 71 47 65 48 64 49 35 51 57 52 42 53 56 54 43 55 46 56
REMARK SMILES IDX 55 57 69 58 44 59 45 60 54 62 70 63 47 64 36 65 37 66 41 67
REMARK SMILES IDX 38 68 40 69 39 70 58 71 59 72 63 73 60 74 62 75 61 76 48 77
REMARK SMILES IDX 49 78 53 79 50 80 52 81 51 82
REMARK H PARENT 8 16 11 18 76 27 68 50 46 61
REMARK Flexibility Score: inf
ROOT
ATOM      1  O   UNL     1      -4.105   4.037   0.115  1.00  0.00    -0.374 OA
ENDROOT
BRANCH   1   2
ATOM      2  C   UNL     1      -5.391   3.622   0.573  1.00  0.00     0.202 C 
BRANCH   2   3
ATOM      3  C   UNL     1      -6.046   2.548  -0.300  1.00  0.00     0.261 C 
BRANCH   3   4
ATOM      4  O   UNL     1      -5.394   1.269  -0.131  1.00  0.00    -0.460 OA
BRANCH   4   5
ATOM      5  C   UNL     1      -4.776   0.772  -1.236  1.00  0.00     0.341 C 
ATOM      6  O   UNL     1      -4.766   1.276  -2.345  1.00  0.00    -0.246 OA
BRANCH   5   7
ATOM      7  C   UNL     1      -4.004  -0.452  -0.895  1.00  0.00     0.101 A 
ATOM      8  C   UNL     1      -2.331  -2.636  -0.305  1.00  0.00     0.046 A 
ATOM      9  C   UNL     1      -2.056  -1.825  -1.407  1.00  0.00     0.027 A 
ATOM     10  C   UNL     1      -3.498  -2.418   0.438  1.00  0.00     0.073 A 
ATOM     11  C   UNL     1      -2.898  -0.749  -1.708  1.00  0.00     0.022 A 
ATOM     12  C   UNL     1      -4.297  -1.301   0.179  1.00  0.00     0.132 A 
BRANCH   8  13
ATOM     13  N   UNL     1      -1.449  -3.629   0.155  1.00  0.00    -0.308 N 
ATOM     14  N   UNL     1       0.756  -2.709   0.005  1.00  0.00    -0.306 N 
ATOM     15  C   UNL     1      -0.103  -3.758   0.061  1.00  0.00     0.323 C 
ATOM     16  H   UNL     1       1.645  -2.951  -0.341  1.00  0.00     0.171 HD
ATOM     17  O   UNL     1       0.380  -4.894   0.069  1.00  0.00    -0.248 OA
ATOM     18  H   UNL     1      -1.890  -4.368   0.633  1.00  0.00     0.171 HD
BRANCH  14  19
ATOM     19  C   UNL     1       0.641  -1.341   0.340  1.00  0.00     0.064 A 
ATOM     20  C   UNL     1       2.964  -0.736  -0.562  1.00  0.00     0.069 C 
ATOM     21  C   UNL     1       1.581  -0.395  -0.095  1.00  0.00     0.061 A 
ATOM     22  N   UNL     1       1.356   0.946  -0.019  1.00  0.00    -0.259 NA
ATOM     23  C   UNL     1       0.223   1.363   0.571  1.00  0.00     0.111 A 
ATOM     24  C   UNL     1      -0.411  -0.855   1.113  1.00  0.00     0.030 A 
ATOM     25  C   UNL     1      -0.657   0.508   1.197  1.00  0.00     0.022 A 
ENDBRANCH  14  19
ENDBRANCH   8  13
BRANCH  12  26
ATOM     26  O   UNL     1      -5.322  -1.093   1.062  1.00  0.00    -0.507 OA
ATOM     27  H   UNL     1      -5.897  -0.362   0.949  1.00  0.00     0.293 HD
ENDBRANCH  12  26
ENDBRANCH   5   7
ENDBRANCH   4   5
ENDBRANCH   3   4
ENDBRANCH   2   3
ENDBRANCH   1   2
BRANCH   1  28
ATOM     28  C   UNL     1      -2.999   3.266   0.585  1.00  0.00     0.202 C 
BRANCH  28  29
ATOM     29  C   UNL     1      -2.463   3.727   1.946  1.00  0.00     0.261 C 
BRANCH  29  30
ATOM     30  O   UNL     1      -3.415   3.431   2.980  1.00  0.00    -0.460 OA
BRANCH  30  31
ATOM     31  C   UNL     1      -3.900   4.521   3.617  1.00  0.00     0.338 C 
ATOM     32  O   UNL     1      -3.504   5.670   3.535  1.00  0.00    -0.246 OA
BRANCH  31  33
ATOM     33  C   UNL     1      -5.144   4.162   4.314  1.00  0.00     0.060 A 
ATOM     34  C   UNL     1      -6.273   4.939   4.029  1.00  0.00     0.016 A 
ATOM     35  C   UNL     1      -5.198   3.138   5.262  1.00  0.00     0.016 A 
ATOM     36  C   UNL     1      -7.449   4.739   4.743  1.00  0.00     0.010 A 
ATOM     37  C   UNL     1      -6.381   2.939   5.980  1.00  0.00     0.010 A 
ATOM     38  C   UNL     1      -7.494   3.768   5.751  1.00  0.00    -0.014 A 
BRANCH  38  39
ATOM     39  C   UNL     1      -8.661   3.736   6.662  1.00  0.00     0.031 A 
ATOM     40  C   UNL     1      -8.553   4.397   8.007  1.00  0.00     0.074 A 
ATOM     41  C   UNL     1      -9.813   3.165   6.274  1.00  0.00     0.049 A 
ATOM     42  N   UNL     1      -9.453   4.509   8.949  1.00  0.00    -0.248 NA
ATOM     43  C   UNL     1      -7.256   5.012   8.333  1.00  0.00     0.031 C 
ATOM     44  C   UNL     1     -10.045   2.523   4.981  1.00  0.00     0.029 A 
ATOM     45  N   UNL     1     -11.006   3.036   6.937  1.00  0.00    -0.354 N 
ATOM     46  C   UNL     1      -8.829   5.196   9.983  1.00  0.00     0.074 A 
ATOM     47  C   UNL     1      -7.468   5.449   9.565  1.00  0.00     0.031 C 
ATOM     48  C   UNL     1     -11.307   2.062   4.947  1.00  0.00     0.029 A 
ATOM     49  C   UNL     1     -11.957   2.352   6.223  1.00  0.00     0.049 A 
ATOM     50  H   UNL     1     -11.165   3.400   7.838  1.00  0.00     0.167 HD
ATOM     51  C   UNL     1      -9.345   5.585  11.173  1.00  0.00     0.031 A 
ATOM     52  C   UNL     1     -13.207   1.987   6.567  1.00  0.00     0.031 A 
ATOM     53  C   UNL     1     -10.696   5.319  11.590  1.00  0.00     0.049 A 
ATOM     54  C   UNL     1     -13.743   2.381   7.915  1.00  0.00     0.074 A 
ATOM     55  C   UNL     1     -11.328   5.698  12.761  1.00  0.00     0.029 A 
ATOM     56  N   UNL     1     -11.619   4.594  10.852  1.00  0.00    -0.354 N 
ATOM     57  N   UNL     1     -13.159   3.069   8.867  1.00  0.00    -0.248 NA
ATOM     58  C   UNL     1     -15.114   1.957   8.232  1.00  0.00     0.031 C 
ATOM     59  C   UNL     1     -12.615   5.149  12.758  1.00  0.00     0.029 A 
ATOM     60  C   UNL     1     -12.805   4.482  11.558  1.00  0.00     0.049 A 
ATOM     61  H   UNL     1     -11.456   4.215   9.958  1.00  0.00     0.167 HD
ATOM     62  C   UNL     1     -14.096   3.178   9.887  1.00  0.00     0.074 A 
ATOM     63  C   UNL     1     -15.292   2.499   9.429  1.00  0.00     0.031 C 
ATOM     64  C   UNL     1     -13.979   3.789  11.092  1.00  0.00     0.031 A 
BRANCH  51  65
ATOM     65  C   UNL     1      -8.422   6.294  12.124  1.00  0.00    -0.014 A 
ATOM     66  C   UNL     1      -7.970   7.600  11.875  1.00  0.00     0.009 A 
ATOM     67  C   UNL     1      -7.999   5.642  13.293  1.00  0.00     0.009 A 
ATOM     68  C   UNL     1      -7.080   8.221  12.755  1.00  0.00     0.001 A 
ATOM     69  C   UNL     1      -7.132   6.276  14.186  1.00  0.00     0.001 A 
ATOM     70  C   UNL     1      -6.664   7.559  13.910  1.00  0.00     0.000 A 
ENDBRANCH  51  65
BRANCH  52  71
ATOM     71  C   UNL     1     -14.024   1.189   5.618  1.00  0.00    -0.014 A 
ATOM     72  C   UNL     1     -15.122   1.760   4.957  1.00  0.00     0.009 A 
ATOM     73  C   UNL     1     -13.692  -0.149   5.352  1.00  0.00     0.009 A 
ATOM     74  C   UNL     1     -15.877   1.002   4.059  1.00  0.00     0.001 A 
ATOM     75  C   UNL     1     -14.432  -0.896   4.434  1.00  0.00     0.001 A 
ATOM     76  C   UNL     1     -15.527  -0.322   3.793  1.00  0.00     0.000 A 
ENDBRANCH  52  71
BRANCH  64  77
ATOM     77  C   UNL     1     -15.183   3.768  11.992  1.00  0.00    -0.014 A 
ATOM     78  C   UNL     1     -15.582   2.593  12.648  1.00  0.00     0.009 A 
ATOM     79  C   UNL     1     -15.900   4.953  12.223  1.00  0.00     0.009 A 
ATOM     80  C   UNL     1     -16.695   2.599  13.491  1.00  0.00     0.001 A 
ATOM     81  C   UNL     1     -16.994   4.963  13.089  1.00  0.00     0.001 A 
ATOM     82  C   UNL     1     -17.396   3.784  13.715  1.00  0.00     0.000 A 
ENDBRANCH  64  77
ENDBRANCH  38  39
ENDBRANCH  31  33
ENDBRANCH  30  31
ENDBRANCH  29  30
ENDBRANCH  28  29
ENDBRANCH   1  28
TORSDOF 17
