REMARK SMILES CCN1CCN([C@H](C)c2ccc(C(=O)OCCOCCOC(=O)c3ccc(-c4c5nc(c(-c6ccccc6)c6ccc([nH]6)c(-c6ccccc6)c6nc(c(-c7ccccc7)c7ccc4[nH]7)C=C6)C=C5)cc3)o2)C(=O)C1=O
REMARK SMILES IDX 17 1 16 2 15 3 13 4 14 5 12 6 9 7 10 8 72 9 11 10 7 11 8 12
REMARK SMILES IDX 6 13 3 14 4 15 75 16 5 17 73 18 76 19 74 20 2 21 1 22 18 23
REMARK SMILES IDX 19 24 20 25 21 26 22 27 23 28 24 29 25 30 71 31 26 32 70 33
REMARK SMILES IDX 27 34 28 35 29 36 64 37 30 38 69 39 63 40 65 41 31 42 68 43
REMARK SMILES IDX 62 44 61 45 32 47 54 48 39 49 53 50 40 51 43 52 52 53 66 54
REMARK SMILES IDX 41 55 42 56 51 58 67 59 44 60 33 61 34 62 38 63 35 64 37 65
REMARK SMILES IDX 36 66 55 67 56 68 60 69 57 70 59 71 58 72 45 73 46 74 50 75
REMARK SMILES IDX 47 76 49 77 48 78
REMARK H PARENT 65 46 43 57
REMARK Flexibility Score: inf
ROOT
ATOM      1  C   UNL     1      -3.118  -4.645  -9.964  1.00  0.00     0.202 C 
ENDROOT
BRANCH   1   2
ATOM      2  C   UNL     1      -3.360  -4.608  -8.452  1.00  0.00     0.261 C 
BRANCH   2   3
ATOM      3  O   UNL     1      -3.033  -3.309  -7.928  1.00  0.00    -0.457 OA
BRANCH   3   4
ATOM      4  C   UNL     1      -1.935  -3.253  -7.117  1.00  0.00     0.374 C 
ATOM      5  O   UNL     1      -1.354  -4.229  -6.663  1.00  0.00    -0.242 OA
BRANCH   4   6
ATOM      6  C   UNL     1      -1.508  -1.878  -6.988  1.00  0.00     0.211 A 
ATOM      7  C   UNL     1      -0.014  -0.300  -6.592  1.00  0.00     0.127 A 
ATOM      8  C   UNL     1      -1.145   0.342  -7.054  1.00  0.00     0.049 A 
ATOM      9  O   UNL     1      -0.240  -1.643  -6.529  1.00  0.00    -0.452 OA
ATOM     10  C   UNL     1      -2.101  -0.670  -7.314  1.00  0.00     0.058 A 
BRANCH   7  11
ATOM     11  C   UNL     1       1.344   0.192  -6.163  1.00  0.00     0.149 C 
ATOM     12  C   UNL     1       1.352   0.324  -4.639  1.00  0.00     0.040 C 
BRANCH  11  13
ATOM     13  N   UNL     1       2.409  -0.618  -6.795  1.00  0.00    -0.323 N 
ATOM     14  N   UNL     1       4.609  -1.766  -8.277  1.00  0.00    -0.333 N 
ATOM     15  C   UNL     1       3.700  -0.814  -8.890  1.00  0.00     0.141 C 
ATOM     16  C   UNL     1       4.510  -2.015  -6.902  1.00  0.00     0.312 C 
ATOM     17  C   UNL     1       2.326  -0.878  -8.229  1.00  0.00     0.142 C 
ATOM     18  C   UNL     1       3.513  -1.125  -6.096  1.00  0.00     0.312 C 
ATOM     19  O   UNL     1       5.159  -2.878  -6.323  1.00  0.00    -0.263 OA
ATOM     20  O   UNL     1       3.768  -0.896  -4.921  1.00  0.00    -0.263 OA
BRANCH  14  21
ATOM     21  C   UNL     1       5.547  -2.554  -9.073  1.00  0.00     0.116 C 
ATOM     22  C   UNL     1       6.082  -1.873 -10.324  1.00  0.00     0.027 C 
ENDBRANCH  14  21
ENDBRANCH  11  13
ENDBRANCH   7  11
ENDBRANCH   4   6
ENDBRANCH   3   4
ENDBRANCH   2   3
ENDBRANCH   1   2
BRANCH   1  23
ATOM     23  O   UNL     1      -1.742  -4.606 -10.349  1.00  0.00    -0.374 OA
BRANCH  23  24
ATOM     24  C   UNL     1      -1.145  -3.314 -10.462  1.00  0.00     0.202 C 
BRANCH  24  25
ATOM     25  C   UNL     1      -1.377  -2.606 -11.801  1.00  0.00     0.261 C 
BRANCH  25  26
ATOM     26  O   UNL     1      -2.751  -2.198 -11.944  1.00  0.00    -0.460 OA
BRANCH  26  27
ATOM     27  C   UNL     1      -3.458  -2.894 -12.866  1.00  0.00     0.338 C 
ATOM     28  O   UNL     1      -3.039  -3.742 -13.635  1.00  0.00    -0.246 OA
BRANCH  27  29
ATOM     29  C   UNL     1      -4.898  -2.606 -12.714  1.00  0.00     0.060 A 
ATOM     30  C   UNL     1      -5.771  -3.699 -12.650  1.00  0.00     0.016 A 
ATOM     31  C   UNL     1      -5.394  -1.300 -12.698  1.00  0.00     0.016 A 
ATOM     32  C   UNL     1      -7.149  -3.491 -12.617  1.00  0.00     0.010 A 
ATOM     33  C   UNL     1      -6.779  -1.094 -12.671  1.00  0.00     0.010 A 
ATOM     34  C   UNL     1      -7.662  -2.189 -12.663  1.00  0.00    -0.014 A 
BRANCH  34  35
ATOM     35  C   UNL     1      -9.120  -1.980 -12.835  1.00  0.00     0.031 A 
ATOM     36  C   UNL     1      -9.662  -1.669 -14.203  1.00  0.00     0.074 A 
ATOM     37  C   UNL     1      -9.959  -2.089 -11.789  1.00  0.00     0.049 A 
ATOM     38  N   UNL     1     -10.894  -1.427 -14.571  1.00  0.00    -0.248 NA
ATOM     39  C   UNL     1      -8.684  -1.624 -15.303  1.00  0.00     0.031 C 
ATOM     40  C   UNL     1      -9.568  -2.426 -10.421  1.00  0.00     0.029 A 
ATOM     41  N   UNL     1     -11.320  -1.924 -11.720  1.00  0.00    -0.354 N 
ATOM     42  C   UNL     1     -10.840  -1.196 -15.940  1.00  0.00     0.074 A 
ATOM     43  C   UNL     1      -9.451  -1.299 -16.333  1.00  0.00     0.031 C 
ATOM     44  C   UNL     1     -10.666  -2.437  -9.645  1.00  0.00     0.029 A 
ATOM     45  C   UNL     1     -11.829  -2.078 -10.454  1.00  0.00     0.049 A 
ATOM     46  H   UNL     1     -11.878  -1.715 -12.504  1.00  0.00     0.167 HD
ATOM     47  C   UNL     1     -11.855  -0.928 -16.796  1.00  0.00     0.031 A 
ATOM     48  C   UNL     1     -13.087  -1.927  -9.997  1.00  0.00     0.031 A 
ATOM     49  C   UNL     1     -13.236  -0.817 -16.409  1.00  0.00     0.049 A 
ATOM     50  C   UNL     1     -14.185  -1.555 -10.956  1.00  0.00     0.074 A 
ATOM     51  C   UNL     1     -14.337  -0.566 -17.210  1.00  0.00     0.029 A 
ATOM     52  N   UNL     1     -13.704  -0.943 -15.112  1.00  0.00    -0.354 N 
ATOM     53  N   UNL     1     -14.124  -1.367 -12.252  1.00  0.00    -0.248 NA
ATOM     54  C   UNL     1     -15.530  -1.381 -10.386  1.00  0.00     0.031 C 
ATOM     55  C   UNL     1     -15.466  -0.489 -16.388  1.00  0.00     0.029 A 
ATOM     56  C   UNL     1     -15.075  -0.748 -15.084  1.00  0.00     0.049 A 
ATOM     57  H   UNL     1     -13.146  -1.143 -14.326  1.00  0.00     0.167 HD
ATOM     58  C   UNL     1     -15.423  -1.083 -12.656  1.00  0.00     0.074 A 
ATOM     59  C   UNL     1     -16.253  -1.135 -11.470  1.00  0.00     0.031 C 
ATOM     60  C   UNL     1     -15.888  -0.805 -13.898  1.00  0.00     0.031 A 
BRANCH  47  61
ATOM     61  C   UNL     1     -11.504  -0.706 -18.239  1.00  0.00    -0.014 A 
ATOM     62  C   UNL     1     -11.126  -1.772 -19.070  1.00  0.00     0.009 A 
ATOM     63  C   UNL     1     -11.595   0.584 -18.786  1.00  0.00     0.009 A 
ATOM     64  C   UNL     1     -10.820  -1.546 -20.414  1.00  0.00     0.001 A 
ATOM     65  C   UNL     1     -11.313   0.803 -20.136  1.00  0.00     0.001 A 
ATOM     66  C   UNL     1     -10.919  -0.261 -20.946  1.00  0.00     0.000 A 
ENDBRANCH  47  61
BRANCH  48  67
ATOM     67  C   UNL     1     -13.382  -2.104  -8.551  1.00  0.00    -0.014 A 
ATOM     68  C   UNL     1     -14.142  -3.195  -8.102  1.00  0.00     0.009 A 
ATOM     69  C   UNL     1     -12.929  -1.161  -7.614  1.00  0.00     0.009 A 
ATOM     70  C   UNL     1     -14.468  -3.321  -6.750  1.00  0.00     0.001 A 
ATOM     71  C   UNL     1     -13.232  -1.306  -6.259  1.00  0.00     0.001 A 
ATOM     72  C   UNL     1     -14.010  -2.379  -5.830  1.00  0.00     0.000 A 
ENDBRANCH  48  67
BRANCH  60  73
ATOM     73  C   UNL     1     -17.365  -0.574 -14.047  1.00  0.00    -0.014 A 
ATOM     74  C   UNL     1     -17.969   0.607 -13.591  1.00  0.00     0.009 A 
ATOM     75  C   UNL     1     -18.157  -1.538 -14.693  1.00  0.00     0.009 A 
ATOM     76  C   UNL     1     -19.343   0.804 -13.750  1.00  0.00     0.001 A 
ATOM     77  C   UNL     1     -19.524  -1.326 -14.875  1.00  0.00     0.001 A 
ATOM     78  C   UNL     1     -20.117  -0.159 -14.396  1.00  0.00     0.000 A 
ENDBRANCH  60  73
ENDBRANCH  34  35
ENDBRANCH  27  29
ENDBRANCH  26  27
ENDBRANCH  25  26
ENDBRANCH  24  25
ENDBRANCH  23  24
ENDBRANCH   1  23
TORSDOF 17
