REMARK SMILES O=C(OCCOCCOC(=O)c1ccnc(-n2cnnn2)c1)c1ccc(-c2c3nc(c(-c4ccccc4)c4ccc([nH]4)c(-c4ccccc4)c4nc(c(-c5ccccc5)c5ccc2[nH]5)C=C4)C=C3)cc1
REMARK SMILES IDX 5 1 4 2 3 3 2 4 1 5 23 6 24 7 70 8 25 9 69 10 26 11 27 12
REMARK SMILES IDX 28 13 63 14 29 15 68 16 62 17 64 18 30 19 67 20 61 21 60 22
REMARK SMILES IDX 31 24 53 25 38 26 52 27 39 28 42 29 51 30 65 31 40 32 41 33
REMARK SMILES IDX 50 35 66 36 43 37 32 38 33 39 37 40 34 41 36 42 35 43 54 44
REMARK SMILES IDX 55 45 59 46 56 47 58 48 57 49 44 50 45 51 49 52 46 53 48 54
REMARK SMILES IDX 47 55 6 56 7 57 8 58 9 59 10 60 11 61 12 62 13 63 22 64
REMARK SMILES IDX 14 65 16 66 15 67 17 68 18 69 21 70 19 71 20 72
REMARK H PARENT 64 23 42 34
REMARK Flexibility Score: inf
ROOT
ATOM      1  C   UNL     1       4.849   0.965   0.269  1.00  0.00     0.202 C 
ENDROOT
BRANCH   1   2
ATOM      2  C   UNL     1       4.529   0.502  -1.150  1.00  0.00     0.261 C 
BRANCH   2   3
ATOM      3  O   UNL     1       3.145   0.639  -1.501  1.00  0.00    -0.460 OA
BRANCH   3   4
ATOM      4  C   UNL     1       2.106   0.034  -0.887  1.00  0.00     0.338 C 
ATOM      5  O   UNL     1       1.043   0.638  -0.759  1.00  0.00    -0.246 OA
BRANCH   4   6
ATOM      6  C   UNL     1       2.151  -1.415  -0.558  1.00  0.00     0.060 A 
ATOM      7  C   UNL     1       3.285  -2.219  -0.630  1.00  0.00     0.016 A 
ATOM      8  C   UNL     1       0.901  -2.019  -0.341  1.00  0.00     0.016 A 
ATOM      9  C   UNL     1       3.146  -3.568  -0.859  1.00  0.00     0.010 A 
ATOM     10  C   UNL     1       0.760  -3.383  -0.477  1.00  0.00     0.010 A 
ATOM     11  C   UNL     1       1.869  -4.119  -0.870  1.00  0.00    -0.014 A 
BRANCH  11  12
ATOM     12  C   UNL     1       1.762  -5.520  -1.212  1.00  0.00     0.031 A 
ATOM     13  C   UNL     1       2.520  -6.398  -0.287  1.00  0.00     0.074 A 
ATOM     14  C   UNL     1       1.006  -5.936  -2.245  1.00  0.00     0.049 A 
ATOM     15  N   UNL     1       3.541  -7.139  -0.560  1.00  0.00    -0.248 NA
ATOM     16  C   UNL     1       2.228  -6.279   1.152  1.00  0.00     0.031 C 
ATOM     17  C   UNL     1       0.060  -5.164  -3.057  1.00  0.00     0.029 A 
ATOM     18  N   UNL     1       0.842  -7.196  -2.719  1.00  0.00    -0.354 N 
ATOM     19  C   UNL     1       3.898  -7.743   0.642  1.00  0.00     0.074 A 
ATOM     20  C   UNL     1       3.180  -7.048   1.678  1.00  0.00     0.031 C 
ATOM     21  C   UNL     1      -0.765  -6.017  -3.707  1.00  0.00     0.029 A 
ATOM     22  C   UNL     1      -0.309  -7.376  -3.473  1.00  0.00     0.049 A 
ATOM     23  H   UNL     1       1.485  -7.921  -2.543  1.00  0.00     0.167 HD
ATOM     24  C   UNL     1       4.536  -8.945   0.659  1.00  0.00     0.031 A 
ATOM     25  C   UNL     1      -0.877  -8.565  -3.797  1.00  0.00     0.031 A 
ATOM     26  C   UNL     1       5.180  -9.217  -0.600  1.00  0.00     0.049 A 
ATOM     27  C   UNL     1       0.157  -9.613  -3.610  1.00  0.00     0.074 A 
ATOM     28  C   UNL     1       6.182  -8.607  -1.329  1.00  0.00     0.029 A 
ATOM     29  N   UNL     1       4.512 -10.033  -1.482  1.00  0.00    -0.354 N 
ATOM     30  N   UNL     1       1.224  -9.697  -4.353  1.00  0.00    -0.248 NA
ATOM     31  C   UNL     1       0.259 -10.239  -2.298  1.00  0.00     0.031 C 
ATOM     32  C   UNL     1       5.759  -8.711  -2.687  1.00  0.00     0.029 A 
ATOM     33  C   UNL     1       4.573  -9.447  -2.718  1.00  0.00     0.049 A 
ATOM     34  H   UNL     1       4.070 -10.886  -1.264  1.00  0.00     0.167 HD
ATOM     35  C   UNL     1       2.253  -9.974  -3.463  1.00  0.00     0.074 A 
ATOM     36  C   UNL     1       1.586 -10.378  -2.224  1.00  0.00     0.031 C 
ATOM     37  C   UNL     1       3.533  -9.566  -3.714  1.00  0.00     0.031 A 
BRANCH  24  38
ATOM     38  C   UNL     1       4.142 -10.047   1.615  1.00  0.00    -0.014 A 
ATOM     39  C   UNL     1       4.766 -11.300   1.480  1.00  0.00     0.009 A 
ATOM     40  C   UNL     1       2.982 -10.005   2.414  1.00  0.00     0.009 A 
ATOM     41  C   UNL     1       4.190 -12.460   2.012  1.00  0.00     0.001 A 
ATOM     42  C   UNL     1       2.425 -11.154   2.977  1.00  0.00     0.001 A 
ATOM     43  C   UNL     1       3.010 -12.388   2.745  1.00  0.00     0.000 A 
ENDBRANCH  24  38
BRANCH  25  44
ATOM     44  C   UNL     1      -2.321  -8.884  -3.892  1.00  0.00    -0.014 A 
ATOM     45  C   UNL     1      -2.766 -10.057  -4.522  1.00  0.00     0.009 A 
ATOM     46  C   UNL     1      -3.255  -8.164  -3.123  1.00  0.00     0.009 A 
ATOM     47  C   UNL     1      -4.086 -10.505  -4.363  1.00  0.00     0.001 A 
ATOM     48  C   UNL     1      -4.572  -8.610  -2.965  1.00  0.00     0.001 A 
ATOM     49  C   UNL     1      -4.984  -9.789  -3.575  1.00  0.00     0.000 A 
ENDBRANCH  25  44
BRANCH  37  50
ATOM     50  C   UNL     1       3.835  -8.970  -5.067  1.00  0.00    -0.014 A 
ATOM     51  C   UNL     1       3.258  -7.773  -5.530  1.00  0.00     0.009 A 
ATOM     52  C   UNL     1       4.864  -9.547  -5.823  1.00  0.00     0.009 A 
ATOM     53  C   UNL     1       3.686  -7.189  -6.729  1.00  0.00     0.001 A 
ATOM     54  C   UNL     1       5.305  -8.954  -7.007  1.00  0.00     0.001 A 
ATOM     55  C   UNL     1       4.713  -7.778  -7.463  1.00  0.00     0.000 A 
ENDBRANCH  37  50
ENDBRANCH  11  12
ENDBRANCH   4   6
ENDBRANCH   3   4
ENDBRANCH   2   3
ENDBRANCH   1   2
BRANCH   1  56
ATOM     56  O   UNL     1       4.264   0.276   1.365  1.00  0.00    -0.374 OA
BRANCH  56  57
ATOM     57  C   UNL     1       3.098   0.854   1.970  1.00  0.00     0.202 C 
BRANCH  57  58
ATOM     58  C   UNL     1       3.180   2.213   2.689  1.00  0.00     0.261 C 
BRANCH  58  59
ATOM     59  O   UNL     1       3.535   3.309   1.825  1.00  0.00    -0.460 OA
BRANCH  59  60
ATOM     60  C   UNL     1       4.837   3.687   1.902  1.00  0.00     0.338 C 
ATOM     61  O   UNL     1       5.692   3.233   2.633  1.00  0.00    -0.246 OA
BRANCH  60  62
ATOM     62  C   UNL     1       5.164   4.577   0.769  1.00  0.00     0.065 A 
ATOM     63  C   UNL     1       4.500   5.781   0.579  1.00  0.00     0.036 A 
ATOM     64  C   UNL     1       6.219   4.203  -0.070  1.00  0.00     0.065 A 
ATOM     65  C   UNL     1       4.989   6.618  -0.408  1.00  0.00     0.114 A 
ATOM     66  C   UNL     1       6.626   5.103  -1.044  1.00  0.00     0.157 A 
ATOM     67  N   UNL     1       6.048   6.320  -1.196  1.00  0.00    -0.237 NA
BRANCH  66  68
ATOM     68  N   UNL     1       7.692   4.741  -1.895  1.00  0.00    -0.182 N 
ATOM     69  C   UNL     1       7.894   3.548  -2.539  1.00  0.00     0.254 A 
ATOM     70  N   UNL     1       8.735   5.552  -2.163  1.00  0.00    -0.039 NA
ATOM     71  N   UNL     1       9.071   3.566  -3.118  1.00  0.00    -0.117 NA
ATOM     72  N   UNL     1       9.592   4.810  -2.855  1.00  0.00    -0.024 NA
ENDBRANCH  66  68
ENDBRANCH  60  62
ENDBRANCH  59  60
ENDBRANCH  58  59
ENDBRANCH  57  58
ENDBRANCH  56  57
ENDBRANCH   1  56
TORSDOF 15
