REMARK SMILES Cc1ccc2c(=O)c3cccc(CC(=O)OCCOCCOC(=O)c4ccc(-c5c6nc(c(-c7ccccc7)c7ccc([nH]7)c(-c7ccccc7)c7nc(c(-c8ccccc8)c8ccc5[nH]8)C=C7)C=C6)cc4)c3oc2c1C
REMARK SMILES IDX 20 1 19 2 18 3 17 4 16 5 14 6 15 7 13 8 12 9 1 10 2 11 3 12
REMARK SMILES IDX 76 13 4 14 75 15 77 16 5 17 74 18 6 19 73 20 7 21 8 22 9 23
REMARK SMILES IDX 11 24 10 25 21 26 22 27 23 28 24 29 25 30 26 31 72 32 27 33
REMARK SMILES IDX 71 34 28 35 29 36 30 37 65 38 31 39 70 40 64 41 66 42 32 43
REMARK SMILES IDX 69 44 63 45 62 46 33 48 55 49 40 50 54 51 41 52 44 53 53 54
REMARK SMILES IDX 67 55 42 56 43 57 52 59 68 60 45 61 34 62 35 63 39 64 36 65
REMARK SMILES IDX 38 66 37 67 56 68 57 69 61 70 58 71 60 72 59 73 46 74 47 75
REMARK SMILES IDX 51 76 48 77 50 78 49 79
REMARK H PARENT 66 47 44 58
REMARK Flexibility Score: inf
ROOT
ATOM      1  C   UNL     1       1.556   3.265   3.824  1.00  0.00     0.202 C 
ENDROOT
BRANCH   1   2
ATOM      2  O   UNL     1       2.450   4.375   3.818  1.00  0.00    -0.374 OA
BRANCH   2   3
ATOM      3  C   UNL     1       2.875   4.837   5.097  1.00  0.00     0.202 C 
BRANCH   3   4
ATOM      4  C   UNL     1       1.851   5.670   5.885  1.00  0.00     0.261 C 
BRANCH   4   5
ATOM      5  O   UNL     1       0.603   4.970   6.088  1.00  0.00    -0.463 OA
BRANCH   5   6
ATOM      6  C   UNL     1      -0.438   5.399   5.324  1.00  0.00     0.310 C 
ATOM      7  O   UNL     1      -0.424   6.440   4.671  1.00  0.00    -0.252 OA
BRANCH   6   8
ATOM      8  C   UNL     1      -1.657   4.498   5.321  1.00  0.00     0.162 C 
BRANCH   8   9
ATOM      9  C   UNL     1      -1.593   3.111   5.936  1.00  0.00     0.007 A 
ATOM     10  C   UNL     1       0.846  -0.084  -0.160  1.00  0.00     0.045 C 
ATOM     11  C   UNL     1       0.100  -0.171   1.150  1.00  0.00    -0.044 A 
ATOM     12  C   UNL     1       0.104  -1.414   1.801  1.00  0.00     0.005 A 
ATOM     13  C   UNL     1      -0.482   0.961   1.787  1.00  0.00    -0.005 A 
ATOM     14  C   UNL     1      -0.455  -1.550   3.064  1.00  0.00     0.016 A 
ATOM     15  C   UNL     1      -0.987   0.832   3.108  1.00  0.00     0.141 A 
ATOM     16  C   UNL     1      -0.472   2.285   1.067  1.00  0.00     0.049 C 
ATOM     17  C   UNL     1      -0.976  -0.428   3.712  1.00  0.00     0.066 A 
ATOM     18  O   UNL     1      -1.372   1.976   3.801  1.00  0.00    -0.455 OA
ATOM     19  C   UNL     1      -1.406  -0.557   5.104  1.00  0.00     0.200 A 
ATOM     20  C   UNL     1      -1.499   1.913   5.183  1.00  0.00     0.142 A 
ATOM     21  O   UNL     1      -1.561  -1.652   5.629  1.00  0.00    -0.288 OA
ATOM     22  C   UNL     1      -1.559   0.689   5.859  1.00  0.00     0.066 A 
ATOM     23  C   UNL     1      -1.722   0.618   7.246  1.00  0.00     0.016 A 
ATOM     24  C   UNL     1      -1.726   3.021   7.340  1.00  0.00     0.008 A 
ATOM     25  C   UNL     1      -1.800   1.788   7.987  1.00  0.00     0.001 A 
ENDBRANCH   8   9
ENDBRANCH   6   8
ENDBRANCH   5   6
ENDBRANCH   4   5
ENDBRANCH   3   4
ENDBRANCH   2   3
ENDBRANCH   1   2
BRANCH   1  26
ATOM     26  C   UNL     1       2.198   1.887   3.903  1.00  0.00     0.261 C 
BRANCH  26  27
ATOM     27  O   UNL     1       2.695   1.675   5.224  1.00  0.00    -0.460 OA
BRANCH  27  28
ATOM     28  C   UNL     1       4.019   1.459   5.297  1.00  0.00     0.338 C 
ATOM     29  O   UNL     1       4.810   1.293   4.382  1.00  0.00    -0.246 OA
BRANCH  28  30
ATOM     30  C   UNL     1       4.408   1.679   6.691  1.00  0.00     0.060 A 
ATOM     31  C   UNL     1       3.723   1.067   7.746  1.00  0.00     0.016 A 
ATOM     32  C   UNL     1       5.475   2.551   6.921  1.00  0.00     0.016 A 
ATOM     33  C   UNL     1       4.151   1.296   9.048  1.00  0.00     0.010 A 
ATOM     34  C   UNL     1       5.909   2.768   8.219  1.00  0.00     0.010 A 
ATOM     35  C   UNL     1       5.269   2.116   9.283  1.00  0.00    -0.014 A 
BRANCH  35  36
ATOM     36  C   UNL     1       5.885   2.169  10.622  1.00  0.00     0.031 A 
ATOM     37  C   UNL     1       5.808   3.403  11.458  1.00  0.00     0.074 A 
ATOM     38  C   UNL     1       6.577   1.088  11.027  1.00  0.00     0.049 A 
ATOM     39  N   UNL     1       6.310   3.614  12.645  1.00  0.00    -0.248 NA
ATOM     40  C   UNL     1       5.085   4.552  10.891  1.00  0.00     0.031 C 
ATOM     41  C   UNL     1       6.727  -0.148  10.253  1.00  0.00     0.029 A 
ATOM     42  N   UNL     1       7.279   0.849  12.178  1.00  0.00    -0.354 N 
ATOM     43  C   UNL     1       5.958   4.914  12.976  1.00  0.00     0.074 A 
ATOM     44  C   UNL     1       5.240   5.462  11.845  1.00  0.00     0.031 C 
ATOM     45  C   UNL     1       7.441  -1.028  10.968  1.00  0.00     0.029 A 
ATOM     46  C   UNL     1       7.843  -0.403  12.222  1.00  0.00     0.049 A 
ATOM     47  H   UNL     1       7.370   1.509  12.902  1.00  0.00     0.167 HD
ATOM     48  C   UNL     1       6.203   5.573  14.131  1.00  0.00     0.031 A 
ATOM     49  C   UNL     1       8.604  -0.982  13.168  1.00  0.00     0.031 A 
ATOM     50  C   UNL     1       6.942   5.007  15.231  1.00  0.00     0.049 A 
ATOM     51  C   UNL     1       8.902  -0.208  14.419  1.00  0.00     0.074 A 
ATOM     52  C   UNL     1       7.223   5.580  16.458  1.00  0.00     0.029 A 
ATOM     53  N   UNL     1       7.525   3.747  15.233  1.00  0.00    -0.354 N 
ATOM     54  N   UNL     1       8.506   0.998  14.752  1.00  0.00    -0.248 NA
ATOM     55  C   UNL     1       9.737  -0.869  15.429  1.00  0.00     0.031 C 
ATOM     56  C   UNL     1       8.039   4.700  17.170  1.00  0.00     0.029 A 
ATOM     57  C   UNL     1       8.193   3.540  16.427  1.00  0.00     0.049 A 
ATOM     58  H   UNL     1       7.470   3.097  14.495  1.00  0.00     0.167 HD
ATOM     59  C   UNL     1       9.021   1.232  16.019  1.00  0.00     0.074 A 
ATOM     60  C   UNL     1       9.742   0.034  16.402  1.00  0.00     0.031 C 
ATOM     61  C   UNL     1       8.907   2.340  16.792  1.00  0.00     0.031 A 
BRANCH  48  62
ATOM     62  C   UNL     1       5.672   6.972  14.280  1.00  0.00    -0.014 A 
ATOM     63  C   UNL     1       6.562   8.049  14.422  1.00  0.00     0.009 A 
ATOM     64  C   UNL     1       4.294   7.215  14.394  1.00  0.00     0.009 A 
ATOM     65  C   UNL     1       6.086   9.333  14.698  1.00  0.00     0.001 A 
ATOM     66  C   UNL     1       3.819   8.505  14.636  1.00  0.00     0.001 A 
ATOM     67  C   UNL     1       4.715   9.560  14.802  1.00  0.00     0.000 A 
ENDBRANCH  48  62
BRANCH  49  68
ATOM     68  C   UNL     1       9.079  -2.377  12.966  1.00  0.00    -0.014 A 
ATOM     69  C   UNL     1       9.984  -2.685  11.935  1.00  0.00     0.009 A 
ATOM     70  C   UNL     1       8.565  -3.422  13.747  1.00  0.00     0.009 A 
ATOM     71  C   UNL     1      10.334  -4.011  11.669  1.00  0.00     0.001 A 
ATOM     72  C   UNL     1       8.945  -4.744  13.502  1.00  0.00     0.001 A 
ATOM     73  C   UNL     1       9.818  -5.038  12.455  1.00  0.00     0.000 A 
ENDBRANCH  49  68
BRANCH  61  74
ATOM     74  C   UNL     1       9.565   2.324  18.145  1.00  0.00    -0.014 A 
ATOM     75  C   UNL     1       8.772   2.388  19.303  1.00  0.00     0.009 A 
ATOM     76  C   UNL     1      10.961   2.375  18.274  1.00  0.00     0.009 A 
ATOM     77  C   UNL     1       9.361   2.535  20.559  1.00  0.00     0.001 A 
ATOM     78  C   UNL     1      11.549   2.484  19.535  1.00  0.00     0.001 A 
ATOM     79  C   UNL     1      10.749   2.580  20.674  1.00  0.00     0.000 A 
ENDBRANCH  61  74
ENDBRANCH  35  36
ENDBRANCH  28  30
ENDBRANCH  27  28
ENDBRANCH  26  27
ENDBRANCH   1  26
TORSDOF 15
