REMARK SMILES Cc1c(CC(=O)OCCOCCOC(=O)c2ccc(-c3c4nc(c(-c5ccccc5)c5ccc([nH]5)c(-c5ccccc5)c5nc(c(-c6ccccc6)c6ccc3[nH]6)C=C5)C=C4)cc2)c2cc(O)ccc2n1C(=O)c1ccc(Cl)cc1
REMARK SMILES IDX 9 1 8 2 7 3 5 4 6 5 4 6 3 7 1 8 2 9 71 10 64 11 70 12 65 13
REMARK SMILES IDX 69 14 66 15 68 16 72 17 73 18 74 19 75 20 80 21 76 22 79 23
REMARK SMILES IDX 77 24 78 25 67 26 10 28 11 29 12 30 13 31 14 32 15 33 16 34
REMARK SMILES IDX 17 35 63 36 18 37 62 38 19 39 20 40 21 41 56 42 22 43 61 44
REMARK SMILES IDX 55 45 57 46 23 47 60 48 54 49 53 50 24 52 46 53 31 54 45 55
REMARK SMILES IDX 32 56 35 57 44 58 58 59 33 60 34 61 43 63 59 64 36 65 25 66
REMARK SMILES IDX 26 67 30 68 27 69 29 70 28 71 47 72 48 73 52 74 49 75 51 76
REMARK SMILES IDX 50 77 37 78 38 79 42 80 39 81 41 82 40 83
REMARK H PARENT 67 27 57 51 35 62
REMARK Flexibility Score: inf
ROOT
ATOM      1  C   UNL     1       3.054  -4.414   4.251  1.00  0.00     0.202 C 
ENDROOT
BRANCH   1   2
ATOM      2  C   UNL     1       3.040  -4.093   2.748  1.00  0.00     0.261 C 
BRANCH   2   3
ATOM      3  O   UNL     1       2.073  -3.102   2.357  1.00  0.00    -0.463 OA
BRANCH   3   4
ATOM      4  C   UNL     1       1.076  -3.567   1.558  1.00  0.00     0.310 C 
ATOM      5  O   UNL     1       1.031  -4.713   1.116  1.00  0.00    -0.252 OA
BRANCH   4   6
ATOM      6  C   UNL     1      -0.033  -2.587   1.242  1.00  0.00     0.160 C 
BRANCH   6   7
ATOM      7  C   UNL     1      -0.014  -1.209   1.851  1.00  0.00    -0.008 A 
ATOM      8  C   UNL     1       1.201   0.096  -0.030  1.00  0.00     0.065 C 
ATOM      9  C   UNL     1       0.506  -0.050   1.289  1.00  0.00     0.028 A 
ATOM     10  N   UNL     1       0.240   1.042   2.134  1.00  0.00    -0.280 N 
ATOM     11  C   UNL     1      -0.657  -0.822   3.065  1.00  0.00     0.008 A 
ATOM     12  C   UNL     1      -0.457   0.552   3.253  1.00  0.00     0.057 A 
ATOM     13  C   UNL     1      -1.397  -1.546   4.030  1.00  0.00     0.056 A 
ATOM     14  C   UNL     1      -0.956   1.177   4.419  1.00  0.00     0.031 A 
ATOM     15  C   UNL     1      -1.781  -0.932   5.218  1.00  0.00     0.116 A 
ATOM     16  C   UNL     1      -1.574   0.416   5.415  1.00  0.00     0.048 A 
BRANCH  10  17
ATOM     17  C   UNL     1       0.591   2.401   1.864  1.00  0.00     0.262 C 
ATOM     18  O   UNL     1       1.211   2.665   0.834  1.00  0.00    -0.268 OA
BRANCH  17  19
ATOM     19  C   UNL     1       0.241   3.565   2.694  1.00  0.00     0.040 A 
ATOM     20  C   UNL     1       0.940   3.830   3.877  1.00  0.00     0.015 A 
ATOM     21  C   UNL     1      -0.781   4.418   2.260  1.00  0.00     0.015 A 
ATOM     22  C   UNL     1       0.549   4.909   4.674  1.00  0.00     0.021 A 
ATOM     23  C   UNL     1      -1.154   5.505   3.053  1.00  0.00     0.021 A 
ATOM     24  C   UNL     1      -0.500   5.735   4.264  1.00  0.00     0.041 A 
ATOM     25  Cl  UNL     1      -0.998   7.042   5.266  1.00  0.00    -0.084 Cl
ENDBRANCH  17  19
ENDBRANCH  10  17
BRANCH  15  26
ATOM     26  O   UNL     1      -2.298  -1.722   6.202  1.00  0.00    -0.508 OA
ATOM     27  H   UNL     1      -2.431  -2.636   6.047  1.00  0.00     0.293 HD
ENDBRANCH  15  26
ENDBRANCH   6   7
ENDBRANCH   4   6
ENDBRANCH   3   4
ENDBRANCH   2   3
ENDBRANCH   1   2
BRANCH   1  28
ATOM     28  O   UNL     1       1.835  -4.598   4.958  1.00  0.00    -0.374 OA
BRANCH  28  29
ATOM     29  C   UNL     1       0.992  -3.457   5.110  1.00  0.00     0.202 C 
BRANCH  29  30
ATOM     30  C   UNL     1       1.492  -2.265   5.948  1.00  0.00     0.261 C 
BRANCH  30  31
ATOM     31  O   UNL     1       2.680  -1.684   5.410  1.00  0.00    -0.460 OA
BRANCH  31  32
ATOM     32  C   UNL     1       3.566  -1.258   6.353  1.00  0.00     0.338 C 
ATOM     33  O   UNL     1       3.338  -0.894   7.485  1.00  0.00    -0.246 OA
BRANCH  32  34
ATOM     34  C   UNL     1       4.860  -1.763   5.863  1.00  0.00     0.060 A 
ATOM     35  C   UNL     1       5.267  -1.478   4.557  1.00  0.00     0.016 A 
ATOM     36  C   UNL     1       5.411  -2.828   6.594  1.00  0.00     0.016 A 
ATOM     37  C   UNL     1       6.160  -2.342   3.943  1.00  0.00     0.010 A 
ATOM     38  C   UNL     1       6.287  -3.702   5.966  1.00  0.00     0.010 A 
ATOM     39  C   UNL     1       6.623  -3.481   4.629  1.00  0.00    -0.014 A 
BRANCH  39  40
ATOM     40  C   UNL     1       7.643  -4.289   3.966  1.00  0.00     0.031 A 
ATOM     41  C   UNL     1       8.922  -3.551   3.817  1.00  0.00     0.074 A 
ATOM     42  C   UNL     1       7.549  -5.591   3.631  1.00  0.00     0.049 A 
ATOM     43  N   UNL     1       9.539  -3.234   2.729  1.00  0.00    -0.248 NA
ATOM     44  C   UNL     1       9.504  -2.972   5.040  1.00  0.00     0.031 C 
ATOM     45  C   UNL     1       6.506  -6.545   4.011  1.00  0.00     0.029 A 
ATOM     46  N   UNL     1       8.447  -6.369   2.951  1.00  0.00    -0.354 N 
ATOM     47  C   UNL     1      10.671  -2.533   3.135  1.00  0.00     0.074 A 
ATOM     48  C   UNL     1      10.520  -2.273   4.542  1.00  0.00     0.031 C 
ATOM     49  C   UNL     1       6.932  -7.803   3.750  1.00  0.00     0.029 A 
ATOM     50  C   UNL     1       8.210  -7.733   3.062  1.00  0.00     0.049 A 
ATOM     51  H   UNL     1       9.194  -5.996   2.431  1.00  0.00     0.167 HD
ATOM     52  C   UNL     1      11.761  -2.404   2.334  1.00  0.00     0.031 A 
ATOM     53  C   UNL     1       9.030  -8.736   2.667  1.00  0.00     0.031 A 
ATOM     54  C   UNL     1      11.471  -2.744   0.971  1.00  0.00     0.049 A 
ATOM     55  C   UNL     1       9.973  -8.206   1.662  1.00  0.00     0.074 A 
ATOM     56  C   UNL     1      10.903  -2.113  -0.112  1.00  0.00     0.029 A 
ATOM     57  N   UNL     1      11.491  -4.088   0.704  1.00  0.00    -0.354 N 
ATOM     58  N   UNL     1       9.609  -7.795   0.483  1.00  0.00    -0.248 NA
ATOM     59  C   UNL     1      11.328  -7.844   2.061  1.00  0.00     0.031 C 
ATOM     60  C   UNL     1      10.395  -3.147  -0.950  1.00  0.00     0.029 A 
ATOM     61  C   UNL     1      10.690  -4.381  -0.370  1.00  0.00     0.049 A 
ATOM     62  H   UNL     1      12.008  -4.752   1.214  1.00  0.00     0.167 HD
ATOM     63  C   UNL     1      10.503  -6.789   0.180  1.00  0.00     0.074 A 
ATOM     64  C   UNL     1      11.629  -6.987   1.082  1.00  0.00     0.031 C 
ATOM     65  C   UNL     1      10.119  -5.701  -0.544  1.00  0.00     0.031 A 
BRANCH  52  66
ATOM     66  C   UNL     1      13.173  -2.371   2.860  1.00  0.00    -0.014 A 
ATOM     67  C   UNL     1      13.523  -2.793   4.158  1.00  0.00     0.009 A 
ATOM     68  C   UNL     1      14.232  -2.166   1.959  1.00  0.00     0.009 A 
ATOM     69  C   UNL     1      14.850  -2.986   4.548  1.00  0.00     0.001 A 
ATOM     70  C   UNL     1      15.563  -2.396   2.334  1.00  0.00     0.001 A 
ATOM     71  C   UNL     1      15.871  -2.805   3.628  1.00  0.00     0.000 A 
ENDBRANCH  52  66
BRANCH  53  72
ATOM     72  C   UNL     1       9.247 -10.054   3.297  1.00  0.00    -0.014 A 
ATOM     73  C   UNL     1       9.237 -10.158   4.700  1.00  0.00     0.009 A 
ATOM     74  C   UNL     1       9.768 -11.129   2.560  1.00  0.00     0.009 A 
ATOM     75  C   UNL     1       9.780 -11.273   5.346  1.00  0.00     0.001 A 
ATOM     76  C   UNL     1      10.309 -12.247   3.208  1.00  0.00     0.001 A 
ATOM     77  C   UNL     1      10.334 -12.309   4.600  1.00  0.00     0.000 A 
ENDBRANCH  53  72
BRANCH  65  78
ATOM     78  C   UNL     1       8.893  -5.823  -1.407  1.00  0.00    -0.014 A 
ATOM     79  C   UNL     1       9.033  -5.575  -2.781  1.00  0.00     0.009 A 
ATOM     80  C   UNL     1       7.606  -6.063  -0.899  1.00  0.00     0.009 A 
ATOM     81  C   UNL     1       7.921  -5.544  -3.622  1.00  0.00     0.001 A 
ATOM     82  C   UNL     1       6.493  -6.059  -1.748  1.00  0.00     0.001 A 
ATOM     83  C   UNL     1       6.651  -5.787  -3.106  1.00  0.00     0.000 A 
ENDBRANCH  65  78
ENDBRANCH  39  40
ENDBRANCH  32  34
ENDBRANCH  31  32
ENDBRANCH  30  31
ENDBRANCH  29  30
ENDBRANCH  28  29
ENDBRANCH   1  28
TORSDOF 18
