REMARK SMILES Cc1cc(=O)oc2c(C[N@@H+]3CCC[C@H]3C(=O)OCCOCCOC(=O)c3ccc(-c4c5nc(c(-c6ccccc6)c6ccc([nH]6)c(-c6ccccc6)c6nc(c(-c7ccccc7)c7ccc4[nH]7)C=C6)C=C5)cc3)c(O)ccc12
REMARK SMILES IDX 19 1 18 2 17 3 15 4 16 5 14 6 10 7 11 8 12 10 13 11 9 12
REMARK SMILES IDX 8 13 1 14 2 15 3 16 78 17 4 18 7 19 77 20 5 21 6 22 76 23
REMARK SMILES IDX 74 24 75 25 20 27 21 28 22 29 23 30 24 31 25 32 26 33 27 34
REMARK SMILES IDX 73 35 28 36 72 37 29 38 30 39 31 40 66 41 32 42 71 43 65 44
REMARK SMILES IDX 67 45 33 46 70 47 64 48 63 49 34 51 56 52 41 53 55 54 42 55
REMARK SMILES IDX 45 56 54 57 68 58 43 59 44 60 53 62 69 63 46 64 35 65 36 66
REMARK SMILES IDX 40 67 37 68 39 69 38 70 57 71 58 72 62 73 59 74 61 75 60 76
REMARK SMILES IDX 47 77 48 78 52 79 49 80 51 81 50 82
REMARK H PARENT 10 9 75 26 67 50 45 61
REMARK Flexibility Score: inf
ROOT
ATOM      1  C   UNL     1       1.477  -5.681   5.515  1.00  0.00     0.202 C 
ENDROOT
BRANCH   1   2
ATOM      2  C   UNL     1       2.700  -5.101   4.792  1.00  0.00     0.261 C 
BRANCH   2   3
ATOM      3  O   UNL     1       2.345  -3.850   4.171  1.00  0.00    -0.459 OA
BRANCH   3   4
ATOM      4  C   UNL     1       2.569  -3.746   2.831  1.00  0.00     0.365 C 
ATOM      5  O   UNL     1       3.268  -4.525   2.192  1.00  0.00    -0.245 OA
BRANCH   4   6
ATOM      6  C   UNL     1       1.837  -2.530   2.215  1.00  0.00     0.295 C 
ATOM      7  N   UNL     1       1.067  -2.987   1.033  1.00  0.00    -0.319 N 
ATOM      8  C   UNL     1      -0.353  -2.914   1.341  1.00  0.00     0.263 C 
ATOM      9  H   UNL     1       1.291  -3.966   0.860  1.00  0.00     0.349 HD
ATOM     10  C   UNL     1      -0.498  -1.806   2.360  1.00  0.00     0.068 C 
ATOM     11  C   UNL     1       0.818  -1.816   3.121  1.00  0.00     0.083 C 
BRANCH   7  12
ATOM     12  C   UNL     1       1.489  -2.416  -0.257  1.00  0.00     0.307 C 
BRANCH  12  13
ATOM     13  C   UNL     1       1.458  -0.903  -0.371  1.00  0.00     0.091 A 
ATOM     14  C   UNL     1      -1.452   3.237  -0.172  1.00  0.00     0.045 C 
ATOM     15  C   UNL     1      -1.212   1.781  -0.436  1.00  0.00    -0.033 A 
ATOM     16  C   UNL     1      -2.271   0.977  -0.623  1.00  0.00     0.098 A 
ATOM     17  C   UNL     1       0.135   1.183  -0.428  1.00  0.00     0.021 A 
ATOM     18  C   UNL     1      -2.164  -0.465  -0.854  1.00  0.00     0.336 A 
ATOM     19  C   UNL     1       0.252  -0.206  -0.576  1.00  0.00     0.151 A 
ATOM     20  C   UNL     1       1.313   1.903  -0.204  1.00  0.00     0.016 A 
ATOM     21  O   UNL     1      -3.162  -1.165  -0.975  1.00  0.00    -0.246 OA
ATOM     22  O   UNL     1      -0.884  -0.977  -0.908  1.00  0.00    -0.422 OA
ATOM     23  C   UNL     1       2.549   1.252  -0.115  1.00  0.00     0.047 A 
ATOM     24  C   UNL     1       2.612  -0.137  -0.185  1.00  0.00     0.128 A 
BRANCH  24  25
ATOM     25  O   UNL     1       3.817  -0.765  -0.047  1.00  0.00    -0.507 OA
ATOM     26  H   UNL     1       3.866  -1.700  -0.094  1.00  0.00     0.293 HD
ENDBRANCH  24  25
ENDBRANCH  12  13
ENDBRANCH   7  12
ENDBRANCH   4   6
ENDBRANCH   3   4
ENDBRANCH   2   3
ENDBRANCH   1   2
BRANCH   1  27
ATOM     27  O   UNL     1       0.517  -6.335   4.679  1.00  0.00    -0.374 OA
BRANCH  27  28
ATOM     28  C   UNL     1      -0.302  -5.487   3.877  1.00  0.00     0.202 C 
BRANCH  28  29
ATOM     29  C   UNL     1      -1.591  -4.994   4.541  1.00  0.00     0.261 C 
BRANCH  29  30
ATOM     30  O   UNL     1      -1.304  -4.186   5.695  1.00  0.00    -0.460 OA
BRANCH  30  31
ATOM     31  C   UNL     1      -1.581  -4.782   6.875  1.00  0.00     0.338 C 
ATOM     32  O   UNL     1      -2.168  -5.840   7.060  1.00  0.00    -0.246 OA
BRANCH  31  33
ATOM     33  C   UNL     1      -0.910  -4.058   7.965  1.00  0.00     0.060 A 
ATOM     34  C   UNL     1      -0.076  -4.804   8.807  1.00  0.00     0.016 A 
ATOM     35  C   UNL     1      -1.130  -2.699   8.199  1.00  0.00     0.016 A 
ATOM     36  C   UNL     1       0.507  -4.205   9.918  1.00  0.00     0.010 A 
ATOM     37  C   UNL     1      -0.552  -2.100   9.322  1.00  0.00     0.010 A 
ATOM     38  C   UNL     1       0.241  -2.859  10.203  1.00  0.00    -0.014 A 
BRANCH  38  39
ATOM     39  C   UNL     1       0.677  -2.293  11.499  1.00  0.00     0.031 A 
ATOM     40  C   UNL     1      -0.311  -2.208  12.626  1.00  0.00     0.074 A 
ATOM     41  C   UNL     1       1.946  -1.890  11.678  1.00  0.00     0.049 A 
ATOM     42  N   UNL     1      -0.151  -1.729  13.833  1.00  0.00    -0.248 NA
ATOM     43  C   UNL     1      -1.659  -2.732  12.356  1.00  0.00     0.031 C 
ATOM     44  C   UNL     1       3.006  -1.963  10.674  1.00  0.00     0.029 A 
ATOM     45  N   UNL     1       2.553  -1.329  12.773  1.00  0.00    -0.354 N 
ATOM     46  C   UNL     1      -1.377  -1.892  14.466  1.00  0.00     0.074 A 
ATOM     47  C   UNL     1      -2.279  -2.482  13.499  1.00  0.00     0.031 C 
ATOM     48  C   UNL     1       4.133  -1.450  11.196  1.00  0.00     0.029 A 
ATOM     49  C   UNL     1       3.863  -0.985  12.555  1.00  0.00     0.049 A 
ATOM     50  H   UNL     1       2.093  -1.188  13.632  1.00  0.00     0.167 HD
ATOM     51  C   UNL     1      -1.721  -1.585  15.739  1.00  0.00     0.031 A 
ATOM     52  C   UNL     1       4.736  -0.340  13.351  1.00  0.00     0.031 A 
ATOM     53  C   UNL     1      -0.831  -0.975  16.691  1.00  0.00     0.049 A 
ATOM     54  C   UNL     1       4.307   0.082  14.730  1.00  0.00     0.074 A 
ATOM     55  C   UNL     1      -1.075  -0.641  18.011  1.00  0.00     0.029 A 
ATOM     56  N   UNL     1       0.473  -0.593  16.415  1.00  0.00    -0.354 N 
ATOM     57  N   UNL     1       3.156  -0.107  15.329  1.00  0.00    -0.248 NA
ATOM     58  C   UNL     1       5.298   0.805  15.540  1.00  0.00     0.031 C 
ATOM     59  C   UNL     1       0.062  -0.000  18.515  1.00  0.00     0.029 A 
ATOM     60  C   UNL     1       1.034   0.013  17.526  1.00  0.00     0.049 A 
ATOM     61  H   UNL     1       0.933  -0.733  15.555  1.00  0.00     0.167 HD
ATOM     62  C   UNL     1       3.285   0.465  16.589  1.00  0.00     0.074 A 
ATOM     63  C   UNL     1       4.634   0.989  16.674  1.00  0.00     0.031 C 
ATOM     64  C   UNL     1       2.369   0.550  17.585  1.00  0.00     0.031 A 
BRANCH  51  65
ATOM     65  C   UNL     1      -3.139  -1.865  16.151  1.00  0.00    -0.014 A 
ATOM     66  C   UNL     1      -3.604  -3.178  16.325  1.00  0.00     0.009 A 
ATOM     67  C   UNL     1      -4.023  -0.797  16.367  1.00  0.00     0.009 A 
ATOM     68  C   UNL     1      -4.938  -3.417  16.662  1.00  0.00     0.001 A 
ATOM     69  C   UNL     1      -5.349  -1.038  16.732  1.00  0.00     0.001 A 
ATOM     70  C   UNL     1      -5.809  -2.347  16.867  1.00  0.00     0.000 A 
ENDBRANCH  51  65
BRANCH  52  71
ATOM     71  C   UNL     1       6.092  -0.017  12.838  1.00  0.00    -0.014 A 
ATOM     72  C   UNL     1       7.225  -0.686  13.323  1.00  0.00     0.009 A 
ATOM     73  C   UNL     1       6.253   0.958  11.839  1.00  0.00     0.009 A 
ATOM     74  C   UNL     1       8.493  -0.378  12.823  1.00  0.00     0.001 A 
ATOM     75  C   UNL     1       7.518   1.245  11.324  1.00  0.00     0.001 A 
ATOM     76  C   UNL     1       8.638   0.581  11.820  1.00  0.00     0.000 A 
ENDBRANCH  52  71
BRANCH  64  77
ATOM     77  C   UNL     1       2.792   1.237  18.852  1.00  0.00    -0.014 A 
ATOM     78  C   UNL     1       2.926   2.633  18.907  1.00  0.00     0.009 A 
ATOM     79  C   UNL     1       3.006   0.486  20.019  1.00  0.00     0.009 A 
ATOM     80  C   UNL     1       3.287   3.261  20.101  1.00  0.00     0.001 A 
ATOM     81  C   UNL     1       3.341   1.119  21.217  1.00  0.00     0.001 A 
ATOM     82  C   UNL     1       3.488   2.504  21.255  1.00  0.00     0.000 A 
ENDBRANCH  64  77
ENDBRANCH  38  39
ENDBRANCH  31  33
ENDBRANCH  30  31
ENDBRANCH  29  30
ENDBRANCH  28  29
ENDBRANCH  27  28
ENDBRANCH   1  27
TORSDOF 17
