REMARK SMILES CC1(C)O[C@@H]2CC3[C@H]4CCC5=CC(=O)C=C[C@@]5(C)[C@]4(F)[C@H](O)C[C@]3(C)[C@]2(C(=O)OCCOCCOC(=O)c2ccc(-c3c4nc(c(-c5ccccc5)c5ccc([nH]5)c(-c5ccccc5)c5nc(c(-c6ccccc6)c6ccc3[nH]6)C=C5)C=C4)cc2)O1
REMARK SMILES IDX 33 1 32 2 31 3 30 4 29 5 27 6 28 7 26 8 1 9 2 10 4 11 86 12
REMARK SMILES IDX 3 13 5 14 6 15 24 16 7 17 23 18 25 19 8 20 21 21 9 22 19 23
REMARK SMILES IDX 10 24 17 25 20 26 11 27 16 28 18 29 12 30 15 31 13 32 14 33
REMARK SMILES IDX 22 34 34 36 35 37 36 38 37 39 38 40 39 41 85 42 40 43 84 44
REMARK SMILES IDX 41 45 42 46 43 47 78 48 44 49 83 50 77 51 79 52 45 53 82 54
REMARK SMILES IDX 76 55 75 56 46 58 68 59 53 60 67 61 54 62 57 63 66 64 80 65
REMARK SMILES IDX 55 66 56 67 65 69 81 70 58 71 47 72 48 73 52 74 49 75 51 76
REMARK SMILES IDX 50 77 69 78 70 79 74 80 71 81 73 82 72 83 59 84 60 85 64 86
REMARK SMILES IDX 61 87 63 88 62 89
REMARK H PARENT 22 35 79 57 57 68
REMARK Flexibility Score: inf
ROOT
ATOM      1  C   UNL     1      -1.946   2.928   1.934  1.00  0.00     0.202 C 
ENDROOT
BRANCH   1   2
ATOM      2  O   UNL     1      -1.705   4.193   2.530  1.00  0.00    -0.374 OA
BRANCH   2   3
ATOM      3  C   UNL     1      -1.956   5.377   1.787  1.00  0.00     0.202 C 
BRANCH   3   4
ATOM      4  C   UNL     1      -1.233   5.632   0.459  1.00  0.00     0.261 C 
BRANCH   4   5
ATOM      5  O   UNL     1      -1.410   4.616  -0.550  1.00  0.00    -0.461 OA
BRANCH   5   6
ATOM      6  C   UNL     1      -0.301   3.854  -0.713  1.00  0.00     0.341 C 
ATOM      7  O   UNL     1       0.688   3.946   0.014  1.00  0.00    -0.249 OA
BRANCH   6   8
ATOM      8  C   UNL     1      -0.308   2.932  -1.923  1.00  0.00     0.200 C 
ATOM      9  C   UNL     1       0.349   0.348   0.181  1.00  0.00     0.075 C 
ATOM     10  C   UNL     1       0.170   0.707  -1.287  1.00  0.00     0.165 C 
ATOM     11  O   UNL     1      -1.220   0.764  -1.615  1.00  0.00    -0.344 OA
ATOM     12  O   UNL     1       0.775   1.991  -1.538  1.00  0.00    -0.329 OA
ATOM     13  C   UNL     1       0.862  -0.384  -2.121  1.00  0.00     0.075 C 
ATOM     14  C   UNL     1      -1.422   1.965  -2.369  1.00  0.00     0.166 C 
ATOM     15  C   UNL     1      -1.150   1.701  -3.945  1.00  0.00     0.040 C 
ATOM     16  C   UNL     1       0.026   3.694  -3.262  1.00  0.00     0.016 C 
ATOM     17  C   UNL     1       0.198   2.433  -4.153  1.00  0.00     0.008 C 
ATOM     18  C   UNL     1       1.213   4.661  -3.273  1.00  0.00     0.046 C 
ATOM     19  C   UNL     1      -1.196   4.572  -3.696  1.00  0.00     0.015 C 
ATOM     20  C   UNL     1       1.503   2.146  -4.944  1.00  0.00     0.035 C 
ATOM     21  C   UNL     1       2.561   4.040  -3.564  1.00  0.00     0.154 C 
ATOM     22  C   UNL     1       1.382   1.494  -6.312  1.00  0.00     0.012 C 
ATOM     23  C   UNL     1       2.557   3.282  -4.925  1.00  0.00     0.152 C 
ATOM     24  C   UNL     1       2.730   0.820  -6.630  1.00  0.00     0.032 C 
ATOM     25  C   UNL     1       3.991   2.736  -5.330  1.00  0.00     0.044 C 
ATOM     26  F   UNL     1       2.155   4.185  -5.884  1.00  0.00    -0.239 F 
ATOM     27  C   UNL     1       3.920   1.750  -6.518  1.00  0.00    -0.053 C 
ATOM     28  C   UNL     1       4.937   3.892  -5.669  1.00  0.00    -0.009 C 
ATOM     29  C   UNL     1       4.690   1.975  -4.166  1.00  0.00     0.024 C 
ATOM     30  C   UNL     1       4.938   1.642  -7.395  1.00  0.00     0.052 C 
ATOM     31  C   UNL     1       5.936   3.792  -6.558  1.00  0.00     0.048 C 
ATOM     32  C   UNL     1       6.109   2.545  -7.328  1.00  0.00     0.178 C 
ATOM     33  O   UNL     1       7.150   2.295  -7.921  1.00  0.00    -0.290 OA
BRANCH  21  34
ATOM     34  O   UNL     1       2.982   3.266  -2.451  1.00  0.00    -0.390 OA
ATOM     35  H   UNL     1       2.344   2.553  -2.293  1.00  0.00     0.211 HD
ENDBRANCH  21  34
ENDBRANCH   6   8
ENDBRANCH   5   6
ENDBRANCH   4   5
ENDBRANCH   3   4
ENDBRANCH   2   3
ENDBRANCH   1   2
BRANCH   1  36
ATOM     36  C   UNL     1      -3.369   2.533   1.524  1.00  0.00     0.261 C 
BRANCH  36  37
ATOM     37  O   UNL     1      -4.030   3.497   0.690  1.00  0.00    -0.460 OA
BRANCH  37  38
ATOM     38  C   UNL     1      -5.022   4.170   1.314  1.00  0.00     0.338 C 
ATOM     39  O   UNL     1      -5.406   4.029   2.471  1.00  0.00    -0.246 OA
BRANCH  38  40
ATOM     40  C   UNL     1      -5.529   5.257   0.467  1.00  0.00     0.060 A 
ATOM     41  C   UNL     1      -5.461   6.562   0.972  1.00  0.00     0.016 A 
ATOM     42  C   UNL     1      -6.206   4.984  -0.723  1.00  0.00     0.016 A 
ATOM     43  C   UNL     1      -6.126   7.595   0.323  1.00  0.00     0.010 A 
ATOM     44  C   UNL     1      -6.891   6.020  -1.365  1.00  0.00     0.010 A 
ATOM     45  C   UNL     1      -6.893   7.315  -0.815  1.00  0.00    -0.014 A 
BRANCH  45  46
ATOM     46  C   UNL     1      -7.854   8.334  -1.292  1.00  0.00     0.031 A 
ATOM     47  C   UNL     1      -9.281   8.257  -0.821  1.00  0.00     0.074 A 
ATOM     48  C   UNL     1      -7.452   9.343  -2.082  1.00  0.00     0.049 A 
ATOM     49  N   UNL     1     -10.290   9.040  -1.104  1.00  0.00    -0.248 NA
ATOM     50  C   UNL     1      -9.613   7.153   0.096  1.00  0.00     0.031 C 
ATOM     51  C   UNL     1      -6.085   9.557  -2.554  1.00  0.00     0.029 A 
ATOM     52  N   UNL     1      -8.165  10.383  -2.619  1.00  0.00    -0.354 N 
ATOM     53  C   UNL     1     -11.374   8.522  -0.407  1.00  0.00     0.074 A 
ATOM     54  C   UNL     1     -10.909   7.345   0.293  1.00  0.00     0.031 C 
ATOM     55  C   UNL     1      -6.059  10.663  -3.318  1.00  0.00     0.029 A 
ATOM     56  C   UNL     1      -7.410  11.215  -3.407  1.00  0.00     0.049 A 
ATOM     57  H   UNL     1      -9.126  10.521  -2.456  1.00  0.00     0.167 HD
ATOM     58  C   UNL     1     -12.644   8.987  -0.349  1.00  0.00     0.031 A 
ATOM     59  C   UNL     1      -7.774  12.290  -4.130  1.00  0.00     0.031 A 
ATOM     60  C   UNL     1     -13.112  10.150  -1.051  1.00  0.00     0.049 A 
ATOM     61  C   UNL     1      -9.208  12.743  -4.111  1.00  0.00     0.074 A 
ATOM     62  C   UNL     1     -14.381  10.702  -1.058  1.00  0.00     0.029 A 
ATOM     63  N   UNL     1     -12.326  10.937  -1.877  1.00  0.00    -0.354 N 
ATOM     64  N   UNL     1     -10.222  12.249  -3.442  1.00  0.00    -0.248 NA
ATOM     65  C   UNL     1      -9.545  13.908  -4.942  1.00  0.00     0.031 C 
ATOM     66  C   UNL     1     -14.373  11.801  -1.924  1.00  0.00     0.029 A 
ATOM     67  C   UNL     1     -13.087  11.960  -2.417  1.00  0.00     0.049 A 
ATOM     68  H   UNL     1     -11.369  10.791  -2.054  1.00  0.00     0.167 HD
ATOM     69  C   UNL     1     -11.309  13.058  -3.749  1.00  0.00     0.074 A 
ATOM     70  C   UNL     1     -10.828  14.080  -4.657  1.00  0.00     0.031 C 
ATOM     71  C   UNL     1     -12.590  12.966  -3.316  1.00  0.00     0.031 A 
BRANCH  58  72
ATOM     72  C   UNL     1     -13.624   8.208   0.481  1.00  0.00    -0.014 A 
ATOM     73  C   UNL     1     -13.585   8.249   1.884  1.00  0.00     0.009 A 
ATOM     74  C   UNL     1     -14.615   7.441  -0.151  1.00  0.00     0.009 A 
ATOM     75  C   UNL     1     -14.501   7.511   2.637  1.00  0.00     0.001 A 
ATOM     76  C   UNL     1     -15.543   6.723   0.605  1.00  0.00     0.001 A 
ATOM     77  C   UNL     1     -15.481   6.752   1.997  1.00  0.00     0.000 A 
ENDBRANCH  58  72
BRANCH  59  78
ATOM     78  C   UNL     1      -6.765  13.008  -4.951  1.00  0.00    -0.014 A 
ATOM     79  C   UNL     1      -6.325  14.288  -4.586  1.00  0.00     0.009 A 
ATOM     80  C   UNL     1      -6.248  12.416  -6.114  1.00  0.00     0.009 A 
ATOM     81  C   UNL     1      -5.404  14.971  -5.383  1.00  0.00     0.001 A 
ATOM     82  C   UNL     1      -5.308  13.091  -6.894  1.00  0.00     0.001 A 
ATOM     83  C   UNL     1      -4.893  14.371  -6.533  1.00  0.00     0.000 A 
ENDBRANCH  59  78
BRANCH  71  84
ATOM     84  C   UNL     1     -13.551  14.019  -3.789  1.00  0.00    -0.014 A 
ATOM     85  C   UNL     1     -14.049  14.013  -5.101  1.00  0.00     0.009 A 
ATOM     86  C   UNL     1     -13.996  15.004  -2.894  1.00  0.00     0.009 A 
ATOM     87  C   UNL     1     -14.953  14.994  -5.515  1.00  0.00     0.001 A 
ATOM     88  C   UNL     1     -14.918  15.968  -3.304  1.00  0.00     0.001 A 
ATOM     89  C   UNL     1     -15.389  15.967  -4.615  1.00  0.00     0.000 A 
ENDBRANCH  71  84
ENDBRANCH  45  46
ENDBRANCH  38  40
ENDBRANCH  37  38
ENDBRANCH  36  37
ENDBRANCH   1  36
TORSDOF 15
