REMARK SMILES O=C(OCCOCCOC(=O)[C@H]1CS[C@H](c2nc3ccccc3s2)[NH2+]1)c1ccc(-c2c3nc(c(-c4ccccc4)c4ccc([nH]4)c(-c4ccccc4)c4nc(c(-c5ccccc5)c5ccc2[nH]5)C=C4)C=C3)cc1
REMARK SMILES IDX 5 1 4 2 3 3 2 4 1 5 26 6 27 7 73 8 28 9 72 10 29 11 30 12
REMARK SMILES IDX 31 13 66 14 32 15 71 16 65 17 67 18 33 19 70 20 64 21 63 22
REMARK SMILES IDX 34 24 56 25 41 26 55 27 42 28 45 29 54 30 68 31 43 32 44 33
REMARK SMILES IDX 53 35 69 36 46 37 35 38 36 39 40 40 37 41 39 42 38 43 57 44
REMARK SMILES IDX 58 45 62 46 59 47 61 48 60 49 47 50 48 51 52 52 49 53 51 54
REMARK SMILES IDX 50 55 6 56 7 57 8 58 9 59 10 60 11 61 12 62 13 63 25 64
REMARK SMILES IDX 14 65 15 66 16 69 17 70 24 71 18 72 23 73 19 74 22 75 20 76
REMARK SMILES IDX 21 77
REMARK H PARENT 67 23 45 34 25 67 25 68
REMARK Flexibility Score: inf
ROOT
ATOM      1  C   UNL     1       4.562  -1.462   0.374  1.00  0.00     0.202 C 
ENDROOT
BRANCH   1   2
ATOM      2  C   UNL     1       4.286  -0.230   1.244  1.00  0.00     0.261 C 
BRANCH   2   3
ATOM      3  O   UNL     1       2.882   0.056   1.297  1.00  0.00    -0.460 OA
BRANCH   3   4
ATOM      4  C   UNL     1       2.201   0.963   0.561  1.00  0.00     0.338 C 
ATOM      5  O   UNL     1       0.990   1.077   0.737  1.00  0.00    -0.246 OA
BRANCH   4   6
ATOM      6  C   UNL     1       2.843   1.821  -0.479  1.00  0.00     0.060 A 
ATOM      7  C   UNL     1       4.003   1.495  -1.188  1.00  0.00     0.016 A 
ATOM      8  C   UNL     1       2.165   2.998  -0.831  1.00  0.00     0.016 A 
ATOM      9  C   UNL     1       4.511   2.305  -2.181  1.00  0.00     0.010 A 
ATOM     10  C   UNL     1       2.658   3.823  -1.839  1.00  0.00     0.010 A 
ATOM     11  C   UNL     1       3.842   3.475  -2.498  1.00  0.00    -0.014 A 
BRANCH  11  12
ATOM     12  C   UNL     1       4.519   4.402  -3.402  1.00  0.00     0.031 A 
ATOM     13  C   UNL     1       5.257   5.539  -2.783  1.00  0.00     0.074 A 
ATOM     14  C   UNL     1       4.550   4.141  -4.716  1.00  0.00     0.049 A 
ATOM     15  N   UNL     1       5.819   6.565  -3.352  1.00  0.00    -0.248 NA
ATOM     16  C   UNL     1       5.381   5.510  -1.313  1.00  0.00     0.031 C 
ATOM     17  C   UNL     1       3.995   2.946  -5.356  1.00  0.00     0.029 A 
ATOM     18  N   UNL     1       5.079   4.864  -5.746  1.00  0.00    -0.354 N 
ATOM     19  C   UNL     1       6.317   7.333  -2.310  1.00  0.00     0.074 A 
ATOM     20  C   UNL     1       6.003   6.652  -1.075  1.00  0.00     0.031 C 
ATOM     21  C   UNL     1       4.195   3.031  -6.681  1.00  0.00     0.029 A 
ATOM     22  C   UNL     1       4.819   4.315  -6.976  1.00  0.00     0.049 A 
ATOM     23  H   UNL     1       5.593   5.693  -5.619  1.00  0.00     0.167 HD
ATOM     24  C   UNL     1       6.952   8.522  -2.395  1.00  0.00     0.031 A 
ATOM     25  C   UNL     1       5.011   4.840  -8.198  1.00  0.00     0.031 A 
ATOM     26  C   UNL     1       7.205   9.168  -3.652  1.00  0.00     0.049 A 
ATOM     27  C   UNL     1       5.615   6.215  -8.273  1.00  0.00     0.074 A 
ATOM     28  C   UNL     1       7.779  10.398  -3.897  1.00  0.00     0.029 A 
ATOM     29  N   UNL     1       6.880   8.614  -4.887  1.00  0.00    -0.354 N 
ATOM     30  N   UNL     1       6.017   6.990  -7.290  1.00  0.00    -0.248 NA
ATOM     31  C   UNL     1       5.783   6.794  -9.608  1.00  0.00     0.031 C 
ATOM     32  C   UNL     1       7.744  10.615  -5.279  1.00  0.00     0.029 A 
ATOM     33  C   UNL     1       7.219   9.488  -5.900  1.00  0.00     0.049 A 
ATOM     34  H   UNL     1       6.468   7.730  -5.018  1.00  0.00     0.167 HD
ATOM     35  C   UNL     1       6.514   8.139  -7.888  1.00  0.00     0.074 A 
ATOM     36  C   UNL     1       6.361   7.954  -9.320  1.00  0.00     0.031 C 
ATOM     37  C   UNL     1       7.052   9.244  -7.313  1.00  0.00     0.031 A 
BRANCH  24  38
ATOM     38  C   UNL     1       7.272   9.209  -1.099  1.00  0.00    -0.014 A 
ATOM     39  C   UNL     1       8.226   8.702  -0.201  1.00  0.00     0.009 A 
ATOM     40  C   UNL     1       6.533  10.344  -0.730  1.00  0.00     0.009 A 
ATOM     41  C   UNL     1       8.385   9.279   1.063  1.00  0.00     0.001 A 
ATOM     42  C   UNL     1       6.718  10.939   0.519  1.00  0.00     0.001 A 
ATOM     43  C   UNL     1       7.630  10.395   1.421  1.00  0.00     0.000 A 
ENDBRANCH  24  38
BRANCH  25  44
ATOM     44  C   UNL     1       4.562   4.093  -9.401  1.00  0.00    -0.014 A 
ATOM     45  C   UNL     1       5.488   3.562 -10.309  1.00  0.00     0.009 A 
ATOM     46  C   UNL     1       3.193   3.860  -9.619  1.00  0.00     0.009 A 
ATOM     47  C   UNL     1       5.052   2.821 -11.412  1.00  0.00     0.001 A 
ATOM     48  C   UNL     1       2.761   3.095 -10.704  1.00  0.00     0.001 A 
ATOM     49  C   UNL     1       3.691   2.581 -11.604  1.00  0.00     0.000 A 
ENDBRANCH  25  44
BRANCH  37  50
ATOM     50  C   UNL     1       7.570  10.307  -8.235  1.00  0.00    -0.014 A 
ATOM     51  C   UNL     1       6.702  11.174  -8.913  1.00  0.00     0.009 A 
ATOM     52  C   UNL     1       8.957  10.503  -8.335  1.00  0.00     0.009 A 
ATOM     53  C   UNL     1       7.218  12.214  -9.687  1.00  0.00     0.001 A 
ATOM     54  C   UNL     1       9.467  11.561  -9.083  1.00  0.00     0.001 A 
ATOM     55  C   UNL     1       8.597  12.413  -9.761  1.00  0.00     0.000 A 
ENDBRANCH  37  50
ENDBRANCH  11  12
ENDBRANCH   4   6
ENDBRANCH   3   4
ENDBRANCH   2   3
ENDBRANCH   1   2
BRANCH   1  56
ATOM     56  O   UNL     1       4.065  -1.467  -0.968  1.00  0.00    -0.374 OA
BRANCH  56  57
ATOM     57  C   UNL     1       2.655  -1.659  -1.157  1.00  0.00     0.202 C 
BRANCH  57  58
ATOM     58  C   UNL     1       2.404  -2.727  -2.228  1.00  0.00     0.261 C 
BRANCH  58  59
ATOM     59  O   UNL     1       2.822  -3.989  -1.695  1.00  0.00    -0.459 OA
BRANCH  59  60
ATOM     60  C   UNL     1       4.167  -4.186  -1.760  1.00  0.00     0.365 C 
ATOM     61  O   UNL     1       4.880  -3.815  -2.680  1.00  0.00    -0.245 OA
BRANCH  60  62
ATOM     62  C   UNL     1       4.677  -4.929  -0.520  1.00  0.00     0.304 C 
ATOM     63  C   UNL     1       3.771  -4.799   0.718  1.00  0.00     0.153 C 
ATOM     64  N   UNL     1       4.953  -6.352  -0.863  1.00  0.00    -0.317 N 
ATOM     65  S   UNL     1       3.201  -6.461   1.070  1.00  0.00    -0.085 SA
ATOM     66  C   UNL     1       4.683  -7.177   0.323  1.00  0.00     0.303 C 
ATOM     67  H   UNL     1       5.929  -6.456  -1.141  1.00  0.00     0.348 HD
ATOM     68  H   UNL     1       4.357  -6.646  -1.637  1.00  0.00     0.348 HD
BRANCH  66  69
ATOM     69  C   UNL     1       5.814  -7.297   1.333  1.00  0.00     0.163 A 
ATOM     70  N   UNL     1       5.761  -8.113   2.368  1.00  0.00    -0.234 NA
ATOM     71  S   UNL     1       7.284  -6.401   1.205  1.00  0.00    -0.112 S 
ATOM     72  C   UNL     1       6.942  -8.071   3.083  1.00  0.00     0.082 A 
ATOM     73  C   UNL     1       7.905  -7.190   2.596  1.00  0.00     0.055 A 
ATOM     74  C   UNL     1       7.240  -8.845   4.220  1.00  0.00     0.030 A 
ATOM     75  C   UNL     1       9.162  -7.051   3.207  1.00  0.00     0.021 A 
ATOM     76  C   UNL     1       8.495  -8.732   4.825  1.00  0.00     0.002 A 
ATOM     77  C   UNL     1       9.443  -7.846   4.322  1.00  0.00     0.002 A 
ENDBRANCH  66  69
ENDBRANCH  60  62
ENDBRANCH  59  60
ENDBRANCH  58  59
ENDBRANCH  57  58
ENDBRANCH  56  57
ENDBRANCH   1  56
TORSDOF 15
