REMARK SMILES Cc1ccc(C(=O)N2C[C@@H](C(=O)OCCOCCOC(=O)c3ccc(-c4c5nc(c(-c6ccccc6)c6ccc([nH]6)c(-c6ccccc6)c6nc(c(-c7ccccc7)c7ccc4[nH]7)C=C6)C=C5)cc3)C[C@H](C(=O)N3CCOCC3)C2)cc1F
REMARK SMILES IDX 16 1 15 2 14 3 13 4 11 5 12 6 10 7 8 8 9 9 80 10 71 11 70 12
REMARK SMILES IDX 6 13 7 14 5 15 1 16 2 17 3 18 82 19 4 20 81 21 83 22 72 23
REMARK SMILES IDX 73 24 74 25 75 26 79 27 76 28 78 29 77 30 17 31 18 32 19 33
REMARK SMILES IDX 20 34 21 35 22 36 23 37 69 38 24 39 68 40 25 41 26 42 27 43
REMARK SMILES IDX 62 44 28 45 67 46 61 47 63 48 29 49 66 50 60 51 59 52 30 54
REMARK SMILES IDX 52 55 37 56 51 57 38 58 41 59 50 60 64 61 39 62 40 63 49 65
REMARK SMILES IDX 65 66 42 67 31 68 32 69 36 70 33 71 35 72 34 73 53 74 54 75
REMARK SMILES IDX 58 76 55 77 57 78 56 79 43 80 44 81 48 82 45 83 47 84 46 85
REMARK H PARENT 63 53 41 64
REMARK Flexibility Score: inf
ROOT
ATOM      1  O   UNL     1     -10.264  -3.352   2.455  1.00  0.00    -0.374 OA
ENDROOT
BRANCH   1   2
ATOM      2  C   UNL     1     -10.312  -2.153   3.221  1.00  0.00     0.202 C 
BRANCH   2   3
ATOM      3  C   UNL     1      -8.983  -1.484   3.590  1.00  0.00     0.261 C 
BRANCH   3   4
ATOM      4  O   UNL     1      -8.139  -1.187   2.463  1.00  0.00    -0.463 OA
BRANCH   4   5
ATOM      5  C   UNL     1      -7.027  -1.964   2.378  1.00  0.00     0.310 C 
ATOM      6  O   UNL     1      -6.729  -2.849   3.171  1.00  0.00    -0.252 OA
BRANCH   5   7
ATOM      7  C   UNL     1      -6.155  -1.645   1.192  1.00  0.00     0.119 C 
ATOM      8  N   UNL     1      -4.180  -0.478   0.469  1.00  0.00    -0.337 N 
ATOM      9  C   UNL     1      -5.204  -0.516   1.504  1.00  0.00     0.135 C 
ATOM     10  C   UNL     1      -4.636  -0.287  -0.912  1.00  0.00     0.133 C 
ATOM     11  C   UNL     1      -5.841  -1.188  -1.292  1.00  0.00     0.099 C 
ATOM     12  C   UNL     1      -6.847  -1.381  -0.149  1.00  0.00     0.032 C 
BRANCH   8  13
ATOM     13  C   UNL     1      -2.935  -1.018   0.767  1.00  0.00     0.254 C 
ATOM     14  O   UNL     1      -2.792  -1.956   1.546  1.00  0.00    -0.269 OA
BRANCH  13  15
ATOM     15  C   UNL     1      -1.731  -0.315   0.257  1.00  0.00     0.042 A 
ATOM     16  C   UNL     1       1.953   1.817  -0.355  1.00  0.00     0.047 C 
ATOM     17  C   UNL     1       0.656   1.081  -0.214  1.00  0.00    -0.015 A 
ATOM     18  C   UNL     1      -0.562   1.768  -0.172  1.00  0.00     0.007 A 
ATOM     19  C   UNL     1       0.653  -0.309  -0.059  1.00  0.00     0.126 A 
ATOM     20  C   UNL     1      -1.751   1.074   0.065  1.00  0.00     0.014 A 
ATOM     21  C   UNL     1      -0.523  -1.012   0.180  1.00  0.00     0.053 A 
ATOM     22  F   UNL     1       1.813  -0.982  -0.094  1.00  0.00    -0.207 F 
ENDBRANCH  13  15
ENDBRANCH   8  13
BRANCH  11  23
ATOM     23  C   UNL     1      -5.342  -2.424  -2.064  1.00  0.00     0.227 C 
ATOM     24  O   UNL     1      -5.177  -2.315  -3.285  1.00  0.00    -0.275 OA
ATOM     25  N   UNL     1      -4.854  -3.524  -1.390  1.00  0.00    -0.338 N 
ATOM     26  C   UNL     1      -5.666  -4.442  -0.579  1.00  0.00     0.148 C 
ATOM     27  C   UNL     1      -3.684  -4.199  -1.957  1.00  0.00     0.148 C 
ATOM     28  C   UNL     1      -4.803  -5.123   0.494  1.00  0.00     0.181 C 
ATOM     29  C   UNL     1      -2.877  -4.885  -0.851  1.00  0.00     0.181 C 
ATOM     30  O   UNL     1      -3.696  -5.809  -0.116  1.00  0.00    -0.378 OA
ENDBRANCH  11  23
ENDBRANCH   5   7
ENDBRANCH   4   5
ENDBRANCH   3   4
ENDBRANCH   2   3
ENDBRANCH   1   2
BRANCH   1  31
ATOM     31  C   UNL     1      -9.921  -3.249   1.075  1.00  0.00     0.202 C 
BRANCH  31  32
ATOM     32  C   UNL     1     -10.886  -2.485   0.161  1.00  0.00     0.261 C 
BRANCH  32  33
ATOM     33  O   UNL     1     -10.927  -1.076   0.467  1.00  0.00    -0.460 OA
BRANCH  33  34
ATOM     34  C   UNL     1     -12.174  -0.585   0.670  1.00  0.00     0.338 C 
ATOM     35  O   UNL     1     -13.234  -1.168   0.525  1.00  0.00    -0.246 OA
BRANCH  34  36
ATOM     36  C   UNL     1     -12.103   0.751   1.287  1.00  0.00     0.060 A 
ATOM     37  C   UNL     1     -12.622   0.896   2.580  1.00  0.00     0.016 A 
ATOM     38  C   UNL     1     -11.661   1.865   0.569  1.00  0.00     0.016 A 
ATOM     39  C   UNL     1     -12.740   2.163   3.145  1.00  0.00     0.010 A 
ATOM     40  C   UNL     1     -11.791   3.139   1.136  1.00  0.00     0.010 A 
ATOM     41  C   UNL     1     -12.363   3.296   2.412  1.00  0.00    -0.014 A 
BRANCH  41  42
ATOM     42  C   UNL     1     -12.696   4.639   2.944  1.00  0.00     0.031 A 
ATOM     43  C   UNL     1     -13.948   5.330   2.477  1.00  0.00     0.074 A 
ATOM     44  C   UNL     1     -11.926   5.211   3.886  1.00  0.00     0.049 A 
ATOM     45  N   UNL     1     -14.458   6.472   2.866  1.00  0.00    -0.248 NA
ATOM     46  C   UNL     1     -14.733   4.641   1.440  1.00  0.00     0.031 C 
ATOM     47  C   UNL     1     -10.708   4.631   4.450  1.00  0.00     0.029 A 
ATOM     48  N   UNL     1     -12.066   6.408   4.543  1.00  0.00    -0.354 N 
ATOM     49  C   UNL     1     -15.623   6.637   2.127  1.00  0.00     0.074 A 
ATOM     50  C   UNL     1     -15.728   5.494   1.244  1.00  0.00     0.031 C 
ATOM     51  C   UNL     1     -10.214   5.472   5.375  1.00  0.00     0.029 A 
ATOM     52  C   UNL     1     -11.069   6.654   5.454  1.00  0.00     0.049 A 
ATOM     53  H   UNL     1     -12.811   7.030   4.377  1.00  0.00     0.167 HD
ATOM     54  C   UNL     1     -16.529   7.642   2.182  1.00  0.00     0.031 A 
ATOM     55  C   UNL     1     -10.866   7.715   6.257  1.00  0.00     0.031 A 
ATOM     56  C   UNL     1     -16.422   8.789   3.043  1.00  0.00     0.049 A 
ATOM     57  C   UNL     1     -11.854   8.850   6.254  1.00  0.00     0.074 A 
ATOM     58  C   UNL     1     -17.298   9.853   3.177  1.00  0.00     0.029 A 
ATOM     59  N   UNL     1     -15.370   9.026   3.913  1.00  0.00    -0.354 N 
ATOM     60  N   UNL     1     -12.966   8.976   5.572  1.00  0.00    -0.248 NA
ATOM     61  C   UNL     1     -11.560   9.983   7.143  1.00  0.00     0.031 C 
ATOM     62  C   UNL     1     -16.751  10.758   4.093  1.00  0.00     0.029 A 
ATOM     63  C   UNL     1     -15.560  10.232   4.567  1.00  0.00     0.049 A 
ATOM     64  H   UNL     1     -14.601   8.426   4.046  1.00  0.00     0.167 HD
ATOM     65  C   UNL     1     -13.515  10.190   5.965  1.00  0.00     0.074 A 
ATOM     66  C   UNL     1     -12.623  10.753   6.957  1.00  0.00     0.031 C 
ATOM     67  C   UNL     1     -14.658  10.785   5.543  1.00  0.00     0.031 A 
BRANCH  54  68
ATOM     68  C   UNL     1     -17.709   7.555   1.256  1.00  0.00    -0.014 A 
ATOM     69  C   UNL     1     -18.752   6.646   1.491  1.00  0.00     0.009 A 
ATOM     70  C   UNL     1     -17.792   8.415   0.150  1.00  0.00     0.009 A 
ATOM     71  C   UNL     1     -19.841   6.579   0.619  1.00  0.00     0.001 A 
ATOM     72  C   UNL     1     -18.893   8.362  -0.707  1.00  0.00     0.001 A 
ATOM     73  C   UNL     1     -19.912   7.439  -0.476  1.00  0.00     0.000 A 
ENDBRANCH  54  68
BRANCH  55  74
ATOM     74  C   UNL     1      -9.670   7.762   7.136  1.00  0.00    -0.014 A 
ATOM     75  C   UNL     1      -9.796   7.627   8.527  1.00  0.00     0.009 A 
ATOM     76  C   UNL     1      -8.395   7.960   6.585  1.00  0.00     0.009 A 
ATOM     77  C   UNL     1      -8.671   7.712   9.349  1.00  0.00     0.001 A 
ATOM     78  C   UNL     1      -7.269   8.020   7.407  1.00  0.00     0.001 A 
ATOM     79  C   UNL     1      -7.408   7.904   8.789  1.00  0.00     0.000 A 
ENDBRANCH  55  74
BRANCH  67  80
ATOM     80  C   UNL     1     -15.014  12.103   6.171  1.00  0.00    -0.014 A 
ATOM     81  C   UNL     1     -14.309  13.274   5.853  1.00  0.00     0.009 A 
ATOM     82  C   UNL     1     -16.081  12.177   7.080  1.00  0.00     0.009 A 
ATOM     83  C   UNL     1     -14.641  14.486   6.462  1.00  0.00     0.001 A 
ATOM     84  C   UNL     1     -16.428  13.394   7.668  1.00  0.00     0.001 A 
ATOM     85  C   UNL     1     -15.701  14.545   7.367  1.00  0.00     0.000 A 
ENDBRANCH  67  80
ENDBRANCH  41  42
ENDBRANCH  34  36
ENDBRANCH  33  34
ENDBRANCH  32  33
ENDBRANCH  31  32
ENDBRANCH   1  31
TORSDOF 17
