REMARK SMILES Cc1oc2c(c1C(=O)OCCOCCOC(=O)c1ccc(-c3c4nc(c(-c5ccccc5)c5ccc([nH]5)c(-c5ccccc5)c5nc(c(-c6ccccc6)c6ccc3[nH]6)C=C5)C=C4)cc1)C(=O)C[C@H](c1ccco1)C2
REMARK SMILES IDX 13 1 12 2 11 3 10 4 9 5 7 6 8 7 6 8 1 9 2 10 3 11 4 12 5 13
REMARK SMILES IDX 75 14 66 15 69 16 67 17 68 18 70 19 71 20 74 21 72 22 73 23
REMARK SMILES IDX 14 24 15 25 16 26 17 27 18 28 19 29 65 30 20 31 64 32 21 33
REMARK SMILES IDX 22 34 23 35 58 36 24 37 63 38 57 39 59 40 25 41 62 42 56 43
REMARK SMILES IDX 55 44 26 46 48 47 33 48 47 49 34 50 37 51 46 52 60 53 35 54
REMARK SMILES IDX 36 55 45 57 61 58 38 59 27 60 28 61 32 62 29 63 31 64 30 65
REMARK SMILES IDX 49 66 50 67 54 68 51 69 53 70 52 71 39 72 40 73 44 74 41 75
REMARK SMILES IDX 43 76 42 77
REMARK H PARENT 59 45 37 56
REMARK Flexibility Score: inf
ROOT
ATOM      1  C   UNL     1       3.401   4.683  -2.214  1.00  0.00     0.202 C 
ENDROOT
BRANCH   1   2
ATOM      2  O   UNL     1       4.772   4.623  -1.839  1.00  0.00    -0.374 OA
BRANCH   2   3
ATOM      3  C   UNL     1       5.335   3.396  -1.381  1.00  0.00     0.202 C 
BRANCH   3   4
ATOM      4  C   UNL     1       4.807   2.794  -0.077  1.00  0.00     0.261 C 
BRANCH   4   5
ATOM      5  O   UNL     1       3.426   2.406  -0.168  1.00  0.00    -0.460 OA
BRANCH   5   6
ATOM      6  C   UNL     1       2.578   3.125   0.627  1.00  0.00     0.342 C 
ATOM      7  O   UNL     1       2.928   3.960   1.445  1.00  0.00    -0.246 OA
BRANCH   6   8
ATOM      8  C   UNL     1       1.179   2.846   0.367  1.00  0.00     0.112 A 
ATOM      9  C   UNL     1       1.053   0.222   0.055  1.00  0.00     0.088 C 
ATOM     10  C   UNL     1       0.570   1.614   0.171  1.00  0.00     0.116 A 
ATOM     11  O   UNL     1      -0.794   1.756   0.149  1.00  0.00    -0.465 OA
ATOM     12  C   UNL     1      -1.041   3.079   0.277  1.00  0.00     0.116 A 
ATOM     13  C   UNL     1       0.123   3.799   0.317  1.00  0.00     0.074 A 
ATOM     14  C   UNL     1      -2.427   3.583   0.383  1.00  0.00     0.088 C 
ATOM     15  C   UNL     1       0.082   5.246   0.308  1.00  0.00     0.168 C 
ATOM     16  C   UNL     1      -2.452   5.090   0.009  1.00  0.00     0.071 C 
ATOM     17  O   UNL     1       1.061   5.929   0.028  1.00  0.00    -0.294 OA
ATOM     18  C   UNL     1      -1.269   5.874   0.632  1.00  0.00     0.093 C 
BRANCH  16  19
ATOM     19  C   UNL     1      -3.752   5.742   0.378  1.00  0.00     0.107 A 
ATOM     20  C   UNL     1      -4.281   6.995   0.135  1.00  0.00     0.046 A 
ATOM     21  O   UNL     1      -4.637   5.008   1.112  1.00  0.00    -0.469 OA
ATOM     22  C   UNL     1      -5.552   7.024   0.760  1.00  0.00     0.042 A 
ATOM     23  C   UNL     1      -5.722   5.789   1.338  1.00  0.00     0.195 A 
ENDBRANCH  16  19
ENDBRANCH   6   8
ENDBRANCH   5   6
ENDBRANCH   4   5
ENDBRANCH   3   4
ENDBRANCH   2   3
ENDBRANCH   1   2
BRANCH   1  24
ATOM     24  C   UNL     1       2.974   3.967  -3.486  1.00  0.00     0.261 C 
BRANCH  24  25
ATOM     25  O   UNL     1       3.290   2.582  -3.476  1.00  0.00    -0.460 OA
BRANCH  25  26
ATOM     26  C   UNL     1       4.368   2.263  -4.229  1.00  0.00     0.338 C 
ATOM     27  O   UNL     1       5.236   3.013  -4.638  1.00  0.00    -0.246 OA
BRANCH  26  28
ATOM     28  C   UNL     1       4.239   0.864  -4.652  1.00  0.00     0.060 A 
ATOM     29  C   UNL     1       5.203   0.399  -5.548  1.00  0.00     0.016 A 
ATOM     30  C   UNL     1       3.042   0.169  -4.418  1.00  0.00     0.016 A 
ATOM     31  C   UNL     1       4.861  -0.638  -6.385  1.00  0.00     0.010 A 
ATOM     32  C   UNL     1       2.700  -0.862  -5.259  1.00  0.00     0.010 A 
ATOM     33  C   UNL     1       3.574  -1.184  -6.291  1.00  0.00    -0.014 A 
BRANCH  33  34
ATOM     34  C   UNL     1       3.196  -2.186  -7.261  1.00  0.00     0.031 A 
ATOM     35  C   UNL     1       3.927  -3.455  -7.071  1.00  0.00     0.074 A 
ATOM     36  C   UNL     1       2.237  -1.992  -8.184  1.00  0.00     0.049 A 
ATOM     37  N   UNL     1       4.847  -3.942  -7.830  1.00  0.00    -0.248 NA
ATOM     38  C   UNL     1       3.752  -4.164  -5.793  1.00  0.00     0.031 C 
ATOM     39  C   UNL     1       1.278  -0.890  -8.299  1.00  0.00     0.029 A 
ATOM     40  N   UNL     1       1.857  -2.826  -9.184  1.00  0.00    -0.354 N 
ATOM     41  C   UNL     1       5.240  -5.129  -7.226  1.00  0.00     0.074 A 
ATOM     42  C   UNL     1       4.671  -5.123  -5.902  1.00  0.00     0.031 C 
ATOM     43  C   UNL     1       0.284  -1.252  -9.147  1.00  0.00     0.029 A 
ATOM     44  C   UNL     1       0.619  -2.537  -9.740  1.00  0.00     0.049 A 
ATOM     45  H   UNL     1       2.416  -3.577  -9.491  1.00  0.00     0.167 HD
ATOM     46  C   UNL     1       5.782  -6.139  -7.956  1.00  0.00     0.031 A 
ATOM     47  C   UNL     1      -0.089  -3.340 -10.574  1.00  0.00     0.031 A 
ATOM     48  C   UNL     1       6.232  -5.682  -9.245  1.00  0.00     0.049 A 
ATOM     49  C   UNL     1       0.862  -4.316 -11.160  1.00  0.00     0.074 A 
ATOM     50  C   UNL     1       7.178  -4.776  -9.678  1.00  0.00     0.029 A 
ATOM     51  N   UNL     1       5.383  -5.888 -10.306  1.00  0.00    -0.354 N 
ATOM     52  N   UNL     1       1.813  -3.978 -11.983  1.00  0.00    -0.248 NA
ATOM     53  C   UNL     1       1.059  -5.578 -10.461  1.00  0.00     0.031 C 
ATOM     54  C   UNL     1       6.583  -4.134 -10.802  1.00  0.00     0.029 A 
ATOM     55  C   UNL     1       5.343  -4.732 -11.039  1.00  0.00     0.049 A 
ATOM     56  H   UNL     1       4.892  -6.718 -10.504  1.00  0.00     0.167 HD
ATOM     57  C   UNL     1       2.909  -4.731 -11.584  1.00  0.00     0.074 A 
ATOM     58  C   UNL     1       2.361  -5.761 -10.700  1.00  0.00     0.031 C 
ATOM     59  C   UNL     1       4.182  -4.277 -11.772  1.00  0.00     0.031 A 
BRANCH  46  60
ATOM     60  C   UNL     1       5.480  -7.588  -7.685  1.00  0.00    -0.014 A 
ATOM     61  C   UNL     1       6.099  -8.561  -8.488  1.00  0.00     0.009 A 
ATOM     62  C   UNL     1       4.398  -8.013  -6.889  1.00  0.00     0.009 A 
ATOM     63  C   UNL     1       5.604  -9.868  -8.551  1.00  0.00     0.001 A 
ATOM     64  C   UNL     1       3.928  -9.326  -6.919  1.00  0.00     0.001 A 
ATOM     65  C   UNL     1       4.513 -10.247  -7.774  1.00  0.00     0.000 A 
ENDBRANCH  46  60
BRANCH  47  66
ATOM     66  C   UNL     1      -1.555  -3.546 -10.630  1.00  0.00    -0.014 A 
ATOM     67  C   UNL     1      -2.155  -4.179 -11.731  1.00  0.00     0.009 A 
ATOM     68  C   UNL     1      -2.334  -3.382  -9.469  1.00  0.00     0.009 A 
ATOM     69  C   UNL     1      -3.471  -4.661 -11.659  1.00  0.00     0.001 A 
ATOM     70  C   UNL     1      -3.647  -3.863  -9.397  1.00  0.00     0.001 A 
ATOM     71  C   UNL     1      -4.211  -4.515 -10.488  1.00  0.00     0.000 A 
ENDBRANCH  47  66
BRANCH  59  72
ATOM     72  C   UNL     1       4.382  -3.048 -12.624  1.00  0.00    -0.014 A 
ATOM     73  C   UNL     1       3.903  -1.775 -12.268  1.00  0.00     0.009 A 
ATOM     74  C   UNL     1       5.247  -3.152 -13.723  1.00  0.00     0.009 A 
ATOM     75  C   UNL     1       4.277  -0.642 -13.001  1.00  0.00     0.001 A 
ATOM     76  C   UNL     1       5.635  -2.020 -14.441  1.00  0.00     0.001 A 
ATOM     77  C   UNL     1       5.150  -0.765 -14.081  1.00  0.00     0.000 A 
ENDBRANCH  59  72
ENDBRANCH  33  34
ENDBRANCH  26  28
ENDBRANCH  25  26
ENDBRANCH  24  25
ENDBRANCH   1  24
TORSDOF 15
