REMARK SMILES CC[C@](C)(NC(=O)c1cccc2ncccc12)C(=O)OCCOCCOC(=O)c1ccc(-c2c3nc(c(-c4ccccc4)c4ccc([nH]4)c(-c4ccccc4)c4nc(c(-c5ccccc5)c5ccc2[nH]5)C=C4)C=C3)cc1
REMARK SMILES IDX 23 1 22 2 21 3 20 4 18 5 19 6 3 7 4 8 2 9 1 10 5 11 6 12
REMARK SMILES IDX 7 14 8 15 9 16 17 17 10 18 12 19 16 20 11 21 13 22 15 23
REMARK SMILES IDX 14 24 24 25 25 26 26 27 27 28 28 29 29 30 30 31 76 32 31 33
REMARK SMILES IDX 75 34 32 35 33 36 34 37 69 38 35 39 74 40 68 41 70 42 36 43
REMARK SMILES IDX 73 44 67 45 66 46 37 48 59 49 44 50 58 51 45 52 48 53 57 54
REMARK SMILES IDX 71 55 46 56 47 57 56 59 72 60 49 61 38 62 39 63 43 64 40 65
REMARK SMILES IDX 42 66 41 67 60 68 61 69 65 70 62 71 64 72 63 73 50 74 51 75
REMARK SMILES IDX 55 76 52 77 54 78 53 79
REMARK H PARENT 5 13 70 47 48 58
REMARK Flexibility Score: inf
ROOT
ATOM      1  O   UNL     1       3.441   0.789   3.000  1.00  0.00    -0.374 OA
ENDROOT
BRANCH   1   2
ATOM      2  C   UNL     1       3.931  -0.185   2.065  1.00  0.00     0.202 C 
BRANCH   2   3
ATOM      3  C   UNL     1       4.411   0.495   0.746  1.00  0.00     0.261 C 
BRANCH   3   4
ATOM      4  O   UNL     1       3.553   1.571   0.363  1.00  0.00    -0.462 OA
BRANCH   4   5
ATOM      5  C   UNL     1       2.280   1.187   0.160  1.00  0.00     0.331 C 
ATOM      6  O   UNL     1       1.973   0.183  -0.485  1.00  0.00    -0.249 OA
BRANCH   5   7
ATOM      7  C   UNL     1       1.293   2.163   0.814  1.00  0.00     0.135 C 
ATOM      8  C   UNL     1       0.059   1.293   1.254  1.00  0.00     0.047 C 
BRANCH   7   9
ATOM      9  C   UNL     1       0.756   3.213  -0.192  1.00  0.00     0.037 C 
ATOM     10  C   UNL     1       0.519   2.686  -1.610  1.00  0.00     0.007 C 
ENDBRANCH   7   9
BRANCH   7  11
ATOM     11  N   UNL     1       1.871   2.850   2.059  1.00  0.00    -0.336 N 
ATOM     12  C   UNL     1       2.991   3.658   2.309  1.00  0.00     0.252 C 
ATOM     13  H   UNL     1       1.334   2.686   2.867  1.00  0.00     0.165 HD
ATOM     14  O   UNL     1       2.725   4.860   2.454  1.00  0.00    -0.269 OA
BRANCH  12  15
ATOM     15  C   UNL     1       4.493   3.259   2.477  1.00  0.00     0.049 A 
ATOM     16  C   UNL     1       5.207   3.940   1.485  1.00  0.00     0.014 A 
ATOM     17  C   UNL     1       5.301   2.524   3.567  1.00  0.00     0.013 A 
ATOM     18  C   UNL     1       6.590   3.889   1.440  1.00  0.00     0.003 A 
ATOM     19  C   UNL     1       6.706   2.485   3.425  1.00  0.00     0.071 A 
ATOM     20  C   UNL     1       4.989   1.852   4.832  1.00  0.00     0.013 A 
ATOM     21  C   UNL     1       7.301   3.153   2.382  1.00  0.00     0.029 A 
ATOM     22  N   UNL     1       7.597   1.896   4.263  1.00  0.00    -0.256 NA
ATOM     23  C   UNL     1       5.876   1.253   5.734  1.00  0.00     0.021 A 
ATOM     24  C   UNL     1       7.185   1.294   5.390  1.00  0.00     0.112 A 
ENDBRANCH  12  15
ENDBRANCH   7  11
ENDBRANCH   5   7
ENDBRANCH   4   5
ENDBRANCH   3   4
ENDBRANCH   2   3
ENDBRANCH   1   2
BRANCH   1  25
ATOM     25  C   UNL     1       2.279   0.568   3.794  1.00  0.00     0.202 C 
BRANCH  25  26
ATOM     26  C   UNL     1       1.807   1.768   4.821  1.00  0.00     0.261 C 
BRANCH  26  27
ATOM     27  O   UNL     1       2.420   3.135   4.721  1.00  0.00    -0.460 OA
BRANCH  27  28
ATOM     28  C   UNL     1       2.773   3.913   5.805  1.00  0.00     0.338 C 
ATOM     29  O   UNL     1       2.531   3.602   6.963  1.00  0.00    -0.246 OA
BRANCH  28  30
ATOM     30  C   UNL     1       3.571   5.190   5.477  1.00  0.00     0.060 A 
ATOM     31  C   UNL     1       4.942   5.165   5.170  1.00  0.00     0.016 A 
ATOM     32  C   UNL     1       3.036   6.470   5.657  1.00  0.00     0.016 A 
ATOM     33  C   UNL     1       5.705   6.316   4.853  1.00  0.00     0.010 A 
ATOM     34  C   UNL     1       3.820   7.647   5.430  1.00  0.00     0.010 A 
ATOM     35  C   UNL     1       5.159   7.589   4.993  1.00  0.00    -0.014 A 
BRANCH  35  36
ATOM     36  C   UNL     1       6.022   8.818   4.876  1.00  0.00     0.031 A 
ATOM     37  C   UNL     1       6.761   9.321   6.096  1.00  0.00     0.074 A 
ATOM     38  C   UNL     1       6.220   9.487   3.719  1.00  0.00     0.049 A 
ATOM     39  N   UNL     1       7.362  10.468   6.304  1.00  0.00    -0.248 NA
ATOM     40  C   UNL     1       6.846   8.387   7.227  1.00  0.00     0.031 C 
ATOM     41  C   UNL     1       5.762   9.060   2.400  1.00  0.00     0.029 A 
ATOM     42  N   UNL     1       6.864  10.686   3.472  1.00  0.00    -0.354 N 
ATOM     43  C   UNL     1       7.851  10.413   7.606  1.00  0.00     0.074 A 
ATOM     44  C   UNL     1       7.503   9.106   8.125  1.00  0.00     0.031 C 
ATOM     45  C   UNL     1       6.105   9.996   1.492  1.00  0.00     0.029 A 
ATOM     46  C   UNL     1       6.747  11.123   2.171  1.00  0.00     0.049 A 
ATOM     47  H   UNL     1       7.359  11.182   4.163  1.00  0.00     0.167 HD
ATOM     48  C   UNL     1       8.500  11.366   8.321  1.00  0.00     0.031 A 
ATOM     49  C   UNL     1       7.060  12.310   1.601  1.00  0.00     0.031 A 
ATOM     50  C   UNL     1       8.839  12.675   7.823  1.00  0.00     0.049 A 
ATOM     51  C   UNL     1       7.639  13.423   2.446  1.00  0.00     0.074 A 
ATOM     52  C   UNL     1       9.435  13.730   8.494  1.00  0.00     0.029 A 
ATOM     53  N   UNL     1       8.613  13.106   6.526  1.00  0.00    -0.354 N 
ATOM     54  N   UNL     1       7.992  13.408   3.709  1.00  0.00    -0.248 NA
ATOM     55  C   UNL     1       7.843  14.727   1.789  1.00  0.00     0.031 C 
ATOM     56  C   UNL     1       9.516  14.819   7.618  1.00  0.00     0.029 A 
ATOM     57  C   UNL     1       9.033  14.419   6.383  1.00  0.00     0.049 A 
ATOM     58  H   UNL     1       8.213  12.560   5.811  1.00  0.00     0.167 HD
ATOM     59  C   UNL     1       8.476  14.683   3.989  1.00  0.00     0.074 A 
ATOM     60  C   UNL     1       8.388  15.445   2.762  1.00  0.00     0.031 C 
ATOM     61  C   UNL     1       8.949  15.175   5.160  1.00  0.00     0.031 A 
BRANCH  48  62
ATOM     62  C   UNL     1       8.789  11.059   9.767  1.00  0.00    -0.014 A 
ATOM     63  C   UNL     1       9.777  10.140  10.151  1.00  0.00     0.009 A 
ATOM     64  C   UNL     1       8.039  11.704  10.765  1.00  0.00     0.009 A 
ATOM     65  C   UNL     1       9.973   9.837  11.502  1.00  0.00     0.001 A 
ATOM     66  C   UNL     1       8.257  11.422  12.114  1.00  0.00     0.001 A 
ATOM     67  C   UNL     1       9.213  10.478  12.481  1.00  0.00     0.000 A 
ENDBRANCH  48  62
BRANCH  49  68
ATOM     68  C   UNL     1       6.747  12.568   0.162  1.00  0.00    -0.014 A 
ATOM     69  C   UNL     1       7.768  12.800  -0.775  1.00  0.00     0.009 A 
ATOM     70  C   UNL     1       5.413  12.640  -0.272  1.00  0.00     0.009 A 
ATOM     71  C   UNL     1       7.458  13.107  -2.105  1.00  0.00     0.001 A 
ATOM     72  C   UNL     1       5.107  12.915  -1.607  1.00  0.00     0.001 A 
ATOM     73  C   UNL     1       6.129  13.155  -2.522  1.00  0.00     0.000 A 
ENDBRANCH  49  68
BRANCH  61  74
ATOM     74  C   UNL     1       9.457  16.593   5.172  1.00  0.00    -0.014 A 
ATOM     75  C   UNL     1       8.581  17.688   5.111  1.00  0.00     0.009 A 
ATOM     76  C   UNL     1      10.835  16.835   5.300  1.00  0.00     0.009 A 
ATOM     77  C   UNL     1       9.078  18.994   5.149  1.00  0.00     0.001 A 
ATOM     78  C   UNL     1      11.326  18.140   5.365  1.00  0.00     0.001 A 
ATOM     79  C   UNL     1      10.448  19.219   5.281  1.00  0.00     0.000 A 
ENDBRANCH  61  74
ENDBRANCH  35  36
ENDBRANCH  28  30
ENDBRANCH  27  28
ENDBRANCH  26  27
ENDBRANCH  25  26
ENDBRANCH   1  25
TORSDOF 17
