REMARK SMILES Cc1ccc([C@H](C)Nc2ccc(C(=O)OCCOCCOC(=O)c3ccc(-c4c5nc(c(-c6ccccc6)c6ccc([nH]6)c(-c6ccccc6)c6nc(c(-c7ccccc7)c7ccc4[nH]7)C=C6)C=C5)cc3)cc2Cl)cc1F
REMARK SMILES IDX 17 1 16 2 15 3 13 4 14 5 12 6 9 7 10 8 73 9 11 10 72 11
REMARK SMILES IDX 74 12 8 13 6 15 7 16 5 17 1 18 2 19 3 20 76 21 4 22 75 23
REMARK SMILES IDX 77 24 18 25 19 26 20 27 21 28 22 29 23 30 24 31 25 32 71 33
REMARK SMILES IDX 26 34 70 35 27 36 28 37 29 38 64 39 30 40 69 41 63 42 65 43
REMARK SMILES IDX 31 44 68 45 62 46 61 47 32 49 54 50 39 51 53 52 40 53 43 54
REMARK SMILES IDX 52 55 66 56 41 57 42 58 51 60 67 61 44 62 33 63 34 64 38 65
REMARK SMILES IDX 35 66 37 67 36 68 55 69 56 70 60 71 57 72 59 73 58 74 45 75
REMARK SMILES IDX 46 76 50 77 47 78 49 79 48 80
REMARK H PARENT 8 14 65 48 43 59
REMARK Flexibility Score: inf
ROOT
ATOM      1  C   UNL     1      -9.289  -2.671   6.810  1.00  0.00     0.202 C 
ENDROOT
BRANCH   1   2
ATOM      2  C   UNL     1      -9.042  -1.335   6.103  1.00  0.00     0.261 C 
BRANCH   2   3
ATOM      3  O   UNL     1      -8.154  -1.481   4.986  1.00  0.00    -0.460 OA
BRANCH   3   4
ATOM      4  C   UNL     1      -6.898  -1.019   5.189  1.00  0.00     0.338 C 
ATOM      5  O   UNL     1      -6.480  -0.425   6.172  1.00  0.00    -0.246 OA
BRANCH   4   6
ATOM      6  C   UNL     1      -6.018  -1.477   4.096  1.00  0.00     0.061 A 
ATOM      7  C   UNL     1      -4.248  -2.331   2.063  1.00  0.00     0.053 A 
ATOM      8  C   UNL     1      -3.831  -2.232   3.403  1.00  0.00     0.028 A 
ATOM      9  C   UNL     1      -5.594  -2.009   1.776  1.00  0.00     0.065 A 
ATOM     10  C   UNL     1      -4.697  -1.800   4.407  1.00  0.00     0.018 A 
ATOM     11  C   UNL     1      -6.475  -1.606   2.787  1.00  0.00     0.038 A 
ATOM     12  Cl  UNL     1      -6.299  -2.162   0.203  1.00  0.00    -0.082 Cl
BRANCH   7  13
ATOM     13  N   UNL     1      -3.279  -2.688   1.137  1.00  0.00    -0.377 N 
ATOM     14  H   UNL     1      -2.753  -3.502   1.308  1.00  0.00     0.161 HD
BRANCH  13  15
ATOM     15  C   UNL     1      -2.991  -1.926  -0.079  1.00  0.00     0.106 C 
ATOM     16  C   UNL     1      -1.825  -0.975   0.238  1.00  0.00     0.036 C 
BRANCH  15  17
ATOM     17  C   UNL     1      -2.802  -2.909  -1.232  1.00  0.00    -0.023 A 
ATOM     18  C   UNL     1      -2.831  -5.497  -4.716  1.00  0.00     0.047 C 
ATOM     19  C   UNL     1      -2.776  -4.625  -3.502  1.00  0.00    -0.015 A 
ATOM     20  C   UNL     1      -1.827  -3.608  -3.363  1.00  0.00     0.007 A 
ATOM     21  C   UNL     1      -3.717  -4.791  -2.493  1.00  0.00     0.126 A 
ATOM     22  C   UNL     1      -1.841  -2.759  -2.244  1.00  0.00     0.006 A 
ATOM     23  C   UNL     1      -3.727  -3.962  -1.378  1.00  0.00     0.045 A 
ATOM     24  F   UNL     1      -4.653  -5.746  -2.598  1.00  0.00    -0.207 F 
ENDBRANCH  15  17
ENDBRANCH  13  15
ENDBRANCH   7  13
ENDBRANCH   4   6
ENDBRANCH   3   4
ENDBRANCH   2   3
ENDBRANCH   1   2
BRANCH   1  25
ATOM     25  O   UNL     1      -8.164  -3.306   7.413  1.00  0.00    -0.374 OA
BRANCH  25  26
ATOM     26  C   UNL     1      -7.291  -4.050   6.564  1.00  0.00     0.202 C 
BRANCH  26  27
ATOM     27  C   UNL     1      -7.757  -5.444   6.123  1.00  0.00     0.261 C 
BRANCH  27  28
ATOM     28  O   UNL     1      -8.931  -5.398   5.294  1.00  0.00    -0.460 OA
BRANCH  28  29
ATOM     29  C   UNL     1     -10.069  -5.800   5.909  1.00  0.00     0.338 C 
ATOM     30  O   UNL     1     -10.187  -6.240   7.040  1.00  0.00    -0.246 OA
BRANCH  29  31
ATOM     31  C   UNL     1     -11.232  -5.464   5.069  1.00  0.00     0.060 A 
ATOM     32  C   UNL     1     -12.249  -4.694   5.647  1.00  0.00     0.016 A 
ATOM     33  C   UNL     1     -11.364  -5.957   3.770  1.00  0.00     0.016 A 
ATOM     34  C   UNL     1     -13.427  -4.455   4.946  1.00  0.00     0.010 A 
ATOM     35  C   UNL     1     -12.550  -5.721   3.069  1.00  0.00     0.010 A 
ATOM     36  C   UNL     1     -13.601  -5.001   3.668  1.00  0.00    -0.014 A 
BRANCH  36  37
ATOM     37  C   UNL     1     -14.929  -4.931   3.014  1.00  0.00     0.031 A 
ATOM     38  C   UNL     1     -15.805  -6.154   2.998  1.00  0.00     0.074 A 
ATOM     39  C   UNL     1     -15.359  -3.786   2.456  1.00  0.00     0.049 A 
ATOM     40  N   UNL     1     -16.981  -6.324   2.450  1.00  0.00    -0.248 NA
ATOM     41  C   UNL     1     -15.282  -7.343   3.688  1.00  0.00     0.031 C 
ATOM     42  C   UNL     1     -14.620  -2.525   2.438  1.00  0.00     0.029 A 
ATOM     43  N   UNL     1     -16.524  -3.507   1.787  1.00  0.00    -0.354 N 
ATOM     44  C   UNL     1     -17.332  -7.642   2.717  1.00  0.00     0.074 A 
ATOM     45  C   UNL     1     -16.231  -8.234   3.445  1.00  0.00     0.031 C 
ATOM     46  C   UNL     1     -15.345  -1.607   1.778  1.00  0.00     0.029 A 
ATOM     47  C   UNL     1     -16.578  -2.226   1.297  1.00  0.00     0.049 A 
ATOM     48  H   UNL     1     -17.250  -4.161   1.670  1.00  0.00     0.167 HD
ATOM     49  C   UNL     1     -18.471  -8.299   2.390  1.00  0.00     0.031 A 
ATOM     50  C   UNL     1     -17.504  -1.628   0.522  1.00  0.00     0.031 A 
ATOM     51  C   UNL     1     -19.557  -7.713   1.647  1.00  0.00     0.049 A 
ATOM     52  C   UNL     1     -18.727  -2.399   0.105  1.00  0.00     0.074 A 
ATOM     53  C   UNL     1     -20.762  -8.288   1.283  1.00  0.00     0.029 A 
ATOM     54  N   UNL     1     -19.561  -6.422   1.143  1.00  0.00    -0.354 N 
ATOM     55  N   UNL     1     -19.067  -3.633   0.394  1.00  0.00    -0.248 NA
ATOM     56  C   UNL     1     -19.701  -1.690  -0.736  1.00  0.00     0.031 C 
ATOM     57  C   UNL     1     -21.466  -7.367   0.500  1.00  0.00     0.029 A 
ATOM     58  C   UNL     1     -20.733  -6.193   0.440  1.00  0.00     0.049 A 
ATOM     59  H   UNL     1     -18.839  -5.764   1.266  1.00  0.00     0.167 HD
ATOM     60  C   UNL     1     -20.303  -3.838  -0.206  1.00  0.00     0.074 A 
ATOM     61  C   UNL     1     -20.661  -2.596  -0.860  1.00  0.00     0.031 C 
ATOM     62  C   UNL     1     -21.074  -4.954  -0.213  1.00  0.00     0.031 A 
BRANCH  49  63
ATOM     63  C   UNL     1     -18.576  -9.744   2.798  1.00  0.00    -0.014 A 
ATOM     64  C   UNL     1     -18.689 -10.121   4.146  1.00  0.00     0.009 A 
ATOM     65  C   UNL     1     -18.575 -10.745   1.814  1.00  0.00     0.009 A 
ATOM     66  C   UNL     1     -18.752 -11.471   4.501  1.00  0.00     0.001 A 
ATOM     67  C   UNL     1     -18.672 -12.091   2.169  1.00  0.00     0.001 A 
ATOM     68  C   UNL     1     -18.747 -12.454   3.513  1.00  0.00     0.000 A 
ENDBRANCH  49  63
BRANCH  50  69
ATOM     69  C   UNL     1     -17.293  -0.229   0.066  1.00  0.00    -0.014 A 
ATOM     70  C   UNL     1     -18.102   0.814   0.540  1.00  0.00     0.009 A 
ATOM     71  C   UNL     1     -16.273   0.069  -0.852  1.00  0.00     0.009 A 
ATOM     72  C   UNL     1     -17.909   2.121   0.086  1.00  0.00     0.001 A 
ATOM     73  C   UNL     1     -16.061   1.381  -1.279  1.00  0.00     0.001 A 
ATOM     74  C   UNL     1     -16.886   2.404  -0.817  1.00  0.00     0.000 A 
ENDBRANCH  50  69
BRANCH  62  75
ATOM     75  C   UNL     1     -22.401  -4.873  -0.919  1.00  0.00    -0.014 A 
ATOM     76  C   UNL     1     -22.486  -4.791  -2.317  1.00  0.00     0.009 A 
ATOM     77  C   UNL     1     -23.588  -4.920  -0.170  1.00  0.00     0.009 A 
ATOM     78  C   UNL     1     -23.731  -4.722  -2.947  1.00  0.00     0.001 A 
ATOM     79  C   UNL     1     -24.831  -4.885  -0.804  1.00  0.00     0.001 A 
ATOM     80  C   UNL     1     -24.901  -4.775  -2.191  1.00  0.00     0.000 A 
ENDBRANCH  62  75
ENDBRANCH  36  37
ENDBRANCH  29  31
ENDBRANCH  28  29
ENDBRANCH  27  28
ENDBRANCH  26  27
ENDBRANCH  25  26
ENDBRANCH   1  25
TORSDOF 17
