REMARK SMILES CCCc1cc2c(cc1Cl)C=C(C(=O)OCCOCCOC(=O)c1ccc(-c3c4nc(c(-c5ccccc5)c5ccc([nH]5)c(-c5ccccc5)c5nc(c(-c6ccccc6)c6ccc3[nH]6)C=C5)C=C4)cc1)[C@@H](C(F)(F)F)O2
REMARK SMILES IDX 18 1 17 2 16 3 15 4 13 5 14 6 12 7 4 8 5 9 9 10 6 11 8 12
REMARK SMILES IDX 10 13 7 14 77 15 11 16 72 17 3 18 2 19 1 20 73 21 74 22
REMARK SMILES IDX 75 23 76 24 19 25 20 26 21 27 22 28 23 29 24 30 25 31 71 32
REMARK SMILES IDX 26 33 70 34 27 35 28 36 29 37 64 38 30 39 69 40 63 41 65 42
REMARK SMILES IDX 31 43 68 44 62 45 61 46 32 48 54 49 39 50 53 51 40 52 43 53
REMARK SMILES IDX 52 54 66 55 41 56 42 57 51 59 67 60 44 61 33 62 34 63 38 64
REMARK SMILES IDX 35 65 37 66 36 67 55 68 56 69 60 70 57 71 59 72 58 73 45 74
REMARK SMILES IDX 46 75 50 76 47 77 49 78 48 79
REMARK H PARENT 65 47 43 58
REMARK Flexibility Score: inf
ROOT
ATOM      1  O   UNL     1      -2.454   9.996  -1.065  1.00  0.00    -0.374 OA
ENDROOT
BRANCH   1   2
ATOM      2  C   UNL     1      -2.793   9.839  -2.439  1.00  0.00     0.202 C 
BRANCH   2   3
ATOM      3  C   UNL     1      -1.913   8.924  -3.295  1.00  0.00     0.261 C 
BRANCH   3   4
ATOM      4  O   UNL     1      -1.817   7.603  -2.744  1.00  0.00    -0.460 OA
BRANCH   4   5
ATOM      5  C   UNL     1      -0.599   7.303  -2.234  1.00  0.00     0.338 C 
ATOM      6  O   UNL     1       0.416   7.974  -2.315  1.00  0.00    -0.246 OA
BRANCH   5   7
ATOM      7  C   UNL     1      -0.691   6.072  -1.428  1.00  0.00     0.087 C 
ATOM      8  C   UNL     1       0.530   2.318   1.637  1.00  0.00    -0.026 A 
ATOM      9  C   UNL     1      -0.432   2.485   0.625  1.00  0.00     0.052 A 
ATOM     10  C   UNL     1       1.157   3.474   2.141  1.00  0.00     0.045 A 
ATOM     11  C   UNL     1      -0.631   3.725   0.019  1.00  0.00     0.128 A 
ATOM     12  C   UNL     1       0.932   4.723   1.557  1.00  0.00     0.032 A 
ATOM     13  Cl  UNL     1       2.254   3.415   3.477  1.00  0.00    -0.084 Cl
ATOM     14  C   UNL     1       0.081   4.837   0.458  1.00  0.00     0.019 A 
ATOM     15  O   UNL     1      -1.530   3.761  -1.010  1.00  0.00    -0.475 OA
ATOM     16  C   UNL     1       0.003   6.080  -0.282  1.00  0.00     0.027 C 
ATOM     17  C   UNL     1      -1.496   4.900  -1.916  1.00  0.00     0.316 C 
BRANCH   8  18
ATOM     18  C   UNL     1       0.901   0.947   2.168  1.00  0.00     0.037 C 
BRANCH  18  19
ATOM     19  C   UNL     1       0.535  -0.279   1.317  1.00  0.00     0.001 C 
ATOM     20  C   UNL     1       1.244  -0.326  -0.032  1.00  0.00     0.004 C 
ENDBRANCH  18  19
ENDBRANCH   8  18
BRANCH  17  21
ATOM     21  C   UNL     1      -1.051   4.416  -3.304  1.00  0.00     0.430 C 
ATOM     22  F   UNL     1      -1.746   3.318  -3.688  1.00  0.00    -0.167 F 
ATOM     23  F   UNL     1      -1.263   5.358  -4.253  1.00  0.00    -0.167 F 
ATOM     24  F   UNL     1       0.262   4.097  -3.335  1.00  0.00    -0.167 F 
ENDBRANCH  17  21
ENDBRANCH   5   7
ENDBRANCH   4   5
ENDBRANCH   3   4
ENDBRANCH   2   3
ENDBRANCH   1   2
BRANCH   1  25
ATOM     25  C   UNL     1      -2.743   8.931  -0.161  1.00  0.00     0.202 C 
BRANCH  25  26
ATOM     26  C   UNL     1      -4.208   8.636   0.186  1.00  0.00     0.261 C 
BRANCH  26  27
ATOM     27  O   UNL     1      -4.976   8.196  -0.947  1.00  0.00    -0.460 OA
BRANCH  27  28
ATOM     28  C   UNL     1      -5.901   9.084  -1.388  1.00  0.00     0.338 C 
ATOM     29  O   UNL     1      -6.159  10.183  -0.919  1.00  0.00    -0.246 OA
BRANCH  28  30
ATOM     30  C   UNL     1      -6.442   8.620  -2.676  1.00  0.00     0.060 A 
ATOM     31  C   UNL     1      -7.083   7.385  -2.786  1.00  0.00     0.016 A 
ATOM     32  C   UNL     1      -6.335   9.470  -3.784  1.00  0.00     0.016 A 
ATOM     33  C   UNL     1      -7.636   7.011  -4.014  1.00  0.00     0.010 A 
ATOM     34  C   UNL     1      -6.884   9.093  -5.008  1.00  0.00     0.010 A 
ATOM     35  C   UNL     1      -7.554   7.867  -5.128  1.00  0.00    -0.014 A 
BRANCH  35  36
ATOM     36  C   UNL     1      -8.267   7.535  -6.385  1.00  0.00     0.031 A 
ATOM     37  C   UNL     1      -7.524   7.093  -7.609  1.00  0.00     0.074 A 
ATOM     38  C   UNL     1      -9.607   7.664  -6.417  1.00  0.00     0.049 A 
ATOM     39  N   UNL     1      -8.005   6.728  -8.770  1.00  0.00    -0.248 NA
ATOM     40  C   UNL     1      -6.056   7.058  -7.526  1.00  0.00     0.031 C 
ATOM     41  C   UNL     1     -10.432   8.106  -5.292  1.00  0.00     0.029 A 
ATOM     42  N   UNL     1     -10.511   7.430  -7.423  1.00  0.00    -0.354 N 
ATOM     43  C   UNL     1      -6.905   6.402  -9.551  1.00  0.00     0.074 A 
ATOM     44  C   UNL     1      -5.728   6.659  -8.749  1.00  0.00     0.031 C 
ATOM     45  C   UNL     1     -11.722   8.078  -5.658  1.00  0.00     0.029 A 
ATOM     46  C   UNL     1     -11.815   7.660  -7.054  1.00  0.00     0.049 A 
ATOM     47  H   UNL     1     -10.251   7.127  -8.323  1.00  0.00     0.167 HD
ATOM     48  C   UNL     1      -6.886   5.915 -10.815  1.00  0.00     0.031 A 
ATOM     49  C   UNL     1     -12.960   7.550  -7.756  1.00  0.00     0.031 A 
ATOM     50  C   UNL     1      -8.065   5.682 -11.610  1.00  0.00     0.049 A 
ATOM     51  C   UNL     1     -12.905   7.067  -9.180  1.00  0.00     0.074 A 
ATOM     52  C   UNL     1      -8.142   5.154 -12.888  1.00  0.00     0.029 A 
ATOM     53  N   UNL     1      -9.363   5.969 -11.217  1.00  0.00    -0.354 N 
ATOM     54  N   UNL     1     -11.863   6.687  -9.879  1.00  0.00    -0.248 NA
ATOM     55  C   UNL     1     -14.179   6.985  -9.909  1.00  0.00     0.031 C 
ATOM     56  C   UNL     1      -9.474   5.200 -13.299  1.00  0.00     0.029 A 
ATOM     57  C   UNL     1     -10.242   5.668 -12.245  1.00  0.00     0.049 A 
ATOM     58  H   UNL     1      -9.622   6.332 -10.339  1.00  0.00     0.167 HD
ATOM     59  C   UNL     1     -12.357   6.296 -11.117  1.00  0.00     0.074 A 
ATOM     60  C   UNL     1     -13.793   6.469 -11.070  1.00  0.00     0.031 C 
ATOM     61  C   UNL     1     -11.674   5.835 -12.193  1.00  0.00     0.031 A 
BRANCH  48  62
ATOM     62  C   UNL     1      -5.556   5.585 -11.435  1.00  0.00    -0.014 A 
ATOM     63  C   UNL     1      -5.114   6.292 -12.566  1.00  0.00     0.009 A 
ATOM     64  C   UNL     1      -4.804   4.487 -10.989  1.00  0.00     0.009 A 
ATOM     65  C   UNL     1      -3.966   5.892 -13.252  1.00  0.00     0.001 A 
ATOM     66  C   UNL     1      -3.637   4.109 -11.657  1.00  0.00     0.001 A 
ATOM     67  C   UNL     1      -3.227   4.802 -12.795  1.00  0.00     0.000 A 
ENDBRANCH  48  62
BRANCH  49  68
ATOM     68  C   UNL     1     -14.254   7.872  -7.095  1.00  0.00    -0.014 A 
ATOM     69  C   UNL     1     -14.540   9.184  -6.682  1.00  0.00     0.009 A 
ATOM     70  C   UNL     1     -15.185   6.859  -6.817  1.00  0.00     0.009 A 
ATOM     71  C   UNL     1     -15.711   9.469  -5.977  1.00  0.00     0.001 A 
ATOM     72  C   UNL     1     -16.373   7.154  -6.144  1.00  0.00     0.001 A 
ATOM     73  C   UNL     1     -16.629   8.455  -5.713  1.00  0.00     0.000 A 
ENDBRANCH  49  68
BRANCH  61  74
ATOM     74  C   UNL     1     -12.449   5.459 -13.428  1.00  0.00    -0.014 A 
ATOM     75  C   UNL     1     -12.468   4.119 -13.854  1.00  0.00     0.009 A 
ATOM     76  C   UNL     1     -13.033   6.438 -14.245  1.00  0.00     0.009 A 
ATOM     77  C   UNL     1     -13.021   3.774 -15.089  1.00  0.00     0.001 A 
ATOM     78  C   UNL     1     -13.617   6.084 -15.464  1.00  0.00     0.001 A 
ATOM     79  C   UNL     1     -13.596   4.756 -15.892  1.00  0.00     0.000 A 
ENDBRANCH  61  74
ENDBRANCH  35  36
ENDBRANCH  28  30
ENDBRANCH  27  28
ENDBRANCH  26  27
ENDBRANCH  25  26
ENDBRANCH   1  25
TORSDOF 17
