REMARK SMILES CC[C@H](C(=O)OCCOCCOC(=O)c1ccc(-c2c3nc(c(-c4ccccc4)c4ccc([nH]4)c(-c4ccccc4)c4nc(c(-c5ccccc5)c5ccc2[nH]5)C=C4)C=C3)cc1)N1C(=O)/C(=C\c2cccs2)SC1=S
REMARK SMILES IDX 9 1 8 2 7 3 6 4 4 5 5 6 3 7 2 8 1 9 63 10 64 11 74 12 65 13
REMARK SMILES IDX 66 14 73 15 75 16 67 17 68 18 69 19 72 20 70 21 71 22 10 23
REMARK SMILES IDX 11 24 12 25 13 26 14 27 15 28 16 29 62 30 17 31 61 32 18 33
REMARK SMILES IDX 19 34 20 35 55 36 21 37 60 38 54 39 56 40 22 41 59 42 53 43
REMARK SMILES IDX 52 44 23 46 45 47 30 48 44 49 31 50 34 51 43 52 57 53 32 54
REMARK SMILES IDX 33 55 42 57 58 58 35 59 24 60 25 61 29 62 26 63 28 64 27 65
REMARK SMILES IDX 46 66 47 67 51 68 48 69 50 70 49 71 36 72 37 73 41 74 38 75
REMARK SMILES IDX 40 76 39 77
REMARK H PARENT 56 45 34 56
REMARK Flexibility Score: inf
ROOT
ATOM      1  O   UNL     1       0.890  -3.340   0.126  1.00  0.00    -0.374 OA
ENDROOT
BRANCH   1   2
ATOM      2  C   UNL     1       0.448  -2.322  -0.773  1.00  0.00     0.202 C 
BRANCH   2   3
ATOM      3  C   UNL     1      -0.533  -1.278  -0.229  1.00  0.00     0.261 C 
BRANCH   3   4
ATOM      4  O   UNL     1       0.133  -0.337   0.639  1.00  0.00    -0.462 OA
BRANCH   4   5
ATOM      5  C   UNL     1      -0.463  -0.074   1.842  1.00  0.00     0.329 C 
ATOM      6  O   UNL     1      -1.519  -0.556   2.229  1.00  0.00    -0.250 OA
BRANCH   5   7
ATOM      7  C   UNL     1       0.358   0.967   2.629  1.00  0.00     0.201 C 
BRANCH   7   8
ATOM      8  C   UNL     1      -0.144   2.366   2.218  1.00  0.00     0.034 C 
ATOM      9  C   UNL     1      -0.517   2.559   0.749  1.00  0.00     0.007 C 
ENDBRANCH   7   8
BRANCH   7  10
ATOM     10  N   UNL     1       0.250   0.576   4.077  1.00  0.00    -0.278 N 
ATOM     11  C   UNL     1       0.766  -0.672   4.412  1.00  0.00     0.267 C 
ATOM     12  C   UNL     1      -0.179   1.294   5.170  1.00  0.00     0.149 C 
ATOM     13  O   UNL     1       1.621  -1.260   3.767  1.00  0.00    -0.268 OA
ATOM     14  C   UNL     1       0.229  -1.145   5.714  1.00  0.00     0.081 C 
ATOM     15  S   UNL     1      -0.440   0.209   6.540  1.00  0.00    -0.054 SA
ATOM     16  S   UNL     1      -0.379   2.935   5.387  1.00  0.00    -0.052 S 
ATOM     17  C   UNL     1       0.151  -2.388   6.210  1.00  0.00     0.040 C 
BRANCH  17  18
ATOM     18  C   UNL     1       0.597  -3.566   5.550  1.00  0.00     0.028 A 
ATOM     19  C   UNL     1       1.854  -3.924   5.095  1.00  0.00     0.020 A 
ATOM     20  S   UNL     1      -0.521  -4.854   5.296  1.00  0.00    -0.144 S 
ATOM     21  C   UNL     1       1.889  -5.226   4.514  1.00  0.00     0.012 A 
ATOM     22  C   UNL     1       0.658  -5.837   4.549  1.00  0.00     0.065 A 
ENDBRANCH  17  18
ENDBRANCH   7  10
ENDBRANCH   5   7
ENDBRANCH   4   5
ENDBRANCH   3   4
ENDBRANCH   2   3
ENDBRANCH   1   2
BRANCH   1  23
ATOM     23  C   UNL     1       1.618  -2.914   1.273  1.00  0.00     0.202 C 
BRANCH  23  24
ATOM     24  C   UNL     1       3.110  -2.604   1.094  1.00  0.00     0.261 C 
BRANCH  24  25
ATOM     25  O   UNL     1       3.396  -1.773  -0.040  1.00  0.00    -0.460 OA
BRANCH  25  26
ATOM     26  C   UNL     1       3.811  -2.453  -1.133  1.00  0.00     0.338 C 
ATOM     27  O   UNL     1       4.008  -3.659  -1.238  1.00  0.00    -0.246 OA
BRANCH  26  28
ATOM     28  C   UNL     1       3.876  -1.544  -2.284  1.00  0.00     0.060 A 
ATOM     29  C   UNL     1       3.075  -1.833  -3.395  1.00  0.00     0.016 A 
ATOM     30  C   UNL     1       4.768  -0.470  -2.303  1.00  0.00     0.016 A 
ATOM     31  C   UNL     1       3.187  -1.065  -4.551  1.00  0.00     0.010 A 
ATOM     32  C   UNL     1       4.887   0.292  -3.467  1.00  0.00     0.010 A 
ATOM     33  C   UNL     1       4.120  -0.022  -4.604  1.00  0.00    -0.014 A 
BRANCH  33  34
ATOM     34  C   UNL     1       4.402   0.649  -5.893  1.00  0.00     0.031 A 
ATOM     35  C   UNL     1       5.623   0.242  -6.670  1.00  0.00     0.074 A 
ATOM     36  C   UNL     1       3.579   1.600  -6.367  1.00  0.00     0.049 A 
ATOM     37  N   UNL     1       6.104   0.742  -7.779  1.00  0.00    -0.248 NA
ATOM     38  C   UNL     1       6.407  -0.876  -6.121  1.00  0.00     0.031 C 
ATOM     39  C   UNL     1       2.340   2.041  -5.729  1.00  0.00     0.029 A 
ATOM     40  N   UNL     1       3.674   2.375  -7.495  1.00  0.00    -0.354 N 
ATOM     41  C   UNL     1       7.253   0.010  -8.052  1.00  0.00     0.074 A 
ATOM     42  C   UNL     1       7.412  -0.949  -6.982  1.00  0.00     0.031 C 
ATOM     43  C   UNL     1       1.793   3.019  -6.472  1.00  0.00     0.029 A 
ATOM     44  C   UNL     1       2.665   3.298  -7.611  1.00  0.00     0.049 A 
ATOM     45  H   UNL     1       4.396   2.278  -8.157  1.00  0.00     0.167 HD
ATOM     46  C   UNL     1       8.099   0.128  -9.103  1.00  0.00     0.031 A 
ATOM     47  C   UNL     1       2.484   4.277  -8.518  1.00  0.00     0.031 A 
ATOM     48  C   UNL     1       7.945   1.094 -10.157  1.00  0.00     0.049 A 
ATOM     49  C   UNL     1       3.488   4.446  -9.628  1.00  0.00     0.074 A 
ATOM     50  C   UNL     1       8.739   1.286 -11.274  1.00  0.00     0.029 A 
ATOM     51  N   UNL     1       6.930   2.037 -10.219  1.00  0.00    -0.354 N 
ATOM     52  N   UNL     1       4.560   3.736  -9.889  1.00  0.00    -0.248 NA
ATOM     53  C   UNL     1       3.252   5.548 -10.572  1.00  0.00     0.031 C 
ATOM     54  C   UNL     1       8.240   2.385 -11.979  1.00  0.00     0.029 A 
ATOM     55  C   UNL     1       7.096   2.834 -11.338  1.00  0.00     0.049 A 
ATOM     56  H   UNL     1       6.201   2.126  -9.564  1.00  0.00     0.167 HD
ATOM     57  C   UNL     1       5.107   4.286 -11.042  1.00  0.00     0.074 A 
ATOM     58  C   UNL     1       4.243   5.379 -11.436  1.00  0.00     0.031 C 
ATOM     59  C   UNL     1       6.224   3.916 -11.716  1.00  0.00     0.031 A 
BRANCH  46  60
ATOM     60  C   UNL     1       9.292  -0.787  -9.138  1.00  0.00    -0.014 A 
ATOM     61  C   UNL     1       9.155  -2.161  -9.389  1.00  0.00     0.009 A 
ATOM     62  C   UNL     1      10.578  -0.257  -8.947  1.00  0.00     0.009 A 
ATOM     63  C   UNL     1      10.279  -2.991  -9.414  1.00  0.00     0.001 A 
ATOM     64  C   UNL     1      11.702  -1.083  -9.001  1.00  0.00     0.001 A 
ATOM     65  C   UNL     1      11.551  -2.450  -9.225  1.00  0.00     0.000 A 
ENDBRANCH  46  60
BRANCH  47  66
ATOM     66  C   UNL     1       1.321   5.196  -8.401  1.00  0.00    -0.014 A 
ATOM     67  C   UNL     1       0.287   5.167  -9.350  1.00  0.00     0.009 A 
ATOM     68  C   UNL     1       1.248   6.121  -7.347  1.00  0.00     0.009 A 
ATOM     69  C   UNL     1      -0.781   6.063  -9.259  1.00  0.00     0.001 A 
ATOM     70  C   UNL     1       0.163   6.994  -7.242  1.00  0.00     0.001 A 
ATOM     71  C   UNL     1      -0.845   6.971  -8.203  1.00  0.00     0.000 A 
ENDBRANCH  47  66
BRANCH  59  72
ATOM     72  C   UNL     1       6.553   4.669 -12.976  1.00  0.00    -0.014 A 
ATOM     73  C   UNL     1       7.035   5.985 -12.938  1.00  0.00     0.009 A 
ATOM     74  C   UNL     1       6.428   4.025 -14.218  1.00  0.00     0.009 A 
ATOM     75  C   UNL     1       7.359   6.652 -14.122  1.00  0.00     0.001 A 
ATOM     76  C   UNL     1       6.782   4.683 -15.396  1.00  0.00     0.001 A 
ATOM     77  C   UNL     1       7.239   5.999 -15.348  1.00  0.00     0.000 A 
ENDBRANCH  59  72
ENDBRANCH  33  34
ENDBRANCH  26  28
ENDBRANCH  25  26
ENDBRANCH  24  25
ENDBRANCH  23  24
ENDBRANCH   1  23
TORSDOF 17
