REMARK SMILES C[NH2+][C@]1(C(=O)OCCOCCOC(=O)c2ccc(-c3c4nc(c(-c5ccccc5)c5ccc([nH]5)c(-c5ccccc5)c5nc(c(-c6ccccc6)c6ccc3[nH]6)C=C5)C=C4)cc2)CCC[C@@H](Sc2nccs2)C1
REMARK SMILES IDX 9 1 8 2 7 3 6 4 4 5 5 6 3 7 63 8 73 9 64 10 66 11 65 12 2 13
REMARK SMILES IDX 1 14 67 17 68 18 69 19 72 20 70 21 71 22 10 23 11 24 12 25
REMARK SMILES IDX 13 26 14 27 15 28 16 29 62 30 17 31 61 32 18 33 19 34 20 35
REMARK SMILES IDX 55 36 21 37 60 38 54 39 56 40 22 41 59 42 53 43 52 44 23 46
REMARK SMILES IDX 45 47 30 48 44 49 31 50 34 51 43 52 57 53 32 54 33 55 42 57
REMARK SMILES IDX 58 58 35 59 24 60 25 61 29 62 26 63 28 64 27 65 46 66 47 67
REMARK SMILES IDX 51 68 48 69 50 70 49 71 36 72 37 73 41 74 38 75 40 76 39 77
REMARK H PARENT 2 15 2 16 56 45 34 56
REMARK Flexibility Score: inf
ROOT
ATOM      1  O   UNL     1       2.800   0.483  -1.117  1.00  0.00    -0.374 OA
ENDROOT
BRANCH   1   2
ATOM      2  C   UNL     1       3.242   0.603   0.234  1.00  0.00     0.202 C 
BRANCH   2   3
ATOM      3  C   UNL     1       2.524   1.636   1.104  1.00  0.00     0.261 C 
BRANCH   3   4
ATOM      4  O   UNL     1       1.116   1.371   1.180  1.00  0.00    -0.459 OA
BRANCH   4   5
ATOM      5  C   UNL     1       0.312   2.325   0.633  1.00  0.00     0.368 C 
ATOM      6  O   UNL     1       0.715   3.417   0.241  1.00  0.00    -0.245 OA
BRANCH   5   7
ATOM      7  C   UNL     1      -1.189   1.893   0.571  1.00  0.00     0.195 C 
ATOM      8  C   UNL     1      -1.442   0.527   1.269  1.00  0.00     0.081 C 
ATOM      9  C   UNL     1      -1.947   2.988   1.353  1.00  0.00     0.096 C 
ATOM     10  C   UNL     1      -2.927   0.201   1.454  1.00  0.00     0.008 C 
ATOM     11  C   UNL     1      -3.421   2.679   1.619  1.00  0.00     0.061 C 
ATOM     12  C   UNL     1      -3.640   1.296   2.241  1.00  0.00     0.015 C 
BRANCH   7  13
ATOM     13  N   UNL     1      -1.640   1.724  -0.846  1.00  0.00    -0.335 N 
ATOM     14  C   UNL     1      -1.401   2.859  -1.730  1.00  0.00     0.331 C 
ATOM     15  H   UNL     1      -1.152   0.917  -1.234  1.00  0.00     0.347 HD
ATOM     16  H   UNL     1      -2.653   1.617  -0.802  1.00  0.00     0.347 HD
ENDBRANCH   7  13
BRANCH  11  17
ATOM     17  S   UNL     1      -4.242   3.993   2.604  1.00  0.00    -0.092 SA
BRANCH  17  18
ATOM     18  C   UNL     1      -3.450   3.872   4.162  1.00  0.00     0.150 A 
ATOM     19  N   UNL     1      -2.144   3.936   4.285  1.00  0.00    -0.238 NA
ATOM     20  S   UNL     1      -4.320   3.676   5.627  1.00  0.00    -0.116 S 
ATOM     21  C   UNL     1      -1.788   3.799   5.611  1.00  0.00     0.124 A 
ATOM     22  C   UNL     1      -2.836   3.641   6.489  1.00  0.00     0.087 A 
ENDBRANCH  17  18
ENDBRANCH  11  17
ENDBRANCH   5   7
ENDBRANCH   4   5
ENDBRANCH   3   4
ENDBRANCH   2   3
ENDBRANCH   1   2
BRANCH   1  23
ATOM     23  C   UNL     1       1.572  -0.209  -1.354  1.00  0.00     0.202 C 
BRANCH  23  24
ATOM     24  C   UNL     1       1.604  -1.734  -1.205  1.00  0.00     0.261 C 
BRANCH  24  25
ATOM     25  O   UNL     1       1.810  -2.145   0.161  1.00  0.00    -0.460 OA
BRANCH  25  26
ATOM     26  C   UNL     1       2.958  -2.828   0.382  1.00  0.00     0.338 C 
ATOM     27  O   UNL     1       3.774  -3.200  -0.450  1.00  0.00    -0.246 OA
BRANCH  26  28
ATOM     28  C   UNL     1       3.219  -2.934   1.829  1.00  0.00     0.060 A 
ATOM     29  C   UNL     1       4.449  -2.456   2.300  1.00  0.00     0.016 A 
ATOM     30  C   UNL     1       2.329  -3.576   2.692  1.00  0.00     0.016 A 
ATOM     31  C   UNL     1       4.818  -2.666   3.626  1.00  0.00     0.010 A 
ATOM     32  C   UNL     1       2.707  -3.797   4.021  1.00  0.00     0.010 A 
ATOM     33  C   UNL     1       3.969  -3.378   4.482  1.00  0.00    -0.014 A 
BRANCH  33  34
ATOM     34  C   UNL     1       4.475  -3.819   5.804  1.00  0.00     0.031 A 
ATOM     35  C   UNL     1       5.024  -5.213   5.946  1.00  0.00     0.074 A 
ATOM     36  C   UNL     1       4.490  -2.980   6.854  1.00  0.00     0.049 A 
ATOM     37  N   UNL     1       5.516  -5.806   7.003  1.00  0.00    -0.248 NA
ATOM     38  C   UNL     1       5.019  -6.047   4.732  1.00  0.00     0.031 C 
ATOM     39  C   UNL     1       4.034  -1.591   6.835  1.00  0.00     0.029 A 
ATOM     40  N   UNL     1       4.911  -3.181   8.144  1.00  0.00    -0.354 N 
ATOM     41  C   UNL     1       5.878  -7.081   6.584  1.00  0.00     0.074 A 
ATOM     42  C   UNL     1       5.522  -7.186   5.186  1.00  0.00     0.031 C 
ATOM     43  C   UNL     1       4.195  -1.065   8.062  1.00  0.00     0.029 A 
ATOM     44  C   UNL     1       4.738  -2.087   8.955  1.00  0.00     0.049 A 
ATOM     45  H   UNL     1       5.299  -4.029   8.459  1.00  0.00     0.167 HD
ATOM     46  C   UNL     1       6.459  -8.075   7.297  1.00  0.00     0.031 A 
ATOM     47  C   UNL     1       4.975  -1.933  10.271  1.00  0.00     0.031 A 
ATOM     48  C   UNL     1       6.800  -7.982   8.691  1.00  0.00     0.049 A 
ATOM     49  C   UNL     1       5.547  -3.079  11.062  1.00  0.00     0.074 A 
ATOM     50  C   UNL     1       7.399  -8.934   9.498  1.00  0.00     0.029 A 
ATOM     51  N   UNL     1       6.565  -6.873   9.486  1.00  0.00    -0.354 N 
ATOM     52  N   UNL     1       5.901  -4.272  10.649  1.00  0.00    -0.248 NA
ATOM     53  C   UNL     1       5.756  -2.853  12.499  1.00  0.00     0.031 C 
ATOM     54  C   UNL     1       7.481  -8.417  10.795  1.00  0.00     0.029 A 
ATOM     55  C   UNL     1       6.982  -7.125  10.782  1.00  0.00     0.049 A 
ATOM     56  H   UNL     1       6.162  -6.030   9.176  1.00  0.00     0.167 HD
ATOM     57  C   UNL     1       6.398  -4.928  11.769  1.00  0.00     0.074 A 
ATOM     58  C   UNL     1       6.311  -3.997  12.875  1.00  0.00     0.031 C 
ATOM     59  C   UNL     1       6.885  -6.189  11.871  1.00  0.00     0.031 A 
BRANCH  46  60
ATOM     60  C   UNL     1       6.732  -9.366   6.580  1.00  0.00    -0.014 A 
ATOM     61  C   UNL     1       7.770  -9.471   5.640  1.00  0.00     0.009 A 
ATOM     62  C   UNL     1       5.957 -10.500   6.867  1.00  0.00     0.009 A 
ATOM     63  C   UNL     1       8.005 -10.680   4.981  1.00  0.00     0.001 A 
ATOM     64  C   UNL     1       6.210 -11.713   6.224  1.00  0.00     0.001 A 
ATOM     65  C   UNL     1       7.228 -11.799   5.276  1.00  0.00     0.000 A 
ENDBRANCH  46  60
BRANCH  47  66
ATOM     66  C   UNL     1       4.651  -0.646  10.939  1.00  0.00    -0.014 A 
ATOM     67  C   UNL     1       5.671   0.205  11.389  1.00  0.00     0.009 A 
ATOM     68  C   UNL     1       3.314  -0.272  11.145  1.00  0.00     0.009 A 
ATOM     69  C   UNL     1       5.358   1.394  12.053  1.00  0.00     0.001 A 
ATOM     70  C   UNL     1       3.004   0.928  11.786  1.00  0.00     0.001 A 
ATOM     71  C   UNL     1       4.025   1.756  12.247  1.00  0.00     0.000 A 
ENDBRANCH  47  66
BRANCH  59  72
ATOM     72  C   UNL     1       7.391  -6.625  13.217  1.00  0.00    -0.014 A 
ATOM     73  C   UNL     1       6.506  -6.928  14.264  1.00  0.00     0.009 A 
ATOM     74  C   UNL     1       8.771  -6.775  13.426  1.00  0.00     0.009 A 
ATOM     75  C   UNL     1       6.997  -7.344  15.503  1.00  0.00     0.001 A 
ATOM     76  C   UNL     1       9.256  -7.216  14.658  1.00  0.00     0.001 A 
ATOM     77  C   UNL     1       8.370  -7.492  15.698  1.00  0.00     0.000 A 
ENDBRANCH  59  72
ENDBRANCH  33  34
ENDBRANCH  26  28
ENDBRANCH  25  26
ENDBRANCH  24  25
ENDBRANCH  23  24
ENDBRANCH   1  23
TORSDOF 17
