REMARK SMILES Cc1oc2cc3c(cc2c1C)[C@H](C)[C@@H](CC(=O)N[C@H](CC1=c2ccccc2=NC1)C(=O)OCCOCCOC(=O)c1ccc(-c2c4nc(c(-c5ccccc5)c5ccc([nH]5)c(-c5ccccc5)c5nc(c(-c6ccccc6)c6ccc2[nH]6)C=C5)C=C4)cc1)C(=O)O3
REMARK SMILES IDX 34 1 33 2 32 3 30 4 31 5 19 6 18 7 16 8 17 9 15 11 14 12
REMARK SMILES IDX 1 13 2 14 3 15 10 16 4 17 9 18 11 19 5 20 8 21 6 22 7 23
REMARK SMILES IDX 91 24 12 25 89 26 13 27 90 28 20 29 21 30 22 31 29 32 23 33
REMARK SMILES IDX 27 34 28 35 24 36 26 37 25 38 35 39 36 40 37 41 38 42 39 43
REMARK SMILES IDX 40 44 41 45 42 46 88 47 43 48 87 49 44 50 45 51 46 52 81 53
REMARK SMILES IDX 47 54 86 55 80 56 82 57 48 58 85 59 79 60 78 61 49 63 71 64
REMARK SMILES IDX 56 65 70 66 57 67 60 68 69 69 83 70 58 71 59 72 68 74 84 75
REMARK SMILES IDX 61 76 50 77 51 78 55 79 52 80 54 81 53 82 72 83 73 84 77 85
REMARK SMILES IDX 74 86 76 87 75 88 62 89 63 90 67 91 64 92 66 93 65 94
REMARK H PARENT 18 10 82 62 60 73
REMARK Flexibility Score: inf
ROOT
ATOM      1  C   UNL     1      -4.755  10.731  -5.663  1.00  0.00     0.202 C 
ENDROOT
BRANCH   1   2
ATOM      2  C   UNL     1      -3.296  10.333  -5.327  1.00  0.00     0.261 C 
BRANCH   2   3
ATOM      3  O   UNL     1      -2.510   9.569  -6.288  1.00  0.00    -0.462 OA
BRANCH   3   4
ATOM      4  C   UNL     1      -1.896   8.466  -5.790  1.00  0.00     0.329 C 
ATOM      5  O   UNL     1      -2.103   8.107  -4.622  1.00  0.00    -0.250 OA
BRANCH   4   6
ATOM      6  C   UNL     1      -0.921   7.570  -6.676  1.00  0.00     0.196 C 
BRANCH   6   7
ATOM      7  N   UNL     1       0.135   7.246  -5.676  1.00  0.00    -0.342 N 
ATOM      8  C   UNL     1       0.141   6.229  -4.767  1.00  0.00     0.221 C 
ATOM      9  O   UNL     1       0.845   6.340  -3.763  1.00  0.00    -0.275 OA
ATOM     10  H   UNL     1       0.922   7.837  -5.671  1.00  0.00     0.164 HD
BRANCH   8  11
ATOM     11  C   UNL     1      -0.654   4.962  -5.035  1.00  0.00     0.116 C 
BRANCH  11  12
ATOM     12  C   UNL     1      -2.082   4.983  -4.472  1.00  0.00     0.116 C 
ATOM     13  C   UNL     1      -9.886   1.776  -3.455  1.00  0.00     0.088 C 
ATOM     14  C   UNL     1      -8.464   2.159  -3.560  1.00  0.00     0.105 A 
ATOM     15  O   UNL     1      -8.239   3.451  -3.924  1.00  0.00    -0.461 OA
ATOM     16  C   UNL     1      -7.265   1.492  -3.370  1.00  0.00    -0.002 A 
ATOM     17  C   UNL     1      -6.894   3.630  -3.961  1.00  0.00     0.138 A 
ATOM     18  C   UNL     1      -6.241   2.458  -3.607  1.00  0.00     0.024 A 
ATOM     19  C   UNL     1      -7.049   0.071  -3.006  1.00  0.00     0.049 C 
ATOM     20  C   UNL     1      -6.255   4.802  -4.334  1.00  0.00     0.095 A 
ATOM     21  C   UNL     1      -4.832   2.446  -3.580  1.00  0.00     0.020 A 
ATOM     22  C   UNL     1      -4.859   4.739  -4.354  1.00  0.00     0.138 A 
ATOM     23  C   UNL     1      -4.126   3.607  -3.935  1.00  0.00    -0.001 A 
ATOM     24  O   UNL     1      -4.239   5.853  -4.919  1.00  0.00    -0.426 OA
ATOM     25  C   UNL     1      -2.599   3.596  -4.026  1.00  0.00     0.035 C 
ATOM     26  C   UNL     1      -3.104   5.375  -5.518  1.00  0.00     0.315 C 
ATOM     27  C   UNL     1      -1.925   3.148  -2.725  1.00  0.00     0.014 C 
ATOM     28  O   UNL     1      -3.012   5.193  -6.726  1.00  0.00    -0.251 OA
ENDBRANCH  11  12
ENDBRANCH   8  11
ENDBRANCH   6   7
BRANCH   6  29
ATOM     29  C   UNL     1      -0.211   7.693  -8.067  1.00  0.00     0.070 C 
BRANCH  29  30
ATOM     30  C   UNL     1      -0.968   8.052  -9.348  1.00  0.00    -0.037 C 
ATOM     31  C   UNL     1      -1.705   7.208 -10.117  1.00  0.00     0.001 A 
ATOM     32  C   UNL     1      -1.824   9.221  -9.064  1.00  0.00     0.174 C 
ATOM     33  C   UNL     1      -2.062   7.463 -11.535  1.00  0.00     0.010 A 
ATOM     34  C   UNL     1      -2.979   7.433  -9.363  1.00  0.00     0.065 A 
ATOM     35  N   UNL     1      -3.071   8.547  -8.707  1.00  0.00    -0.280 NA
ATOM     36  C   UNL     1      -3.322   7.210 -11.959  1.00  0.00     0.001 A 
ATOM     37  C   UNL     1      -4.123   6.593  -9.737  1.00  0.00     0.028 A 
ATOM     38  C   UNL     1      -4.297   6.578 -11.070  1.00  0.00     0.002 A 
ENDBRANCH  29  30
ENDBRANCH   6  29
ENDBRANCH   4   6
ENDBRANCH   3   4
ENDBRANCH   2   3
ENDBRANCH   1   2
BRANCH   1  39
ATOM     39  O   UNL     1      -5.707   9.732  -6.009  1.00  0.00    -0.374 OA
BRANCH  39  40
ATOM     40  C   UNL     1      -5.538   9.109  -7.283  1.00  0.00     0.202 C 
BRANCH  40  41
ATOM     41  C   UNL     1      -5.525  10.043  -8.521  1.00  0.00     0.261 C 
BRANCH  41  42
ATOM     42  O   UNL     1      -4.450  10.995  -8.434  1.00  0.00    -0.460 OA
BRANCH  42  43
ATOM     43  C   UNL     1      -3.966  11.579  -9.554  1.00  0.00     0.338 C 
ATOM     44  O   UNL     1      -4.347  11.439 -10.691  1.00  0.00    -0.246 OA
BRANCH  43  45
ATOM     45  C   UNL     1      -2.767  12.367  -9.136  1.00  0.00     0.060 A 
ATOM     46  C   UNL     1      -1.642  12.435  -9.970  1.00  0.00     0.016 A 
ATOM     47  C   UNL     1      -2.732  12.985  -7.885  1.00  0.00     0.016 A 
ATOM     48  C   UNL     1      -0.496  13.126  -9.555  1.00  0.00     0.010 A 
ATOM     49  C   UNL     1      -1.589  13.650  -7.463  1.00  0.00     0.010 A 
ATOM     50  C   UNL     1      -0.485  13.778  -8.317  1.00  0.00    -0.014 A 
BRANCH  50  51
ATOM     51  C   UNL     1       0.521  14.832  -8.053  1.00  0.00     0.031 A 
ATOM     52  C   UNL     1      -0.117  16.154  -7.758  1.00  0.00     0.074 A 
ATOM     53  C   UNL     1       1.766  14.632  -7.575  1.00  0.00     0.049 A 
ATOM     54  N   UNL     1      -0.629  16.400  -6.587  1.00  0.00    -0.248 NA
ATOM     55  C   UNL     1      -0.512  17.110  -8.790  1.00  0.00     0.031 C 
ATOM     56  C   UNL     1       2.188  13.429  -6.853  1.00  0.00     0.029 A 
ATOM     57  N   UNL     1       2.804  15.522  -7.395  1.00  0.00    -0.354 N 
ATOM     58  C   UNL     1      -1.501  17.455  -6.736  1.00  0.00     0.074 A 
ATOM     59  C   UNL     1      -1.348  17.908  -8.103  1.00  0.00     0.031 C 
ATOM     60  C   UNL     1       3.287  13.731  -6.129  1.00  0.00     0.029 A 
ATOM     61  C   UNL     1       3.738  15.083  -6.458  1.00  0.00     0.049 A 
ATOM     62  H   UNL     1       2.877  16.378  -7.878  1.00  0.00     0.167 HD
ATOM     63  C   UNL     1      -2.343  17.847  -5.744  1.00  0.00     0.031 A 
ATOM     64  C   UNL     1       4.417  15.899  -5.604  1.00  0.00     0.031 A 
ATOM     65  C   UNL     1      -2.334  17.039  -4.557  1.00  0.00     0.049 A 
ATOM     66  C   UNL     1       3.307  16.374  -4.696  1.00  0.00     0.074 A 
ATOM     67  C   UNL     1      -3.053  15.970  -4.060  1.00  0.00     0.029 A 
ATOM     68  N   UNL     1      -1.337  17.229  -3.631  1.00  0.00    -0.354 N 
ATOM     69  N   UNL     1       2.746  15.713  -3.723  1.00  0.00    -0.248 NA
ATOM     70  C   UNL     1       2.590  17.584  -5.105  1.00  0.00     0.031 C 
ATOM     71  C   UNL     1      -2.172  15.306  -3.145  1.00  0.00     0.029 A 
ATOM     72  C   UNL     1      -0.955  15.982  -3.196  1.00  0.00     0.049 A 
ATOM     73  H   UNL     1      -0.967  18.092  -3.337  1.00  0.00     0.167 HD
ATOM     74  C   UNL     1       1.468  16.259  -3.589  1.00  0.00     0.074 A 
ATOM     75  C   UNL     1       1.459  17.439  -4.430  1.00  0.00     0.031 C 
ATOM     76  C   UNL     1       0.430  15.624  -2.965  1.00  0.00     0.031 A 
BRANCH  63  77
ATOM     77  C   UNL     1      -3.148  19.079  -5.805  1.00  0.00    -0.014 A 
ATOM     78  C   UNL     1      -4.404  19.137  -6.416  1.00  0.00     0.009 A 
ATOM     79  C   UNL     1      -2.675  20.194  -5.096  1.00  0.00     0.009 A 
ATOM     80  C   UNL     1      -5.181  20.294  -6.295  1.00  0.00     0.001 A 
ATOM     81  C   UNL     1      -3.454  21.341  -4.970  1.00  0.00     0.001 A 
ATOM     82  C   UNL     1      -4.710  21.388  -5.566  1.00  0.00     0.000 A 
ENDBRANCH  63  77
BRANCH  64  83
ATOM     83  C   UNL     1       5.376  16.887  -6.209  1.00  0.00    -0.014 A 
ATOM     84  C   UNL     1       5.541  18.201  -5.736  1.00  0.00     0.009 A 
ATOM     85  C   UNL     1       6.187  16.491  -7.290  1.00  0.00     0.009 A 
ATOM     86  C   UNL     1       6.352  19.122  -6.410  1.00  0.00     0.001 A 
ATOM     87  C   UNL     1       7.027  17.400  -7.944  1.00  0.00     0.001 A 
ATOM     88  C   UNL     1       7.082  18.724  -7.525  1.00  0.00     0.000 A 
ENDBRANCH  64  83
BRANCH  76  89
ATOM     89  C   UNL     1       0.775  14.353  -2.247  1.00  0.00    -0.014 A 
ATOM     90  C   UNL     1       0.240  13.119  -2.655  1.00  0.00     0.009 A 
ATOM     91  C   UNL     1       1.631  14.375  -1.136  1.00  0.00     0.009 A 
ATOM     92  C   UNL     1       0.517  11.948  -1.944  1.00  0.00     0.001 A 
ATOM     93  C   UNL     1       1.927  13.201  -0.440  1.00  0.00     0.001 A 
ATOM     94  C   UNL     1       1.359  11.991  -0.835  1.00  0.00     0.000 A 
ENDBRANCH  76  89
ENDBRANCH  50  51
ENDBRANCH  43  45
ENDBRANCH  42  43
ENDBRANCH  41  42
ENDBRANCH  40  41
ENDBRANCH  39  40
ENDBRANCH   1  39
TORSDOF 19
