REMARK SMILES CCC[C@@H](C(=O)OCCOCCOC(=O)c1ccc(-c2c3nc(c(-c4ccccc4)c4ccc([nH]4)c(-c4ccccc4)c4nc(c(-c5ccccc5)c5ccc2[nH]5)C=C4)C=C3)cc1)n1nc(/C=C/c2ccc(OC)cc2)ccc1=O
REMARK SMILES IDX 9 1 8 2 7 3 5 4 6 5 4 6 3 7 2 8 1 9 64 10 65 11 79 12 66 13
REMARK SMILES IDX 78 14 80 15 77 16 67 17 68 18 69 19 70 20 76 21 71 22 75 23
REMARK SMILES IDX 72 24 73 25 74 26 10 27 11 28 12 29 13 30 14 31 15 32 16 33
REMARK SMILES IDX 17 34 63 35 18 36 62 37 19 38 20 39 21 40 56 41 22 42 61 43
REMARK SMILES IDX 55 44 57 45 23 46 60 47 54 48 53 49 24 51 46 52 31 53 45 54
REMARK SMILES IDX 32 55 35 56 44 57 58 58 33 59 34 60 43 62 59 63 36 64 25 65
REMARK SMILES IDX 26 66 30 67 27 68 29 69 28 70 47 71 48 72 52 73 49 74 51 75
REMARK SMILES IDX 50 76 37 77 38 78 42 79 39 80 41 81 40 82
REMARK H PARENT 57 50 35 61
REMARK Flexibility Score: inf
ROOT
ATOM      1  C   UNL     1      -3.760  -2.528  -0.174  1.00  0.00     0.202 C 
ENDROOT
BRANCH   1   2
ATOM      2  C   UNL     1      -2.929  -2.324   1.101  1.00  0.00     0.261 C 
BRANCH   2   3
ATOM      3  O   UNL     1      -1.561  -2.093   0.730  1.00  0.00    -0.462 OA
BRANCH   3   4
ATOM      4  C   UNL     1      -0.618  -2.462   1.637  1.00  0.00     0.331 C 
ATOM      5  O   UNL     1      -0.837  -2.630   2.832  1.00  0.00    -0.250 OA
BRANCH   4   6
ATOM      6  C   UNL     1       0.732  -2.751   0.949  1.00  0.00     0.221 C 
BRANCH   6   7
ATOM      7  C   UNL     1       0.952  -2.223  -0.489  1.00  0.00     0.039 C 
BRANCH   7   8
ATOM      8  C   UNL     1       0.556  -0.776  -0.808  1.00  0.00    -0.001 C 
ATOM      9  C   UNL     1       1.048   0.250   0.197  1.00  0.00     0.004 C 
ENDBRANCH   7   8
ENDBRANCH   6   7
BRANCH   6  10
ATOM     10  N   UNL     1       1.093  -4.195   1.021  1.00  0.00    -0.215 N 
ATOM     11  N   UNL     1       2.450  -4.461   0.896  1.00  0.00    -0.169 NA
ATOM     12  C   UNL     1       0.127  -5.192   0.946  1.00  0.00     0.267 A 
ATOM     13  C   UNL     1       2.827  -5.694   0.729  1.00  0.00     0.084 A 
ATOM     14  C   UNL     1       0.609  -6.574   0.795  1.00  0.00     0.075 A 
ATOM     15  O   UNL     1      -1.087  -5.025   0.987  1.00  0.00    -0.268 OA
ATOM     16  C   UNL     1       1.906  -6.843   0.670  1.00  0.00     0.036 A 
BRANCH  13  17
ATOM     17  C   UNL     1       4.289  -5.962   0.616  1.00  0.00     0.031 C 
ATOM     18  C   UNL     1       4.875  -7.150   0.403  1.00  0.00     0.010 C 
BRANCH  18  19
ATOM     19  C   UNL     1       6.331  -7.342   0.429  1.00  0.00    -0.025 A 
ATOM     20  C   UNL     1       6.919  -8.275  -0.429  1.00  0.00     0.012 A 
ATOM     21  C   UNL     1       7.135  -6.694   1.375  1.00  0.00     0.012 A 
ATOM     22  C   UNL     1       8.289  -8.540  -0.351  1.00  0.00     0.047 A 
ATOM     23  C   UNL     1       8.506  -6.959   1.451  1.00  0.00     0.047 A 
ATOM     24  C   UNL     1       9.089  -7.885   0.588  1.00  0.00     0.118 A 
BRANCH  24  25
ATOM     25  O   UNL     1      10.408  -8.244   0.571  1.00  0.00    -0.497 OA
ATOM     26  C   UNL     1      11.267  -7.556   1.472  1.00  0.00     0.278 C 
ENDBRANCH  24  25
ENDBRANCH  18  19
ENDBRANCH  13  17
ENDBRANCH   6  10
ENDBRANCH   4   6
ENDBRANCH   3   4
ENDBRANCH   2   3
ENDBRANCH   1   2
BRANCH   1  27
ATOM     27  O   UNL     1      -3.593  -3.776  -0.856  1.00  0.00    -0.374 OA
BRANCH  27  28
ATOM     28  C   UNL     1      -2.340  -3.996  -1.502  1.00  0.00     0.202 C 
BRANCH  28  29
ATOM     29  C   UNL     1      -2.233  -3.495  -2.944  1.00  0.00     0.261 C 
BRANCH  29  30
ATOM     30  O   UNL     1      -2.454  -2.079  -3.034  1.00  0.00    -0.460 OA
BRANCH  30  31
ATOM     31  C   UNL     1      -3.681  -1.742  -3.490  1.00  0.00     0.338 C 
ATOM     32  O   UNL     1      -4.546  -2.490  -3.929  1.00  0.00    -0.246 OA
BRANCH  31  33
ATOM     33  C   UNL     1      -3.929  -0.311  -3.255  1.00  0.00     0.060 A 
ATOM     34  C   UNL     1      -5.128   0.034  -2.619  1.00  0.00     0.016 A 
ATOM     35  C   UNL     1      -3.050   0.676  -3.705  1.00  0.00     0.016 A 
ATOM     36  C   UNL     1      -5.482   1.372  -2.482  1.00  0.00     0.010 A 
ATOM     37  C   UNL     1      -3.410   2.021  -3.572  1.00  0.00     0.010 A 
ATOM     38  C   UNL     1      -4.644   2.371  -2.995  1.00  0.00    -0.014 A 
BRANCH  38  39
ATOM     39  C   UNL     1      -5.136   3.767  -3.055  1.00  0.00     0.031 A 
ATOM     40  C   UNL     1      -5.688   4.291  -4.353  1.00  0.00     0.074 A 
ATOM     41  C   UNL     1      -5.132   4.544  -1.958  1.00  0.00     0.049 A 
ATOM     42  N   UNL     1      -6.164   5.477  -4.632  1.00  0.00    -0.248 NA
ATOM     43  C   UNL     1      -5.707   3.352  -5.487  1.00  0.00     0.031 C 
ATOM     44  C   UNL     1      -4.668   4.135  -0.633  1.00  0.00     0.029 A 
ATOM     45  N   UNL     1      -5.535   5.844  -1.789  1.00  0.00    -0.354 N 
ATOM     46  C   UNL     1      -6.532   5.430  -5.970  1.00  0.00     0.074 A 
ATOM     47  C   UNL     1      -6.199   4.109  -6.457  1.00  0.00     0.031 C 
ATOM     48  C   UNL     1      -4.811   5.168   0.215  1.00  0.00     0.029 A 
ATOM     49  C   UNL     1      -5.343   6.317  -0.515  1.00  0.00     0.049 A 
ATOM     50  H   UNL     1      -5.925   6.386  -2.512  1.00  0.00     0.167 HD
ATOM     51  C   UNL     1      -7.103   6.398  -6.726  1.00  0.00     0.031 A 
ATOM     52  C   UNL     1      -5.555   7.544  -0.002  1.00  0.00     0.031 A 
ATOM     53  C   UNL     1      -7.426   7.714  -6.245  1.00  0.00     0.049 A 
ATOM     54  C   UNL     1      -6.117   8.626  -0.885  1.00  0.00     0.074 A 
ATOM     55  C   UNL     1      -8.020   8.760  -6.931  1.00  0.00     0.029 A 
ATOM     56  N   UNL     1      -7.175   8.168  -4.960  1.00  0.00    -0.354 N 
ATOM     57  N   UNL     1      -6.485   8.561  -2.142  1.00  0.00    -0.248 NA
ATOM     58  C   UNL     1      -6.299   9.950  -0.273  1.00  0.00     0.031 C 
ATOM     59  C   UNL     1      -8.077   9.865  -6.075  1.00  0.00     0.029 A 
ATOM     60  C   UNL     1      -7.575   9.487  -4.840  1.00  0.00     0.049 A 
ATOM     61  H   UNL     1      -6.773   7.631  -4.240  1.00  0.00     0.167 HD
ATOM     62  C   UNL     1      -6.970   9.823  -2.461  1.00  0.00     0.074 A 
ATOM     63  C   UNL     1      -6.862  10.629  -1.263  1.00  0.00     0.031 C 
ATOM     64  C   UNL     1      -7.463  10.275  -3.640  1.00  0.00     0.031 A 
BRANCH  51  65
ATOM     65  C   UNL     1      -7.385   6.078  -8.167  1.00  0.00    -0.014 A 
ATOM     66  C   UNL     1      -8.423   5.207  -8.533  1.00  0.00     0.009 A 
ATOM     67  C   UNL     1      -6.627   6.694  -9.175  1.00  0.00     0.009 A 
ATOM     68  C   UNL     1      -8.678   4.939  -9.880  1.00  0.00     0.001 A 
ATOM     69  C   UNL     1      -6.902   6.446 -10.521  1.00  0.00     0.001 A 
ATOM     70  C   UNL     1      -7.922   5.563 -10.872  1.00  0.00     0.000 A 
ENDBRANCH  51  65
BRANCH  52  71
ATOM     71  C   UNL     1      -5.212   7.830   1.416  1.00  0.00    -0.014 A 
ATOM     72  C   UNL     1      -6.217   8.094   2.359  1.00  0.00     0.009 A 
ATOM     73  C   UNL     1      -3.870   7.869   1.827  1.00  0.00     0.009 A 
ATOM     74  C   UNL     1      -5.883   8.420   3.676  1.00  0.00     0.001 A 
ATOM     75  C   UNL     1      -3.541   8.165   3.151  1.00  0.00     0.001 A 
ATOM     76  C   UNL     1      -4.546   8.451   4.071  1.00  0.00     0.000 A 
ENDBRANCH  52  71
BRANCH  64  77
ATOM     77  C   UNL     1      -7.960  11.693  -3.682  1.00  0.00    -0.014 A 
ATOM     78  C   UNL     1      -7.074  12.780  -3.656  1.00  0.00     0.009 A 
ATOM     79  C   UNL     1      -9.338  11.941  -3.794  1.00  0.00     0.009 A 
ATOM     80  C   UNL     1      -7.560  14.088  -3.705  1.00  0.00     0.001 A 
ATOM     81  C   UNL     1      -9.819  13.248  -3.873  1.00  0.00     0.001 A 
ATOM     82  C   UNL     1      -8.931  14.321  -3.820  1.00  0.00     0.000 A 
ENDBRANCH  64  77
ENDBRANCH  38  39
ENDBRANCH  31  33
ENDBRANCH  30  31
ENDBRANCH  29  30
ENDBRANCH  28  29
ENDBRANCH  27  28
ENDBRANCH   1  27
TORSDOF 20
