REMARK SMILES CC[C@@](C)([NH2+]Cc1ccc(C(N)=O)cc1F)C(=O)OCCOCCOC(=O)c1ccc(-c2c3nc(c(-c4ccccc4)c4ccc([nH]4)c(-c4ccccc4)c4nc(c(-c5ccccc5)c5ccc2[nH]5)C=C4)C=C3)cc1
REMARK SMILES IDX 21 1 20 2 19 3 17 4 18 5 3 6 4 7 2 8 1 9 5 10 6 13 7 14 8 15
REMARK SMILES IDX 15 16 9 17 14 18 16 19 10 20 11 21 12 22 13 23 22 26 23 27
REMARK SMILES IDX 24 28 25 29 26 30 27 31 28 32 29 33 75 34 30 35 74 36 31 37
REMARK SMILES IDX 32 38 33 39 68 40 34 41 73 42 67 43 69 44 35 45 72 46 66 47
REMARK SMILES IDX 65 48 36 50 58 51 43 52 57 53 44 54 47 55 56 56 70 57 45 58
REMARK SMILES IDX 46 59 55 61 71 62 48 63 37 64 38 65 42 66 39 67 41 68 40 69
REMARK SMILES IDX 59 70 60 71 64 72 61 73 63 74 62 75 49 76 50 77 54 78 51 79
REMARK SMILES IDX 53 80 52 81
REMARK H PARENT 5 11 5 12 12 24 12 25 69 49 47 60
REMARK Flexibility Score: inf
ROOT
ATOM      1  C   UNL     1       5.302   2.820  -0.260  1.00  0.00     0.202 C 
ENDROOT
BRANCH   1   2
ATOM      2  C   UNL     1       4.527   2.023  -1.312  1.00  0.00     0.261 C 
BRANCH   2   3
ATOM      3  O   UNL     1       3.141   2.382  -1.240  1.00  0.00    -0.459 OA
BRANCH   3   4
ATOM      4  C   UNL     1       2.220   1.400  -1.390  1.00  0.00     0.367 C 
ATOM      5  O   UNL     1       2.500   0.277  -1.796  1.00  0.00    -0.245 OA
BRANCH   4   6
ATOM      6  C   UNL     1       0.785   1.833  -0.961  1.00  0.00     0.191 C 
ATOM      7  C   UNL     1      -0.263   1.211  -1.907  1.00  0.00     0.092 C 
BRANCH   6   8
ATOM      8  C   UNL     1       0.513   1.260   0.472  1.00  0.00     0.077 C 
ATOM      9  C   UNL     1       0.739  -0.241   0.649  1.00  0.00     0.011 C 
ENDBRANCH   6   8
BRANCH   6  10
ATOM     10  N   UNL     1       0.549   3.306  -0.818  1.00  0.00    -0.329 N 
ATOM     11  H   UNL     1       0.879   3.555   0.114  1.00  0.00     0.347 HD
ATOM     12  H   UNL     1      -0.444   3.378  -1.040  1.00  0.00     0.347 HD
BRANCH  10  13
ATOM     13  C   UNL     1       1.129   4.298  -1.734  1.00  0.00     0.301 C 
BRANCH  13  14
ATOM     14  C   UNL     1       0.744   4.177  -3.183  1.00  0.00     0.042 A 
ATOM     15  C   UNL     1       1.363   3.239  -4.023  1.00  0.00     0.013 A 
ATOM     16  C   UNL     1      -0.264   4.981  -3.725  1.00  0.00     0.132 A 
ATOM     17  C   UNL     1       0.867   2.993  -5.303  1.00  0.00     0.014 A 
ATOM     18  C   UNL     1      -0.733   4.785  -5.020  1.00  0.00     0.053 A 
ATOM     19  F   UNL     1      -0.816   5.953  -2.984  1.00  0.00    -0.206 F 
ATOM     20  C   UNL     1      -0.211   3.740  -5.785  1.00  0.00     0.042 A 
BRANCH  20  21
ATOM     21  C   UNL     1      -0.841   3.425  -7.087  1.00  0.00     0.248 C 
ATOM     22  N   UNL     1      -0.886   2.104  -7.439  1.00  0.00    -0.366 N 
ATOM     23  O   UNL     1      -1.347   4.294  -7.783  1.00  0.00    -0.270 OA
ATOM     24  H   UNL     1      -0.470   1.426  -6.859  1.00  0.00     0.159 HD
ATOM     25  H   UNL     1      -1.334   1.832  -8.272  1.00  0.00     0.159 HD
ENDBRANCH  20  21
ENDBRANCH  13  14
ENDBRANCH  10  13
ENDBRANCH   6  10
ENDBRANCH   4   6
ENDBRANCH   3   4
ENDBRANCH   2   3
ENDBRANCH   1   2
BRANCH   1  26
ATOM     26  O   UNL     1       4.954   2.558   1.101  1.00  0.00    -0.374 OA
BRANCH  26  27
ATOM     27  C   UNL     1       3.699   3.058   1.567  1.00  0.00     0.202 C 
BRANCH  27  28
ATOM     28  C   UNL     1       3.631   4.541   1.942  1.00  0.00     0.261 C 
BRANCH  28  29
ATOM     29  O   UNL     1       3.811   5.407   0.809  1.00  0.00    -0.460 OA
BRANCH  29  30
ATOM     30  C   UNL     1       5.012   6.021   0.751  1.00  0.00     0.338 C 
ATOM     31  O   UNL     1       5.934   5.941   1.556  1.00  0.00    -0.246 OA
BRANCH  30  32
ATOM     32  C   UNL     1       5.152   6.710  -0.539  1.00  0.00     0.060 A 
ATOM     33  C   UNL     1       6.274   6.415  -1.325  1.00  0.00     0.016 A 
ATOM     34  C   UNL     1       4.238   7.688  -0.936  1.00  0.00     0.016 A 
ATOM     35  C   UNL     1       6.514   7.132  -2.494  1.00  0.00     0.010 A 
ATOM     36  C   UNL     1       4.486   8.413  -2.102  1.00  0.00     0.010 A 
ATOM     37  C   UNL     1       5.642   8.162  -2.865  1.00  0.00    -0.014 A 
BRANCH  37  38
ATOM     38  C   UNL     1       6.001   9.092  -3.958  1.00  0.00     0.031 A 
ATOM     39  C   UNL     1       6.543  10.446  -3.605  1.00  0.00     0.074 A 
ATOM     40  C   UNL     1       5.803   8.753  -5.243  1.00  0.00     0.049 A 
ATOM     41  N   UNL     1       6.777  11.475  -4.377  1.00  0.00    -0.248 NA
ATOM     42  C   UNL     1       6.848  10.673  -2.183  1.00  0.00     0.031 C 
ATOM     43  C   UNL     1       5.324   7.455  -5.711  1.00  0.00     0.029 A 
ATOM     44  N   UNL     1       5.954   9.496  -6.386  1.00  0.00    -0.354 N 
ATOM     45  C   UNL     1       7.227  12.482  -3.532  1.00  0.00     0.074 A 
ATOM     46  C   UNL     1       7.217  11.944  -2.189  1.00  0.00     0.031 C 
ATOM     47  C   UNL     1       5.186   7.502  -7.046  1.00  0.00     0.029 A 
ATOM     48  C   UNL     1       5.523   8.845  -7.515  1.00  0.00     0.049 A 
ATOM     49  H   UNL     1       6.333  10.404  -6.396  1.00  0.00     0.167 HD
ATOM     50  C   UNL     1       7.605  13.743  -3.848  1.00  0.00     0.031 A 
ATOM     51  C   UNL     1       5.372   9.297  -8.775  1.00  0.00     0.031 A 
ATOM     52  C   UNL     1       7.593  14.275  -5.185  1.00  0.00     0.049 A 
ATOM     53  C   UNL     1       5.733  10.721  -9.098  1.00  0.00     0.074 A 
ATOM     54  C   UNL     1       7.985  15.529  -5.618  1.00  0.00     0.029 A 
ATOM     55  N   UNL     1       7.149  13.584  -6.303  1.00  0.00    -0.354 N 
ATOM     56  N   UNL     1       6.185  11.660  -8.302  1.00  0.00    -0.248 NA
ATOM     57  C   UNL     1       5.570  11.146 -10.496  1.00  0.00     0.031 C 
ATOM     58  C   UNL     1       7.717  15.619  -6.988  1.00  0.00     0.029 A 
ATOM     59  C   UNL     1       7.226  14.396  -7.421  1.00  0.00     0.049 A 
ATOM     60  H   UNL     1       6.828  12.653  -6.301  1.00  0.00     0.167 HD
ATOM     61  C   UNL     1       6.388  12.776  -9.104  1.00  0.00     0.074 A 
ATOM     62  C   UNL     1       6.014  12.395 -10.451  1.00  0.00     0.031 C 
ATOM     63  C   UNL     1       6.850  14.003  -8.756  1.00  0.00     0.031 A 
BRANCH  50  64
ATOM     64  C   UNL     1       8.000  14.646  -2.712  1.00  0.00    -0.014 A 
ATOM     65  C   UNL     1       9.173  14.431  -1.970  1.00  0.00     0.009 A 
ATOM     66  C   UNL     1       7.174  15.729  -2.373  1.00  0.00     0.009 A 
ATOM     67  C   UNL     1       9.481  15.250  -0.881  1.00  0.00     0.001 A 
ATOM     68  C   UNL     1       7.502  16.567  -1.305  1.00  0.00     0.001 A 
ATOM     69  C   UNL     1       8.647  16.318  -0.551  1.00  0.00     0.000 A 
ENDBRANCH  50  64
BRANCH  51  70
ATOM     70  C   UNL     1       4.822   8.386  -9.811  1.00  0.00    -0.014 A 
ATOM     71  C   UNL     1       5.646   7.869 -10.821  1.00  0.00     0.009 A 
ATOM     72  C   UNL     1       3.473   7.999  -9.770  1.00  0.00     0.009 A 
ATOM     73  C   UNL     1       5.127   6.987 -11.772  1.00  0.00     0.001 A 
ATOM     74  C   UNL     1       2.964   7.096 -10.705  1.00  0.00     0.001 A 
ATOM     75  C   UNL     1       3.790   6.595 -11.709  1.00  0.00     0.000 A 
ENDBRANCH  51  70
BRANCH  63  76
ATOM     76  C   UNL     1       7.027  15.017  -9.852  1.00  0.00    -0.014 A 
ATOM     77  C   UNL     1       5.928  15.649 -10.454  1.00  0.00     0.009 A 
ATOM     78  C   UNL     1       8.323  15.397 -10.236  1.00  0.00     0.009 A 
ATOM     79  C   UNL     1       6.126  16.626 -11.433  1.00  0.00     0.001 A 
ATOM     80  C   UNL     1       8.518  16.394 -11.193  1.00  0.00     0.001 A 
ATOM     81  C   UNL     1       7.419  17.003 -11.796  1.00  0.00     0.000 A 
ENDBRANCH  63  76
ENDBRANCH  37  38
ENDBRANCH  30  32
ENDBRANCH  29  30
ENDBRANCH  28  29
ENDBRANCH  27  28
ENDBRANCH  26  27
ENDBRANCH   1  26
TORSDOF 19
