REMARK SMILES O=C(/C=C/c1ccc(NC(=O)[C@@H]2COc3ccccc3C2)cc1)OCCOCCOC(=O)c1ccc(-c2c3nc(c(-c4ccccc4)c4ccc([nH]4)c(-c4ccccc4)c4nc(c(-c5ccccc5)c5ccc2[nH]5)C=C4)C=C3)cc1
REMARK SMILES IDX 26 1 25 2 24 3 2 4 1 5 3 6 4 7 5 8 6 9 23 10 7 11 22 12 8 13
REMARK SMILES IDX 9 14 10 15 11 17 12 18 13 19 21 20 14 21 20 22 15 23 19 24
REMARK SMILES IDX 16 25 18 26 17 27 27 28 28 29 29 30 30 31 31 32 32 33 33 34
REMARK SMILES IDX 34 35 80 36 35 37 79 38 36 39 37 40 38 41 73 42 39 43 78 44
REMARK SMILES IDX 72 45 74 46 40 47 77 48 71 49 70 50 41 52 63 53 48 54 62 55
REMARK SMILES IDX 49 56 52 57 61 58 75 59 50 60 51 61 60 63 76 64 53 65 42 66
REMARK SMILES IDX 43 67 47 68 44 69 46 70 45 71 64 72 65 73 69 74 66 75 68 76
REMARK SMILES IDX 67 77 54 78 55 79 59 80 56 81 58 82 57 83
REMARK H PARENT 9 16 74 51 52 62
REMARK Flexibility Score: inf
ROOT
ATOM      1  C   UNL     1      11.425   5.734   0.233  1.00  0.00     0.202 C 
ENDROOT
BRANCH   1   2
ATOM      2  C   UNL     1      12.684   5.068   0.786  1.00  0.00     0.261 C 
BRANCH   2   3
ATOM      3  O   UNL     1      13.922   5.724   0.461  1.00  0.00    -0.460 OA
BRANCH   3   4
ATOM      4  C   UNL     1      14.610   5.653  -0.701  1.00  0.00     0.330 C 
ATOM      5  O   UNL     1      15.652   6.286  -0.847  1.00  0.00    -0.247 OA
BRANCH   4   6
ATOM      6  C   UNL     1      14.041   4.963  -1.865  1.00  0.00     0.094 C 
ATOM      7  C   UNL     1      13.430   3.773  -1.878  1.00  0.00     0.015 C 
BRANCH   7   8
ATOM      8  C   UNL     1      12.783   3.272  -3.082  1.00  0.00    -0.025 A 
ATOM      9  C   UNL     1      11.385   3.139  -3.142  1.00  0.00     0.010 A 
ATOM     10  C   UNL     1      13.570   2.865  -4.149  1.00  0.00     0.010 A 
ATOM     11  C   UNL     1      10.773   2.524  -4.240  1.00  0.00     0.027 A 
ATOM     12  C   UNL     1      12.962   2.268  -5.240  1.00  0.00     0.027 A 
ATOM     13  C   UNL     1      11.573   2.056  -5.271  1.00  0.00     0.041 A 
BRANCH  13  14
ATOM     14  N   UNL     1      11.166   1.206  -6.287  1.00  0.00    -0.326 N 
ATOM     15  C   UNL     1      10.043   0.561  -6.601  1.00  0.00     0.231 C 
ATOM     16  H   UNL     1      11.884   1.037  -6.938  1.00  0.00     0.169 HD
ATOM     17  O   UNL     1      10.252  -0.531  -7.163  1.00  0.00    -0.274 OA
BRANCH  15  18
ATOM     18  C   UNL     1       8.624   1.051  -6.555  1.00  0.00     0.121 C 
ATOM     19  C   UNL     1       7.862   2.350  -6.390  1.00  0.00     0.243 C 
ATOM     20  C   UNL     1       7.666  -0.040  -6.066  1.00  0.00     0.056 C 
ATOM     21  O   UNL     1       6.643   2.332  -7.230  1.00  0.00    -0.492 OA
ATOM     22  C   UNL     1       6.718  -0.116  -7.225  1.00  0.00    -0.005 A 
ATOM     23  C   UNL     1       6.303   1.107  -7.793  1.00  0.00     0.122 A 
ATOM     24  C   UNL     1       6.582  -1.321  -7.920  1.00  0.00     0.007 A 
ATOM     25  C   UNL     1       5.767   1.107  -9.077  1.00  0.00     0.047 A 
ATOM     26  C   UNL     1       6.097  -1.302  -9.222  1.00  0.00     0.001 A 
ATOM     27  C   UNL     1       5.699  -0.094  -9.800  1.00  0.00     0.004 A 
ENDBRANCH  15  18
ENDBRANCH  13  14
ENDBRANCH   7   8
ENDBRANCH   4   6
ENDBRANCH   3   4
ENDBRANCH   2   3
ENDBRANCH   1   2
BRANCH   1  28
ATOM     28  O   UNL     1      11.376   5.968  -1.172  1.00  0.00    -0.374 OA
BRANCH  28  29
ATOM     29  C   UNL     1      11.785   7.280  -1.579  1.00  0.00     0.202 C 
BRANCH  29  30
ATOM     30  C   UNL     1      10.668   8.332  -1.568  1.00  0.00     0.261 C 
BRANCH  30  31
ATOM     31  O   UNL     1      10.101   8.476  -0.257  1.00  0.00    -0.460 OA
BRANCH  31  32
ATOM     32  C   UNL     1       8.979   7.747  -0.049  1.00  0.00     0.338 C 
ATOM     33  O   UNL     1       8.318   7.150  -0.887  1.00  0.00    -0.246 OA
BRANCH  32  34
ATOM     34  C   UNL     1       8.771   7.577   1.404  1.00  0.00     0.060 A 
ATOM     35  C   UNL     1       8.357   6.314   1.847  1.00  0.00     0.016 A 
ATOM     36  C   UNL     1       8.995   8.610   2.319  1.00  0.00     0.016 A 
ATOM     37  C   UNL     1       8.107   6.096   3.197  1.00  0.00     0.010 A 
ATOM     38  C   UNL     1       8.738   8.392   3.676  1.00  0.00     0.010 A 
ATOM     39  C   UNL     1       8.250   7.148   4.111  1.00  0.00    -0.014 A 
BRANCH  39  40
ATOM     40  C   UNL     1       7.705   6.979   5.477  1.00  0.00     0.031 A 
ATOM     41  C   UNL     1       6.356   7.567   5.789  1.00  0.00     0.074 A 
ATOM     42  C   UNL     1       8.358   6.243   6.393  1.00  0.00     0.049 A 
ATOM     43  N   UNL     1       5.654   7.494   6.890  1.00  0.00    -0.248 NA
ATOM     44  C   UNL     1       5.710   8.340   4.714  1.00  0.00     0.031 C 
ATOM     45  C   UNL     1       9.654   5.596   6.193  1.00  0.00     0.029 A 
ATOM     46  N   UNL     1       8.007   5.910   7.676  1.00  0.00    -0.354 N 
ATOM     47  C   UNL     1       4.485   8.201   6.637  1.00  0.00     0.074 A 
ATOM     48  C   UNL     1       4.593   8.739   5.300  1.00  0.00     0.031 C 
ATOM     49  C   UNL     1       9.989   4.938   7.317  1.00  0.00     0.029 A 
ATOM     50  C   UNL     1       8.945   5.141   8.319  1.00  0.00     0.049 A 
ATOM     51  H   UNL     1       7.164   6.194   8.096  1.00  0.00     0.167 HD
ATOM     52  C   UNL     1       3.409   8.374   7.440  1.00  0.00     0.031 A 
ATOM     53  C   UNL     1       8.962   4.665   9.579  1.00  0.00     0.031 A 
ATOM     54  C   UNL     1       3.314   7.859   8.780  1.00  0.00     0.049 A 
ATOM     55  C   UNL     1       7.785   4.936  10.479  1.00  0.00     0.074 A 
ATOM     56  C   UNL     1       2.272   7.985   9.681  1.00  0.00     0.029 A 
ATOM     57  N   UNL     1       4.305   7.124   9.412  1.00  0.00    -0.354 N 
ATOM     58  N   UNL     1       6.675   5.585  10.219  1.00  0.00    -0.248 NA
ATOM     59  C   UNL     1       7.857   4.390  11.841  1.00  0.00     0.031 C 
ATOM     60  C   UNL     1       2.657   7.375  10.880  1.00  0.00     0.029 A 
ATOM     61  C   UNL     1       3.908   6.807  10.700  1.00  0.00     0.049 A 
ATOM     62  H   UNL     1       5.163   6.865   9.005  1.00  0.00     0.167 HD
ATOM     63  C   UNL     1       5.907   5.503  11.375  1.00  0.00     0.074 A 
ATOM     64  C   UNL     1       6.668   4.716  12.324  1.00  0.00     0.031 C 
ATOM     65  C   UNL     1       4.685   6.032  11.633  1.00  0.00     0.031 A 
BRANCH  52  66
ATOM     66  C   UNL     1       2.259   9.174   6.891  1.00  0.00    -0.014 A 
ATOM     67  C   UNL     1       1.449   8.672   5.859  1.00  0.00     0.009 A 
ATOM     68  C   UNL     1       1.965  10.435   7.431  1.00  0.00     0.009 A 
ATOM     69  C   UNL     1       0.389   9.431   5.359  1.00  0.00     0.001 A 
ATOM     70  C   UNL     1       0.885  11.178   6.950  1.00  0.00     0.001 A 
ATOM     71  C   UNL     1       0.103  10.680   5.909  1.00  0.00     0.000 A 
ENDBRANCH  52  66
BRANCH  53  72
ATOM     72  C   UNL     1      10.140   3.905  10.077  1.00  0.00    -0.014 A 
ATOM     73  C   UNL     1      10.039   2.547  10.413  1.00  0.00     0.009 A 
ATOM     74  C   UNL     1      11.374   4.554  10.250  1.00  0.00     0.009 A 
ATOM     75  C   UNL     1      11.137   1.865  10.944  1.00  0.00     0.001 A 
ATOM     76  C   UNL     1      12.479   3.861  10.747  1.00  0.00     0.001 A 
ATOM     77  C   UNL     1      12.357   2.520  11.106  1.00  0.00     0.000 A 
ENDBRANCH  53  72
BRANCH  65  78
ATOM     78  C   UNL     1       4.088   5.744  12.985  1.00  0.00    -0.014 A 
ATOM     79  C   UNL     1       4.628   6.296  14.158  1.00  0.00     0.009 A 
ATOM     80  C   UNL     1       2.959   4.915  13.082  1.00  0.00     0.009 A 
ATOM     81  C   UNL     1       4.083   5.978  15.404  1.00  0.00     0.001 A 
ATOM     82  C   UNL     1       2.394   4.629  14.325  1.00  0.00     0.001 A 
ATOM     83  C   UNL     1       2.965   5.148  15.486  1.00  0.00     0.000 A 
ENDBRANCH  65  78
ENDBRANCH  39  40
ENDBRANCH  32  34
ENDBRANCH  31  32
ENDBRANCH  30  31
ENDBRANCH  29  30
ENDBRANCH  28  29
ENDBRANCH   1  28
TORSDOF 17
