REMARK SMILES Nc1c(Nc2ccc(I)cc2)ncnc1Nc1ccc(C(=O)OCCOCCOC(=O)c2ccc(-c3c4nc(c(-c5ccccc5)c5ccc([nH]5)c(-c5ccccc5)c5nc(c(-c6ccccc6)c6ccc3[nH]6)C=C5)C=C4)cc2)cc1
REMARK SMILES IDX 25 1 24 2 23 3 21 4 22 5 20 6 17 7 18 8 81 9 19 10 80 11
REMARK SMILES IDX 16 12 15 14 2 15 3 16 12 17 14 18 13 19 1 20 4 23 5 25 6 26
REMARK SMILES IDX 11 27 7 28 10 29 8 30 9 31 26 32 27 33 28 34 29 35 30 36
REMARK SMILES IDX 31 37 32 38 33 39 79 40 34 41 78 42 35 43 36 44 37 45 72 46
REMARK SMILES IDX 38 47 77 48 71 49 73 50 39 51 76 52 70 53 69 54 40 56 62 57
REMARK SMILES IDX 47 58 61 59 48 60 51 61 60 62 74 63 49 64 50 65 59 67 75 68
REMARK SMILES IDX 52 69 41 70 42 71 46 72 43 73 45 74 44 75 63 76 64 77 68 78
REMARK SMILES IDX 65 79 67 80 66 81 53 82 54 83 58 84 55 85 57 86 56 87
REMARK H PARENT 16 13 1 21 1 22 4 24 73 55 51 66
REMARK Flexibility Score: inf
ROOT
ATOM      1  C   UNL     1       3.738  -1.780  10.733  1.00  0.00     0.202 C 
ENDROOT
BRANCH   1   2
ATOM      2  C   UNL     1       2.438  -2.412  10.230  1.00  0.00     0.261 C 
BRANCH   2   3
ATOM      3  O   UNL     1       2.372  -2.384   8.797  1.00  0.00    -0.460 OA
BRANCH   3   4
ATOM      4  C   UNL     1       1.465  -1.515   8.292  1.00  0.00     0.338 C 
ATOM      5  O   UNL     1       0.620  -0.892   8.919  1.00  0.00    -0.246 OA
BRANCH   4   6
ATOM      6  C   UNL     1       1.722  -1.279   6.855  1.00  0.00     0.060 A 
ATOM      7  C   UNL     1       1.899  -0.766   4.109  1.00  0.00     0.040 A 
ATOM      8  C   UNL     1       1.530   0.255   4.991  1.00  0.00     0.027 A 
ATOM      9  C   UNL     1       2.273  -2.017   4.629  1.00  0.00     0.027 A 
ATOM     10  C   UNL     1       1.431  -0.004   6.356  1.00  0.00     0.018 A 
ATOM     11  C   UNL     1       2.195  -2.276   6.000  1.00  0.00     0.018 A 
BRANCH   7  12
ATOM     12  N   UNL     1       1.640  -0.604   2.731  1.00  0.00    -0.338 N 
ATOM     13  H   UNL     1       2.175   0.044   2.219  1.00  0.00     0.168 HD
BRANCH  12  14
ATOM     14  C   UNL     1       0.630  -1.346   2.056  1.00  0.00     0.159 A 
ATOM     15  C   UNL     1       0.357  -1.067   0.712  1.00  0.00     0.118 A 
ATOM     16  C   UNL     1      -0.680  -1.828   0.149  1.00  0.00     0.159 A 
ATOM     17  N   UNL     1      -1.391  -2.727   0.856  1.00  0.00    -0.217 NA
ATOM     18  N   UNL     1      -0.048  -2.281   2.752  1.00  0.00    -0.217 NA
ATOM     19  C   UNL     1      -1.032  -2.916   2.122  1.00  0.00     0.226 A 
BRANCH  15  20
ATOM     20  N   UNL     1       1.075  -0.122  -0.028  1.00  0.00    -0.393 N 
ATOM     21  H   UNL     1       0.847   0.040  -0.972  1.00  0.00     0.156 HD
ATOM     22  H   UNL     1       1.808   0.380   0.395  1.00  0.00     0.156 HD
ENDBRANCH  15  20
BRANCH  16  23
ATOM     23  N   UNL     1      -0.968  -1.662  -1.229  1.00  0.00    -0.338 N 
ATOM     24  H   UNL     1      -0.387  -1.046  -1.732  1.00  0.00     0.168 HD
BRANCH  23  25
ATOM     25  C   UNL     1      -2.001  -2.289  -1.948  1.00  0.00     0.040 A 
ATOM     26  C   UNL     1      -1.704  -2.936  -3.154  1.00  0.00     0.027 A 
ATOM     27  C   UNL     1      -3.305  -2.382  -1.444  1.00  0.00     0.027 A 
ATOM     28  C   UNL     1      -2.679  -3.677  -3.828  1.00  0.00     0.017 A 
ATOM     29  C   UNL     1      -4.288  -3.112  -2.118  1.00  0.00     0.017 A 
ATOM     30  C   UNL     1      -3.967  -3.767  -3.304  1.00  0.00     0.013 A 
ATOM     31  I   UNL     1      -5.404  -4.905  -4.281  1.00  0.00    -0.044 I 
ENDBRANCH  23  25
ENDBRANCH  16  23
ENDBRANCH  12  14
ENDBRANCH   7  12
ENDBRANCH   4   6
ENDBRANCH   3   4
ENDBRANCH   2   3
ENDBRANCH   1   2
BRANCH   1  32
ATOM     32  O   UNL     1       3.922  -0.394  10.445  1.00  0.00    -0.374 OA
BRANCH  32  33
ATOM     33  C   UNL     1       4.405  -0.056   9.143  1.00  0.00     0.202 C 
BRANCH  33  34
ATOM     34  C   UNL     1       5.909  -0.235   8.908  1.00  0.00     0.261 C 
BRANCH  34  35
ATOM     35  O   UNL     1       6.282  -1.625   8.889  1.00  0.00    -0.460 OA
BRANCH  35  36
ATOM     36  C   UNL     1       7.041  -2.028   9.933  1.00  0.00     0.338 C 
ATOM     37  O   UNL     1       7.515  -1.334  10.822  1.00  0.00    -0.246 OA
BRANCH  36  38
ATOM     38  C   UNL     1       7.084  -3.500   9.977  1.00  0.00     0.060 A 
ATOM     39  C   UNL     1       6.692  -4.124  11.168  1.00  0.00     0.016 A 
ATOM     40  C   UNL     1       7.556  -4.255   8.901  1.00  0.00     0.016 A 
ATOM     41  C   UNL     1       6.812  -5.504  11.305  1.00  0.00     0.010 A 
ATOM     42  C   UNL     1       7.689  -5.640   9.044  1.00  0.00     0.010 A 
ATOM     43  C   UNL     1       7.348  -6.265  10.257  1.00  0.00    -0.014 A 
BRANCH  43  44
ATOM     44  C   UNL     1       7.679  -7.690  10.491  1.00  0.00     0.031 A 
ATOM     45  C   UNL     1       9.092  -8.061  10.848  1.00  0.00     0.074 A 
ATOM     46  C   UNL     1       6.725  -8.636  10.437  1.00  0.00     0.049 A 
ATOM     47  N   UNL     1       9.597  -9.241  11.105  1.00  0.00    -0.248 NA
ATOM     48  C   UNL     1      10.062  -6.957  10.934  1.00  0.00     0.031 C 
ATOM     49  C   UNL     1       5.310  -8.394  10.159  1.00  0.00     0.029 A 
ATOM     50  N   UNL     1       6.806  -9.992  10.626  1.00  0.00    -0.354 N 
ATOM     51  C   UNL     1      10.938  -9.020  11.389  1.00  0.00     0.074 A 
ATOM     52  C   UNL     1      11.179  -7.602  11.239  1.00  0.00     0.031 C 
ATOM     53  C   UNL     1       4.653  -9.566  10.204  1.00  0.00     0.029 A 
ATOM     54  C   UNL     1       5.604 -10.640  10.482  1.00  0.00     0.049 A 
ATOM     55  H   UNL     1       7.646 -10.457  10.844  1.00  0.00     0.167 HD
ATOM     56  C   UNL     1      11.884  -9.918  11.754  1.00  0.00     0.031 A 
ATOM     57  C   UNL     1       5.307 -11.952  10.556  1.00  0.00     0.031 A 
ATOM     58  C   UNL     1      11.652 -11.330  11.886  1.00  0.00     0.049 A 
ATOM     59  C   UNL     1       6.399 -12.943  10.861  1.00  0.00     0.074 A 
ATOM     60  C   UNL     1      12.551 -12.319  12.245  1.00  0.00     0.029 A 
ATOM     61  N   UNL     1      10.437 -11.955  11.658  1.00  0.00    -0.354 N 
ATOM     62  N   UNL     1       7.662 -12.721  11.133  1.00  0.00    -0.248 NA
ATOM     63  C   UNL     1       6.022 -14.364  10.871  1.00  0.00     0.031 C 
ATOM     64  C   UNL     1      11.891 -13.550  12.184  1.00  0.00     0.029 A 
ATOM     65  C   UNL     1      10.568 -13.320  11.844  1.00  0.00     0.049 A 
ATOM     66  H   UNL     1       9.604 -11.496  11.402  1.00  0.00     0.167 HD
ATOM     67  C   UNL     1       8.224 -13.969  11.372  1.00  0.00     0.074 A 
ATOM     68  C   UNL     1       7.163 -14.944  11.222  1.00  0.00     0.031 C 
ATOM     69  C   UNL     1       9.504 -14.278  11.691  1.00  0.00     0.031 A 
BRANCH  56  70
ATOM     70  C   UNL     1      13.268  -9.399  12.018  1.00  0.00    -0.014 A 
ATOM     71  C   UNL     1      13.558  -8.669  13.181  1.00  0.00     0.009 A 
ATOM     72  C   UNL     1      14.308  -9.694  11.122  1.00  0.00     0.009 A 
ATOM     73  C   UNL     1      14.858  -8.226  13.431  1.00  0.00     0.001 A 
ATOM     74  C   UNL     1      15.611  -9.271  11.387  1.00  0.00     0.001 A 
ATOM     75  C   UNL     1      15.884  -8.533  12.538  1.00  0.00     0.000 A 
ENDBRANCH  56  70
BRANCH  57  76
ATOM     76  C   UNL     1       3.910 -12.407  10.336  1.00  0.00    -0.014 A 
ATOM     77  C   UNL     1       3.145 -12.901  11.404  1.00  0.00     0.009 A 
ATOM     78  C   UNL     1       3.332 -12.344   9.059  1.00  0.00     0.009 A 
ATOM     79  C   UNL     1       1.834 -13.334  11.193  1.00  0.00     0.001 A 
ATOM     80  C   UNL     1       2.012 -12.754   8.856  1.00  0.00     0.001 A 
ATOM     81  C   UNL     1       1.266 -13.254   9.922  1.00  0.00     0.000 A 
ENDBRANCH  57  76
BRANCH  69  82
ATOM     82  C   UNL     1       9.837 -15.724  11.927  1.00  0.00    -0.014 A 
ATOM     83  C   UNL     1       9.950 -16.626  10.859  1.00  0.00     0.009 A 
ATOM     84  C   UNL     1      10.129 -16.167  13.227  1.00  0.00     0.009 A 
ATOM     85  C   UNL     1      10.333 -17.949  11.091  1.00  0.00     0.001 A 
ATOM     86  C   UNL     1      10.536 -17.482  13.453  1.00  0.00     0.001 A 
ATOM     87  C   UNL     1      10.633 -18.373  12.386  1.00  0.00     0.000 A 
ENDBRANCH  69  82
ENDBRANCH  43  44
ENDBRANCH  36  38
ENDBRANCH  35  36
ENDBRANCH  34  35
ENDBRANCH  33  34
ENDBRANCH  32  33
ENDBRANCH   1  32
TORSDOF 19
