REMARK SMILES Cc1ccc(-c2csc(NC(=O)[C@H]3[C@@H](C(=O)OCCOCCOC(=O)c4ccc(-c5c6nc(c(-c7ccccc7)c7ccc([nH]7)c(-c7ccccc7)c7nc(c(-c8ccccc8)c8ccc5[nH]8)C=C7)C=C6)cc4)[C@H]4C=C[C@@H]3C4)c2C(=O)NC2CC2)cc1
REMARK SMILES IDX 19 1 18 2 17 3 15 4 16 5 14 6 13 7 77 8 74 9 76 10 78 11
REMARK SMILES IDX 75 12 11 13 10 14 12 16 9 17 6 18 7 19 79 20 8 21 5 22 1 23
REMARK SMILES IDX 2 24 3 25 87 26 4 27 86 28 80 29 81 30 82 31 83 33 84 34
REMARK SMILES IDX 85 35 20 36 21 37 22 38 23 39 24 40 25 41 26 42 27 43 73 44
REMARK SMILES IDX 28 45 72 46 29 47 30 48 31 49 66 50 32 51 71 52 65 53 67 54
REMARK SMILES IDX 33 55 70 56 64 57 63 58 34 60 56 61 41 62 55 63 42 64 45 65
REMARK SMILES IDX 54 66 68 67 43 68 44 69 53 71 69 72 46 73 35 74 36 75 40 76
REMARK SMILES IDX 37 77 39 78 38 79 57 80 58 81 62 82 59 83 61 84 60 85 47 86
REMARK SMILES IDX 48 87 52 88 49 89 51 90 50 91
REMARK H PARENT 10 15 82 32 67 59 45 70
REMARK Flexibility Score: inf
ROOT
ATOM      1  C   UNL     1      -4.570  -1.043  -1.193  1.00  0.00     0.202 C 
ENDROOT
BRANCH   1   2
ATOM      2  C   UNL     1      -4.739   0.416  -0.939  1.00  0.00     0.261 C 
BRANCH   2   3
ATOM      3  O   UNL     1      -5.843   0.720  -0.059  1.00  0.00    -0.463 OA
BRANCH   3   4
ATOM      4  C   UNL     1      -7.098   0.847  -0.604  1.00  0.00     0.310 C 
ATOM      5  O   UNL     1      -7.381   0.721  -1.773  1.00  0.00    -0.252 OA
BRANCH   4   6
ATOM      6  C   UNL     1      -8.068   1.270   0.487  1.00  0.00     0.119 C 
ATOM      7  C   UNL     1      -9.222   0.248   0.752  1.00  0.00     0.100 C 
ATOM      8  C   UNL     1     -10.476   1.126   0.464  1.00  0.00     0.025 C 
ATOM      9  C   UNL     1      -8.827   2.586   0.162  1.00  0.00     0.027 C 
ATOM     10  C   UNL     1     -10.539   1.568  -0.975  1.00  0.00    -0.027 C 
ATOM     11  C   UNL     1     -10.028   2.452   1.093  1.00  0.00     0.017 C 
ATOM     12  C   UNL     1      -9.571   2.476  -1.147  1.00  0.00    -0.027 C 
BRANCH   7  13
ATOM     13  C   UNL     1      -8.962  -1.090   0.050  1.00  0.00     0.229 C 
ATOM     14  N   UNL     1      -9.921  -1.661  -0.726  1.00  0.00    -0.317 N 
ATOM     15  H   UNL     1      -9.646  -2.014  -1.603  1.00  0.00     0.170 HD
ATOM     16  O   UNL     1      -7.869  -1.651   0.177  1.00  0.00    -0.274 OA
BRANCH  14  17
ATOM     17  C   UNL     1     -11.247  -1.783  -0.380  1.00  0.00     0.108 A 
ATOM     18  C   UNL     1     -13.544  -1.809  -0.365  1.00  0.00     0.007 A 
ATOM     19  C   UNL     1     -13.218  -1.457   0.938  1.00  0.00     0.076 A 
ATOM     20  C   UNL     1     -12.351  -2.050  -1.192  1.00  0.00     0.082 A 
ATOM     21  S   UNL     1     -11.610  -1.825   1.285  1.00  0.00    -0.125 S 
BRANCH  18  22
ATOM     22  C   UNL     1     -14.971  -2.019  -0.543  1.00  0.00    -0.017 A 
ATOM     23  C   UNL     1     -18.902  -3.420  -1.438  1.00  0.00     0.044 C 
ATOM     24  C   UNL     1     -17.619  -2.806  -0.966  1.00  0.00    -0.051 A 
ATOM     25  C   UNL     1     -16.813  -3.543  -0.101  1.00  0.00     0.004 A 
ATOM     26  C   UNL     1     -17.140  -1.593  -1.493  1.00  0.00     0.004 A 
ATOM     27  C   UNL     1     -15.511  -3.133   0.129  1.00  0.00     0.009 A 
ATOM     28  C   UNL     1     -15.812  -1.189  -1.279  1.00  0.00     0.009 A 
ENDBRANCH  18  22
BRANCH  20  29
ATOM     29  C   UNL     1     -12.076  -2.328  -2.622  1.00  0.00     0.255 C 
ATOM     30  O   UNL     1     -11.180  -1.690  -3.195  1.00  0.00    -0.269 OA
ATOM     31  N   UNL     1     -12.583  -3.339  -3.408  1.00  0.00    -0.349 N 
ATOM     32  H   UNL     1     -12.205  -3.305  -4.317  1.00  0.00     0.164 HD
BRANCH  31  33
ATOM     33  C   UNL     1     -13.497  -4.415  -3.274  1.00  0.00     0.082 C 
ATOM     34  C   UNL     1     -14.038  -4.920  -1.989  1.00  0.00     0.027 C 
ATOM     35  C   UNL     1     -14.919  -4.136  -2.937  1.00  0.00     0.027 C 
ENDBRANCH  31  33
ENDBRANCH  20  29
ENDBRANCH  14  17
ENDBRANCH   7  13
ENDBRANCH   4   6
ENDBRANCH   3   4
ENDBRANCH   2   3
ENDBRANCH   1   2
BRANCH   1  36
ATOM     36  O   UNL     1      -5.560  -1.280  -2.173  1.00  0.00    -0.374 OA
BRANCH  36  37
ATOM     37  C   UNL     1      -6.053  -2.587  -2.279  1.00  0.00     0.202 C 
BRANCH  37  38
ATOM     38  C   UNL     1      -5.007  -3.502  -2.903  1.00  0.00     0.261 C 
BRANCH  38  39
ATOM     39  O   UNL     1      -4.650  -3.026  -4.223  1.00  0.00    -0.460 OA
BRANCH  39  40
ATOM     40  C   UNL     1      -3.570  -2.192  -4.269  1.00  0.00     0.338 C 
ATOM     41  O   UNL     1      -2.460  -2.463  -3.836  1.00  0.00    -0.246 OA
BRANCH  40  42
ATOM     42  C   UNL     1      -3.990  -0.815  -4.673  1.00  0.00     0.060 A 
ATOM     43  C   UNL     1      -3.138   0.277  -4.408  1.00  0.00     0.016 A 
ATOM     44  C   UNL     1      -5.338  -0.592  -4.939  1.00  0.00     0.016 A 
ATOM     45  C   UNL     1      -3.672   1.563  -4.238  1.00  0.00     0.010 A 
ATOM     46  C   UNL     1      -5.871   0.642  -4.625  1.00  0.00     0.010 A 
ATOM     47  C   UNL     1      -5.057   1.726  -4.265  1.00  0.00    -0.014 A 
BRANCH  47  48
ATOM     48  C   UNL     1      -5.774   2.962  -3.942  1.00  0.00     0.031 A 
ATOM     49  C   UNL     1      -6.423   3.654  -5.072  1.00  0.00     0.074 A 
ATOM     50  C   UNL     1      -5.924   3.489  -2.701  1.00  0.00     0.049 A 
ATOM     51  N   UNL     1      -6.416   4.937  -5.204  1.00  0.00    -0.248 NA
ATOM     52  C   UNL     1      -7.060   2.962  -6.194  1.00  0.00     0.031 C 
ATOM     53  C   UNL     1      -6.876   4.515  -2.287  1.00  0.00     0.029 A 
ATOM     54  N   UNL     1      -5.241   3.204  -1.522  1.00  0.00    -0.354 N 
ATOM     55  C   UNL     1      -7.322   5.219  -6.194  1.00  0.00     0.074 A 
ATOM     56  C   UNL     1      -7.539   3.984  -6.903  1.00  0.00     0.031 C 
ATOM     57  C   UNL     1      -6.601   4.910  -1.031  1.00  0.00     0.029 A 
ATOM     58  C   UNL     1      -5.408   4.213  -0.579  1.00  0.00     0.049 A 
ATOM     59  H   UNL     1      -4.707   2.390  -1.375  1.00  0.00     0.167 HD
ATOM     60  C   UNL     1      -8.017   6.386  -6.174  1.00  0.00     0.031 A 
ATOM     61  C   UNL     1      -4.349   4.728   0.098  1.00  0.00     0.031 A 
ATOM     62  C   UNL     1      -7.770   7.132  -4.936  1.00  0.00     0.049 A 
ATOM     63  C   UNL     1      -4.135   6.113  -0.442  1.00  0.00     0.074 A 
ATOM     64  C   UNL     1      -8.533   7.309  -3.792  1.00  0.00     0.029 A 
ATOM     65  N   UNL     1      -6.470   7.503  -4.591  1.00  0.00    -0.354 N 
ATOM     66  N   UNL     1      -4.663   6.486  -1.576  1.00  0.00    -0.248 NA
ATOM     67  C   UNL     1      -3.437   7.201   0.229  1.00  0.00     0.031 C 
ATOM     68  C   UNL     1      -7.679   7.780  -2.757  1.00  0.00     0.029 A 
ATOM     69  C   UNL     1      -6.398   7.905  -3.270  1.00  0.00     0.049 A 
ATOM     70  H   UNL     1      -5.703   7.481  -5.208  1.00  0.00     0.167 HD
ATOM     71  C   UNL     1      -4.538   7.824  -1.723  1.00  0.00     0.074 A 
ATOM     72  C   UNL     1      -3.695   8.226  -0.609  1.00  0.00     0.031 C 
ATOM     73  C   UNL     1      -5.171   8.487  -2.728  1.00  0.00     0.031 A 
BRANCH  60  74
ATOM     74  C   UNL     1      -9.174   6.617  -7.115  1.00  0.00    -0.014 A 
ATOM     75  C   UNL     1     -10.282   7.376  -6.710  1.00  0.00     0.009 A 
ATOM     76  C   UNL     1      -9.220   6.099  -8.425  1.00  0.00     0.009 A 
ATOM     77  C   UNL     1     -11.406   7.539  -7.532  1.00  0.00     0.001 A 
ATOM     78  C   UNL     1     -10.359   6.216  -9.233  1.00  0.00     0.001 A 
ATOM     79  C   UNL     1     -11.455   6.938  -8.784  1.00  0.00     0.000 A 
ENDBRANCH  60  74
BRANCH  61  80
ATOM     80  C   UNL     1      -3.347   3.723   0.564  1.00  0.00    -0.014 A 
ATOM     81  C   UNL     1      -3.731   2.866   1.626  1.00  0.00     0.009 A 
ATOM     82  C   UNL     1      -2.222   3.353  -0.187  1.00  0.00     0.009 A 
ATOM     83  C   UNL     1      -3.069   1.653   1.875  1.00  0.00     0.001 A 
ATOM     84  C   UNL     1      -1.558   2.135   0.064  1.00  0.00     0.001 A 
ATOM     85  C   UNL     1      -1.990   1.278   1.080  1.00  0.00     0.000 A 
ENDBRANCH  61  80
BRANCH  73  86
ATOM     86  C   UNL     1      -4.728   9.815  -3.252  1.00  0.00    -0.014 A 
ATOM     87  C   UNL     1      -3.443  10.327  -3.041  1.00  0.00     0.009 A 
ATOM     88  C   UNL     1      -5.558  10.500  -4.164  1.00  0.00     0.009 A 
ATOM     89  C   UNL     1      -3.025  11.497  -3.676  1.00  0.00     0.001 A 
ATOM     90  C   UNL     1      -5.121  11.629  -4.848  1.00  0.00     0.001 A 
ATOM     91  C   UNL     1      -3.857  12.137  -4.589  1.00  0.00     0.000 A 
ENDBRANCH  73  86
ENDBRANCH  47  48
ENDBRANCH  40  42
ENDBRANCH  39  40
ENDBRANCH  38  39
ENDBRANCH  37  38
ENDBRANCH  36  37
ENDBRANCH   1  36
TORSDOF 19
