REMARK SMILES Cc1ccc(S(=O)(=O)Nc2ccc(N3CCCCCC3)cc2C(=O)OCCOCCOC(=O)c2ccc(-c3c4nc(c(-c5ccccc5)c5ccc([nH]5)c(-c5ccccc5)c5nc(c(-c6ccccc6)c6ccc3[nH]6)C=C5)C=C4)cc2)cc1
REMARK SMILES IDX 27 1 26 2 25 3 23 4 24 5 22 6 10 7 11 8 12 9 21 10 13 11
REMARK SMILES IDX 9 12 6 14 7 15 8 16 5 17 1 18 2 19 3 20 83 21 4 22 82 23
REMARK SMILES IDX 14 24 15 25 16 26 17 27 20 29 19 30 18 31 28 33 29 34 30 35
REMARK SMILES IDX 31 36 32 37 33 38 34 39 35 40 81 41 36 42 80 43 37 44 38 45
REMARK SMILES IDX 39 46 74 47 40 48 79 49 73 50 75 51 41 52 78 53 72 54 71 55
REMARK SMILES IDX 42 57 64 58 49 59 63 60 50 61 53 62 62 63 76 64 51 65 52 66
REMARK SMILES IDX 61 68 77 69 54 70 43 71 44 72 48 73 45 74 47 75 46 76 65 77
REMARK SMILES IDX 66 78 70 79 67 80 69 81 68 82 55 83 56 84 60 85 57 86 59 87
REMARK SMILES IDX 58 88
REMARK H PARENT 9 13 75 56 53 67
REMARK Flexibility Score: 100.00
ROOT
ATOM      1  C   UNL     1       0.392   0.375  -2.452  1.00  0.00     0.202 C 
ENDROOT
BRANCH   1   2
ATOM      2  C   UNL     1       0.422   1.664  -1.668  1.00  0.00     0.261 C 
BRANCH   2   3
ATOM      3  O   UNL     1      -0.641   2.009  -0.770  1.00  0.00    -0.460 OA
BRANCH   3   4
ATOM      4  C   UNL     1      -1.981   1.959  -0.973  1.00  0.00     0.340 C 
ATOM      5  O   UNL     1      -2.674   1.129  -1.488  1.00  0.00    -0.246 OA
BRANCH   4   6
ATOM      6  C   UNL     1      -2.473   3.138  -0.244  1.00  0.00     0.086 A 
ATOM      7  C   UNL     1      -3.423   3.025   0.768  1.00  0.00     0.064 A 
ATOM      8  C   UNL     1      -3.583   4.111   1.631  1.00  0.00     0.030 A 
ATOM      9  C   UNL     1      -2.775   5.266   1.474  1.00  0.00     0.028 A 
ATOM     10  C   UNL     1      -1.764   4.320  -0.457  1.00  0.00     0.043 A 
ATOM     11  C   UNL     1      -1.852   5.382   0.424  1.00  0.00     0.038 A 
BRANCH   7  12
ATOM     12  N   UNL     1      -4.122   1.796   0.950  1.00  0.00    -0.279 N 
ATOM     13  H   UNL     1      -4.933   1.645   0.412  1.00  0.00     0.180 HD
BRANCH  12  14
ATOM     14  S   UNL     1      -3.653   0.576   2.026  1.00  0.00     0.261 S 
ATOM     15  O   UNL     1      -4.027  -0.639   1.323  1.00  0.00    -0.201 OA
ATOM     16  O   UNL     1      -4.201   0.870   3.331  1.00  0.00    -0.201 OA
BRANCH  14  17
ATOM     17  C   UNL     1      -1.878   0.484   2.225  1.00  0.00     0.087 A 
ATOM     18  C   UNL     1       2.379   0.048   1.786  1.00  0.00     0.044 C 
ATOM     19  C   UNL     1       0.919   0.204   2.098  1.00  0.00    -0.051 A 
ATOM     20  C   UNL     1       0.109  -0.917   2.312  1.00  0.00     0.005 A 
ATOM     21  C   UNL     1       0.330   1.470   2.126  1.00  0.00     0.005 A 
ATOM     22  C   UNL     1      -1.287  -0.782   2.340  1.00  0.00     0.022 A 
ATOM     23  C   UNL     1      -1.058   1.608   2.244  1.00  0.00     0.022 A 
ENDBRANCH  14  17
ENDBRANCH  12  14
ENDBRANCH   7  12
BRANCH  11  24
ATOM     24  N   UNL     1      -0.961   6.450   0.301  1.00  0.00    -0.372 N 
BRANCH  24  25
ATOM     25  C   UNL     1       0.152   6.457   1.254  1.00  0.00     0.116 C 
BRANCH  25  26
ATOM     26  C   UNL     1       0.129   7.748   2.062  1.00  0.00     0.021 C 
BRANCH  26  27
ATOM     27  C   UNL     1       0.491   9.011   1.276  1.00  0.00     0.002 CG0
ATOM     28  G   UNL     1      -0.269   9.229  -0.035  1.00  0.00     0.000 G0
ENDBRANCH  26  27
ENDBRANCH  25  26
ENDBRANCH  24  25
BRANCH  24  29
ATOM     29  C   UNL     1      -0.694   6.932  -1.062  1.00  0.00     0.116 C 
BRANCH  29  30
ATOM     30  C   UNL     1       0.117   8.221  -1.110  1.00  0.00     0.021 C 
BRANCH  30  31
ATOM     31  C   UNL     1      -0.269   9.229  -0.035  1.00  0.00     0.002 CG0
ATOM     32  G   UNL     1       0.491   9.011   1.276  1.00  0.00     0.000 G0
ENDBRANCH  30  31
ENDBRANCH  29  30
ENDBRANCH  24  29
ENDBRANCH  11  24
ENDBRANCH   4   6
ENDBRANCH   3   4
ENDBRANCH   2   3
ENDBRANCH   1   2
BRANCH   1  33
ATOM     33  O   UNL     1      -0.680  -0.463  -2.132  1.00  0.00    -0.374 OA
BRANCH  33  34
ATOM     34  C   UNL     1      -0.592  -1.221  -0.947  1.00  0.00     0.202 C 
BRANCH  34  35
ATOM     35  C   UNL     1       0.598  -2.188  -0.925  1.00  0.00     0.261 C 
BRANCH  35  36
ATOM     36  O   UNL     1       0.513  -3.232  -1.927  1.00  0.00    -0.460 OA
BRANCH  36  37
ATOM     37  C   UNL     1       0.969  -2.938  -3.181  1.00  0.00     0.338 C 
ATOM     38  O   UNL     1       2.146  -2.847  -3.488  1.00  0.00    -0.246 OA
BRANCH  37  39
ATOM     39  C   UNL     1      -0.170  -2.588  -4.083  1.00  0.00     0.060 A 
ATOM     40  C   UNL     1       0.047  -1.708  -5.162  1.00  0.00     0.016 A 
ATOM     41  C   UNL     1      -1.446  -2.764  -3.568  1.00  0.00     0.016 A 
ATOM     42  C   UNL     1      -0.962  -0.810  -5.540  1.00  0.00     0.010 A 
ATOM     43  C   UNL     1      -2.349  -1.756  -3.812  1.00  0.00     0.010 A 
ATOM     44  C   UNL     1      -2.121  -0.757  -4.771  1.00  0.00    -0.014 A 
BRANCH  44  45
ATOM     45  C   UNL     1      -3.114   0.321  -4.783  1.00  0.00     0.031 A 
ATOM     46  C   UNL     1      -4.500  -0.041  -5.105  1.00  0.00     0.074 A 
ATOM     47  C   UNL     1      -2.852   1.591  -4.400  1.00  0.00     0.049 A 
ATOM     48  N   UNL     1      -5.258   0.680  -5.862  1.00  0.00    -0.248 NA
ATOM     49  C   UNL     1      -5.112  -1.314  -4.723  1.00  0.00     0.031 C 
ATOM     50  C   UNL     1      -3.792   2.638  -4.005  1.00  0.00     0.029 A 
ATOM     51  N   UNL     1      -1.609   2.184  -4.203  1.00  0.00    -0.354 N 
ATOM     52  C   UNL     1      -6.515   0.148  -5.709  1.00  0.00     0.074 A 
ATOM     53  C   UNL     1      -6.302  -1.210  -5.302  1.00  0.00     0.031 C 
ATOM     54  C   UNL     1      -3.122   3.788  -3.798  1.00  0.00     0.029 A 
ATOM     55  C   UNL     1      -1.734   3.583  -4.192  1.00  0.00     0.049 A 
ATOM     56  H   UNL     1      -0.763   1.694  -4.088  1.00  0.00     0.167 HD
ATOM     57  C   UNL     1      -7.596   0.970  -5.609  1.00  0.00     0.031 A 
ATOM     58  C   UNL     1      -1.031   4.340  -5.088  1.00  0.00     0.031 A 
ATOM     59  C   UNL     1      -7.209   2.393  -5.693  1.00  0.00     0.049 A 
ATOM     60  C   UNL     1      -1.945   4.806  -6.202  1.00  0.00     0.074 A 
ATOM     61  C   UNL     1      -7.265   3.464  -4.814  1.00  0.00     0.029 A 
ATOM     62  N   UNL     1      -6.358   2.811  -6.712  1.00  0.00    -0.354 N 
ATOM     63  N   UNL     1      -3.230   4.583  -6.185  1.00  0.00    -0.248 NA
ATOM     64  C   UNL     1      -1.529   5.481  -7.427  1.00  0.00     0.031 C 
ATOM     65  C   UNL     1      -6.465   4.527  -5.343  1.00  0.00     0.029 A 
ATOM     66  C   UNL     1      -5.944   4.119  -6.559  1.00  0.00     0.049 A 
ATOM     67  H   UNL     1      -6.081   2.235  -7.461  1.00  0.00     0.167 HD
ATOM     68  C   UNL     1      -3.797   4.952  -7.357  1.00  0.00     0.074 A 
ATOM     69  C   UNL     1      -2.687   5.511  -8.117  1.00  0.00     0.031 C 
ATOM     70  C   UNL     1      -5.122   4.730  -7.602  1.00  0.00     0.031 A 
BRANCH  57  71
ATOM     71  C   UNL     1      -8.965   0.482  -5.160  1.00  0.00    -0.014 A 
ATOM     72  C   UNL     1      -9.982   1.414  -4.909  1.00  0.00     0.009 A 
ATOM     73  C   UNL     1      -9.338  -0.866  -4.974  1.00  0.00     0.009 A 
ATOM     74  C   UNL     1     -11.260   1.025  -4.474  1.00  0.00     0.001 A 
ATOM     75  C   UNL     1     -10.600  -1.267  -4.520  1.00  0.00     0.001 A 
ATOM     76  C   UNL     1     -11.568  -0.315  -4.271  1.00  0.00     0.000 A 
ENDBRANCH  57  71
BRANCH  58  77
ATOM     77  C   UNL     1       0.397   3.906  -5.212  1.00  0.00    -0.014 A 
ATOM     78  C   UNL     1       1.298   4.295  -4.197  1.00  0.00     0.009 A 
ATOM     79  C   UNL     1       0.734   2.792  -5.997  1.00  0.00     0.009 A 
ATOM     80  C   UNL     1       2.413   3.503  -3.876  1.00  0.00     0.001 A 
ATOM     81  C   UNL     1       1.834   1.991  -5.657  1.00  0.00     0.001 A 
ATOM     82  C   UNL     1       2.648   2.322  -4.575  1.00  0.00     0.000 A 
ENDBRANCH  58  77
BRANCH  70  83
ATOM     83  C   UNL     1      -5.745   5.046  -8.923  1.00  0.00    -0.014 A 
ATOM     84  C   UNL     1      -5.424   6.198  -9.647  1.00  0.00     0.009 A 
ATOM     85  C   UNL     1      -6.733   4.198  -9.460  1.00  0.00     0.009 A 
ATOM     86  C   UNL     1      -5.962   6.416 -10.916  1.00  0.00     0.001 A 
ATOM     87  C   UNL     1      -7.302   4.431 -10.707  1.00  0.00     0.001 A 
ATOM     88  C   UNL     1      -6.889   5.525 -11.451  1.00  0.00     0.000 A 
ENDBRANCH  70  83
ENDBRANCH  44  45
ENDBRANCH  37  39
ENDBRANCH  36  37
ENDBRANCH  35  36
ENDBRANCH  34  35
ENDBRANCH  33  34
ENDBRANCH   1  33
TORSDOF 18
