REMARK SMILES Cc1cc(C)n(C)c(=O)c1C(=O)[NH+]1CCC2(CC1)C[NH2+][C@@H](C(=O)OCCOCCOC(=O)c1ccc(-c3c4nc(c(-c5ccccc5)c5ccc([nH]5)c(-c5ccccc5)c5nc(c(-c6ccccc6)c6ccc3[nH]6)C=C5)C=C4)cc1)C2
REMARK SMILES IDX 27 1 26 2 25 3 24 4 22 5 23 6 21 7 13 8 14 9 18 10 15 12
REMARK SMILES IDX 17 13 16 14 19 15 81 16 20 17 11 20 12 21 10 22 1 23 2 24
REMARK SMILES IDX 3 25 4 26 8 27 5 28 6 29 9 30 7 31 28 32 29 33 30 34 31 35
REMARK SMILES IDX 32 36 33 37 34 38 80 39 35 40 79 41 36 42 37 43 38 44 73 45
REMARK SMILES IDX 39 46 78 47 72 48 74 49 40 50 77 51 71 52 70 53 41 55 63 56
REMARK SMILES IDX 48 57 62 58 49 59 52 60 61 61 75 62 50 63 51 64 60 66 76 67
REMARK SMILES IDX 53 68 42 69 43 70 47 71 44 72 46 73 45 74 64 75 65 76 69 77
REMARK SMILES IDX 66 78 68 79 67 80 54 81 55 82 59 83 56 84 58 85 57 86
REMARK H PARENT 13 11 20 18 20 19 74 54 52 65
REMARK Flexibility Score: inf
ROOT
ATOM      1  O   UNL     1       3.127   6.399   6.232  1.00  0.00    -0.374 OA
ENDROOT
BRANCH   1   2
ATOM      2  C   UNL     1       4.218   5.516   6.494  1.00  0.00     0.202 C 
BRANCH   2   3
ATOM      3  C   UNL     1       3.857   4.091   6.919  1.00  0.00     0.261 C 
BRANCH   3   4
ATOM      4  O   UNL     1       3.177   3.408   5.856  1.00  0.00    -0.459 OA
BRANCH   4   5
ATOM      5  C   UNL     1       1.930   2.954   6.148  1.00  0.00     0.364 C 
ATOM      6  O   UNL     1       1.429   2.944   7.268  1.00  0.00    -0.245 OA
BRANCH   5   7
ATOM      7  C   UNL     1       1.190   2.423   4.922  1.00  0.00     0.294 C 
ATOM      8  N   UNL     1       0.619   2.269  -0.302  1.00  0.00    -0.267 N 
ATOM      9  C   UNL     1      -0.085   3.128   0.637  1.00  0.00     0.271 C 
ATOM     10  C   UNL     1       2.005   2.025   0.062  1.00  0.00     0.271 C 
ATOM     11  H   UNL     1       1.417   2.846  -0.292  1.00  0.00     0.357 HD
ATOM     12  C   UNL     1      -0.278   2.334   1.917  1.00  0.00     0.075 C 
ATOM     13  C   UNL     1       2.179   1.526   1.511  1.00  0.00     0.075 C 
ATOM     14  C   UNL     1       1.064   1.881   2.551  1.00  0.00     0.036 C 
ATOM     15  C   UNL     1       0.779   0.669   3.487  1.00  0.00     0.268 C 
ATOM     16  C   UNL     1       1.562   2.968   3.545  1.00  0.00     0.090 C 
ATOM     17  N   UNL     1       1.436   0.982   4.750  1.00  0.00    -0.334 N 
ATOM     18  H   UNL     1       2.436   0.787   4.698  1.00  0.00     0.347 HD
ATOM     19  H   UNL     1       1.083   0.425   5.528  1.00  0.00     0.347 HD
BRANCH   8  20
ATOM     20  C   UNL     1      -0.082   1.814  -1.414  1.00  0.00     0.350 C 
ATOM     21  O   UNL     1      -1.130   2.371  -1.757  1.00  0.00    -0.225 OA
BRANCH  20  22
ATOM     22  C   UNL     1       0.305   0.563  -2.153  1.00  0.00     0.147 A 
ATOM     23  C   UNL     1       0.554  -0.912  -0.074  1.00  0.00     0.045 C 
ATOM     24  C   UNL     1       0.520  -0.625  -1.543  1.00  0.00    -0.027 A 
ATOM     25  C   UNL     1       0.583  -1.850  -2.316  1.00  0.00     0.026 A 
ATOM     26  C   UNL     1       0.175  -1.901  -3.590  1.00  0.00     0.018 A 
ATOM     27  C   UNL     1       0.073   0.541  -3.650  1.00  0.00     0.267 A 
ATOM     28  C   UNL     1       0.071  -3.244  -4.261  1.00  0.00     0.064 C 
ATOM     29  N   UNL     1      -0.134  -0.717  -4.249  1.00  0.00    -0.315 N 
ATOM     30  O   UNL     1       0.061   1.590  -4.295  1.00  0.00    -0.268 OA
ATOM     31  C   UNL     1      -0.645  -0.740  -5.613  1.00  0.00     0.153 C 
ENDBRANCH  20  22
ENDBRANCH   8  20
ENDBRANCH   5   7
ENDBRANCH   4   5
ENDBRANCH   3   4
ENDBRANCH   2   3
ENDBRANCH   1   2
BRANCH   1  32
ATOM     32  C   UNL     1       2.426   6.235   5.000  1.00  0.00     0.202 C 
BRANCH  32  33
ATOM     33  C   UNL     1       3.117   6.748   3.730  1.00  0.00     0.261 C 
BRANCH  33  34
ATOM     34  O   UNL     1       4.318   6.016   3.421  1.00  0.00    -0.460 OA
BRANCH  34  35
ATOM     35  C   UNL     1       5.461   6.730   3.547  1.00  0.00     0.338 C 
ATOM     36  O   UNL     1       5.569   7.922   3.808  1.00  0.00    -0.246 OA
BRANCH  35  37
ATOM     37  C   UNL     1       6.627   5.832   3.510  1.00  0.00     0.060 A 
ATOM     38  C   UNL     1       7.485   5.844   4.617  1.00  0.00     0.016 A 
ATOM     39  C   UNL     1       6.929   5.066   2.383  1.00  0.00     0.016 A 
ATOM     40  C   UNL     1       8.675   5.125   4.584  1.00  0.00     0.010 A 
ATOM     41  C   UNL     1       8.132   4.354   2.346  1.00  0.00     0.010 A 
ATOM     42  C   UNL     1       9.026   4.411   3.431  1.00  0.00    -0.014 A 
BRANCH  42  43
ATOM     43  C   UNL     1      10.400   3.871   3.310  1.00  0.00     0.031 A 
ATOM     44  C   UNL     1      11.437   4.679   2.581  1.00  0.00     0.074 A 
ATOM     45  C   UNL     1      10.742   2.714   3.901  1.00  0.00     0.049 A 
ATOM     46  N   UNL     1      12.704   4.418   2.385  1.00  0.00    -0.248 NA
ATOM     47  C   UNL     1      10.986   5.957   2.005  1.00  0.00     0.031 C 
ATOM     48  C   UNL     1       9.848   1.877   4.699  1.00  0.00     0.029 A 
ATOM     49  N   UNL     1      11.945   2.056   3.936  1.00  0.00    -0.354 N 
ATOM     50  C   UNL     1      13.204   5.502   1.675  1.00  0.00     0.074 A 
ATOM     51  C   UNL     1      12.097   6.402   1.437  1.00  0.00     0.031 C 
ATOM     52  C   UNL     1      10.540   0.822   5.161  1.00  0.00     0.029 A 
ATOM     53  C   UNL     1      11.914   0.894   4.665  1.00  0.00     0.049 A 
ATOM     54  H   UNL     1      12.753   2.386   3.481  1.00  0.00     0.167 HD
ATOM     55  C   UNL     1      14.475   5.737   1.269  1.00  0.00     0.031 A 
ATOM     56  C   UNL     1      12.882  -0.012   4.901  1.00  0.00     0.031 A 
ATOM     57  C   UNL     1      15.571   4.830   1.475  1.00  0.00     0.049 A 
ATOM     58  C   UNL     1      14.256   0.204   4.328  1.00  0.00     0.074 A 
ATOM     59  C   UNL     1      16.891   4.968   1.081  1.00  0.00     0.029 A 
ATOM     60  N   UNL     1      15.472   3.610   2.125  1.00  0.00    -0.354 N 
ATOM     61  N   UNL     1      14.715   1.226   3.647  1.00  0.00    -0.248 NA
ATOM     62  C   UNL     1      15.243  -0.861   4.556  1.00  0.00     0.031 C 
ATOM     63  C   UNL     1      17.577   3.805   1.445  1.00  0.00     0.029 A 
ATOM     64  C   UNL     1      16.700   2.969   2.118  1.00  0.00     0.049 A 
ATOM     65  H   UNL     1      14.650   3.251   2.532  1.00  0.00     0.167 HD
ATOM     66  C   UNL     1      16.048   0.938   3.382  1.00  0.00     0.074 A 
ATOM     67  C   UNL     1      16.326  -0.350   3.984  1.00  0.00     0.031 C 
ATOM     68  C   UNL     1      16.960   1.679   2.705  1.00  0.00     0.031 A 
BRANCH  55  69
ATOM     69  C   UNL     1      14.729   7.021   0.530  1.00  0.00    -0.014 A 
ATOM     70  C   UNL     1      14.700   8.258   1.195  1.00  0.00     0.009 A 
ATOM     71  C   UNL     1      15.011   6.994  -0.844  1.00  0.00     0.009 A 
ATOM     72  C   UNL     1      14.909   9.444   0.489  1.00  0.00     0.001 A 
ATOM     73  C   UNL     1      15.248   8.180  -1.541  1.00  0.00     0.001 A 
ATOM     74  C   UNL     1      15.186   9.404  -0.876  1.00  0.00     0.000 A 
ENDBRANCH  55  69
BRANCH  56  75
ATOM     75  C   UNL     1      12.580  -1.202   5.735  1.00  0.00    -0.014 A 
ATOM     76  C   UNL     1      13.089  -1.303   7.038  1.00  0.00     0.009 A 
ATOM     77  C   UNL     1      11.751  -2.225   5.248  1.00  0.00     0.009 A 
ATOM     78  C   UNL     1      12.774  -2.404   7.837  1.00  0.00     0.001 A 
ATOM     79  C   UNL     1      11.419  -3.314   6.057  1.00  0.00     0.001 A 
ATOM     80  C   UNL     1      11.933  -3.403   7.350  1.00  0.00     0.000 A 
ENDBRANCH  56  75
BRANCH  68  81
ATOM     81  C   UNL     1      18.352   1.127   2.580  1.00  0.00    -0.014 A 
ATOM     82  C   UNL     1      18.636   0.066   1.707  1.00  0.00     0.009 A 
ATOM     83  C   UNL     1      19.406   1.726   3.289  1.00  0.00     0.009 A 
ATOM     84  C   UNL     1      19.946  -0.397   1.561  1.00  0.00     0.001 A 
ATOM     85  C   UNL     1      20.718   1.279   3.120  1.00  0.00     0.001 A 
ATOM     86  C   UNL     1      20.985   0.215   2.261  1.00  0.00     0.000 A 
ENDBRANCH  68  81
ENDBRANCH  42  43
ENDBRANCH  35  37
ENDBRANCH  34  35
ENDBRANCH  33  34
ENDBRANCH  32  33
ENDBRANCH   1  32
TORSDOF 16
