REMARK SMILES CNC(=O)CC[NH+]1CCC(CC(=O)OCCOCCOC(=O)c2ccc(-c3c4nc(c(-c5ccccc5)c5ccc([nH]5)c(-c5ccccc5)c5nc(c(-c6ccccc6)c6ccc3[nH]6)C=C5)C=C4)cc2)CC1
REMARK SMILES IDX 16 1 15 2 14 3 12 4 13 5 11 6 10 7 7 8 8 9 72 10 9 12 71 13
REMARK SMILES IDX 6 14 5 15 3 16 1 17 2 18 4 20 17 21 18 22 19 23 20 24 21 25
REMARK SMILES IDX 22 26 23 27 24 28 70 29 25 30 69 31 26 32 27 33 28 34 63 35
REMARK SMILES IDX 29 36 68 37 62 38 64 39 30 40 67 41 61 42 60 43 31 45 53 46
REMARK SMILES IDX 38 47 52 48 39 49 42 50 51 51 65 52 40 53 41 54 50 56 66 57
REMARK SMILES IDX 43 58 32 59 33 60 37 61 34 62 36 63 35 64 54 65 55 66 59 67
REMARK SMILES IDX 56 68 58 69 57 70 44 71 45 72 49 73 46 74 48 75 47 76
REMARK H PARENT 7 11 2 19 64 44 42 55
REMARK Flexibility Score: inf
ROOT
ATOM      1  C   UNL     1       1.118  -3.613  -3.385  1.00  0.00     0.202 C 
ENDROOT
BRANCH   1   2
ATOM      2  C   UNL     1       2.586  -3.207  -3.223  1.00  0.00     0.261 C 
BRANCH   2   3
ATOM      3  O   UNL     1       2.718  -1.818  -2.852  1.00  0.00    -0.463 OA
BRANCH   3   4
ATOM      4  C   UNL     1       3.396  -1.029  -3.727  1.00  0.00     0.306 C 
ATOM      5  O   UNL     1       3.926  -1.431  -4.756  1.00  0.00    -0.252 OA
BRANCH   4   6
ATOM      6  C   UNL     1       3.464   0.436  -3.322  1.00  0.00     0.126 C 
BRANCH   6   7
ATOM      7  C   UNL     1       2.568   0.908  -2.172  1.00  0.00     0.011 C 
ATOM      8  N   UNL     1       1.814   2.409   0.277  1.00  0.00    -0.334 N 
ATOM      9  C   UNL     1       2.179   0.999   0.269  1.00  0.00     0.262 C 
ATOM     10  C   UNL     1       1.405   2.882  -1.053  1.00  0.00     0.262 C 
ATOM     11  H   UNL     1       2.639   2.955   0.523  1.00  0.00     0.348 HD
ATOM     12  C   UNL     1       3.154   0.547  -0.805  1.00  0.00     0.066 C 
ATOM     13  C   UNL     1       2.361   2.436  -2.177  1.00  0.00     0.066 C 
BRANCH   8  14
ATOM     14  C   UNL     1       0.764   2.652   1.308  1.00  0.00     0.272 C 
BRANCH  14  15
ATOM     15  C   UNL     1      -0.476   1.721   1.326  1.00  0.00     0.161 C 
BRANCH  15  16
ATOM     16  C   UNL     1      -0.393   0.653   2.406  1.00  0.00     0.225 C 
ATOM     17  C   UNL     1       0.107  -1.325   0.865  1.00  0.00     0.142 C 
ATOM     18  N   UNL     1      -0.164  -0.658   2.114  1.00  0.00    -0.359 N 
ATOM     19  H   UNL     1      -0.189  -1.256   2.895  1.00  0.00     0.163 HD
ATOM     20  O   UNL     1      -0.542   0.951   3.593  1.00  0.00    -0.275 OA
ENDBRANCH  15  16
ENDBRANCH  14  15
ENDBRANCH   8  14
ENDBRANCH   6   7
ENDBRANCH   4   6
ENDBRANCH   3   4
ENDBRANCH   2   3
ENDBRANCH   1   2
BRANCH   1  21
ATOM     21  O   UNL     1       0.425  -2.958  -4.447  1.00  0.00    -0.374 OA
BRANCH  21  22
ATOM     22  C   UNL     1      -0.102  -1.668  -4.143  1.00  0.00     0.202 C 
BRANCH  22  23
ATOM     23  C   UNL     1      -1.482  -1.668  -3.470  1.00  0.00     0.261 C 
BRANCH  23  24
ATOM     24  O   UNL     1      -1.470  -2.329  -2.191  1.00  0.00    -0.460 OA
BRANCH  24  25
ATOM     25  C   UNL     1      -2.066  -3.554  -2.169  1.00  0.00     0.338 C 
ATOM     26  O   UNL     1      -2.648  -4.114  -3.069  1.00  0.00    -0.246 OA
BRANCH  25  27
ATOM     27  C   UNL     1      -1.763  -4.200  -0.874  1.00  0.00     0.060 A 
ATOM     28  C   UNL     1      -1.096  -5.429  -0.879  1.00  0.00     0.016 A 
ATOM     29  C   UNL     1      -2.127  -3.604   0.331  1.00  0.00     0.016 A 
ATOM     30  C   UNL     1      -0.791  -6.067   0.329  1.00  0.00     0.010 A 
ATOM     31  C   UNL     1      -1.765  -4.216   1.538  1.00  0.00     0.010 A 
ATOM     32  C   UNL     1      -1.128  -5.472   1.554  1.00  0.00    -0.014 A 
BRANCH  32  33
ATOM     33  C   UNL     1      -0.988  -6.223   2.836  1.00  0.00     0.031 A 
ATOM     34  C   UNL     1      -2.242  -6.572   3.604  1.00  0.00     0.074 A 
ATOM     35  C   UNL     1       0.209  -6.613   3.321  1.00  0.00     0.049 A 
ATOM     36  N   UNL     1      -2.372  -7.180   4.757  1.00  0.00    -0.248 NA
ATOM     37  C   UNL     1      -3.521  -6.158   3.002  1.00  0.00     0.031 C 
ATOM     38  C   UNL     1       1.510  -6.360   2.700  1.00  0.00     0.029 A 
ATOM     39  N   UNL     1       0.521  -7.319   4.461  1.00  0.00    -0.354 N 
ATOM     40  C   UNL     1      -3.736  -7.186   5.025  1.00  0.00     0.074 A 
ATOM     41  C   UNL     1      -4.384  -6.465   3.954  1.00  0.00     0.031 C 
ATOM     42  C   UNL     1       2.473  -6.926   3.450  1.00  0.00     0.029 A 
ATOM     43  C   UNL     1       1.867  -7.550   4.624  1.00  0.00     0.049 A 
ATOM     44  H   UNL     1      -0.159  -7.630   5.102  1.00  0.00     0.167 HD
ATOM     45  C   UNL     1      -4.407  -7.766   6.046  1.00  0.00     0.031 A 
ATOM     46  C   UNL     1       2.536  -8.188   5.607  1.00  0.00     0.031 A 
ATOM     47  C   UNL     1      -3.786  -8.518   7.099  1.00  0.00     0.049 A 
ATOM     48  C   UNL     1       1.772  -8.796   6.758  1.00  0.00     0.074 A 
ATOM     49  C   UNL     1      -4.389  -9.184   8.151  1.00  0.00     0.029 A 
ATOM     50  N   UNL     1      -2.421  -8.709   7.230  1.00  0.00    -0.354 N 
ATOM     51  N   UNL     1       0.479  -8.833   6.967  1.00  0.00    -0.248 NA
ATOM     52  C   UNL     1       2.566  -9.459   7.805  1.00  0.00     0.031 C 
ATOM     53  C   UNL     1      -3.384  -9.732   8.952  1.00  0.00     0.029 A 
ATOM     54  C   UNL     1      -2.160  -9.461   8.362  1.00  0.00     0.049 A 
ATOM     55  H   UNL     1      -1.739  -8.361   6.611  1.00  0.00     0.167 HD
ATOM     56  C   UNL     1       0.304  -9.547   8.148  1.00  0.00     0.074 A 
ATOM     57  C   UNL     1       1.621  -9.940   8.600  1.00  0.00     0.031 C 
ATOM     58  C   UNL     1      -0.846  -9.852   8.799  1.00  0.00     0.031 A 
BRANCH  45  59
ATOM     59  C   UNL     1      -5.901  -7.594   6.071  1.00  0.00    -0.014 A 
ATOM     60  C   UNL     1      -6.724  -8.216   5.118  1.00  0.00     0.009 A 
ATOM     61  C   UNL     1      -6.492  -6.803   7.067  1.00  0.00     0.009 A 
ATOM     62  C   UNL     1      -8.105  -8.010   5.135  1.00  0.00     0.001 A 
ATOM     63  C   UNL     1      -7.876  -6.628   7.103  1.00  0.00     0.001 A 
ATOM     64  C   UNL     1      -8.679  -7.221   6.130  1.00  0.00     0.000 A 
ENDBRANCH  45  59
BRANCH  46  65
ATOM     65  C   UNL     1       4.021  -8.298   5.563  1.00  0.00    -0.014 A 
ATOM     66  C   UNL     1       4.643  -9.543   5.372  1.00  0.00     0.009 A 
ATOM     67  C   UNL     1       4.827  -7.166   5.759  1.00  0.00     0.009 A 
ATOM     68  C   UNL     1       6.036  -9.655   5.409  1.00  0.00     0.001 A 
ATOM     69  C   UNL     1       6.220  -7.276   5.764  1.00  0.00     0.001 A 
ATOM     70  C   UNL     1       6.824  -8.521   5.600  1.00  0.00     0.000 A 
ENDBRANCH  46  65
BRANCH  58  71
ATOM     71  C   UNL     1      -0.743 -10.685  10.047  1.00  0.00    -0.014 A 
ATOM     72  C   UNL     1      -0.222 -10.158  11.238  1.00  0.00     0.009 A 
ATOM     73  C   UNL     1      -1.233 -12.001  10.043  1.00  0.00     0.009 A 
ATOM     74  C   UNL     1      -0.163 -10.945  12.391  1.00  0.00     0.001 A 
ATOM     75  C   UNL     1      -1.202 -12.774  11.205  1.00  0.00     0.001 A 
ATOM     76  C   UNL     1      -0.658 -12.248  12.375  1.00  0.00     0.000 A 
ENDBRANCH  58  71
ENDBRANCH  32  33
ENDBRANCH  25  27
ENDBRANCH  24  25
ENDBRANCH  23  24
ENDBRANCH  22  23
ENDBRANCH  21  22
ENDBRANCH   1  21
TORSDOF 18
