REMARK SMILES CS(=O)(=O)c1ccc(C2=NN(c3ccc(C(=O)OCCOCCOC(=O)c4ccc(-c5c6nc(c(-c7ccccc7)c7ccc([nH]7)c(-c7ccccc7)c7nc(c(-c8ccccc8)c8ccc5[nH]8)C=C7)C=C6)cc4)cc3)[C@H](c3cccs3)C2)cc1
REMARK SMILES IDX 20 1 19 2 18 3 16 4 17 5 15 6 12 7 13 8 76 9 14 10 75 11
REMARK SMILES IDX 11 12 9 13 10 14 83 15 77 16 8 17 5 18 6 19 85 20 7 21 84 22
REMARK SMILES IDX 2 23 1 24 3 25 4 26 78 27 79 28 82 29 80 30 81 31 21 32
REMARK SMILES IDX 22 33 23 34 24 35 25 36 26 37 27 38 28 39 74 40 29 41 73 42
REMARK SMILES IDX 30 43 31 44 32 45 67 46 33 47 72 48 66 49 68 50 34 51 71 52
REMARK SMILES IDX 65 53 64 54 35 56 57 57 42 58 56 59 43 60 46 61 55 62 69 63
REMARK SMILES IDX 44 64 45 65 54 67 70 68 47 69 36 70 37 71 41 72 38 73 40 74
REMARK SMILES IDX 39 75 58 76 59 77 63 78 60 79 62 80 61 81 48 82 49 83 53 84
REMARK SMILES IDX 50 85 52 86 51 87
REMARK H PARENT 68 55 46 66
REMARK Flexibility Score: inf
ROOT
ATOM      1  C   UNL     1      10.085   9.485   8.276  1.00  0.00     0.202 C 
ENDROOT
BRANCH   1   2
ATOM      2  C   UNL     1       9.027  10.570   8.064  1.00  0.00     0.261 C 
BRANCH   2   3
ATOM      3  O   UNL     1       7.763   9.981   7.717  1.00  0.00    -0.460 OA
BRANCH   3   4
ATOM      4  C   UNL     1       7.332  10.229   6.458  1.00  0.00     0.338 C 
ATOM      5  O   UNL     1       7.810  11.029   5.667  1.00  0.00    -0.246 OA
BRANCH   4   6
ATOM      6  C   UNL     1       6.243   9.290   6.094  1.00  0.00     0.060 A 
ATOM      7  C   UNL     1       4.145   7.608   5.274  1.00  0.00     0.060 A 
ATOM      8  C   UNL     1       5.016   8.164   4.332  1.00  0.00     0.029 A 
ATOM      9  C   UNL     1       4.391   7.839   6.636  1.00  0.00     0.029 A 
ATOM     10  C   UNL     1       6.050   9.010   4.736  1.00  0.00     0.018 A 
ATOM     11  C   UNL     1       5.431   8.674   7.051  1.00  0.00     0.018 A 
BRANCH   7  12
ATOM     12  N   UNL     1       2.985   6.929   4.881  1.00  0.00    -0.257 N 
ATOM     13  C   UNL     1       1.918   5.937   3.325  1.00  0.00     0.071 C 
ATOM     14  N   UNL     1       3.056   5.943   3.947  1.00  0.00    -0.176 NA
ATOM     15  C   UNL     1       0.958   7.035   3.682  1.00  0.00     0.091 C 
ATOM     16  C   UNL     1       1.743   7.721   4.805  1.00  0.00     0.154 C 
BRANCH  13  17
ATOM     17  C   UNL     1       1.556   4.903   2.346  1.00  0.00    -0.002 A 
ATOM     18  C   UNL     1       0.858   2.869   0.580  1.00  0.00     0.067 A 
ATOM     19  C   UNL     1       1.378   2.541   1.834  1.00  0.00     0.021 A 
ATOM     20  C   UNL     1       0.694   4.210   0.204  1.00  0.00     0.021 A 
ATOM     21  C   UNL     1       1.738   3.564   2.712  1.00  0.00     0.011 A 
ATOM     22  C   UNL     1       1.032   5.232   1.095  1.00  0.00     0.011 A 
BRANCH  18  23
ATOM     23  S   UNL     1       0.396   1.620  -0.599  1.00  0.00     0.175 S 
ATOM     24  C   UNL     1       1.100   0.090  -0.051  1.00  0.00     0.163 C 
ATOM     25  O   UNL     1       1.051   1.972  -1.845  1.00  0.00    -0.224 OA
ATOM     26  O   UNL     1      -1.047   1.500  -0.516  1.00  0.00    -0.224 OA
ENDBRANCH  18  23
ENDBRANCH  13  17
BRANCH  16  27
ATOM     27  C   UNL     1       1.025   7.885   6.130  1.00  0.00     0.030 A 
ATOM     28  C   UNL     1       1.212   8.915   7.039  1.00  0.00     0.017 A 
ATOM     29  S   UNL     1      -0.058   6.712   6.755  1.00  0.00    -0.147 S 
ATOM     30  C   UNL     1       0.486   8.726   8.247  1.00  0.00     0.012 A 
ATOM     31  C   UNL     1      -0.271   7.578   8.212  1.00  0.00     0.065 A 
ENDBRANCH  16  27
ENDBRANCH   7  12
ENDBRANCH   4   6
ENDBRANCH   3   4
ENDBRANCH   2   3
ENDBRANCH   1   2
BRANCH   1  32
ATOM     32  O   UNL     1      10.454   8.746   7.111  1.00  0.00    -0.374 OA
BRANCH  32  33
ATOM     33  C   UNL     1       9.595   7.669   6.729  1.00  0.00     0.202 C 
BRANCH  33  34
ATOM     34  C   UNL     1       9.804   6.349   7.479  1.00  0.00     0.261 C 
BRANCH  34  35
ATOM     35  O   UNL     1       9.439   6.461   8.867  1.00  0.00    -0.460 OA
BRANCH  35  36
ATOM     36  C   UNL     1      10.480   6.447   9.731  1.00  0.00     0.338 C 
ATOM     37  O   UNL     1      11.660   6.263   9.470  1.00  0.00    -0.246 OA
BRANCH  36  38
ATOM     38  C   UNL     1      10.028   6.861  11.072  1.00  0.00     0.060 A 
ATOM     39  C   UNL     1      10.759   7.868  11.716  1.00  0.00     0.016 A 
ATOM     40  C   UNL     1       8.961   6.235  11.720  1.00  0.00     0.016 A 
ATOM     41  C   UNL     1      10.462   8.214  13.032  1.00  0.00     0.010 A 
ATOM     42  C   UNL     1       8.668   6.580  13.045  1.00  0.00     0.010 A 
ATOM     43  C   UNL     1       9.441   7.543  13.717  1.00  0.00    -0.014 A 
BRANCH  43  44
ATOM     44  C   UNL     1       9.284   7.753  15.177  1.00  0.00     0.031 A 
ATOM     45  C   UNL     1       9.875   6.748  16.128  1.00  0.00     0.074 A 
ATOM     46  C   UNL     1       8.658   8.843  15.653  1.00  0.00     0.049 A 
ATOM     47  N   UNL     1       9.856   6.735  17.437  1.00  0.00    -0.248 NA
ATOM     48  C   UNL     1      10.582   5.608  15.523  1.00  0.00     0.031 C 
ATOM     49  C   UNL     1       8.082   9.912  14.839  1.00  0.00     0.029 A 
ATOM     50  N   UNL     1       8.407   9.229  16.945  1.00  0.00    -0.354 N 
ATOM     51  C   UNL     1      10.543   5.586  17.811  1.00  0.00     0.074 A 
ATOM     52  C   UNL     1      10.939   4.913  16.593  1.00  0.00     0.031 C 
ATOM     53  C   UNL     1       7.541  10.835  15.653  1.00  0.00     0.029 A 
ATOM     54  C   UNL     1       7.708  10.407  17.041  1.00  0.00     0.049 A 
ATOM     55  H   UNL     1       8.700   8.711  17.730  1.00  0.00     0.167 HD
ATOM     56  C   UNL     1      10.826   5.135  19.056  1.00  0.00     0.031 A 
ATOM     57  C   UNL     1       7.243  11.058  18.124  1.00  0.00     0.031 A 
ATOM     58  C   UNL     1      10.423   5.793  20.270  1.00  0.00     0.049 A 
ATOM     59  C   UNL     1       7.504  10.495  19.496  1.00  0.00     0.074 A 
ATOM     60  C   UNL     1      10.673   5.419  21.579  1.00  0.00     0.029 A 
ATOM     61  N   UNL     1       9.677   6.960  20.322  1.00  0.00    -0.354 N 
ATOM     62  N   UNL     1       8.175   9.422  19.836  1.00  0.00    -0.248 NA
ATOM     63  C   UNL     1       6.947  11.243  20.633  1.00  0.00     0.031 C 
ATOM     64  C   UNL     1      10.033   6.332  22.424  1.00  0.00     0.029 A 
ATOM     65  C   UNL     1       9.435   7.306  21.641  1.00  0.00     0.049 A 
ATOM     66  H   UNL     1       9.366   7.468  19.538  1.00  0.00     0.167 HD
ATOM     67  C   UNL     1       8.147   9.381  21.225  1.00  0.00     0.074 A 
ATOM     68  C   UNL     1       7.403  10.544  21.664  1.00  0.00     0.031 C 
ATOM     69  C   UNL     1       8.691   8.465  22.062  1.00  0.00     0.031 A 
BRANCH  56  70
ATOM     70  C   UNL     1      11.585   3.842  19.164  1.00  0.00    -0.014 A 
ATOM     71  C   UNL     1      12.949   3.768  18.839  1.00  0.00     0.009 A 
ATOM     72  C   UNL     1      10.933   2.688  19.626  1.00  0.00     0.009 A 
ATOM     73  C   UNL     1      13.635   2.555  18.942  1.00  0.00     0.001 A 
ATOM     74  C   UNL     1      11.627   1.484  19.753  1.00  0.00     0.001 A 
ATOM     75  C   UNL     1      12.975   1.417  19.402  1.00  0.00     0.000 A 
ENDBRANCH  56  70
BRANCH  57  76
ATOM     76  C   UNL     1       6.466  12.314  17.961  1.00  0.00    -0.014 A 
ATOM     77  C   UNL     1       7.006  13.546  18.357  1.00  0.00     0.009 A 
ATOM     78  C   UNL     1       5.168  12.281  17.426  1.00  0.00     0.009 A 
ATOM     79  C   UNL     1       6.252  14.717  18.244  1.00  0.00     0.001 A 
ATOM     80  C   UNL     1       4.428  13.457  17.288  1.00  0.00     0.001 A 
ATOM     81  C   UNL     1       4.967  14.672  17.706  1.00  0.00     0.000 A 
ENDBRANCH  57  76
BRANCH  69  82
ATOM     82  C   UNL     1       8.535   8.702  23.539  1.00  0.00    -0.014 A 
ATOM     83  C   UNL     1       7.300   8.525  24.181  1.00  0.00     0.009 A 
ATOM     84  C   UNL     1       9.652   9.075  24.303  1.00  0.00     0.009 A 
ATOM     85  C   UNL     1       7.179   8.750  25.554  1.00  0.00     0.001 A 
ATOM     86  C   UNL     1       9.535   9.272  25.680  1.00  0.00     0.001 A 
ATOM     87  C   UNL     1       8.297   9.119  26.302  1.00  0.00     0.000 A 
ENDBRANCH  69  82
ENDBRANCH  43  44
ENDBRANCH  36  38
ENDBRANCH  35  36
ENDBRANCH  34  35
ENDBRANCH  33  34
ENDBRANCH  32  33
ENDBRANCH   1  32
TORSDOF 18
