REMARK SMILES C[C@H](C(=O)OCCOCCOC(=O)c1ccc(-c2c3nc(c(-c4ccccc4)c4ccc([nH]4)c(-c4ccccc4)c4nc(c(-c5ccccc5)c5ccc2[nH]5)C=C4)C=C3)cc1)N1CCCC[C@H](NC(=O)OC(C)(C)C)C1=O
REMARK SMILES IDX 6 1 5 2 3 3 4 4 2 5 1 6 62 7 63 8 64 9 65 10 76 12 77 13
REMARK SMILES IDX 67 14 66 15 68 17 69 18 70 20 71 21 72 22 73 23 74 24 75 25
REMARK SMILES IDX 7 26 8 27 9 28 10 29 11 30 12 31 13 32 14 33 15 34 61 35
REMARK SMILES IDX 16 36 60 37 17 38 18 39 19 40 54 41 20 42 59 43 53 44 55 45
REMARK SMILES IDX 21 46 58 47 52 48 51 49 22 51 44 52 29 53 43 54 30 55 33 56
REMARK SMILES IDX 42 57 56 58 31 59 32 60 41 62 57 63 34 64 23 65 24 66 28 67
REMARK SMILES IDX 25 68 27 69 26 70 45 71 46 72 50 73 47 74 49 75 48 76 35 77
REMARK SMILES IDX 36 78 40 79 37 80 39 81 38 82
REMARK H PARENT 68 19 55 50 33 61
REMARK Flexibility Score: 90.00
ROOT
ATOM      1  C   UNL     1       1.451  -1.477   1.324  1.00  0.00     0.261 C 
ENDROOT
BRANCH   1   2
ATOM      2  O   UNL     1       0.797  -0.679   0.321  1.00  0.00    -0.462 OA
BRANCH   2   3
ATOM      3  C   UNL     1       0.619   0.640   0.616  1.00  0.00     0.328 C 
ATOM      4  O   UNL     1       0.867   1.143   1.705  1.00  0.00    -0.250 OA
BRANCH   3   5
ATOM      5  C   UNL     1       0.002   1.421  -0.562  1.00  0.00     0.192 C 
ATOM      6  C   UNL     1       0.674   1.214  -1.917  1.00  0.00     0.044 C 
BRANCH   5   7
ATOM      7  N   UNL     1      -1.463   1.306  -0.687  1.00  0.00    -0.327 N 
BRANCH   7   8
ATOM      8  C   UNL     1      -2.094  -0.018  -0.702  1.00  0.00     0.120 C 
BRANCH   8   9
ATOM      9  C   UNL     1      -2.687  -0.393  -2.061  1.00  0.00     0.022 C 
BRANCH   9  10
ATOM     10  C   UNL     1      -4.061   0.217  -2.326  1.00  0.00     0.004 CG0
ATOM     11  G   UNL     1      -4.069   1.743  -2.381  1.00  0.00     0.000 G0
ENDBRANCH   9  10
ENDBRANCH   8   9
ENDBRANCH   7   8
BRANCH   7  12
ATOM     12  C   UNL     1      -2.162   2.486  -0.926  1.00  0.00     0.246 C 
ATOM     13  O   UNL     1      -1.583   3.559  -1.113  1.00  0.00    -0.272 OA
BRANCH  12  14
ATOM     14  C   UNL     1      -3.687   2.372  -1.041  1.00  0.00     0.175 C 
BRANCH  14  15
ATOM     15  C   UNL     1      -4.069   1.743  -2.381  1.00  0.00     0.035 CG0
ATOM     16  G   UNL     1      -4.061   0.217  -2.326  1.00  0.00     0.000 G0
ENDBRANCH  14  15
BRANCH  14  17
ATOM     17  N   UNL     1      -4.278   3.693  -0.902  1.00  0.00    -0.310 N 
ATOM     18  C   UNL     1      -4.613   4.264   0.286  1.00  0.00     0.408 C 
ATOM     19  H   UNL     1      -4.447   4.208  -1.723  1.00  0.00     0.167 HD
ATOM     20  O   UNL     1      -5.230   5.321   0.329  1.00  0.00    -0.225 OA
BRANCH  18  21
ATOM     21  O   UNL     1      -4.238   3.508   1.342  1.00  0.00    -0.444 OA
BRANCH  21  22
ATOM     22  C   UNL     1      -4.796   3.712   2.662  1.00  0.00     0.106 C 
ATOM     23  C   UNL     1      -4.756   5.164   3.149  1.00  0.00     0.056 C 
ATOM     24  C   UNL     1      -6.221   3.151   2.656  1.00  0.00     0.056 C 
ATOM     25  C   UNL     1      -3.923   2.865   3.601  1.00  0.00     0.056 C 
ENDBRANCH  21  22
ENDBRANCH  18  21
ENDBRANCH  14  17
ENDBRANCH  12  14
ENDBRANCH   7  12
ENDBRANCH   5   7
ENDBRANCH   3   5
ENDBRANCH   2   3
ENDBRANCH   1   2
BRANCH   1  26
ATOM     26  C   UNL     1       2.671  -2.183   0.731  1.00  0.00     0.202 C 
BRANCH  26  27
ATOM     27  O   UNL     1       3.759  -1.356   0.316  1.00  0.00    -0.374 OA
BRANCH  27  28
ATOM     28  C   UNL     1       3.570  -0.552  -0.844  1.00  0.00     0.202 C 
BRANCH  28  29
ATOM     29  C   UNL     1       3.693  -1.235  -2.212  1.00  0.00     0.261 C 
BRANCH  29  30
ATOM     30  O   UNL     1       2.746  -2.300  -2.399  1.00  0.00    -0.460 OA
BRANCH  30  31
ATOM     31  C   UNL     1       3.281  -3.538  -2.268  1.00  0.00     0.338 C 
ATOM     32  O   UNL     1       4.449  -3.821  -2.061  1.00  0.00    -0.246 OA
BRANCH  31  33
ATOM     33  C   UNL     1       2.217  -4.556  -2.234  1.00  0.00     0.060 A 
ATOM     34  C   UNL     1       2.216  -5.442  -1.150  1.00  0.00     0.016 A 
ATOM     35  C   UNL     1       1.312  -4.713  -3.285  1.00  0.00     0.016 A 
ATOM     36  C   UNL     1       1.355  -6.534  -1.143  1.00  0.00     0.010 A 
ATOM     37  C   UNL     1       0.449  -5.814  -3.279  1.00  0.00     0.010 A 
ATOM     38  C   UNL     1       0.500  -6.752  -2.231  1.00  0.00    -0.014 A 
BRANCH  38  39
ATOM     39  C   UNL     1      -0.219  -8.044  -2.336  1.00  0.00     0.031 A 
ATOM     40  C   UNL     1       0.310  -9.100  -3.268  1.00  0.00     0.074 A 
ATOM     41  C   UNL     1      -1.298  -8.291  -1.574  1.00  0.00     0.049 A 
ATOM     42  N   UNL     1      -0.166 -10.292  -3.526  1.00  0.00    -0.248 NA
ATOM     43  C   UNL     1       1.538  -8.769  -4.009  1.00  0.00     0.031 C 
ATOM     44  C   UNL     1      -1.871  -7.368  -0.595  1.00  0.00     0.029 A 
ATOM     45  N   UNL     1      -2.103  -9.399  -1.505  1.00  0.00    -0.354 N 
ATOM     46  C   UNL     1       0.696 -10.847  -4.465  1.00  0.00     0.074 A 
ATOM     47  C   UNL     1       1.704  -9.851  -4.756  1.00  0.00     0.031 C 
ATOM     48  C   UNL     1      -2.939  -7.950  -0.023  1.00  0.00     0.029 A 
ATOM     49  C   UNL     1      -3.145  -9.266  -0.623  1.00  0.00     0.049 A 
ATOM     50  H   UNL     1      -1.948 -10.213  -2.038  1.00  0.00     0.167 HD
ATOM     51  C   UNL     1       0.656 -12.077  -5.029  1.00  0.00     0.031 A 
ATOM     52  C   UNL     1      -4.164 -10.102  -0.346  1.00  0.00     0.031 A 
ATOM     53  C   UNL     1      -0.355 -13.061  -4.745  1.00  0.00     0.049 A 
ATOM     54  C   UNL     1      -4.234 -11.432  -1.050  1.00  0.00     0.074 A 
ATOM     55  C   UNL     1      -0.478 -14.343  -5.253  1.00  0.00     0.029 A 
ATOM     56  N   UNL     1      -1.422 -12.869  -3.881  1.00  0.00    -0.354 N 
ATOM     57  N   UNL     1      -3.402 -11.953  -1.919  1.00  0.00    -0.248 NA
ATOM     58  C   UNL     1      -5.381 -12.291  -0.724  1.00  0.00     0.031 C 
ATOM     59  C   UNL     1      -1.656 -14.901  -4.747  1.00  0.00     0.029 A 
ATOM     60  C   UNL     1      -2.227 -13.995  -3.867  1.00  0.00     0.049 A 
ATOM     61  H   UNL     1      -1.583 -12.052  -3.355  1.00  0.00     0.167 HD
ATOM     62  C   UNL     1      -3.908 -13.212  -2.221  1.00  0.00     0.074 A 
ATOM     63  C   UNL     1      -5.109 -13.380  -1.429  1.00  0.00     0.031 C 
ATOM     64  C   UNL     1      -3.421 -14.146  -3.075  1.00  0.00     0.031 A 
BRANCH  51  65
ATOM     65  C   UNL     1       1.716 -12.413  -6.042  1.00  0.00    -0.014 A 
ATOM     66  C   UNL     1       3.056 -12.605  -5.668  1.00  0.00     0.009 A 
ATOM     67  C   UNL     1       1.361 -12.571  -7.391  1.00  0.00     0.009 A 
ATOM     68  C   UNL     1       4.022 -12.914  -6.630  1.00  0.00     0.001 A 
ATOM     69  C   UNL     1       2.323 -12.911  -8.345  1.00  0.00     0.001 A 
ATOM     70  C   UNL     1       3.654 -13.071  -7.965  1.00  0.00     0.000 A 
ENDBRANCH  51  65
BRANCH  52  71
ATOM     71  C   UNL     1      -5.215  -9.700   0.625  1.00  0.00    -0.014 A 
ATOM     72  C   UNL     1      -5.351 -10.363   1.854  1.00  0.00     0.009 A 
ATOM     73  C   UNL     1      -6.102  -8.655   0.317  1.00  0.00     0.009 A 
ATOM     74  C   UNL     1      -6.369 -10.006   2.741  1.00  0.00     0.001 A 
ATOM     75  C   UNL     1      -7.098  -8.279   1.220  1.00  0.00     0.001 A 
ATOM     76  C   UNL     1      -7.238  -8.961   2.427  1.00  0.00     0.000 A 
ENDBRANCH  52  71
BRANCH  64  77
ATOM     77  C   UNL     1      -4.164 -15.451  -3.166  1.00  0.00    -0.014 A 
ATOM     78  C   UNL     1      -5.424 -15.537  -3.777  1.00  0.00     0.009 A 
ATOM     79  C   UNL     1      -3.570 -16.622  -2.667  1.00  0.00     0.009 A 
ATOM     80  C   UNL     1      -6.091 -16.762  -3.851  1.00  0.00     0.001 A 
ATOM     81  C   UNL     1      -4.223 -17.850  -2.773  1.00  0.00     0.001 A 
ATOM     82  C   UNL     1      -5.488 -17.918  -3.355  1.00  0.00     0.000 A 
ENDBRANCH  64  77
ENDBRANCH  38  39
ENDBRANCH  31  33
ENDBRANCH  30  31
ENDBRANCH  29  30
ENDBRANCH  28  29
ENDBRANCH  27  28
ENDBRANCH  26  27
ENDBRANCH   1  26
TORSDOF 18
