REMARK SMILES CN(c1ccccc1C(=O)OCCOCCOC(=O)c1ccc(-c2c3nc(c(-c4ccccc4)c4ccc([nH]4)c(-c4ccccc4)c4nc(c(-c5ccccc5)c5ccc2[nH]5)C=C4)C=C3)cc1)S(=O)(=O)c1ccc(I)cc1
REMARK SMILES IDX 13 1 12 2 11 3 9 4 10 5 8 6 3 7 4 8 5 9 7 10 6 11 2 12 1 13
REMARK SMILES IDX 68 14 69 15 70 16 71 17 72 18 77 19 73 20 76 21 74 22 75 23
REMARK SMILES IDX 14 24 15 25 16 26 17 27 18 28 19 29 20 30 21 31 67 32 22 33
REMARK SMILES IDX 66 34 23 35 24 36 25 37 60 38 26 39 65 40 59 41 61 42 27 43
REMARK SMILES IDX 64 44 58 45 57 46 28 48 50 49 35 50 49 51 36 52 39 53 48 54
REMARK SMILES IDX 62 55 37 56 38 57 47 59 63 60 40 61 29 62 30 63 34 64 31 65
REMARK SMILES IDX 33 66 32 67 51 68 52 69 56 70 53 71 55 72 54 73 41 74 42 75
REMARK SMILES IDX 46 76 43 77 45 78 44 79
REMARK H PARENT 61 47 39 58
REMARK Flexibility Score: inf
ROOT
ATOM      1  C   UNL     1      -2.484  -2.579   0.407  1.00  0.00     0.202 C 
ENDROOT
BRANCH   1   2
ATOM      2  C   UNL     1      -1.293  -2.282  -0.505  1.00  0.00     0.261 C 
BRANCH   2   3
ATOM      3  O   UNL     1      -0.997  -0.874  -0.534  1.00  0.00    -0.460 OA
BRANCH   3   4
ATOM      4  C   UNL     1      -0.704  -0.397  -1.762  1.00  0.00     0.340 C 
ATOM      5  O   UNL     1      -0.521  -1.054  -2.776  1.00  0.00    -0.246 OA
BRANCH   4   6
ATOM      6  C   UNL     1      -0.791   1.072  -1.813  1.00  0.00     0.084 A 
ATOM      7  C   UNL     1       0.144   1.961  -1.264  1.00  0.00     0.066 A 
ATOM      8  C   UNL     1       0.088   3.301  -1.692  1.00  0.00     0.028 A 
ATOM      9  C   UNL     1      -0.914   3.772  -2.543  1.00  0.00     0.002 A 
ATOM     10  C   UNL     1      -1.799   1.548  -2.682  1.00  0.00     0.018 A 
ATOM     11  C   UNL     1      -1.877   2.897  -3.021  1.00  0.00     0.001 A 
BRANCH   7  12
ATOM     12  N   UNL     1       1.153   1.689  -0.256  1.00  0.00    -0.269 N 
ATOM     13  C   UNL     1       1.878   0.397  -0.315  1.00  0.00     0.164 C 
BRANCH  12  14
ATOM     14  S   UNL     1       0.776   2.125   1.375  1.00  0.00     0.264 S 
ATOM     15  O   UNL     1      -0.264   1.246   1.850  1.00  0.00    -0.201 OA
ATOM     16  O   UNL     1       2.037   2.215   2.095  1.00  0.00    -0.201 OA
BRANCH  14  17
ATOM     17  C   UNL     1       0.096   3.773   1.327  1.00  0.00     0.088 A 
ATOM     18  C   UNL     1       0.940   4.889   1.317  1.00  0.00     0.023 A 
ATOM     19  C   UNL     1      -1.296   3.934   1.344  1.00  0.00     0.023 A 
ATOM     20  C   UNL     1       0.384   6.172   1.259  1.00  0.00     0.016 A 
ATOM     21  C   UNL     1      -1.846   5.216   1.289  1.00  0.00     0.016 A 
ATOM     22  C   UNL     1      -1.005   6.329   1.237  1.00  0.00     0.013 A 
ATOM     23  I   UNL     1      -1.831   8.233   1.125  1.00  0.00    -0.044 I 
ENDBRANCH  14  17
ENDBRANCH  12  14
ENDBRANCH   7  12
ENDBRANCH   4   6
ENDBRANCH   3   4
ENDBRANCH   2   3
ENDBRANCH   1   2
BRANCH   1  24
ATOM     24  O   UNL     1      -3.731  -2.002   0.021  1.00  0.00    -0.374 OA
BRANCH  24  25
ATOM     25  C   UNL     1      -3.870  -0.587   0.135  1.00  0.00     0.202 C 
BRANCH  25  26
ATOM     26  C   UNL     1      -3.995  -0.009   1.551  1.00  0.00     0.261 C 
BRANCH  26  27
ATOM     27  O   UNL     1      -2.835  -0.242   2.365  1.00  0.00    -0.460 OA
BRANCH  27  28
ATOM     28  C   UNL     1      -3.027  -1.062   3.424  1.00  0.00     0.338 C 
ATOM     29  O   UNL     1      -4.075  -1.581   3.775  1.00  0.00    -0.246 OA
BRANCH  28  30
ATOM     30  C   UNL     1      -1.740  -1.405   4.060  1.00  0.00     0.060 A 
ATOM     31  C   UNL     1      -1.408  -2.761   4.166  1.00  0.00     0.016 A 
ATOM     32  C   UNL     1      -0.934  -0.431   4.652  1.00  0.00     0.016 A 
ATOM     33  C   UNL     1      -0.293  -3.153   4.906  1.00  0.00     0.010 A 
ATOM     34  C   UNL     1       0.180  -0.826   5.403  1.00  0.00     0.010 A 
ATOM     35  C   UNL     1       0.483  -2.190   5.564  1.00  0.00    -0.014 A 
BRANCH  35  36
ATOM     36  C   UNL     1       1.526  -2.627   6.525  1.00  0.00     0.031 A 
ATOM     37  C   UNL     1       1.211  -2.645   7.996  1.00  0.00     0.074 A 
ATOM     38  C   UNL     1       2.729  -3.043   6.091  1.00  0.00     0.049 A 
ATOM     39  N   UNL     1       1.969  -3.003   9.002  1.00  0.00    -0.248 NA
ATOM     40  C   UNL     1      -0.137  -2.203   8.385  1.00  0.00     0.031 C 
ATOM     41  C   UNL     1       3.147  -3.110   4.692  1.00  0.00     0.029 A 
ATOM     42  N   UNL     1       3.820  -3.490   6.793  1.00  0.00    -0.354 N 
ATOM     43  C   UNL     1       1.193  -2.827  10.141  1.00  0.00     0.074 A 
ATOM     44  C   UNL     1      -0.084  -2.304   9.706  1.00  0.00     0.031 C 
ATOM     45  C   UNL     1       4.408  -3.572   4.638  1.00  0.00     0.029 A 
ATOM     46  C   UNL     1       4.893  -3.804   5.997  1.00  0.00     0.049 A 
ATOM     47  H   UNL     1       3.833  -3.577   7.774  1.00  0.00     0.167 HD
ATOM     48  C   UNL     1       1.510  -3.083  11.433  1.00  0.00     0.031 A 
ATOM     49  C   UNL     1       6.131  -4.218   6.327  1.00  0.00     0.031 A 
ATOM     50  C   UNL     1       2.784  -3.586  11.874  1.00  0.00     0.049 A 
ATOM     51  C   UNL     1       6.484  -4.423   7.775  1.00  0.00     0.074 A 
ATOM     52  C   UNL     1       3.193  -3.891  13.161  1.00  0.00     0.029 A 
ATOM     53  N   UNL     1       3.859  -3.848  11.040  1.00  0.00    -0.354 N 
ATOM     54  N   UNL     1       5.731  -4.284   8.839  1.00  0.00    -0.248 NA
ATOM     55  C   UNL     1       7.861  -4.852   8.065  1.00  0.00     0.031 C 
ATOM     56  C   UNL     1       4.534  -4.288  13.111  1.00  0.00     0.029 A 
ATOM     57  C   UNL     1       4.941  -4.284  11.786  1.00  0.00     0.049 A 
ATOM     58  H   UNL     1       3.855  -3.740  10.061  1.00  0.00     0.167 HD
ATOM     59  C   UNL     1       6.532  -4.631   9.920  1.00  0.00     0.074 A 
ATOM     60  C   UNL     1       7.824  -5.003   9.382  1.00  0.00     0.031 C 
ATOM     61  C   UNL     1       6.223  -4.645  11.240  1.00  0.00     0.031 A 
BRANCH  48  62
ATOM     62  C   UNL     1       0.464  -2.787  12.470  1.00  0.00    -0.014 A 
ATOM     63  C   UNL     1      -0.677  -3.595  12.606  1.00  0.00     0.009 A 
ATOM     64  C   UNL     1       0.636  -1.702  13.344  1.00  0.00     0.009 A 
ATOM     65  C   UNL     1      -1.641  -3.300  13.573  1.00  0.00     0.001 A 
ATOM     66  C   UNL     1      -0.316  -1.426  14.327  1.00  0.00     0.001 A 
ATOM     67  C   UNL     1      -1.458  -2.219  14.435  1.00  0.00     0.000 A 
ENDBRANCH  48  62
BRANCH  49  68
ATOM     68  C   UNL     1       7.142  -4.456   5.264  1.00  0.00    -0.014 A 
ATOM     69  C   UNL     1       7.568  -5.758   4.961  1.00  0.00     0.009 A 
ATOM     70  C   UNL     1       7.697  -3.377   4.559  1.00  0.00     0.009 A 
ATOM     71  C   UNL     1       8.547  -5.972   3.987  1.00  0.00     0.001 A 
ATOM     72  C   UNL     1       8.656  -3.596   3.568  1.00  0.00     0.001 A 
ATOM     73  C   UNL     1       9.087  -4.892   3.289  1.00  0.00     0.000 A 
ENDBRANCH  49  68
BRANCH  61  74
ATOM     74  C   UNL     1       7.293  -5.105  12.191  1.00  0.00    -0.014 A 
ATOM     75  C   UNL     1       8.407  -4.303  12.480  1.00  0.00     0.009 A 
ATOM     76  C   UNL     1       7.165  -6.348  12.831  1.00  0.00     0.009 A 
ATOM     77  C   UNL     1       9.390  -4.753  13.365  1.00  0.00     0.001 A 
ATOM     78  C   UNL     1       8.134  -6.783  13.736  1.00  0.00     0.001 A 
ATOM     79  C   UNL     1       9.251  -5.990  13.995  1.00  0.00     0.000 A 
ENDBRANCH  61  74
ENDBRANCH  35  36
ENDBRANCH  28  30
ENDBRANCH  27  28
ENDBRANCH  26  27
ENDBRANCH  25  26
ENDBRANCH  24  25
ENDBRANCH   1  24
TORSDOF 17
