REMARK SMILES COc1ccc(/C=C2\SC(=S)N=C2OCCOCCOC(=O)c2ccc(-c3c4nc(c(-c5ccccc5)c5ccc([nH]5)c(-c5ccccc5)c5nc(c(-c6ccccc6)c6ccc3[nH]6)C=C5)C=C4)cc2)c(C(=O)[O-])c1OC
REMARK SMILES IDX 18 1 17 2 16 3 15 4 14 5 13 6 7 7 8 8 9 9 10 10 12 11 11 12
REMARK SMILES IDX 6 13 3 14 4 15 75 16 5 17 71 18 2 19 1 20 76 21 77 22 72 23
REMARK SMILES IDX 73 24 74 25 19 26 20 27 21 28 22 29 23 30 24 31 70 32 25 33
REMARK SMILES IDX 69 34 26 35 27 36 28 37 63 38 29 39 68 40 62 41 64 42 30 43
REMARK SMILES IDX 67 44 61 45 60 46 31 48 53 49 38 50 52 51 39 52 42 53 51 54
REMARK SMILES IDX 65 55 40 56 41 57 50 59 66 60 43 61 32 62 33 63 37 64 34 65
REMARK SMILES IDX 36 66 35 67 54 68 55 69 59 70 56 71 58 72 57 73 44 74 45 75
REMARK SMILES IDX 49 76 46 77 48 78 47 79
REMARK H PARENT 64 47 42 58
REMARK Flexibility Score: inf
ROOT
ATOM      1  C   UNL     1       0.561   4.243   7.354  1.00  0.00     0.202 C 
ENDROOT
BRANCH   1   2
ATOM      2  O   UNL     1       1.796   3.747   6.827  1.00  0.00    -0.374 OA
BRANCH   2   3
ATOM      3  C   UNL     1       2.985   4.292   7.402  1.00  0.00     0.202 C 
BRANCH   3   4
ATOM      4  C   UNL     1       3.627   5.486   6.685  1.00  0.00     0.260 C 
BRANCH   4   5
ATOM      5  O   UNL     1       2.746   6.612   6.513  1.00  0.00    -0.474 OA
BRANCH   5   6
ATOM      6  C   UNL     1       1.691   6.759   5.702  1.00  0.00     0.229 C 
ATOM      7  C   UNL     1       1.935   4.783   4.111  1.00  0.00     0.030 C 
ATOM      8  C   UNL     1       1.312   5.890   4.549  1.00  0.00     0.077 C 
ATOM      9  S   UNL     1      -0.148   6.579   3.913  1.00  0.00    -0.053 SA
ATOM     10  C   UNL     1      -0.199   7.784   5.204  1.00  0.00     0.168 C 
ATOM     11  N   UNL     1       0.907   7.749   6.011  1.00  0.00    -0.194 NA
ATOM     12  S   UNL     1      -1.516   8.789   5.429  1.00  0.00    -0.050 S 
BRANCH   7  13
ATOM     13  C   UNL     1       1.688   3.726   3.091  1.00  0.00    -0.011 A 
ATOM     14  C   UNL     1       1.115   1.860   1.043  1.00  0.00     0.161 A 
ATOM     15  C   UNL     1       0.091   2.601   1.627  1.00  0.00     0.051 A 
ATOM     16  C   UNL     1       2.430   1.958   1.526  1.00  0.00     0.170 A 
ATOM     17  C   UNL     1       0.376   3.509   2.644  1.00  0.00     0.013 A 
ATOM     18  C   UNL     1       2.721   2.866   2.585  1.00  0.00     0.050 A 
BRANCH  14  19
ATOM     19  O   UNL     1       0.837   1.145  -0.092  1.00  0.00    -0.493 OA
ATOM     20  C   UNL     1      -0.057   0.056   0.129  1.00  0.00     0.278 C 
ENDBRANCH  14  19
BRANCH  16  21
ATOM     21  O   UNL     1       3.487   1.257   1.004  1.00  0.00    -0.492 OA
ATOM     22  C   UNL     1       3.268   0.035   0.321  1.00  0.00     0.278 C 
ENDBRANCH  16  21
BRANCH  18  23
ATOM     23  C   UNL     1       4.087   2.828   3.244  1.00  0.00     0.076 C 
ATOM     24  O   UNL     1       4.353   3.137   4.393  1.00  0.00    -0.545 OA
ATOM     25  O   UNL     1       5.096   2.371   2.484  1.00  0.00    -0.545 OA
ENDBRANCH  18  23
ENDBRANCH   7  13
ENDBRANCH   5   6
ENDBRANCH   4   5
ENDBRANCH   3   4
ENDBRANCH   2   3
ENDBRANCH   1   2
BRANCH   1  26
ATOM     26  C   UNL     1       0.038   3.526   8.602  1.00  0.00     0.261 C 
BRANCH  26  27
ATOM     27  O   UNL     1       0.938   3.690   9.706  1.00  0.00    -0.460 OA
BRANCH  27  28
ATOM     28  C   UNL     1       1.784   2.653   9.902  1.00  0.00     0.338 C 
ATOM     29  O   UNL     1       1.762   1.561   9.352  1.00  0.00    -0.246 OA
BRANCH  28  30
ATOM     30  C   UNL     1       2.894   3.099  10.762  1.00  0.00     0.060 A 
ATOM     31  C   UNL     1       4.194   2.739  10.383  1.00  0.00     0.016 A 
ATOM     32  C   UNL     1       2.671   3.852  11.917  1.00  0.00     0.016 A 
ATOM     33  C   UNL     1       5.275   3.085  11.189  1.00  0.00     0.010 A 
ATOM     34  C   UNL     1       3.755   4.192  12.728  1.00  0.00     0.010 A 
ATOM     35  C   UNL     1       5.054   3.775  12.386  1.00  0.00    -0.014 A 
BRANCH  35  36
ATOM     36  C   UNL     1       6.153   3.917  13.367  1.00  0.00     0.031 A 
ATOM     37  C   UNL     1       6.176   2.994  14.554  1.00  0.00     0.074 A 
ATOM     38  C   UNL     1       7.108   4.849  13.204  1.00  0.00     0.049 A 
ATOM     39  N   UNL     1       6.995   2.977  15.573  1.00  0.00    -0.248 NA
ATOM     40  C   UNL     1       5.131   1.956  14.603  1.00  0.00     0.031 C 
ATOM     41  C   UNL     1       7.205   5.775  12.076  1.00  0.00     0.029 A 
ATOM     42  N   UNL     1       8.173   5.176  14.003  1.00  0.00    -0.354 N 
ATOM     43  C   UNL     1       6.549   1.948  16.395  1.00  0.00     0.074 A 
ATOM     44  C   UNL     1       5.380   1.374  15.767  1.00  0.00     0.031 C 
ATOM     45  C   UNL     1       8.264   6.581  12.266  1.00  0.00     0.029 A 
ATOM     46  C   UNL     1       8.893   6.252  13.543  1.00  0.00     0.049 A 
ATOM     47  H   UNL     1       8.400   4.688  14.827  1.00  0.00     0.167 HD
ATOM     48  C   UNL     1       7.070   1.523  17.569  1.00  0.00     0.031 A 
ATOM     49  C   UNL     1       9.922   6.913  14.108  1.00  0.00     0.031 A 
ATOM     50  C   UNL     1       8.236   2.095  18.185  1.00  0.00     0.049 A 
ATOM     51  C   UNL     1      10.446   6.449  15.443  1.00  0.00     0.074 A 
ATOM     52  C   UNL     1       8.871   1.703  19.349  1.00  0.00     0.029 A 
ATOM     53  N   UNL     1       8.932   3.187  17.692  1.00  0.00    -0.354 N 
ATOM     54  N   UNL     1      10.053   5.440  16.182  1.00  0.00    -0.248 NA
ATOM     55  C   UNL     1      11.565   7.212  16.016  1.00  0.00     0.031 C 
ATOM     56  C   UNL     1       9.911   2.603  19.599  1.00  0.00     0.029 A 
ATOM     57  C   UNL     1       9.968   3.507  18.551  1.00  0.00     0.049 A 
ATOM     58  H   UNL     1       8.722   3.662  16.856  1.00  0.00     0.167 HD
ATOM     59  C   UNL     1      10.895   5.428  17.288  1.00  0.00     0.074 A 
ATOM     60  C   UNL     1      11.832   6.518  17.113  1.00  0.00     0.031 C 
ATOM     61  C   UNL     1      10.896   4.591  18.354  1.00  0.00     0.031 A 
BRANCH  48  62
ATOM     62  C   UNL     1       6.363   0.411  18.292  1.00  0.00    -0.014 A 
ATOM     63  C   UNL     1       6.397  -0.911  17.824  1.00  0.00     0.009 A 
ATOM     64  C   UNL     1       5.708   0.687  19.503  1.00  0.00     0.009 A 
ATOM     65  C   UNL     1       5.774  -1.931  18.547  1.00  0.00     0.001 A 
ATOM     66  C   UNL     1       5.111  -0.338  20.237  1.00  0.00     0.001 A 
ATOM     67  C   UNL     1       5.139  -1.646  19.756  1.00  0.00     0.000 A 
ENDBRANCH  48  62
BRANCH  49  68
ATOM     68  C   UNL     1      10.502   8.113  13.445  1.00  0.00    -0.014 A 
ATOM     69  C   UNL     1      11.822   8.107  12.970  1.00  0.00     0.009 A 
ATOM     70  C   UNL     1       9.747   9.291  13.329  1.00  0.00     0.009 A 
ATOM     71  C   UNL     1      12.387   9.267  12.433  1.00  0.00     0.001 A 
ATOM     72  C   UNL     1      10.302  10.438  12.759  1.00  0.00     0.001 A 
ATOM     73  C   UNL     1      11.626  10.430  12.325  1.00  0.00     0.000 A 
ENDBRANCH  49  68
BRANCH  61  74
ATOM     74  C   UNL     1      11.969   4.786  19.388  1.00  0.00    -0.014 A 
ATOM     75  C   UNL     1      11.962   5.890  20.255  1.00  0.00     0.009 A 
ATOM     76  C   UNL     1      12.976   3.817  19.529  1.00  0.00     0.009 A 
ATOM     77  C   UNL     1      12.963   6.037  21.218  1.00  0.00     0.001 A 
ATOM     78  C   UNL     1      13.954   3.949  20.515  1.00  0.00     0.001 A 
ATOM     79  C   UNL     1      13.953   5.064  21.351  1.00  0.00     0.000 A 
ENDBRANCH  61  74
ENDBRANCH  35  36
ENDBRANCH  28  30
ENDBRANCH  27  28
ENDBRANCH  26  27
ENDBRANCH   1  26
TORSDOF 17
