REMARK SMILES Cc1ccc(S(=O)(=O)n2cc(C(=O)C(=O)N[C@H](Cc3c[nH]c4ccccc34)C(=O)NCC(=O)OCCOCCOC(=O)c3ccc(-c4c5nc(c(-c6ccccc6)c6ccc([nH]6)c(-c6ccccc6)c6nc(c(-c7ccccc7)c7ccc4[nH]7)C=C6)C=C5)cc3)c3ccccc32)cc1
REMARK SMILES IDX 35 1 34 2 32 3 33 4 31 5 30 6 28 7 29 8 17 10 16 11 14 12
REMARK SMILES IDX 15 13 12 15 13 16 11 17 9 18 10 19 96 20 91 21 95 22 92 23
REMARK SMILES IDX 94 24 93 25 6 26 7 27 8 28 5 29 1 30 2 31 3 32 98 33 4 34
REMARK SMILES IDX 97 35 18 36 19 37 20 38 27 39 21 40 22 41 26 42 23 44 25 45
REMARK SMILES IDX 24 46 36 47 37 48 38 49 39 50 40 51 41 52 42 53 43 54 44 55
REMARK SMILES IDX 90 56 45 57 89 58 46 59 47 60 48 61 83 62 49 63 88 64 82 65
REMARK SMILES IDX 84 66 50 67 87 68 81 69 80 70 51 72 73 73 58 74 72 75 59 76
REMARK SMILES IDX 62 77 71 78 85 79 60 80 61 81 70 83 86 84 63 85 52 86 53 87
REMARK SMILES IDX 57 88 54 89 56 90 55 91 74 92 75 93 79 94 76 95 78 96 77 97
REMARK SMILES IDX 64 98 65 99 69 100 66 101 68 102 67 103
REMARK H PARENT 30 9 16 14 21 43 84 71 62 82
REMARK Flexibility Score: inf
ROOT
ATOM      1  C   UNL     1     -11.707   4.875  -1.954  1.00  0.00     0.261 C 
ENDROOT
BRANCH   1   2
ATOM      2  O   UNL     1     -12.396   3.669  -1.617  1.00  0.00    -0.462 OA
BRANCH   2   3
ATOM      3  C   UNL     1     -13.711   3.776  -1.274  1.00  0.00     0.325 C 
ATOM      4  O   UNL     1     -14.374   4.781  -1.234  1.00  0.00    -0.250 OA
BRANCH   3   5
ATOM      5  C   UNL     1     -14.237   2.427  -0.815  1.00  0.00     0.238 C 
BRANCH   5   6
ATOM      6  N   UNL     1     -13.500   1.330  -1.397  1.00  0.00    -0.343 N 
ATOM      7  C   UNL     1     -12.309   0.769  -1.100  1.00  0.00     0.243 C 
ATOM      8  O   UNL     1     -11.928  -0.054  -1.942  1.00  0.00    -0.273 OA
ATOM      9  H   UNL     1     -13.956   0.908  -2.161  1.00  0.00     0.164 HD
BRANCH   7  10
ATOM     10  C   UNL     1     -11.424   1.110   0.138  1.00  0.00     0.176 C 
BRANCH  10  11
ATOM     11  N   UNL     1     -12.116   1.375   1.462  1.00  0.00    -0.337 N 
ATOM     12  C   UNL     1     -12.631   2.409   2.236  1.00  0.00     0.293 C 
ATOM     13  O   UNL     1     -13.185   2.114   3.294  1.00  0.00    -0.265 OA
ATOM     14  H   UNL     1     -12.244   0.522   1.936  1.00  0.00     0.164 HD
BRANCH  12  15
ATOM     15  C   UNL     1     -12.570   3.883   1.845  1.00  0.00     0.252 C 
ATOM     16  O   UNL     1     -11.766   4.138   0.950  1.00  0.00    -0.283 OA
BRANCH  15  17
ATOM     17  C   UNL     1     -13.277   5.006   2.517  1.00  0.00     0.054 A 
ATOM     18  N   UNL     1     -13.571   6.575   4.123  1.00  0.00    -0.240 N 
ATOM     19  C   UNL     1     -13.778   5.199   3.817  1.00  0.00     0.117 A 
ATOM     20  C   UNL     1     -12.781   6.992   3.092  1.00  0.00     0.065 A 
ATOM     21  C   UNL     1     -13.317   6.328   1.999  1.00  0.00     0.012 A 
ATOM     22  C   UNL     1     -11.782   7.899   2.968  1.00  0.00     0.028 A 
ATOM     23  C   UNL     1     -13.369   7.003   0.779  1.00  0.00     0.011 A 
ATOM     24  C   UNL     1     -11.819   8.529   1.740  1.00  0.00     0.002 A 
ATOM     25  C   UNL     1     -12.718   8.220   0.715  1.00  0.00     0.001 A 
BRANCH  18  26
ATOM     26  S   UNL     1     -14.923   7.697   4.496  1.00  0.00     0.268 S 
ATOM     27  O   UNL     1     -15.834   6.885   5.280  1.00  0.00    -0.201 OA
ATOM     28  O   UNL     1     -15.332   8.261   3.220  1.00  0.00    -0.201 OA
BRANCH  26  29
ATOM     29  C   UNL     1     -14.452   9.120   5.518  1.00  0.00     0.088 A 
ATOM     30  C   UNL     1     -14.672  13.198   7.081  1.00  0.00     0.044 C 
ATOM     31  C   UNL     1     -14.498  11.768   6.638  1.00  0.00    -0.051 A 
ATOM     32  C   UNL     1     -13.677  11.460   5.559  1.00  0.00     0.005 A 
ATOM     33  C   UNL     1     -15.237  10.722   7.199  1.00  0.00     0.005 A 
ATOM     34  C   UNL     1     -13.687  10.157   4.998  1.00  0.00     0.022 A 
ATOM     35  C   UNL     1     -15.212   9.417   6.650  1.00  0.00     0.022 A 
ENDBRANCH  26  29
ENDBRANCH  18  26
ENDBRANCH  15  17
ENDBRANCH  12  15
ENDBRANCH  10  11
BRANCH  10  36
ATOM     36  C   UNL     1     -10.069   1.821  -0.158  1.00  0.00     0.072 C 
BRANCH  36  37
ATOM     37  C   UNL     1      -9.366   1.527  -1.483  1.00  0.00    -0.020 A 
ATOM     38  C   UNL     1      -9.006   2.489  -2.414  1.00  0.00     0.087 A 
ATOM     39  C   UNL     1      -8.882   0.276  -2.026  1.00  0.00     0.003 A 
ATOM     40  N   UNL     1      -8.488   1.879  -3.521  1.00  0.00    -0.361 N 
ATOM     41  C   UNL     1      -8.368   0.533  -3.303  1.00  0.00     0.046 A 
ATOM     42  C   UNL     1      -8.847  -1.063  -1.578  1.00  0.00     0.010 A 
ATOM     43  H   UNL     1      -8.238   2.341  -4.354  1.00  0.00     0.166 HD
ATOM     44  C   UNL     1      -7.854  -0.458  -4.151  1.00  0.00     0.026 A 
ATOM     45  C   UNL     1      -8.332  -2.070  -2.413  1.00  0.00     0.001 A 
ATOM     46  C   UNL     1      -7.847  -1.770  -3.683  1.00  0.00     0.002 A 
ENDBRANCH  36  37
ENDBRANCH  10  36
ENDBRANCH   7  10
ENDBRANCH   5   6
ENDBRANCH   3   5
ENDBRANCH   2   3
ENDBRANCH   1   2
BRANCH   1  47
ATOM     47  C   UNL     1     -11.865   5.087  -3.443  1.00  0.00     0.202 C 
BRANCH  47  48
ATOM     48  O   UNL     1     -13.064   5.829  -3.634  1.00  0.00    -0.374 OA
BRANCH  48  49
ATOM     49  C   UNL     1     -14.039   5.259  -4.496  1.00  0.00     0.202 C 
BRANCH  49  50
ATOM     50  C   UNL     1     -13.596   5.211  -5.965  1.00  0.00     0.261 C 
BRANCH  50  51
ATOM     51  O   UNL     1     -13.222   6.531  -6.405  1.00  0.00    -0.460 OA
BRANCH  51  52
ATOM     52  C   UNL     1     -11.889   6.717  -6.599  1.00  0.00     0.338 C 
ATOM     53  O   UNL     1     -11.143   5.951  -7.191  1.00  0.00    -0.246 OA
BRANCH  52  54
ATOM     54  C   UNL     1     -11.393   7.803  -5.708  1.00  0.00     0.060 A 
ATOM     55  C   UNL     1     -10.004   7.991  -5.576  1.00  0.00     0.016 A 
ATOM     56  C   UNL     1     -12.255   8.268  -4.723  1.00  0.00     0.016 A 
ATOM     57  C   UNL     1      -9.472   8.452  -4.369  1.00  0.00     0.010 A 
ATOM     58  C   UNL     1     -11.717   8.535  -3.486  1.00  0.00     0.010 A 
ATOM     59  C   UNL     1     -10.327   8.619  -3.291  1.00  0.00    -0.014 A 
BRANCH  59  60
ATOM     60  C   UNL     1      -9.923   8.821  -1.892  1.00  0.00     0.031 A 
ATOM     61  C   UNL     1     -10.473  10.071  -1.242  1.00  0.00     0.074 A 
ATOM     62  C   UNL     1      -9.498   7.688  -1.267  1.00  0.00     0.049 A 
ATOM     63  N   UNL     1     -10.191  10.528  -0.066  1.00  0.00    -0.248 NA
ATOM     64  C   UNL     1     -11.401  10.979  -1.954  1.00  0.00     0.031 C 
ATOM     65  C   UNL     1      -9.793   7.149   0.047  1.00  0.00     0.029 A 
ATOM     66  N   UNL     1      -8.525   6.795  -1.692  1.00  0.00    -0.354 N 
ATOM     67  C   UNL     1     -11.167  11.471   0.243  1.00  0.00     0.074 A 
ATOM     68  C   UNL     1     -11.868  11.752  -0.976  1.00  0.00     0.031 C 
ATOM     69  C   UNL     1      -8.887   6.260   0.460  1.00  0.00     0.029 A 
ATOM     70  C   UNL     1      -7.896   6.218  -0.565  1.00  0.00     0.049 A 
ATOM     71  H   UNL     1      -8.306   6.596  -2.631  1.00  0.00     0.167 HD
ATOM     72  C   UNL     1     -11.457  11.833   1.524  1.00  0.00     0.031 A 
ATOM     73  C   UNL     1      -6.571   6.374  -0.315  1.00  0.00     0.031 A 
ATOM     74  C   UNL     1     -10.500  11.304   2.524  1.00  0.00     0.049 A 
ATOM     75  C   UNL     1      -6.357   7.307   0.867  1.00  0.00     0.074 A 
ATOM     76  C   UNL     1     -10.570  10.735   3.784  1.00  0.00     0.029 A 
ATOM     77  N   UNL     1      -9.137  11.130   2.169  1.00  0.00    -0.354 N 
ATOM     78  N   UNL     1      -7.067   8.373   1.165  1.00  0.00    -0.248 NA
ATOM     79  C   UNL     1      -5.345   6.986   1.873  1.00  0.00     0.031 C 
ATOM     80  C   UNL     1      -9.431   9.912   3.979  1.00  0.00     0.029 A 
ATOM     81  C   UNL     1      -8.515  10.217   2.995  1.00  0.00     0.049 A 
ATOM     82  H   UNL     1      -8.693  11.601   1.427  1.00  0.00     0.167 HD
ATOM     83  C   UNL     1      -6.592   8.887   2.358  1.00  0.00     0.074 A 
ATOM     84  C   UNL     1      -5.527   7.978   2.756  1.00  0.00     0.031 C 
ATOM     85  C   UNL     1      -7.087   9.963   3.043  1.00  0.00     0.031 A 
BRANCH  72  86
ATOM     86  C   UNL     1     -12.857  12.416   1.741  1.00  0.00    -0.014 A 
ATOM     87  C   UNL     1     -13.941  11.640   2.195  1.00  0.00     0.009 A 
ATOM     88  C   UNL     1     -13.204  13.713   1.324  1.00  0.00     0.009 A 
ATOM     89  C   UNL     1     -15.218  12.180   2.465  1.00  0.00     0.001 A 
ATOM     90  C   UNL     1     -14.510  14.233   1.486  1.00  0.00     0.001 A 
ATOM     91  C   UNL     1     -15.500  13.492   2.122  1.00  0.00     0.000 A 
ENDBRANCH  72  86
BRANCH  73  92
ATOM     92  C   UNL     1      -5.824   6.326  -1.605  1.00  0.00    -0.014 A 
ATOM     93  C   UNL     1      -5.915   5.091  -2.300  1.00  0.00     0.009 A 
ATOM     94  C   UNL     1      -5.689   7.509  -2.341  1.00  0.00     0.009 A 
ATOM     95  C   UNL     1      -6.164   5.079  -3.675  1.00  0.00     0.001 A 
ATOM     96  C   UNL     1      -5.912   7.481  -3.723  1.00  0.00     0.001 A 
ATOM     97  C   UNL     1      -6.219   6.281  -4.373  1.00  0.00     0.000 A 
ENDBRANCH  73  92
BRANCH  85  98
ATOM     98  C   UNL     1      -6.342  10.723   4.139  1.00  0.00    -0.014 A 
ATOM     99  C   UNL     1      -4.957  10.700   4.310  1.00  0.00     0.009 A 
ATOM    100  C   UNL     1      -7.054  11.624   4.974  1.00  0.00     0.009 A 
ATOM    101  C   UNL     1      -4.337  11.470   5.306  1.00  0.00     0.001 A 
ATOM    102  C   UNL     1      -6.447  12.400   5.957  1.00  0.00     0.001 A 
ATOM    103  C   UNL     1      -5.079  12.315   6.129  1.00  0.00     0.000 A 
ENDBRANCH  85  98
ENDBRANCH  59  60
ENDBRANCH  52  54
ENDBRANCH  51  52
ENDBRANCH  50  51
ENDBRANCH  49  50
ENDBRANCH  48  49
ENDBRANCH  47  48
ENDBRANCH   1  47
TORSDOF 23
