REMARK SMILES COc1ccc2c(c1)c(CC(=O)OCCOCCOC(=O)c1ccc(-c3c4nc(c(-c5ccccc5)c5ccc([nH]5)c(-c5ccccc5)c5nc(c(-c6ccccc6)c6ccc3[nH]6)C=C5)C=C4)cc1)c(C)n2C(=O)c1ccc(Cl)cc1
REMARK SMILES IDX 15 1 14 2 13 3 11 4 12 5 10 6 9 7 3 8 4 9 8 10 5 11 7 12
REMARK SMILES IDX 6 13 72 14 70 15 71 16 2 17 1 18 73 19 74 20 75 21 76 22
REMARK SMILES IDX 81 23 77 24 80 25 78 26 79 27 16 28 17 29 18 30 19 31 20 32
REMARK SMILES IDX 21 33 22 34 23 35 69 36 24 37 68 38 25 39 26 40 27 41 62 42
REMARK SMILES IDX 28 43 67 44 61 45 63 46 29 47 66 48 60 49 59 50 30 52 52 53
REMARK SMILES IDX 37 54 51 55 38 56 41 57 50 58 64 59 39 60 40 61 49 63 65 64
REMARK SMILES IDX 42 65 31 66 32 67 36 68 33 69 35 70 34 71 53 72 54 73 58 74
REMARK SMILES IDX 55 75 57 76 56 77 43 78 44 79 48 80 45 81 47 82 46 83
REMARK H PARENT 63 51 41 62
REMARK Flexibility Score: inf
ROOT
ATOM      1  C   UNL     1      -2.476   5.264  -3.543  1.00  0.00     0.202 C 
ENDROOT
BRANCH   1   2
ATOM      2  C   UNL     1      -2.523   6.517  -2.650  1.00  0.00     0.261 C 
BRANCH   2   3
ATOM      3  O   UNL     1      -1.783   6.425  -1.418  1.00  0.00    -0.463 OA
BRANCH   3   4
ATOM      4  C   UNL     1      -2.553   6.406  -0.298  1.00  0.00     0.310 C 
ATOM      5  O   UNL     1      -3.779   6.517  -0.308  1.00  0.00    -0.252 OA
BRANCH   4   6
ATOM      6  C   UNL     1      -1.821   6.246   1.014  1.00  0.00     0.160 C 
BRANCH   6   7
ATOM      7  C   UNL     1      -0.345   5.938   1.036  1.00  0.00    -0.008 A 
ATOM      8  C   UNL     1       0.533   2.212   0.814  1.00  0.00     0.119 A 
ATOM      9  C   UNL     1       1.895   2.368   0.981  1.00  0.00     0.048 A 
ATOM     10  C   UNL     1      -0.294   3.335   0.911  1.00  0.00     0.057 A 
ATOM     11  C   UNL     1       2.445   3.637   1.200  1.00  0.00     0.031 A 
ATOM     12  C   UNL     1       0.244   4.641   1.025  1.00  0.00     0.008 A 
ATOM     13  C   UNL     1       1.626   4.789   1.177  1.00  0.00     0.057 A 
ATOM     14  N   UNL     1       1.908   6.162   1.331  1.00  0.00    -0.280 N 
ATOM     15  C   UNL     1       0.686   6.853   1.226  1.00  0.00     0.028 A 
ATOM     16  C   UNL     1       0.509   8.337   1.348  1.00  0.00     0.065 C 
BRANCH   8  17
ATOM     17  O   UNL     1      -0.113   1.046   0.511  1.00  0.00    -0.497 OA
ATOM     18  C   UNL     1       0.692  -0.109   0.292  1.00  0.00     0.278 C 
ENDBRANCH   8  17
BRANCH  14  19
ATOM     19  C   UNL     1       3.192   6.731   1.595  1.00  0.00     0.262 C 
ATOM     20  O   UNL     1       3.287   7.933   1.838  1.00  0.00    -0.268 OA
BRANCH  19  21
ATOM     21  C   UNL     1       4.462   5.989   1.656  1.00  0.00     0.040 A 
ATOM     22  C   UNL     1       5.055   5.499   0.486  1.00  0.00     0.015 A 
ATOM     23  C   UNL     1       5.050   5.766   2.907  1.00  0.00     0.015 A 
ATOM     24  C   UNL     1       6.200   4.705   0.584  1.00  0.00     0.021 A 
ATOM     25  C   UNL     1       6.201   4.981   2.995  1.00  0.00     0.021 A 
ATOM     26  C   UNL     1       6.759   4.438   1.837  1.00  0.00     0.041 A 
ATOM     27  Cl  UNL     1       8.133   3.410   1.956  1.00  0.00    -0.084 Cl
ENDBRANCH  19  21
ENDBRANCH  14  19
ENDBRANCH   6   7
ENDBRANCH   4   6
ENDBRANCH   3   4
ENDBRANCH   2   3
ENDBRANCH   1   2
BRANCH   1  28
ATOM     28  O   UNL     1      -2.585   3.968  -2.970  1.00  0.00    -0.374 OA
BRANCH  28  29
ATOM     29  C   UNL     1      -1.542   3.544  -2.092  1.00  0.00     0.202 C 
BRANCH  29  30
ATOM     30  C   UNL     1      -0.117   3.361  -2.646  1.00  0.00     0.261 C 
BRANCH  30  31
ATOM     31  O   UNL     1       0.400   4.569  -3.208  1.00  0.00    -0.460 OA
BRANCH  31  32
ATOM     32  C   UNL     1       1.110   4.401  -4.353  1.00  0.00     0.338 C 
ATOM     33  O   UNL     1       1.711   3.407  -4.726  1.00  0.00    -0.246 OA
BRANCH  32  34
ATOM     34  C   UNL     1       0.659   5.495  -5.225  1.00  0.00     0.060 A 
ATOM     35  C   UNL     1       0.638   6.804  -4.739  1.00  0.00     0.016 A 
ATOM     36  C   UNL     1      -0.073   5.123  -6.365  1.00  0.00     0.016 A 
ATOM     37  C   UNL     1      -0.206   7.719  -5.347  1.00  0.00     0.010 A 
ATOM     38  C   UNL     1      -0.929   6.042  -6.962  1.00  0.00     0.010 A 
ATOM     39  C   UNL     1      -1.023   7.326  -6.426  1.00  0.00    -0.014 A 
BRANCH  39  40
ATOM     40  C   UNL     1      -1.799   8.380  -7.073  1.00  0.00     0.031 A 
ATOM     41  C   UNL     1      -0.936   9.436  -7.666  1.00  0.00     0.074 A 
ATOM     42  C   UNL     1      -3.131   8.441  -7.256  1.00  0.00     0.049 A 
ATOM     43  N   UNL     1      -0.863  10.680  -7.328  1.00  0.00    -0.248 NA
ATOM     44  C   UNL     1       0.057   9.012  -8.663  1.00  0.00     0.031 C 
ATOM     45  C   UNL     1      -4.150   7.414  -7.045  1.00  0.00     0.029 A 
ATOM     46  N   UNL     1      -3.844   9.480  -7.783  1.00  0.00    -0.354 N 
ATOM     47  C   UNL     1       0.109  11.240  -8.149  1.00  0.00     0.074 A 
ATOM     48  C   UNL     1       0.720  10.149  -8.867  1.00  0.00     0.031 C 
ATOM     49  C   UNL     1      -5.300   7.802  -7.652  1.00  0.00     0.029 A 
ATOM     50  C   UNL     1      -5.136   9.155  -8.162  1.00  0.00     0.049 A 
ATOM     51  H   UNL     1      -3.470  10.385  -7.885  1.00  0.00     0.167 HD
ATOM     52  C   UNL     1       0.253  12.585  -8.295  1.00  0.00     0.031 A 
ATOM     53  C   UNL     1      -5.967   9.929  -8.904  1.00  0.00     0.031 A 
ATOM     54  C   UNL     1      -0.397  13.319  -7.244  1.00  0.00     0.049 A 
ATOM     55  C   UNL     1      -5.499  11.331  -8.803  1.00  0.00     0.074 A 
ATOM     56  C   UNL     1      -0.239  13.387  -5.873  1.00  0.00     0.029 A 
ATOM     57  N   UNL     1      -1.627  13.872  -7.505  1.00  0.00    -0.354 N 
ATOM     58  N   UNL     1      -5.574  12.043  -7.718  1.00  0.00    -0.248 NA
ATOM     59  C   UNL     1      -4.588  11.832  -9.819  1.00  0.00     0.031 C 
ATOM     60  C   UNL     1      -1.560  13.514  -5.356  1.00  0.00     0.029 A 
ATOM     61  C   UNL     1      -2.436  13.562  -6.442  1.00  0.00     0.049 A 
ATOM     62  H   UNL     1      -1.878  14.392  -8.303  1.00  0.00     0.167 HD
ATOM     63  C   UNL     1      -4.423  12.815  -7.724  1.00  0.00     0.074 A 
ATOM     64  C   UNL     1      -3.916  12.726  -9.091  1.00  0.00     0.031 C 
ATOM     65  C   UNL     1      -3.838  13.224  -6.559  1.00  0.00     0.031 A 
BRANCH  52  66
ATOM     66  C   UNL     1       0.733  13.231  -9.565  1.00  0.00    -0.014 A 
ATOM     67  C   UNL     1       0.782  12.556 -10.801  1.00  0.00     0.009 A 
ATOM     68  C   UNL     1       0.913  14.624  -9.599  1.00  0.00     0.009 A 
ATOM     69  C   UNL     1       0.995  13.228 -12.006  1.00  0.00     0.001 A 
ATOM     70  C   UNL     1       1.082  15.307 -10.810  1.00  0.00     0.001 A 
ATOM     71  C   UNL     1       1.121  14.609 -12.012  1.00  0.00     0.000 A 
ENDBRANCH  52  66
BRANCH  53  72
ATOM     72  C   UNL     1      -6.910   9.520  -9.969  1.00  0.00    -0.014 A 
ATOM     73  C   UNL     1      -6.666   8.353 -10.715  1.00  0.00     0.009 A 
ATOM     74  C   UNL     1      -7.854  10.433 -10.470  1.00  0.00     0.009 A 
ATOM     75  C   UNL     1      -7.296   8.135 -11.944  1.00  0.00     0.001 A 
ATOM     76  C   UNL     1      -8.482  10.216 -11.704  1.00  0.00     0.001 A 
ATOM     77  C   UNL     1      -8.188   9.077 -12.449  1.00  0.00     0.000 A 
ENDBRANCH  53  72
BRANCH  65  78
ATOM     78  C   UNL     1      -4.591  13.019  -5.262  1.00  0.00    -0.014 A 
ATOM     79  C   UNL     1      -4.678  14.093  -4.362  1.00  0.00     0.009 A 
ATOM     80  C   UNL     1      -5.052  11.761  -4.835  1.00  0.00     0.009 A 
ATOM     81  C   UNL     1      -5.198  13.916  -3.078  1.00  0.00     0.001 A 
ATOM     82  C   UNL     1      -5.601  11.589  -3.559  1.00  0.00     0.001 A 
ATOM     83  C   UNL     1      -5.662  12.665  -2.677  1.00  0.00     0.000 A 
ENDBRANCH  65  78
ENDBRANCH  39  40
ENDBRANCH  32  34
ENDBRANCH  31  32
ENDBRANCH  30  31
ENDBRANCH  29  30
ENDBRANCH  28  29
ENDBRANCH   1  28
TORSDOF 18
