REMARK SMILES CC(C)[NH2+][C@]1(C(=O)OCCOCCOC(=O)c2ccc(-c3c4nc(c(-c5ccccc5)c5ccc([nH]5)c(-c5ccccc5)c5nc(c(-c6ccccc6)c6ccc3[nH]6)C=C5)C=C4)cc2)CCC[C@@H](Sc2ccc(Cl)cc2)C1
REMARK SMILES IDX 11 1 10 2 9 3 8 4 6 5 7 6 5 7 65 8 77 9 66 10 68 11 67 12
REMARK SMILES IDX 4 13 2 16 1 17 3 18 69 19 70 20 71 21 76 22 72 23 75 24
REMARK SMILES IDX 73 25 74 26 12 27 13 28 14 29 15 30 16 31 17 32 18 33 64 34
REMARK SMILES IDX 19 35 63 36 20 37 21 38 22 39 57 40 23 41 62 42 56 43 58 44
REMARK SMILES IDX 24 45 61 46 55 47 54 48 25 50 47 51 32 52 46 53 33 54 36 55
REMARK SMILES IDX 45 56 59 57 34 58 35 59 44 61 60 62 37 63 26 64 27 65 31 66
REMARK SMILES IDX 28 67 30 68 29 69 48 70 49 71 53 72 50 73 52 74 51 75 38 76
REMARK SMILES IDX 39 77 43 78 40 79 42 80 41 81
REMARK H PARENT 4 14 4 15 58 49 36 60
REMARK Flexibility Score: inf
ROOT
ATOM      1  O   UNL     1      -1.540   0.029   1.467  1.00  0.00    -0.374 OA
ENDROOT
BRANCH   1   2
ATOM      2  C   UNL     1      -0.125   0.148   1.353  1.00  0.00     0.202 C 
BRANCH   2   3
ATOM      3  C   UNL     1       0.481  -0.223  -0.002  1.00  0.00     0.261 C 
BRANCH   3   4
ATOM      4  O   UNL     1      -0.071   0.540  -1.087  1.00  0.00    -0.459 OA
BRANCH   4   5
ATOM      5  C   UNL     1      -0.808  -0.179  -1.977  1.00  0.00     0.368 C 
ATOM      6  O   UNL     1      -0.979  -1.395  -1.908  1.00  0.00    -0.245 OA
BRANCH   5   7
ATOM      7  C   UNL     1      -1.343   0.655  -3.195  1.00  0.00     0.195 C 
ATOM      8  C   UNL     1      -2.852   0.293  -3.260  1.00  0.00     0.081 C 
ATOM      9  C   UNL     1      -1.219   2.190  -2.964  1.00  0.00     0.096 C 
ATOM     10  C   UNL     1      -3.704   1.131  -4.207  1.00  0.00     0.008 C 
ATOM     11  C   UNL     1      -2.036   3.023  -3.967  1.00  0.00     0.058 C 
ATOM     12  C   UNL     1      -3.514   2.623  -3.974  1.00  0.00     0.015 C 
BRANCH   7  13
ATOM     13  N   UNL     1      -0.449   0.238  -4.309  1.00  0.00    -0.330 N 
ATOM     14  H   UNL     1       0.317   0.911  -4.321  1.00  0.00     0.347 HD
ATOM     15  H   UNL     1      -0.265  -0.737  -4.070  1.00  0.00     0.347 HD
BRANCH  13  16
ATOM     16  C   UNL     1      -0.902   0.120  -5.688  1.00  0.00     0.176 C 
ATOM     17  C   UNL     1       0.362   0.199  -6.555  1.00  0.00     0.075 C 
ATOM     18  C   UNL     1      -1.599  -1.212  -5.980  1.00  0.00     0.075 C 
ENDBRANCH  13  16
ENDBRANCH   7  13
BRANCH  11  19
ATOM     19  S   UNL     1      -1.765   4.842  -3.732  1.00  0.00    -0.122 SA
BRANCH  19  20
ATOM     20  C   UNL     1      -3.035   5.306  -2.572  1.00  0.00     0.008 A 
ATOM     21  C   UNL     1      -4.243   5.845  -3.033  1.00  0.00     0.016 A 
ATOM     22  C   UNL     1      -2.817   5.192  -1.197  1.00  0.00     0.016 A 
ATOM     23  C   UNL     1      -5.239   6.228  -2.129  1.00  0.00     0.021 A 
ATOM     24  C   UNL     1      -3.808   5.583  -0.292  1.00  0.00     0.021 A 
ATOM     25  C   UNL     1      -5.018   6.091  -0.761  1.00  0.00     0.041 A 
ATOM     26  Cl  UNL     1      -6.242   6.554   0.355  1.00  0.00    -0.084 Cl
ENDBRANCH  19  20
ENDBRANCH  11  19
ENDBRANCH   5   7
ENDBRANCH   4   5
ENDBRANCH   3   4
ENDBRANCH   2   3
ENDBRANCH   1   2
BRANCH   1  27
ATOM     27  C   UNL     1      -2.339   1.050   0.870  1.00  0.00     0.202 C 
BRANCH  27  28
ATOM     28  C   UNL     1      -2.273   2.430   1.530  1.00  0.00     0.261 C 
BRANCH  28  29
ATOM     29  O   UNL     1      -0.992   3.061   1.324  1.00  0.00    -0.460 OA
BRANCH  29  30
ATOM     30  C   UNL     1      -0.420   3.550   2.449  1.00  0.00     0.338 C 
ATOM     31  O   UNL     1      -0.935   3.647   3.557  1.00  0.00    -0.246 OA
BRANCH  30  32
ATOM     32  C   UNL     1       1.012   3.812   2.235  1.00  0.00     0.060 A 
ATOM     33  C   UNL     1       1.929   3.066   2.989  1.00  0.00     0.016 A 
ATOM     34  C   UNL     1       1.452   4.848   1.410  1.00  0.00     0.016 A 
ATOM     35  C   UNL     1       3.286   3.384   2.956  1.00  0.00     0.010 A 
ATOM     36  C   UNL     1       2.814   5.174   1.388  1.00  0.00     0.010 A 
ATOM     37  C   UNL     1       3.732   4.467   2.187  1.00  0.00    -0.014 A 
BRANCH  37  38
ATOM     38  C   UNL     1       5.133   4.937   2.327  1.00  0.00     0.031 A 
ATOM     39  C   UNL     1       5.437   6.086   3.250  1.00  0.00     0.074 A 
ATOM     40  C   UNL     1       6.135   4.328   1.668  1.00  0.00     0.049 A 
ATOM     41  N   UNL     1       6.585   6.661   3.507  1.00  0.00    -0.248 NA
ATOM     42  C   UNL     1       4.297   6.659   3.984  1.00  0.00     0.031 C 
ATOM     43  C   UNL     1       5.988   3.173   0.784  1.00  0.00     0.029 A 
ATOM     44  N   UNL     1       7.480   4.604   1.644  1.00  0.00    -0.354 N 
ATOM     45  C   UNL     1       6.307   7.663   4.429  1.00  0.00     0.074 A 
ATOM     46  C   UNL     1       4.880   7.633   4.668  1.00  0.00     0.031 C 
ATOM     47  C   UNL     1       7.196   2.843   0.296  1.00  0.00     0.029 A 
ATOM     48  C   UNL     1       8.194   3.781   0.808  1.00  0.00     0.049 A 
ATOM     49  H   UNL     1       7.892   5.322   2.175  1.00  0.00     0.167 HD
ATOM     50  C   UNL     1       7.160   8.529   5.025  1.00  0.00     0.031 A 
ATOM     51  C   UNL     1       9.499   3.796   0.476  1.00  0.00     0.031 A 
ATOM     52  C   UNL     1       8.577   8.576   4.782  1.00  0.00     0.049 A 
ATOM     53  C   UNL     1      10.411   4.830   1.078  1.00  0.00     0.074 A 
ATOM     54  C   UNL     1       9.523   9.409   5.355  1.00  0.00     0.029 A 
ATOM     55  N   UNL     1       9.250   7.764   3.884  1.00  0.00    -0.354 N 
ATOM     56  N   UNL     1      10.139   5.755   1.966  1.00  0.00    -0.248 NA
ATOM     57  C   UNL     1      11.812   4.821   0.630  1.00  0.00     0.031 C 
ATOM     58  C   UNL     1      10.761   9.136   4.764  1.00  0.00     0.029 A 
ATOM     59  C   UNL     1      10.593   8.099   3.861  1.00  0.00     0.049 A 
ATOM     60  H   UNL     1       8.834   7.055   3.342  1.00  0.00     0.167 HD
ATOM     61  C   UNL     1      11.335   6.422   2.198  1.00  0.00     0.074 A 
ATOM     62  C   UNL     1      12.339   5.789   1.368  1.00  0.00     0.031 C 
ATOM     63  C   UNL     1      11.581   7.465   3.027  1.00  0.00     0.031 A 
BRANCH  50  64
ATOM     64  C   UNL     1       6.573   9.527   5.982  1.00  0.00    -0.014 A 
ATOM     65  C   UNL     1       6.147   9.143   7.263  1.00  0.00     0.009 A 
ATOM     66  C   UNL     1       6.481  10.877   5.609  1.00  0.00     0.009 A 
ATOM     67  C   UNL     1       5.612  10.088   8.141  1.00  0.00     0.001 A 
ATOM     68  C   UNL     1       5.968  11.823   6.497  1.00  0.00     0.001 A 
ATOM     69  C   UNL     1       5.527  11.427   7.759  1.00  0.00     0.000 A 
ENDBRANCH  50  64
BRANCH  51  70
ATOM     70  C   UNL     1      10.025   2.815  -0.508  1.00  0.00    -0.014 A 
ATOM     71  C   UNL     1      10.880   1.780  -0.101  1.00  0.00     0.009 A 
ATOM     72  C   UNL     1       9.687   2.924  -1.866  1.00  0.00     0.009 A 
ATOM     73  C   UNL     1      11.401   0.885  -1.039  1.00  0.00     0.001 A 
ATOM     74  C   UNL     1      10.190   2.013  -2.797  1.00  0.00     0.001 A 
ATOM     75  C   UNL     1      11.053   1.000  -2.385  1.00  0.00     0.000 A 
ENDBRANCH  51  70
BRANCH  63  76
ATOM     76  C   UNL     1      12.992   7.975   3.099  1.00  0.00    -0.014 A 
ATOM     77  C   UNL     1      13.537   8.748   2.062  1.00  0.00     0.009 A 
ATOM     78  C   UNL     1      13.768   7.720   4.240  1.00  0.00     0.009 A 
ATOM     79  C   UNL     1      14.843   9.234   2.157  1.00  0.00     0.001 A 
ATOM     80  C   UNL     1      15.064   8.228   4.343  1.00  0.00     0.001 A 
ATOM     81  C   UNL     1      15.603   8.978   3.299  1.00  0.00     0.000 A 
ENDBRANCH  63  76
ENDBRANCH  37  38
ENDBRANCH  30  32
ENDBRANCH  29  30
ENDBRANCH  28  29
ENDBRANCH  27  28
ENDBRANCH   1  27
TORSDOF 18
