REMARK SMILES CCOc1cnc(C(=O)c2[nH]c3cc(Cl)ccc3c2CC(=O)OCCOCCOC(=O)c2ccc(-c3c4nc(c(-c5ccccc5)c5ccc([nH]5)c(-c5ccccc5)c5nc(c(-c6ccccc6)c6ccc3[nH]6)C=C5)C=C4)cc2)cc1CC
REMARK SMILES IDX 24 1 23 2 21 3 22 4 20 5 19 6 10 7 11 8 12 9 18 11 13 12
REMARK SMILES IDX 17 13 14 14 16 15 15 16 8 17 9 18 7 19 4 20 5 21 81 22 6 23
REMARK SMILES IDX 80 24 3 25 2 26 1 27 82 28 83 29 25 30 26 31 27 32 28 33
REMARK SMILES IDX 29 34 30 35 31 36 32 37 33 38 79 39 34 40 78 41 35 42 36 43
REMARK SMILES IDX 37 44 72 45 38 46 77 47 71 48 73 49 39 50 76 51 70 52 69 53
REMARK SMILES IDX 40 55 62 56 47 57 61 58 48 59 51 60 60 61 74 62 49 63 50 64
REMARK SMILES IDX 59 66 75 67 52 68 41 69 42 70 46 71 43 72 45 73 44 74 63 75
REMARK SMILES IDX 64 76 68 77 65 78 67 79 66 80 53 81 54 82 58 83 55 84 57 85
REMARK SMILES IDX 56 86
REMARK H PARENT 11 10 73 54 51 65
REMARK Flexibility Score: inf
ROOT
ATOM      1  C   UNL     1      10.910  -5.449   0.268  1.00  0.00     0.261 C 
ENDROOT
BRANCH   1   2
ATOM      2  O   UNL     1      10.289  -4.144   0.235  1.00  0.00    -0.463 OA
BRANCH   2   3
ATOM      3  C   UNL     1      10.055  -3.649  -1.011  1.00  0.00     0.310 C 
ATOM      4  O   UNL     1      10.434  -4.197  -2.045  1.00  0.00    -0.252 OA
BRANCH   3   5
ATOM      5  C   UNL     1       9.349  -2.312  -1.059  1.00  0.00     0.161 C 
BRANCH   5   6
ATOM      6  C   UNL     1       8.759  -1.753   0.211  1.00  0.00     0.000 A 
ATOM      7  C   UNL     1       7.476  -1.977   0.721  1.00  0.00     0.093 A 
ATOM      8  N   UNL     1       7.412  -1.305   1.924  1.00  0.00    -0.351 N 
ATOM      9  C   UNL     1       8.432  -0.390   2.013  1.00  0.00     0.048 A 
ATOM     10  H   UNL     1       6.732  -1.459   2.619  1.00  0.00     0.167 HD
ATOM     11  C   UNL     1       9.323  -0.681   0.983  1.00  0.00     0.004 A 
ATOM     12  C   UNL     1       8.620   0.668   2.911  1.00  0.00     0.047 A 
ATOM     13  C   UNL     1      10.478   0.119   0.852  1.00  0.00     0.012 A 
ATOM     14  C   UNL     1       9.748   1.472   2.725  1.00  0.00     0.043 A 
ATOM     15  C   UNL     1      10.670   1.203   1.718  1.00  0.00     0.021 A 
ATOM     16  Cl  UNL     1       9.985   2.836   3.749  1.00  0.00    -0.084 Cl
BRANCH   7  17
ATOM     17  C   UNL     1       6.397  -2.766   0.132  1.00  0.00     0.227 C 
ATOM     18  O   UNL     1       6.623  -3.648  -0.694  1.00  0.00    -0.285 OA
BRANCH  17  19
ATOM     19  C   UNL     1       4.962  -2.473   0.476  1.00  0.00     0.113 A 
ATOM     20  C   UNL     1       2.282  -2.004   0.798  1.00  0.00     0.140 A 
ATOM     21  C   UNL     1       2.797  -3.271   0.545  1.00  0.00     0.158 A 
ATOM     22  C   UNL     1       3.165  -0.943   1.004  1.00  0.00    -0.002 A 
ATOM     23  N   UNL     1       4.114  -3.530   0.395  1.00  0.00    -0.249 NA
ATOM     24  C   UNL     1       4.528  -1.181   0.777  1.00  0.00     0.040 A 
BRANCH  20  25
ATOM     25  O   UNL     1       0.931  -1.810   0.859  1.00  0.00    -0.492 OA
BRANCH  25  26
ATOM     26  C   UNL     1       0.359  -1.721  -0.459  1.00  0.00     0.226 C 
ATOM     27  C   UNL     1       0.153  -0.266  -0.850  1.00  0.00     0.049 C 
ENDBRANCH  25  26
ENDBRANCH  20  25
BRANCH  22  28
ATOM     28  C   UNL     1       2.688   0.435   1.397  1.00  0.00     0.036 C 
ATOM     29  C   UNL     1       3.323   0.943   2.686  1.00  0.00     0.009 C 
ENDBRANCH  22  28
ENDBRANCH  17  19
ENDBRANCH   7  17
ENDBRANCH   5   6
ENDBRANCH   3   5
ENDBRANCH   2   3
ENDBRANCH   1   2
BRANCH   1  30
ATOM     30  C   UNL     1      10.283  -6.356   1.332  1.00  0.00     0.202 C 
BRANCH  30  31
ATOM     31  O   UNL     1       8.973  -6.855   1.050  1.00  0.00    -0.374 OA
BRANCH  31  32
ATOM     32  C   UNL     1       7.918  -5.894   1.032  1.00  0.00     0.202 C 
BRANCH  32  33
ATOM     33  C   UNL     1       7.332  -5.527   2.401  1.00  0.00     0.261 C 
BRANCH  33  34
ATOM     34  O   UNL     1       8.338  -5.077   3.325  1.00  0.00    -0.460 OA
BRANCH  34  35
ATOM     35  C   UNL     1       8.585  -5.939   4.338  1.00  0.00     0.338 C 
ATOM     36  O   UNL     1       7.944  -6.936   4.643  1.00  0.00    -0.246 OA
BRANCH  35  37
ATOM     37  C   UNL     1       9.866  -5.614   4.987  1.00  0.00     0.060 A 
ATOM     38  C   UNL     1      10.805  -6.647   5.098  1.00  0.00     0.016 A 
ATOM     39  C   UNL     1      10.120  -4.359   5.546  1.00  0.00     0.016 A 
ATOM     40  C   UNL     1      11.976  -6.449   5.822  1.00  0.00     0.010 A 
ATOM     41  C   UNL     1      11.295  -4.163   6.280  1.00  0.00     0.010 A 
ATOM     42  C   UNL     1      12.206  -5.221   6.455  1.00  0.00    -0.014 A 
BRANCH  42  43
ATOM     43  C   UNL     1      13.325  -5.110   7.419  1.00  0.00     0.031 A 
ATOM     44  C   UNL     1      13.040  -5.283   8.886  1.00  0.00     0.074 A 
ATOM     45  C   UNL     1      14.584  -4.919   6.989  1.00  0.00     0.049 A 
ATOM     46  N   UNL     1      13.869  -5.274   9.898  1.00  0.00    -0.248 NA
ATOM     47  C   UNL     1      11.632  -5.498   9.261  1.00  0.00     0.031 C 
ATOM     48  C   UNL     1      14.986  -4.777   5.590  1.00  0.00     0.029 A 
ATOM     49  N   UNL     1      15.758  -4.821   7.691  1.00  0.00    -0.354 N 
ATOM     50  C   UNL     1      13.085  -5.481  11.027  1.00  0.00     0.074 A 
ATOM     51  C   UNL     1      11.713  -5.579  10.580  1.00  0.00     0.031 C 
ATOM     52  C   UNL     1      16.319  -4.613   5.536  1.00  0.00     0.029 A 
ATOM     53  C   UNL     1      16.857  -4.615   6.894  1.00  0.00     0.049 A 
ATOM     54  H   UNL     1      15.808  -4.892   8.671  1.00  0.00     0.167 HD
ATOM     55  C   UNL     1      13.474  -5.589  12.320  1.00  0.00     0.031 A 
ATOM     56  C   UNL     1      18.150  -4.440   7.227  1.00  0.00     0.031 A 
ATOM     57  C   UNL     1      14.837  -5.474  12.764  1.00  0.00     0.049 A 
ATOM     58  C   UNL     1      18.549  -4.497   8.677  1.00  0.00     0.074 A 
ATOM     59  C   UNL     1      15.339  -5.578  14.049  1.00  0.00     0.029 A 
ATOM     60  N   UNL     1      15.916  -5.219  11.930  1.00  0.00    -0.354 N 
ATOM     61  N   UNL     1      17.804  -4.726   9.731  1.00  0.00    -0.248 NA
ATOM     62  C   UNL     1      19.971  -4.282   8.981  1.00  0.00     0.031 C 
ATOM     63  C   UNL     1      16.716  -5.333  13.999  1.00  0.00     0.029 A 
ATOM     64  C   UNL     1      17.078  -5.134  12.677  1.00  0.00     0.049 A 
ATOM     65  H   UNL     1      15.863  -5.115  10.953  1.00  0.00     0.167 HD
ATOM     66  C   UNL     1      18.667  -4.706  10.819  1.00  0.00     0.074 A 
ATOM     67  C   UNL     1      19.995  -4.458  10.295  1.00  0.00     0.031 C 
ATOM     68  C   UNL     1      18.388  -4.880  12.134  1.00  0.00     0.031 A 
BRANCH  55  69
ATOM     69  C   UNL     1      12.399  -5.808  13.347  1.00  0.00    -0.014 A 
ATOM     70  C   UNL     1      11.726  -7.035  13.450  1.00  0.00     0.009 A 
ATOM     71  C   UNL     1      12.065  -4.774  14.237  1.00  0.00     0.009 A 
ATOM     72  C   UNL     1      10.716  -7.211  14.399  1.00  0.00     0.001 A 
ATOM     73  C   UNL     1      11.074  -4.962  15.202  1.00  0.00     0.001 A 
ATOM     74  C   UNL     1      10.393  -6.176  15.276  1.00  0.00     0.000 A 
ENDBRANCH  55  69
BRANCH  56  75
ATOM     75  C   UNL     1      19.162  -4.187   6.168  1.00  0.00    -0.014 A 
ATOM     76  C   UNL     1      20.127  -5.154   5.850  1.00  0.00     0.009 A 
ATOM     77  C   UNL     1      19.167  -2.969   5.470  1.00  0.00     0.009 A 
ATOM     78  C   UNL     1      21.088  -4.898   4.869  1.00  0.00     0.001 A 
ATOM     79  C   UNL     1      20.112  -2.726   4.472  1.00  0.00     0.001 A 
ATOM     80  C   UNL     1      21.077  -3.688   4.177  1.00  0.00     0.000 A 
ENDBRANCH  56  75
BRANCH  68  81
ATOM     81  C   UNL     1      19.545  -4.835  13.093  1.00  0.00    -0.014 A 
ATOM     82  C   UNL     1      20.175  -3.624  13.416  1.00  0.00     0.009 A 
ATOM     83  C   UNL     1      19.980  -6.017  13.713  1.00  0.00     0.009 A 
ATOM     84  C   UNL     1      21.241  -3.603  14.318  1.00  0.00     0.001 A 
ATOM     85  C   UNL     1      21.026  -5.989  14.635  1.00  0.00     0.001 A 
ATOM     86  C   UNL     1      21.662  -4.783  14.930  1.00  0.00     0.000 A 
ENDBRANCH  68  81
ENDBRANCH  42  43
ENDBRANCH  35  37
ENDBRANCH  34  35
ENDBRANCH  33  34
ENDBRANCH  32  33
ENDBRANCH  31  32
ENDBRANCH  30  31
ENDBRANCH   1  30
TORSDOF 20
