REMARK SMILES Cc1cccc(Cl)c1Nc1ccccc1CC(=O)OCCOCCOC(=O)c1ccc(-c2c3nc(c(-c4ccccc4)c4ccc([nH]4)c(-c4ccccc4)c4nc(c(-c5ccccc5)c5ccc2[nH]5)C=C4)C=C3)cc1
REMARK SMILES IDX 21 1 20 2 19 3 17 4 18 5 16 6 15 7 10 8 11 9 12 10 14 11
REMARK SMILES IDX 13 12 9 13 8 15 1 16 2 17 3 18 4 19 6 20 5 21 7 22 22 23
REMARK SMILES IDX 23 24 24 25 25 26 26 27 27 28 28 29 29 30 75 31 30 32 74 33
REMARK SMILES IDX 31 34 32 35 33 36 68 37 34 38 73 39 67 40 69 41 35 42 72 43
REMARK SMILES IDX 66 44 65 45 36 47 58 48 43 49 57 50 44 51 47 52 56 53 70 54
REMARK SMILES IDX 45 55 46 56 55 58 71 59 48 60 37 61 38 62 42 63 39 64 41 65
REMARK SMILES IDX 40 66 59 67 60 68 64 69 61 70 63 71 62 72 49 73 50 74 54 75
REMARK SMILES IDX 51 76 53 77 52 78
REMARK H PARENT 9 14 69 46 47 57
REMARK Flexibility Score: inf
ROOT
ATOM      1  C   UNL     1       2.117   3.809  -5.508  1.00  0.00     0.202 C 
ENDROOT
BRANCH   1   2
ATOM      2  C   UNL     1       0.937   3.063  -4.874  1.00  0.00     0.261 C 
BRANCH   2   3
ATOM      3  O   UNL     1       1.177   2.683  -3.505  1.00  0.00    -0.463 OA
BRANCH   3   4
ATOM      4  C   UNL     1       1.266   1.345  -3.288  1.00  0.00     0.310 C 
ATOM      5  O   UNL     1       1.098   0.494  -4.160  1.00  0.00    -0.252 OA
BRANCH   4   6
ATOM      6  C   UNL     1       1.570   0.936  -1.869  1.00  0.00     0.160 C 
BRANCH   6   7
ATOM      7  C   UNL     1       2.036   1.969  -0.859  1.00  0.00    -0.013 A 
ATOM      8  C   UNL     1       1.214   2.497   0.160  1.00  0.00     0.042 A 
ATOM      9  C   UNL     1       1.737   3.495   1.009  1.00  0.00     0.026 A 
ATOM     10  C   UNL     1       3.062   3.918   0.910  1.00  0.00     0.002 A 
ATOM     11  C   UNL     1       3.386   2.375  -0.906  1.00  0.00     0.006 A 
ATOM     12  C   UNL     1       3.894   3.339  -0.035  1.00  0.00     0.000 A 
BRANCH   8  13
ATOM     13  N   UNL     1      -0.056   1.986   0.502  1.00  0.00    -0.354 N 
ATOM     14  H   UNL     1      -0.726   2.673   0.726  1.00  0.00     0.167 HD
BRANCH  13  15
ATOM     15  C   UNL     1      -0.533   0.654   0.578  1.00  0.00     0.060 A 
ATOM     16  C   UNL     1      -2.834   1.530  -0.094  1.00  0.00     0.046 C 
ATOM     17  C   UNL     1      -1.873   0.405   0.188  1.00  0.00    -0.026 A 
ATOM     18  C   UNL     1      -2.314  -0.917   0.002  1.00  0.00     0.005 A 
ATOM     19  C   UNL     1      -1.462  -1.995   0.225  1.00  0.00     0.002 A 
ATOM     20  C   UNL     1       0.286  -0.461   0.884  1.00  0.00     0.064 A 
ATOM     21  C   UNL     1      -0.172  -1.768   0.687  1.00  0.00     0.023 A 
ATOM     22  Cl  UNL     1       1.872  -0.312   1.571  1.00  0.00    -0.082 Cl
ENDBRANCH  13  15
ENDBRANCH   8  13
ENDBRANCH   6   7
ENDBRANCH   4   6
ENDBRANCH   3   4
ENDBRANCH   2   3
ENDBRANCH   1   2
BRANCH   1  23
ATOM     23  O   UNL     1       3.363   3.119  -5.584  1.00  0.00    -0.374 OA
BRANCH  23  24
ATOM     24  C   UNL     1       4.101   2.980  -4.372  1.00  0.00     0.202 C 
BRANCH  24  25
ATOM     25  C   UNL     1       4.814   4.233  -3.850  1.00  0.00     0.261 C 
BRANCH  25  26
ATOM     26  O   UNL     1       3.885   5.261  -3.460  1.00  0.00    -0.460 OA
BRANCH  26  27
ATOM     27  C   UNL     1       3.986   6.409  -4.165  1.00  0.00     0.338 C 
ATOM     28  O   UNL     1       4.847   6.701  -4.987  1.00  0.00    -0.246 OA
BRANCH  27  29
ATOM     29  C   UNL     1       2.793   7.249  -3.963  1.00  0.00     0.060 A 
ATOM     30  C   UNL     1       2.116   7.681  -5.111  1.00  0.00     0.016 A 
ATOM     31  C   UNL     1       2.395   7.687  -2.698  1.00  0.00     0.016 A 
ATOM     32  C   UNL     1       1.085   8.608  -5.007  1.00  0.00     0.010 A 
ATOM     33  C   UNL     1       1.363   8.628  -2.595  1.00  0.00     0.010 A 
ATOM     34  C   UNL     1       0.736   9.125  -3.752  1.00  0.00    -0.014 A 
BRANCH  34  35
ATOM     35  C   UNL     1      -0.163  10.303  -3.689  1.00  0.00     0.031 A 
ATOM     36  C   UNL     1       0.445  11.675  -3.565  1.00  0.00     0.074 A 
ATOM     37  C   UNL     1      -1.494  10.164  -3.811  1.00  0.00     0.049 A 
ATOM     38  N   UNL     1      -0.145  12.843  -3.530  1.00  0.00    -0.248 NA
ATOM     39  C   UNL     1       1.913  11.738  -3.474  1.00  0.00     0.031 C 
ATOM     40  C   UNL     1      -2.200   8.896  -3.988  1.00  0.00     0.029 A 
ATOM     41  N   UNL     1      -2.490  11.108  -3.812  1.00  0.00    -0.354 N 
ATOM     42  C   UNL     1       0.877  13.777  -3.411  1.00  0.00     0.074 A 
ATOM     43  C   UNL     1       2.120  13.041  -3.349  1.00  0.00     0.031 C 
ATOM     44  C   UNL     1      -3.518   9.142  -4.082  1.00  0.00     0.029 A 
ATOM     45  C   UNL     1      -3.749  10.579  -3.946  1.00  0.00     0.049 A 
ATOM     46  H   UNL     1      -2.317  12.074  -3.724  1.00  0.00     0.167 HD
ATOM     47  C   UNL     1       0.790  15.128  -3.366  1.00  0.00     0.031 A 
ATOM     48  C   UNL     1      -4.952  11.184  -3.947  1.00  0.00     0.031 A 
ATOM     49  C   UNL     1      -0.444  15.863  -3.415  1.00  0.00     0.049 A 
ATOM     50  C   UNL     1      -5.027  12.682  -3.818  1.00  0.00     0.074 A 
ATOM     51  C   UNL     1      -0.635  17.233  -3.384  1.00  0.00     0.029 A 
ATOM     52  N   UNL     1      -1.701  15.285  -3.498  1.00  0.00    -0.354 N 
ATOM     53  N   UNL     1      -4.052  13.554  -3.729  1.00  0.00    -0.248 NA
ATOM     54  C   UNL     1      -6.371  13.278  -3.797  1.00  0.00     0.031 C 
ATOM     55  C   UNL     1      -2.011  17.483  -3.396  1.00  0.00     0.029 A 
ATOM     56  C   UNL     1      -2.674  16.270  -3.491  1.00  0.00     0.049 A 
ATOM     57  H   UNL     1      -1.876  14.318  -3.553  1.00  0.00     0.167 HD
ATOM     58  C   UNL     1      -4.662  14.801  -3.669  1.00  0.00     0.074 A 
ATOM     59  C   UNL     1      -6.090  14.573  -3.745  1.00  0.00     0.031 C 
ATOM     60  C   UNL     1      -4.091  16.026  -3.565  1.00  0.00     0.031 A 
BRANCH  47  61
ATOM     61  C   UNL     1       2.074  15.896  -3.222  1.00  0.00    -0.014 A 
ATOM     62  C   UNL     1       2.980  16.009  -4.288  1.00  0.00     0.009 A 
ATOM     63  C   UNL     1       2.367  16.540  -2.010  1.00  0.00     0.009 A 
ATOM     64  C   UNL     1       4.170  16.724  -4.132  1.00  0.00     0.001 A 
ATOM     65  C   UNL     1       3.545  17.275  -1.864  1.00  0.00     0.001 A 
ATOM     66  C   UNL     1       4.449  17.360  -2.922  1.00  0.00     0.000 A 
ENDBRANCH  47  61
BRANCH  48  67
ATOM     67  C   UNL     1      -6.192  10.373  -4.061  1.00  0.00    -0.014 A 
ATOM     68  C   UNL     1      -6.980  10.423  -5.221  1.00  0.00     0.009 A 
ATOM     69  C   UNL     1      -6.601   9.553  -2.997  1.00  0.00     0.009 A 
ATOM     70  C   UNL     1      -8.164   9.686  -5.304  1.00  0.00     0.001 A 
ATOM     71  C   UNL     1      -7.771   8.797  -3.094  1.00  0.00     0.001 A 
ATOM     72  C   UNL     1      -8.555   8.870  -4.243  1.00  0.00     0.000 A 
ENDBRANCH  48  67
BRANCH  60  73
ATOM     73  C   UNL     1      -5.008  17.216  -3.558  1.00  0.00    -0.014 A 
ATOM     74  C   UNL     1      -5.794  17.525  -2.437  1.00  0.00     0.009 A 
ATOM     75  C   UNL     1      -5.053  18.064  -4.676  1.00  0.00     0.009 A 
ATOM     76  C   UNL     1      -6.629  18.644  -2.448  1.00  0.00     0.001 A 
ATOM     77  C   UNL     1      -5.867  19.197  -4.673  1.00  0.00     0.001 A 
ATOM     78  C   UNL     1      -6.661  19.481  -3.563  1.00  0.00     0.000 A 
ENDBRANCH  60  73
ENDBRANCH  34  35
ENDBRANCH  27  29
ENDBRANCH  26  27
ENDBRANCH  25  26
ENDBRANCH  24  25
ENDBRANCH  23  24
ENDBRANCH   1  23
TORSDOF 17
