REMARK SMILES Cc1c(C[NH2+]C2CCCCCC2)c(C(=O)OCCOCCOC(=O)c2ccc(-c3c4nc(c(-c5ccccc5)c5ccc([nH]5)c(-c5ccccc5)c5nc(c(-c6ccccc6)c6ccc3[nH]6)C=C5)C=C4)cc2)c(C)n1Cc1cccc(F)c1
REMARK SMILES IDX 17 1 16 2 14 3 15 4 13 5 1 6 2 7 3 8 75 9 73 10 74 11 4 12
REMARK SMILES IDX 5 13 6 16 7 17 8 18 9 19 12 21 11 22 10 23 76 25 77 26 78 27
REMARK SMILES IDX 83 28 79 29 81 30 80 31 82 32 18 33 19 34 20 35 21 36 22 37
REMARK SMILES IDX 23 38 24 39 25 40 26 41 72 42 27 43 71 44 28 45 29 46 30 47
REMARK SMILES IDX 65 48 31 49 70 50 64 51 66 52 32 53 69 54 63 55 62 56 33 58
REMARK SMILES IDX 55 59 40 60 54 61 41 62 44 63 53 64 67 65 42 66 43 67 52 69
REMARK SMILES IDX 68 70 45 71 34 72 35 73 39 74 36 75 38 76 37 77 56 78 57 79
REMARK SMILES IDX 61 80 58 81 60 82 59 83 46 84 47 85 51 86 48 87 50 88 49 89
REMARK H PARENT 5 14 5 15 66 57 44 68
REMARK Flexibility Score: 90.00
ROOT
ATOM      1  C   UNL     1      -0.249  -5.543   5.281  1.00  0.00     0.261 C 
ENDROOT
BRANCH   1   2
ATOM      2  O   UNL     1      -0.036  -4.233   4.744  1.00  0.00    -0.460 OA
BRANCH   2   3
ATOM      3  C   UNL     1       0.745  -4.154   3.622  1.00  0.00     0.340 C 
ATOM      4  O   UNL     1       1.414  -5.081   3.200  1.00  0.00    -0.246 OA
BRANCH   3   5
ATOM      5  C   UNL     1       0.597  -2.848   2.958  1.00  0.00     0.089 A 
ATOM      6  C   UNL     1       0.673  -0.384   0.146  1.00  0.00     0.065 C 
ATOM      7  C   UNL     1       0.505  -1.193   1.393  1.00  0.00     0.025 A 
ATOM      8  C   UNL     1       0.853  -2.534   1.579  1.00  0.00     0.042 A 
ATOM      9  N   UNL     1      -0.046  -0.720   2.578  1.00  0.00    -0.343 N 
ATOM     10  C   UNL     1       0.182  -1.663   3.570  1.00  0.00     0.030 A 
ATOM     11  C   UNL     1      -0.014  -1.414   5.034  1.00  0.00     0.065 C 
BRANCH   8  12
ATOM     12  C   UNL     1       1.343  -3.485   0.512  1.00  0.00     0.300 C 
BRANCH  12  13
ATOM     13  N   UNL     1       2.692  -3.953   0.821  1.00  0.00    -0.340 N 
ATOM     14  H   UNL     1       2.678  -4.420   1.727  1.00  0.00     0.346 HD
ATOM     15  H   UNL     1       3.310  -3.141   0.831  1.00  0.00     0.346 HD
BRANCH  13  16
ATOM     16  C   UNL     1       3.202  -4.896  -0.192  1.00  0.00     0.182 C 
BRANCH  16  17
ATOM     17  C   UNL     1       4.633  -4.513  -0.605  1.00  0.00     0.065 C 
BRANCH  17  18
ATOM     18  C   UNL     1       5.740  -5.042   0.303  1.00  0.00     0.006 C 
BRANCH  18  19
ATOM     19  C   UNL     1       6.240  -6.416  -0.140  1.00  0.00     0.000 CG0
ATOM     20  G   UNL     1       5.278  -7.575   0.103  1.00  0.00     0.000 G0
ENDBRANCH  18  19
ENDBRANCH  17  18
ENDBRANCH  16  17
BRANCH  16  21
ATOM     21  C   UNL     1       3.054  -6.337   0.335  1.00  0.00     0.065 C 
BRANCH  21  22
ATOM     22  C   UNL     1       3.858  -7.389  -0.438  1.00  0.00     0.006 C 
BRANCH  22  23
ATOM     23  C   UNL     1       5.278  -7.575   0.103  1.00  0.00     0.000 CG0
ATOM     24  G   UNL     1       6.240  -6.416  -0.140  1.00  0.00     0.000 G0
ENDBRANCH  22  23
ENDBRANCH  21  22
ENDBRANCH  16  21
ENDBRANCH  13  16
ENDBRANCH  12  13
ENDBRANCH   8  12
BRANCH   9  25
ATOM     25  C   UNL     1      -0.613   0.620   2.796  1.00  0.00     0.157 C 
BRANCH  25  26
ATOM     26  C   UNL     1      -2.128   0.707   2.884  1.00  0.00    -0.025 A 
ATOM     27  C   UNL     1      -2.822   1.670   2.125  1.00  0.00     0.006 A 
ATOM     28  C   UNL     1      -2.869  -0.015   3.829  1.00  0.00     0.044 A 
ATOM     29  C   UNL     1      -4.191   1.912   2.321  1.00  0.00     0.003 A 
ATOM     30  C   UNL     1      -4.220   0.251   4.036  1.00  0.00     0.123 A 
ATOM     31  C   UNL     1      -4.892   1.206   3.293  1.00  0.00     0.039 A 
ATOM     32  F   UNL     1      -4.864  -0.394   5.013  1.00  0.00    -0.207 F 
ENDBRANCH  25  26
ENDBRANCH   9  25
ENDBRANCH   3   5
ENDBRANCH   2   3
ENDBRANCH   1   2
BRANCH   1  33
ATOM     33  C   UNL     1      -1.729  -5.937   5.152  1.00  0.00     0.202 C 
BRANCH  33  34
ATOM     34  O   UNL     1      -2.217  -5.914   3.806  1.00  0.00    -0.374 OA
BRANCH  34  35
ATOM     35  C   UNL     1      -2.808  -4.664   3.392  1.00  0.00     0.202 C 
BRANCH  35  36
ATOM     36  C   UNL     1      -4.349  -4.624   3.566  1.00  0.00     0.261 C 
BRANCH  36  37
ATOM     37  O   UNL     1      -4.888  -3.447   4.273  1.00  0.00    -0.460 OA
BRANCH  37  38
ATOM     38  C   UNL     1      -5.885  -3.694   5.185  1.00  0.00     0.338 C 
ATOM     39  O   UNL     1      -6.163  -4.812   5.600  1.00  0.00    -0.246 OA
BRANCH  38  40
ATOM     40  C   UNL     1      -6.646  -2.487   5.715  1.00  0.00     0.060 A 
ATOM     41  C   UNL     1      -6.464  -2.118   7.043  1.00  0.00     0.016 A 
ATOM     42  C   UNL     1      -7.737  -1.879   5.058  1.00  0.00     0.016 A 
ATOM     43  C   UNL     1      -7.329  -1.171   7.675  1.00  0.00     0.010 A 
ATOM     44  C   UNL     1      -8.661  -0.967   5.731  1.00  0.00     0.010 A 
ATOM     45  C   UNL     1      -8.507  -0.600   7.080  1.00  0.00    -0.014 A 
BRANCH  45  46
ATOM     46  C   UNL     1      -9.646  -0.124   8.091  1.00  0.00     0.031 A 
ATOM     47  C   UNL     1      -9.687  -1.199   9.120  1.00  0.00     0.074 A 
ATOM     48  C   UNL     1     -10.641   0.825   8.300  1.00  0.00     0.049 A 
ATOM     49  N   UNL     1      -9.883  -2.439   8.779  1.00  0.00    -0.248 NA
ATOM     50  C   UNL     1      -9.207  -0.998  10.487  1.00  0.00     0.031 C 
ATOM     51  C   UNL     1     -11.023   1.961   7.450  1.00  0.00     0.029 A 
ATOM     52  N   UNL     1     -11.567   1.001   9.378  1.00  0.00    -0.354 N 
ATOM     53  C   UNL     1      -9.859  -3.147   9.950  1.00  0.00     0.074 A 
ATOM     54  C   UNL     1      -9.216  -2.265  10.911  1.00  0.00     0.031 C 
ATOM     55  C   UNL     1     -11.959   2.749   8.059  1.00  0.00     0.029 A 
ATOM     56  C   UNL     1     -12.352   2.195   9.353  1.00  0.00     0.049 A 
ATOM     57  H   UNL     1     -11.658   0.335  10.097  1.00  0.00     0.167 HD
ATOM     58  C   UNL     1     -10.855  -4.052  10.159  1.00  0.00     0.031 A 
ATOM     59  C   UNL     1     -13.287   2.690  10.248  1.00  0.00     0.031 A 
ATOM     60  C   UNL     1     -11.731  -3.674  11.234  1.00  0.00     0.049 A 
ATOM     61  C   UNL     1     -13.784   1.588  11.088  1.00  0.00     0.074 A 
ATOM     62  C   UNL     1     -11.553  -3.167  12.505  1.00  0.00     0.029 A 
ATOM     63  N   UNL     1     -13.032  -3.388  10.878  1.00  0.00    -0.354 N 
ATOM     64  N   UNL     1     -14.696   0.777  10.648  1.00  0.00    -0.248 NA
ATOM     65  C   UNL     1     -13.464   1.449  12.506  1.00  0.00     0.031 C 
ATOM     66  C   UNL     1     -12.575  -2.197  12.667  1.00  0.00     0.029 A 
ATOM     67  C   UNL     1     -13.475  -2.309  11.613  1.00  0.00     0.049 A 
ATOM     68  H   UNL     1     -13.561  -3.877  10.206  1.00  0.00     0.167 HD
ATOM     69  C   UNL     1     -14.673  -0.246  11.544  1.00  0.00     0.074 A 
ATOM     70  C   UNL     1     -14.149   0.332  12.765  1.00  0.00     0.031 C 
ATOM     71  C   UNL     1     -14.522  -1.494  11.037  1.00  0.00     0.031 A 
BRANCH  58  72
ATOM     72  C   UNL     1     -11.338  -4.795   8.941  1.00  0.00    -0.014 A 
ATOM     73  C   UNL     1     -11.184  -6.183   8.877  1.00  0.00     0.009 A 
ATOM     74  C   UNL     1     -11.892  -4.131   7.827  1.00  0.00     0.009 A 
ATOM     75  C   UNL     1     -11.510  -6.873   7.703  1.00  0.00     0.001 A 
ATOM     76  C   UNL     1     -12.181  -4.813   6.647  1.00  0.00     0.001 A 
ATOM     77  C   UNL     1     -11.982  -6.187   6.583  1.00  0.00     0.000 A 
ENDBRANCH  58  72
BRANCH  59  78
ATOM     78  C   UNL     1     -14.139   3.931  10.555  1.00  0.00    -0.014 A 
ATOM     79  C   UNL     1     -15.495   3.752  10.981  1.00  0.00     0.009 A 
ATOM     80  C   UNL     1     -13.571   5.167  10.884  1.00  0.00     0.009 A 
ATOM     81  C   UNL     1     -16.184   4.672  11.791  1.00  0.00     0.001 A 
ATOM     82  C   UNL     1     -14.284   6.117  11.664  1.00  0.00     0.001 A 
ATOM     83  C   UNL     1     -15.567   5.856  12.149  1.00  0.00     0.000 A 
ENDBRANCH  59  78
BRANCH  71  84
ATOM     84  C   UNL     1     -15.204  -1.800   9.705  1.00  0.00    -0.014 A 
ATOM     85  C   UNL     1     -15.198  -0.953   8.573  1.00  0.00     0.009 A 
ATOM     86  C   UNL     1     -15.909  -3.006   9.585  1.00  0.00     0.009 A 
ATOM     87  C   UNL     1     -15.918  -1.257   7.411  1.00  0.00     0.001 A 
ATOM     88  C   UNL     1     -16.583  -3.340   8.402  1.00  0.00     0.001 A 
ATOM     89  C   UNL     1     -16.605  -2.458   7.324  1.00  0.00     0.000 A 
ENDBRANCH  71  84
ENDBRANCH  45  46
ENDBRANCH  38  40
ENDBRANCH  37  38
ENDBRANCH  36  37
ENDBRANCH  35  36
ENDBRANCH  34  35
ENDBRANCH  33  34
ENDBRANCH   1  33
TORSDOF 19
