REMARK SMILES O=C(Nc1cccc(C(=O)OCCOCCOC(=O)c2ccc(-c3c4nc(c(-c5ccccc5)c5ccc([nH]5)c(-c5ccccc5)c5nc(c(-c6ccccc6)c6ccc3[nH]6)C=C5)C=C4)cc2)c1)Nc1cc(Cl)c(Cl)cc1Cl
REMARK SMILES IDX 14 1 13 2 12 3 11 4 9 5 10 6 8 7 4 8 5 9 68 10 6 11 7 12
REMARK SMILES IDX 3 13 1 14 2 15 69 16 70 19 71 20 77 21 72 22 76 23 78 24
REMARK SMILES IDX 73 25 74 26 75 27 15 28 16 29 17 30 18 31 19 32 20 33 21 34
REMARK SMILES IDX 67 35 22 36 66 37 23 38 24 39 25 40 60 41 26 42 65 43 59 44
REMARK SMILES IDX 61 45 27 46 64 47 58 48 57 49 28 51 50 52 35 53 49 54 36 55
REMARK SMILES IDX 39 56 48 57 62 58 37 59 38 60 47 62 63 63 40 64 29 65 30 66
REMARK SMILES IDX 34 67 31 68 33 69 32 70 51 71 52 72 56 73 53 74 55 75 54 76
REMARK SMILES IDX 41 77 42 78 46 79 43 80 45 81 44 82
REMARK H PARENT 3 17 69 18 61 50 39 61
REMARK Flexibility Score: inf
ROOT
ATOM      1  O   UNL     1       8.886   3.864  -1.178  1.00  0.00    -0.374 OA
ENDROOT
BRANCH   1   2
ATOM      2  C   UNL     1       8.138   3.795  -2.390  1.00  0.00     0.202 C 
BRANCH   2   3
ATOM      3  C   UNL     1       7.719   2.405  -2.881  1.00  0.00     0.261 C 
BRANCH   3   4
ATOM      4  O   UNL     1       6.856   1.751  -1.938  1.00  0.00    -0.460 OA
BRANCH   4   5
ATOM      5  C   UNL     1       7.422   0.727  -1.254  1.00  0.00     0.338 C 
ATOM      6  O   UNL     1       8.511   0.217  -1.462  1.00  0.00    -0.246 OA
BRANCH   5   7
ATOM      7  C   UNL     1       6.587   0.389  -0.078  1.00  0.00     0.062 A 
ATOM      8  C   UNL     1       4.440   0.110   1.008  1.00  0.00     0.043 A 
ATOM      9  C   UNL     1       5.099  -0.245   2.190  1.00  0.00     0.026 A 
ATOM     10  C   UNL     1       5.194   0.494  -0.106  1.00  0.00     0.041 A 
ATOM     11  C   UNL     1       6.493  -0.314   2.231  1.00  0.00     0.003 A 
ATOM     12  C   UNL     1       7.236  -0.023   1.090  1.00  0.00     0.016 A 
BRANCH   8  13
ATOM     13  N   UNL     1       3.035   0.048   1.006  1.00  0.00    -0.308 N 
ATOM     14  O   UNL     1       0.944   0.014   0.203  1.00  0.00    -0.248 OA
ATOM     15  C   UNL     1       2.145  -0.074  -0.033  1.00  0.00     0.323 C 
ATOM     16  N   UNL     1       2.686  -0.448  -1.233  1.00  0.00    -0.306 N 
ATOM     17  H   UNL     1       2.620   0.101   1.898  1.00  0.00     0.171 HD
ATOM     18  H   UNL     1       3.627  -0.735  -1.210  1.00  0.00     0.171 HD
BRANCH  16  19
ATOM     19  C   UNL     1       2.064  -0.473  -2.497  1.00  0.00     0.063 A 
ATOM     20  C   UNL     1       2.579  -1.428  -3.389  1.00  0.00     0.049 A 
ATOM     21  C   UNL     1       1.025   0.367  -2.932  1.00  0.00     0.066 A 
ATOM     22  C   UNL     1       2.001  -1.623  -4.645  1.00  0.00     0.061 A 
ATOM     23  C   UNL     1       0.434   0.156  -4.184  1.00  0.00     0.044 A 
ATOM     24  Cl  UNL     1       0.531   1.796  -2.094  1.00  0.00    -0.082 Cl
ATOM     25  Cl  UNL     1       2.690  -2.835  -5.665  1.00  0.00    -0.083 Cl
ATOM     26  C   UNL     1       0.903  -0.853  -5.028  1.00  0.00     0.061 A 
ATOM     27  Cl  UNL     1       0.096  -1.093  -6.532  1.00  0.00    -0.083 Cl
ENDBRANCH  16  19
ENDBRANCH   8  13
ENDBRANCH   5   7
ENDBRANCH   4   5
ENDBRANCH   3   4
ENDBRANCH   2   3
ENDBRANCH   1   2
BRANCH   1  28
ATOM     28  C   UNL     1       8.173   3.737   0.052  1.00  0.00     0.202 C 
BRANCH  28  29
ATOM     29  C   UNL     1       7.361   4.945   0.537  1.00  0.00     0.261 C 
BRANCH  29  30
ATOM     30  O   UNL     1       6.288   5.290  -0.355  1.00  0.00    -0.460 OA
BRANCH  30  31
ATOM     31  C   UNL     1       6.495   6.419  -1.075  1.00  0.00     0.338 C 
ATOM     32  O   UNL     1       7.446   7.178  -1.009  1.00  0.00    -0.246 OA
BRANCH  31  33
ATOM     33  C   UNL     1       5.466   6.531  -2.125  1.00  0.00     0.060 A 
ATOM     34  C   UNL     1       5.899   6.620  -3.454  1.00  0.00     0.016 A 
ATOM     35  C   UNL     1       4.110   6.614  -1.810  1.00  0.00     0.016 A 
ATOM     36  C   UNL     1       4.975   6.829  -4.476  1.00  0.00     0.010 A 
ATOM     37  C   UNL     1       3.185   6.832  -2.836  1.00  0.00     0.010 A 
ATOM     38  C   UNL     1       3.616   6.968  -4.169  1.00  0.00    -0.014 A 
BRANCH  38  39
ATOM     39  C   UNL     1       2.655   7.365  -5.225  1.00  0.00     0.031 A 
ATOM     40  C   UNL     1       2.168   8.787  -5.281  1.00  0.00     0.074 A 
ATOM     41  C   UNL     1       2.229   6.469  -6.132  1.00  0.00     0.049 A 
ATOM     42  N   UNL     1       1.284   9.329  -6.080  1.00  0.00    -0.248 NA
ATOM     43  C   UNL     1       2.753   9.720  -4.305  1.00  0.00     0.031 C 
ATOM     44  C   UNL     1       2.658   5.073  -6.213  1.00  0.00     0.029 A 
ATOM     45  N   UNL     1       1.327   6.605  -7.157  1.00  0.00    -0.354 N 
ATOM     46  C   UNL     1       1.197  10.661  -5.696  1.00  0.00     0.074 A 
ATOM     47  C   UNL     1       2.095  10.838  -4.575  1.00  0.00     0.031 C 
ATOM     48  C   UNL     1       2.012   4.478  -7.231  1.00  0.00     0.029 A 
ATOM     49  C   UNL     1       1.097   5.438  -7.843  1.00  0.00     0.049 A 
ATOM     50  H   UNL     1       0.887   7.457  -7.379  1.00  0.00     0.167 HD
ATOM     51  C   UNL     1       0.441  11.650  -6.231  1.00  0.00     0.031 A 
ATOM     52  C   UNL     1       0.226   5.169  -8.833  1.00  0.00     0.031 A 
ATOM     53  C   UNL     1      -0.468  11.468  -7.332  1.00  0.00     0.049 A 
ATOM     54  C   UNL     1      -0.675   6.260  -9.345  1.00  0.00     0.074 A 
ATOM     55  C   UNL     1      -1.268  12.410  -7.955  1.00  0.00     0.029 A 
ATOM     56  N   UNL     1      -0.706  10.259  -7.968  1.00  0.00    -0.354 N 
ATOM     57  N   UNL     1      -0.734   7.521  -8.990  1.00  0.00    -0.248 NA
ATOM     58  C   UNL     1      -1.630   5.887 -10.399  1.00  0.00     0.031 C 
ATOM     59  C   UNL     1      -2.040  11.759  -8.922  1.00  0.00     0.029 A 
ATOM     60  C   UNL     1      -1.666  10.425  -8.953  1.00  0.00     0.049 A 
ATOM     61  H   UNL     1      -0.259   9.409  -7.752  1.00  0.00     0.167 HD
ATOM     62  C   UNL     1      -1.710   8.096  -9.794  1.00  0.00     0.074 A 
ATOM     63  C   UNL     1      -2.205   7.051 -10.666  1.00  0.00     0.031 C 
ATOM     64  C   UNL     1      -2.155   9.376  -9.811  1.00  0.00     0.031 A 
BRANCH  51  65
ATOM     65  C   UNL     1       0.535  13.013  -5.602  1.00  0.00    -0.014 A 
ATOM     66  C   UNL     1       1.692  13.798  -5.725  1.00  0.00     0.009 A 
ATOM     67  C   UNL     1      -0.567  13.535  -4.905  1.00  0.00     0.009 A 
ATOM     68  C   UNL     1       1.757  15.061  -5.131  1.00  0.00     0.001 A 
ATOM     69  C   UNL     1      -0.511  14.811  -4.341  1.00  0.00     0.001 A 
ATOM     70  C   UNL     1       0.654  15.568  -4.445  1.00  0.00     0.000 A 
ENDBRANCH  51  65
BRANCH  52  71
ATOM     71  C   UNL     1       0.127   3.795  -9.386  1.00  0.00    -0.014 A 
ATOM     72  C   UNL     1       0.548   3.517 -10.696  1.00  0.00     0.009 A 
ATOM     73  C   UNL     1      -0.430   2.762  -8.618  1.00  0.00     0.009 A 
ATOM     74  C   UNL     1       0.393   2.236 -11.231  1.00  0.00     0.001 A 
ATOM     75  C   UNL     1      -0.567   1.480  -9.151  1.00  0.00     0.001 A 
ATOM     76  C   UNL     1      -0.159   1.218 -10.457  1.00  0.00     0.000 A 
ENDBRANCH  52  71
BRANCH  64  77
ATOM     77  C   UNL     1      -3.203   9.731 -10.830  1.00  0.00    -0.014 A 
ATOM     78  C   UNL     1      -4.524   9.271 -10.714  1.00  0.00     0.009 A 
ATOM     79  C   UNL     1      -2.870  10.577 -11.900  1.00  0.00     0.009 A 
ATOM     80  C   UNL     1      -5.481   9.624 -11.669  1.00  0.00     0.001 A 
ATOM     81  C   UNL     1      -3.837  10.956 -12.834  1.00  0.00     0.001 A 
ATOM     82  C   UNL     1      -5.138  10.471 -12.723  1.00  0.00     0.000 A 
ENDBRANCH  64  77
ENDBRANCH  38  39
ENDBRANCH  31  33
ENDBRANCH  30  31
ENDBRANCH  29  30
ENDBRANCH  28  29
ENDBRANCH   1  28
TORSDOF 16
