REMARK SMILES Cc1ccc2cc(C[N@H+]3CC[NH2+][C@H](C(=O)OCCOCCOC(=O)c4ccc(-c5c6nc(c(-c7ccccc7)c7ccc([nH]7)c(-c7ccccc7)c7nc(c(-c8ccccc8)c8ccc5[nH]8)C=C7)C=C6)cc4)C3)c(N3CCOCC3)nc2c1
REMARK SMILES IDX 18 1 17 2 16 3 14 4 15 5 13 6 9 7 10 8 73 9 11 11 12 12 8 15
REMARK SMILES IDX 7 16 1 17 2 18 3 19 83 20 4 21 82 22 5 23 81 24 6 25 74 26
REMARK SMILES IDX 75 27 76 28 80 29 77 30 79 31 78 32 19 33 20 34 21 35 22 36
REMARK SMILES IDX 23 37 24 38 25 39 26 40 72 41 27 42 71 43 28 44 29 45 30 46
REMARK SMILES IDX 65 47 31 48 70 49 64 50 66 51 32 52 69 53 63 54 62 55 33 57
REMARK SMILES IDX 55 58 40 59 54 60 41 61 44 62 53 63 67 64 42 65 43 66 52 68
REMARK SMILES IDX 68 69 45 70 34 71 35 72 39 73 36 74 38 75 37 76 56 77 57 78
REMARK SMILES IDX 61 79 58 80 60 81 59 82 46 83 47 84 51 85 48 86 50 87 49 88
REMARK H PARENT 9 10 12 13 12 14 66 56 44 67
REMARK Flexibility Score: inf
ROOT
ATOM      1  C   UNL     1       4.363  -6.244   0.086  1.00  0.00     0.202 C 
ENDROOT
BRANCH   1   2
ATOM      2  C   UNL     1       3.782  -7.387  -0.743  1.00  0.00     0.261 C 
BRANCH   2   3
ATOM      3  O   UNL     1       3.194  -6.871  -1.946  1.00  0.00    -0.459 OA
BRANCH   3   4
ATOM      4  C   UNL     1       1.899  -7.221  -2.138  1.00  0.00     0.371 C 
ATOM      5  O   UNL     1       1.309  -8.076  -1.482  1.00  0.00    -0.245 OA
BRANCH   4   6
ATOM      6  C   UNL     1       1.175  -6.335  -3.140  1.00  0.00     0.348 C 
ATOM      7  N   UNL     1      -0.678  -6.481  -4.822  1.00  0.00    -0.321 N 
ATOM      8  C   UNL     1       0.045  -5.466  -5.607  1.00  0.00     0.324 C 
ATOM      9  C   UNL     1       0.248  -7.231  -3.973  1.00  0.00     0.341 C 
ATOM     10  H   UNL     1      -1.066  -7.109  -5.526  1.00  0.00     0.348 HD
ATOM     11  C   UNL     1       1.134  -4.651  -4.850  1.00  0.00     0.323 C 
ATOM     12  N   UNL     1       2.030  -5.468  -3.996  1.00  0.00    -0.325 N 
ATOM     13  H   UNL     1       2.602  -4.859  -3.411  1.00  0.00     0.347 HD
ATOM     14  H   UNL     1       2.652  -6.036  -4.571  1.00  0.00     0.347 HD
BRANCH   7  15
ATOM     15  C   UNL     1      -1.925  -6.072  -4.140  1.00  0.00     0.303 C 
BRANCH  15  16
ATOM     16  C   UNL     1      -1.968  -4.726  -3.443  1.00  0.00     0.049 A 
ATOM     17  C   UNL     1       0.569   0.320  -0.343  1.00  0.00     0.044 C 
ATOM     18  C   UNL     1      -0.159  -0.934  -0.731  1.00  0.00    -0.049 A 
ATOM     19  C   UNL     1      -0.145  -2.035   0.124  1.00  0.00     0.004 A 
ATOM     20  C   UNL     1      -0.782  -1.054  -1.986  1.00  0.00     0.032 A 
ATOM     21  C   UNL     1      -0.687  -3.247  -0.297  1.00  0.00     0.010 A 
ATOM     22  C   UNL     1      -1.331  -2.254  -2.435  1.00  0.00     0.073 A 
ATOM     23  C   UNL     1      -1.227  -3.369  -1.587  1.00  0.00     0.001 A 
ATOM     24  N   UNL     1      -1.893  -2.338  -3.660  1.00  0.00    -0.230 NA
ATOM     25  C   UNL     1      -1.581  -4.614  -2.105  1.00  0.00     0.023 A 
ATOM     26  C   UNL     1      -2.266  -3.547  -4.139  1.00  0.00     0.138 A 
BRANCH  26  27
ATOM     27  N   UNL     1      -2.906  -3.617  -5.358  1.00  0.00    -0.352 N 
ATOM     28  C   UNL     1      -4.273  -4.155  -5.407  1.00  0.00     0.146 C 
ATOM     29  C   UNL     1      -2.631  -2.638  -6.405  1.00  0.00     0.146 C 
ATOM     30  C   UNL     1      -4.477  -4.806  -6.785  1.00  0.00     0.181 C 
ATOM     31  C   UNL     1      -2.908  -3.322  -7.762  1.00  0.00     0.181 C 
ATOM     32  O   UNL     1      -4.245  -3.857  -7.842  1.00  0.00    -0.378 OA
ENDBRANCH  26  27
ENDBRANCH  15  16
ENDBRANCH   7  15
ENDBRANCH   4   6
ENDBRANCH   3   4
ENDBRANCH   2   3
ENDBRANCH   1   2
BRANCH   1  33
ATOM     33  O   UNL     1       3.451  -5.355   0.727  1.00  0.00    -0.374 OA
BRANCH  33  34
ATOM     34  C   UNL     1       2.637  -4.513  -0.085  1.00  0.00     0.202 C 
BRANCH  34  35
ATOM     35  C   UNL     1       3.280  -3.299  -0.775  1.00  0.00     0.261 C 
BRANCH  35  36
ATOM     36  O   UNL     1       4.408  -3.637  -1.588  1.00  0.00    -0.460 OA
BRANCH  36  37
ATOM     37  C   UNL     1       5.615  -3.334  -1.055  1.00  0.00     0.338 C 
ATOM     38  O   UNL     1       5.851  -2.750  -0.011  1.00  0.00    -0.246 OA
BRANCH  37  39
ATOM     39  C   UNL     1       6.636  -4.046  -1.842  1.00  0.00     0.060 A 
ATOM     40  C   UNL     1       6.740  -3.864  -3.222  1.00  0.00     0.016 A 
ATOM     41  C   UNL     1       7.463  -4.955  -1.169  1.00  0.00     0.016 A 
ATOM     42  C   UNL     1       7.694  -4.593  -3.932  1.00  0.00     0.010 A 
ATOM     43  C   UNL     1       8.393  -5.702  -1.882  1.00  0.00     0.010 A 
ATOM     44  C   UNL     1       8.526  -5.508  -3.264  1.00  0.00    -0.014 A 
BRANCH  44  45
ATOM     45  C   UNL     1       9.664  -6.135  -3.966  1.00  0.00     0.031 A 
ATOM     46  C   UNL     1       9.603  -7.545  -4.456  1.00  0.00     0.074 A 
ATOM     47  C   UNL     1      10.782  -5.399  -4.098  1.00  0.00     0.049 A 
ATOM     48  N   UNL     1      10.518  -8.222  -5.100  1.00  0.00    -0.248 NA
ATOM     49  C   UNL     1       8.367  -8.295  -4.193  1.00  0.00     0.031 C 
ATOM     50  C   UNL     1      10.931  -4.019  -3.628  1.00  0.00     0.029 A 
ATOM     51  N   UNL     1      11.995  -5.698  -4.656  1.00  0.00    -0.354 N 
ATOM     52  C   UNL     1       9.966  -9.473  -5.338  1.00  0.00     0.074 A 
ATOM     53  C   UNL     1       8.650  -9.475  -4.733  1.00  0.00     0.031 C 
ATOM     54  C   UNL     1      12.162  -3.585  -3.934  1.00  0.00     0.029 A 
ATOM     55  C   UNL     1      12.896  -4.664  -4.587  1.00  0.00     0.049 A 
ATOM     56  H   UNL     1      12.202  -6.569  -5.066  1.00  0.00     0.167 HD
ATOM     57  C   UNL     1      10.513 -10.511  -6.012  1.00  0.00     0.031 A 
ATOM     58  C   UNL     1      14.174  -4.591  -5.002  1.00  0.00     0.031 A 
ATOM     59  C   UNL     1      11.840 -10.491  -6.576  1.00  0.00     0.049 A 
ATOM     60  C   UNL     1      14.777  -5.781  -5.690  1.00  0.00     0.074 A 
ATOM     61  C   UNL     1      12.473 -11.477  -7.311  1.00  0.00     0.029 A 
ATOM     62  N   UNL     1      12.740  -9.441  -6.454  1.00  0.00    -0.354 N 
ATOM     63  N   UNL     1      14.217  -6.931  -5.979  1.00  0.00    -0.248 NA
ATOM     64  C   UNL     1      16.177  -5.666  -6.117  1.00  0.00     0.031 C 
ATOM     65  C   UNL     1      13.779 -11.056  -7.569  1.00  0.00     0.029 A 
ATOM     66  C   UNL     1      13.937  -9.775  -7.064  1.00  0.00     0.049 A 
ATOM     67  H   UNL     1      12.554  -8.587  -6.001  1.00  0.00     0.167 HD
ATOM     68  C   UNL     1      15.187  -7.671  -6.638  1.00  0.00     0.074 A 
ATOM     69  C   UNL     1      16.367  -6.833  -6.721  1.00  0.00     0.031 C 
ATOM     70  C   UNL     1      15.105  -8.931  -7.129  1.00  0.00     0.031 A 
BRANCH  57  71
ATOM     71  C   UNL     1       9.695 -11.760  -6.191  1.00  0.00    -0.014 A 
ATOM     72  C   UNL     1      10.103 -12.960  -5.586  1.00  0.00     0.009 A 
ATOM     73  C   UNL     1       8.590 -11.781  -7.057  1.00  0.00     0.009 A 
ATOM     74  C   UNL     1       9.435 -14.156  -5.857  1.00  0.00     0.001 A 
ATOM     75  C   UNL     1       7.906 -12.974  -7.305  1.00  0.00     0.001 A 
ATOM     76  C   UNL     1       8.336 -14.162  -6.714  1.00  0.00     0.000 A 
ENDBRANCH  57  71
BRANCH  58  77
ATOM     77  C   UNL     1      14.928  -3.328  -4.800  1.00  0.00    -0.014 A 
ATOM     78  C   UNL     1      15.262  -2.891  -3.507  1.00  0.00     0.009 A 
ATOM     79  C   UNL     1      15.239  -2.506  -5.893  1.00  0.00     0.009 A 
ATOM     80  C   UNL     1      15.861  -1.645  -3.310  1.00  0.00     0.001 A 
ATOM     81  C   UNL     1      15.867  -1.274  -5.695  1.00  0.00     0.001 A 
ATOM     82  C   UNL     1      16.166  -0.839  -4.404  1.00  0.00     0.000 A 
ENDBRANCH  58  77
BRANCH  70  83
ATOM     83  C   UNL     1      16.321  -9.501  -7.804  1.00  0.00    -0.014 A 
ATOM     84  C   UNL     1      16.298  -9.753  -9.186  1.00  0.00     0.009 A 
ATOM     85  C   UNL     1      17.436  -9.907  -7.057  1.00  0.00     0.009 A 
ATOM     86  C   UNL     1      17.354 -10.426  -9.801  1.00  0.00     0.001 A 
ATOM     87  C   UNL     1      18.506 -10.552  -7.681  1.00  0.00     0.001 A 
ATOM     88  C   UNL     1      18.458 -10.823  -9.048  1.00  0.00     0.000 A 
ENDBRANCH  70  83
ENDBRANCH  44  45
ENDBRANCH  37  39
ENDBRANCH  36  37
ENDBRANCH  35  36
ENDBRANCH  34  35
ENDBRANCH  33  34
ENDBRANCH   1  33
TORSDOF 17
