REMARK SMILES O=C(OCCOCCOC(=O)c1ccc(-c2c3nc(c(-c4ccccc4)c4ccc([nH]4)c(-c4ccccc4)c4nc(c(-c5ccccc5)c5ccc2[nH]5)C=C4)C=C3)cc1)c1ccc(C[C@H]2SC(=O)N(c3ccccc3)C2=O)cc1
REMARK SMILES IDX 5 1 4 2 3 3 2 4 1 5 60 6 61 7 79 8 62 9 78 10 63 11 64 12
REMARK SMILES IDX 65 13 66 14 76 15 67 16 69 17 77 18 68 19 70 20 71 21 75 22
REMARK SMILES IDX 72 23 74 24 73 25 6 26 7 27 8 28 9 29 10 30 11 31 12 32
REMARK SMILES IDX 13 33 59 34 14 35 58 36 15 37 16 38 17 39 52 40 18 41 57 42
REMARK SMILES IDX 51 43 53 44 19 45 56 46 50 47 49 48 20 50 42 51 27 52 41 53
REMARK SMILES IDX 28 54 31 55 40 56 54 57 29 58 30 59 39 61 55 62 32 63 21 64
REMARK SMILES IDX 22 65 26 66 23 67 25 68 24 69 43 70 44 71 48 72 45 73 47 74
REMARK SMILES IDX 46 75 33 76 34 77 38 78 35 79 37 80 36 81
REMARK H PARENT 53 49 31 60
REMARK Flexibility Score: inf
ROOT
ATOM      1  C   UNL     1       8.444  -0.684   7.484  1.00  0.00     0.202 C 
ENDROOT
BRANCH   1   2
ATOM      2  C   UNL     1       7.256  -1.639   7.565  1.00  0.00     0.261 C 
BRANCH   2   3
ATOM      3  O   UNL     1       7.505  -2.667   8.548  1.00  0.00    -0.460 OA
BRANCH   3   4
ATOM      4  C   UNL     1       7.739  -3.973   8.261  1.00  0.00     0.338 C 
ATOM      5  O   UNL     1       7.940  -4.802   9.139  1.00  0.00    -0.246 OA
BRANCH   4   6
ATOM      6  C   UNL     1       7.692  -4.402   6.850  1.00  0.00     0.060 A 
ATOM      7  C   UNL     1       8.709  -4.058   5.958  1.00  0.00     0.016 A 
ATOM      8  C   UNL     1       6.604  -5.159   6.415  1.00  0.00     0.016 A 
ATOM      9  C   UNL     1       8.579  -4.355   4.607  1.00  0.00     0.004 A 
ATOM     10  C   UNL     1       6.481  -5.470   5.060  1.00  0.00     0.004 A 
ATOM     11  C   UNL     1       7.444  -5.027   4.141  1.00  0.00    -0.046 A 
BRANCH  11  12
ATOM     12  C   UNL     1       7.241  -5.200   2.656  1.00  0.00     0.060 C 
BRANCH  12  13
ATOM     13  C   UNL     1       6.438  -4.050   2.024  1.00  0.00     0.151 C 
ATOM     14  S   UNL     1       7.298  -2.457   2.055  1.00  0.00    -0.050 SA
ATOM     15  C   UNL     1       6.235  -4.357   0.559  1.00  0.00     0.248 C 
ATOM     16  C   UNL     1       7.727  -2.552   0.361  1.00  0.00     0.293 C 
ATOM     17  N   UNL     1       7.040  -3.574  -0.256  1.00  0.00    -0.240 N 
ATOM     18  O   UNL     1       5.500  -5.281   0.214  1.00  0.00    -0.273 OA
ATOM     19  O   UNL     1       8.498  -1.738  -0.121  1.00  0.00    -0.261 OA
BRANCH  17  20
ATOM     20  C   UNL     1       7.155  -3.814  -1.659  1.00  0.00     0.053 A 
ATOM     21  C   UNL     1       6.062  -4.279  -2.405  1.00  0.00     0.027 A 
ATOM     22  C   UNL     1       8.373  -3.612  -2.329  1.00  0.00     0.027 A 
ATOM     23  C   UNL     1       6.182  -4.541  -3.772  1.00  0.00     0.002 A 
ATOM     24  C   UNL     1       8.499  -3.898  -3.692  1.00  0.00     0.002 A 
ATOM     25  C   UNL     1       7.403  -4.361  -4.413  1.00  0.00     0.000 A 
ENDBRANCH  17  20
ENDBRANCH  12  13
ENDBRANCH  11  12
ENDBRANCH   4   6
ENDBRANCH   3   4
ENDBRANCH   2   3
ENDBRANCH   1   2
BRANCH   1  26
ATOM     26  O   UNL     1       9.660  -1.344   7.145  1.00  0.00    -0.374 OA
BRANCH  26  27
ATOM     27  C   UNL     1      10.418  -1.842   8.256  1.00  0.00     0.202 C 
BRANCH  27  28
ATOM     28  C   UNL     1      11.903  -1.575   7.993  1.00  0.00     0.261 C 
BRANCH  28  29
ATOM     29  O   UNL     1      12.145  -0.181   8.223  1.00  0.00    -0.460 OA
BRANCH  29  30
ATOM     30  C   UNL     1      11.751   0.638   7.218  1.00  0.00     0.338 C 
ATOM     31  O   UNL     1      11.732   0.391   6.024  1.00  0.00    -0.246 OA
BRANCH  30  32
ATOM     32  C   UNL     1      11.139   1.835   7.837  1.00  0.00     0.060 A 
ATOM     33  C   UNL     1      10.118   2.507   7.147  1.00  0.00     0.016 A 
ATOM     34  C   UNL     1      11.530   2.260   9.110  1.00  0.00     0.016 A 
ATOM     35  C   UNL     1       9.522   3.637   7.709  1.00  0.00     0.010 A 
ATOM     36  C   UNL     1      10.932   3.377   9.674  1.00  0.00     0.010 A 
ATOM     37  C   UNL     1       9.960   4.093   8.956  1.00  0.00    -0.014 A 
BRANCH  37  38
ATOM     38  C   UNL     1       9.618   5.439   9.457  1.00  0.00     0.031 A 
ATOM     39  C   UNL     1      10.648   6.515   9.278  1.00  0.00     0.074 A 
ATOM     40  C   UNL     1       8.504   5.650  10.172  1.00  0.00     0.049 A 
ATOM     41  N   UNL     1      10.726   7.692   9.837  1.00  0.00    -0.248 NA
ATOM     42  C   UNL     1      11.765   6.195   8.372  1.00  0.00     0.031 C 
ATOM     43  C   UNL     1       7.442   4.672  10.397  1.00  0.00     0.029 A 
ATOM     44  N   UNL     1       8.113   6.752  10.886  1.00  0.00    -0.354 N 
ATOM     45  C   UNL     1      11.922   8.236   9.383  1.00  0.00     0.074 A 
ATOM     46  C   UNL     1      12.543   7.254   8.524  1.00  0.00     0.031 C 
ATOM     47  C   UNL     1       6.533   5.206  11.230  1.00  0.00     0.029 A 
ATOM     48  C   UNL     1       6.977   6.541  11.627  1.00  0.00     0.049 A 
ATOM     49  H   UNL     1       8.598   7.609  10.870  1.00  0.00     0.167 HD
ATOM     50  C   UNL     1      12.456   9.446   9.668  1.00  0.00     0.031 A 
ATOM     51  C   UNL     1       6.394   7.323  12.555  1.00  0.00     0.031 A 
ATOM     52  C   UNL     1      11.833  10.400  10.542  1.00  0.00     0.049 A 
ATOM     53  C   UNL     1       7.013   8.656  12.881  1.00  0.00     0.074 A 
ATOM     54  C   UNL     1      12.254  11.674  10.873  1.00  0.00     0.029 A 
ATOM     55  N   UNL     1      10.653  10.169  11.236  1.00  0.00    -0.354 N 
ATOM     56  N   UNL     1       8.118   9.189  12.416  1.00  0.00    -0.248 NA
ATOM     57  C   UNL     1       6.302   9.497  13.853  1.00  0.00     0.031 C 
ATOM     58  C   UNL     1      11.357  12.194  11.811  1.00  0.00     0.029 A 
ATOM     59  C   UNL     1      10.343  11.269  12.015  1.00  0.00     0.049 A 
ATOM     60  H   UNL     1      10.118   9.345  11.183  1.00  0.00     0.167 HD
ATOM     61  C   UNL     1       8.220  10.439  13.013  1.00  0.00     0.074 A 
ATOM     62  C   UNL     1       7.062  10.584  13.873  1.00  0.00     0.031 C 
ATOM     63  C   UNL     1       9.180  11.386  12.859  1.00  0.00     0.031 A 
BRANCH  50  64
ATOM     64  C   UNL     1      13.797   9.761   9.064  1.00  0.00    -0.014 A 
ATOM     65  C   UNL     1      13.959   9.932   7.679  1.00  0.00     0.009 A 
ATOM     66  C   UNL     1      14.925   9.858   9.894  1.00  0.00     0.009 A 
ATOM     67  C   UNL     1      15.228  10.139   7.135  1.00  0.00     0.001 A 
ATOM     68  C   UNL     1      16.187  10.100   9.350  1.00  0.00     0.001 A 
ATOM     69  C   UNL     1      16.340  10.225   7.970  1.00  0.00     0.000 A 
ENDBRANCH  50  64
BRANCH  51  70
ATOM     70  C   UNL     1       5.164   6.850  13.241  1.00  0.00    -0.014 A 
ATOM     71  C   UNL     1       3.916   7.405  12.925  1.00  0.00     0.009 A 
ATOM     72  C   UNL     1       5.226   5.807  14.179  1.00  0.00     0.009 A 
ATOM     73  C   UNL     1       2.754   6.931  13.540  1.00  0.00     0.001 A 
ATOM     74  C   UNL     1       4.060   5.318  14.774  1.00  0.00     0.001 A 
ATOM     75  C   UNL     1       2.826   5.883  14.457  1.00  0.00     0.000 A 
ENDBRANCH  51  70
BRANCH  63  76
ATOM     76  C   UNL     1       8.996  12.683  13.594  1.00  0.00    -0.014 A 
ATOM     77  C   UNL     1       9.207  12.778  14.977  1.00  0.00     0.009 A 
ATOM     78  C   UNL     1       8.684  13.845  12.869  1.00  0.00     0.009 A 
ATOM     79  C   UNL     1       9.088  14.011  15.623  1.00  0.00     0.001 A 
ATOM     80  C   UNL     1       8.593  15.079  13.512  1.00  0.00     0.001 A 
ATOM     81  C   UNL     1       8.789  15.160  14.889  1.00  0.00     0.000 A 
ENDBRANCH  63  76
ENDBRANCH  37  38
ENDBRANCH  30  32
ENDBRANCH  29  30
ENDBRANCH  28  29
ENDBRANCH  27  28
ENDBRANCH  26  27
ENDBRANCH   1  26
TORSDOF 17
