REMARK SMILES CS(=O)(=O)c1ccc(/C=C(/C(=O)OCCOCCOC(=O)c2ccc(-c3c4nc(c(-c5ccccc5)c5ccc([nH]5)c(-c5ccccc5)c5nc(c(-c6ccccc6)c6ccc3[nH]6)C=C5)C=C4)cc2)c2ccc(-c3ccc(F)cc3F)cc2)cc1
REMARK SMILES IDX 16 1 15 2 14 3 13 4 11 5 12 6 10 7 9 8 8 9 5 10 6 11 85 12
REMARK SMILES IDX 7 13 84 14 2 15 1 16 3 17 4 18 70 19 71 20 83 21 72 22 82 23
REMARK SMILES IDX 73 24 74 25 75 26 80 27 76 28 79 29 81 30 77 31 78 32 17 33
REMARK SMILES IDX 18 34 19 35 20 36 21 37 22 38 23 39 69 40 24 41 68 42 25 43
REMARK SMILES IDX 26 44 27 45 62 46 28 47 67 48 61 49 63 50 29 51 66 52 60 53
REMARK SMILES IDX 59 54 30 56 52 57 37 58 51 59 38 60 41 61 50 62 64 63 39 64
REMARK SMILES IDX 40 65 49 67 65 68 42 69 31 70 32 71 36 72 33 73 35 74 34 75
REMARK SMILES IDX 53 76 54 77 58 78 55 79 57 80 56 81 43 82 44 83 48 84 45 85
REMARK SMILES IDX 47 86 46 87
REMARK H PARENT 63 55 41 66
REMARK Flexibility Score: inf
ROOT
ATOM      1  O   UNL     1       1.196  -6.232   9.719  1.00  0.00    -0.374 OA
ENDROOT
BRANCH   1   2
ATOM      2  C   UNL     1       2.151  -5.355  10.317  1.00  0.00     0.202 C 
BRANCH   2   3
ATOM      3  C   UNL     1       3.265  -4.812   9.417  1.00  0.00     0.261 C 
BRANCH   3   4
ATOM      4  O   UNL     1       2.739  -3.941   8.398  1.00  0.00    -0.460 OA
BRANCH   4   5
ATOM      5  C   UNL     1       3.059  -4.301   7.128  1.00  0.00     0.338 C 
ATOM      6  O   UNL     1       3.869  -5.163   6.817  1.00  0.00    -0.246 OA
BRANCH   5   7
ATOM      7  C   UNL     1       2.205  -3.604   6.117  1.00  0.00     0.067 C 
ATOM      8  C   UNL     1       1.908  -2.289   6.251  1.00  0.00     0.024 C 
BRANCH   8   9
ATOM      9  C   UNL     1       1.317  -1.389   5.225  1.00  0.00    -0.025 A 
ATOM     10  C   UNL     1       0.624   0.272   3.066  1.00  0.00     0.067 A 
ATOM     11  C   UNL     1       0.016  -0.973   3.202  1.00  0.00     0.021 A 
ATOM     12  C   UNL     1       1.481   0.749   4.056  1.00  0.00     0.021 A 
ATOM     13  C   UNL     1       0.341  -1.780   4.296  1.00  0.00     0.009 A 
ATOM     14  C   UNL     1       1.825  -0.083   5.129  1.00  0.00     0.009 A 
BRANCH  10  15
ATOM     15  S   UNL     1       0.308   1.228   1.603  1.00  0.00     0.175 S 
ATOM     16  C   UNL     1       1.085   0.287   0.310  1.00  0.00     0.163 C 
ATOM     17  O   UNL     1       1.036   2.481   1.729  1.00  0.00    -0.224 OA
ATOM     18  O   UNL     1      -1.122   1.214   1.385  1.00  0.00    -0.224 OA
ENDBRANCH  10  15
ENDBRANCH   8   9
BRANCH   7  19
ATOM     19  C   UNL     1       1.810  -4.398   4.939  1.00  0.00    -0.011 A 
ATOM     20  C   UNL     1       0.660  -5.197   4.994  1.00  0.00     0.009 A 
ATOM     21  C   UNL     1       2.515  -4.297   3.740  1.00  0.00     0.009 A 
ATOM     22  C   UNL     1       0.181  -5.828   3.844  1.00  0.00     0.009 A 
ATOM     23  C   UNL     1       2.028  -4.925   2.591  1.00  0.00     0.009 A 
ATOM     24  C   UNL     1       0.839  -5.676   2.614  1.00  0.00    -0.015 A 
BRANCH  24  25
ATOM     25  C   UNL     1       0.272  -6.239   1.376  1.00  0.00     0.018 A 
ATOM     26  C   UNL     1      -1.094  -6.069   1.071  1.00  0.00     0.015 A 
ATOM     27  C   UNL     1       1.064  -6.924   0.439  1.00  0.00     0.133 A 
ATOM     28  C   UNL     1      -1.631  -6.559  -0.122  1.00  0.00     0.040 A 
ATOM     29  C   UNL     1       0.538  -7.412  -0.753  1.00  0.00     0.079 A 
ATOM     30  F   UNL     1       2.371  -7.122   0.674  1.00  0.00    -0.206 F 
ATOM     31  C   UNL     1      -0.808  -7.222  -1.022  1.00  0.00     0.126 A 
ATOM     32  F   UNL     1      -1.322  -7.678  -2.171  1.00  0.00    -0.207 F 
ENDBRANCH  24  25
ENDBRANCH   7  19
ENDBRANCH   5   7
ENDBRANCH   4   5
ENDBRANCH   3   4
ENDBRANCH   2   3
ENDBRANCH   1   2
BRANCH   1  33
ATOM     33  C   UNL     1       0.277  -5.673   8.786  1.00  0.00     0.202 C 
BRANCH  33  34
ATOM     34  C   UNL     1      -0.922  -4.895   9.343  1.00  0.00     0.261 C 
BRANCH  34  35
ATOM     35  O   UNL     1      -0.541  -3.859  10.258  1.00  0.00    -0.460 OA
BRANCH  35  36
ATOM     36  C   UNL     1      -0.762  -4.172  11.557  1.00  0.00     0.338 C 
ATOM     37  O   UNL     1      -1.326  -5.165  11.995  1.00  0.00    -0.246 OA
BRANCH  36  38
ATOM     38  C   UNL     1      -0.072  -3.216  12.438  1.00  0.00     0.060 A 
ATOM     39  C   UNL     1       0.741  -3.754  13.443  1.00  0.00     0.016 A 
ATOM     40  C   UNL     1      -0.281  -1.837  12.350  1.00  0.00     0.016 A 
ATOM     41  C   UNL     1       1.286  -2.922  14.414  1.00  0.00     0.010 A 
ATOM     42  C   UNL     1       0.265  -1.002  13.331  1.00  0.00     0.010 A 
ATOM     43  C   UNL     1       1.004  -1.550  14.395  1.00  0.00    -0.014 A 
BRANCH  43  44
ATOM     44  C   UNL     1       1.332  -0.747  15.597  1.00  0.00     0.031 A 
ATOM     45  C   UNL     1       0.246  -0.474  16.603  1.00  0.00     0.074 A 
ATOM     46  C   UNL     1       2.592  -0.347  15.835  1.00  0.00     0.049 A 
ATOM     47  N   UNL     1       0.323   0.125  17.764  1.00  0.00    -0.248 NA
ATOM     48  C   UNL     1      -1.105  -0.945  16.258  1.00  0.00     0.031 C 
ATOM     49  C   UNL     1       3.737  -0.587  14.958  1.00  0.00     0.029 A 
ATOM     50  N   UNL     1       3.120   0.332  16.904  1.00  0.00    -0.354 N 
ATOM     51  C   UNL     1      -0.965   0.103  18.285  1.00  0.00     0.074 A 
ATOM     52  C   UNL     1      -1.811  -0.533  17.300  1.00  0.00     0.031 C 
ATOM     53  C   UNL     1       4.838  -0.070  15.531  1.00  0.00     0.029 A 
ATOM     54  C   UNL     1       4.471   0.551  16.801  1.00  0.00     0.049 A 
ATOM     55  H   UNL     1       2.581   0.633  17.671  1.00  0.00     0.167 HD
ATOM     56  C   UNL     1      -1.405   0.559  19.482  1.00  0.00     0.031 A 
ATOM     57  C   UNL     1       5.314   1.182  17.640  1.00  0.00     0.031 A 
ATOM     58  C   UNL     1      -0.569   1.203  20.459  1.00  0.00     0.049 A 
ATOM     59  C   UNL     1       4.789   1.734  18.938  1.00  0.00     0.074 A 
ATOM     60  C   UNL     1      -0.917   1.693  21.705  1.00  0.00     0.029 A 
ATOM     61  N   UNL     1       0.785   1.451  20.295  1.00  0.00    -0.354 N 
ATOM     62  N   UNL     1       3.575   1.680  19.431  1.00  0.00    -0.248 NA
ATOM     63  C   UNL     1       5.760   2.420  19.802  1.00  0.00     0.031 C 
ATOM     64  C   UNL     1       0.216   2.285  22.274  1.00  0.00     0.029 A 
ATOM     65  C   UNL     1       1.282   2.109  21.407  1.00  0.00     0.049 A 
ATOM     66  H   UNL     1       1.314   1.197  19.505  1.00  0.00     0.167 HD
ATOM     67  C   UNL     1       3.643   2.298  20.674  1.00  0.00     0.074 A 
ATOM     68  C   UNL     1       5.021   2.701  20.866  1.00  0.00     0.031 C 
ATOM     69  C   UNL     1       2.655   2.510  21.578  1.00  0.00     0.031 A 
BRANCH  56  70
ATOM     70  C   UNL     1      -2.870   0.402  19.782  1.00  0.00    -0.014 A 
ATOM     71  C   UNL     1      -3.429  -0.857  20.054  1.00  0.00     0.009 A 
ATOM     72  C   UNL     1      -3.699   1.534  19.810  1.00  0.00     0.009 A 
ATOM     73  C   UNL     1      -4.796  -0.982  20.314  1.00  0.00     0.001 A 
ATOM     74  C   UNL     1      -5.059   1.409  20.097  1.00  0.00     0.001 A 
ATOM     75  C   UNL     1      -5.608   0.151  20.339  1.00  0.00     0.000 A 
ENDBRANCH  56  70
BRANCH  57  76
ATOM     76  C   UNL     1       6.749   1.330  17.281  1.00  0.00    -0.014 A 
ATOM     77  C   UNL     1       7.742   0.634  17.988  1.00  0.00     0.009 A 
ATOM     78  C   UNL     1       7.133   2.190  16.241  1.00  0.00     0.009 A 
ATOM     79  C   UNL     1       9.091   0.819  17.678  1.00  0.00     0.001 A 
ATOM     80  C   UNL     1       8.481   2.351  15.914  1.00  0.00     0.001 A 
ATOM     81  C   UNL     1       9.459   1.673  16.639  1.00  0.00     0.000 A 
ENDBRANCH  57  76
BRANCH  69  82
ATOM     82  C   UNL     1       3.040   3.181  22.867  1.00  0.00    -0.014 A 
ATOM     83  C   UNL     1       3.387   4.540  22.910  1.00  0.00     0.009 A 
ATOM     84  C   UNL     1       3.039   2.442  24.061  1.00  0.00     0.009 A 
ATOM     85  C   UNL     1       3.769   5.133  24.116  1.00  0.00     0.001 A 
ATOM     86  C   UNL     1       3.390   3.045  25.269  1.00  0.00     0.001 A 
ATOM     87  C   UNL     1       3.767   4.387  25.293  1.00  0.00     0.000 A 
ENDBRANCH  69  82
ENDBRANCH  43  44
ENDBRANCH  36  38
ENDBRANCH  35  36
ENDBRANCH  34  35
ENDBRANCH  33  34
ENDBRANCH   1  33
TORSDOF 18
