REMARK SMILES CCOC(=O)c1c(NC(=O)[C@H]2[C@@H]3CC[C@@H](C3)[C@@H]2C(=O)OCCOCCOC(=O)c2ccc(-c3c4nc(c(-c5ccccc5)c5ccc([nH]5)c(-c5ccccc5)c5nc(c(-c6ccccc6)c6ccc3[nH]6)C=C5)C=C4)cc2)sc2c1CCCC2
REMARK SMILES IDX 21 1 20 2 18 3 19 4 17 5 11 6 12 7 13 8 16 9 15 10 14 11
REMARK SMILES IDX 9 12 8 13 10 15 7 16 6 17 79 18 77 19 78 20 80 21 83 22
REMARK SMILES IDX 81 23 82 24 4 25 5 26 3 27 2 28 1 29 22 30 23 31 24 32 25 33
REMARK SMILES IDX 26 34 27 35 28 36 29 37 30 38 76 39 31 40 75 41 32 42 33 43
REMARK SMILES IDX 34 44 69 45 35 46 74 47 68 48 70 49 36 50 73 51 67 52 66 53
REMARK SMILES IDX 37 55 59 56 44 57 58 58 45 59 48 60 57 61 71 62 46 63 47 64
REMARK SMILES IDX 56 66 72 67 49 68 38 69 39 70 43 71 40 72 42 73 41 74 60 75
REMARK SMILES IDX 61 76 65 77 62 78 64 79 63 80 50 81 51 82 55 83 52 84 54 85
REMARK SMILES IDX 53 86
REMARK H PARENT 8 14 70 54 48 65
REMARK Flexibility Score: inf
ROOT
ATOM      1  C   UNL     1       5.588  -1.812   3.778  1.00  0.00     0.261 C 
ENDROOT
BRANCH   1   2
ATOM      2  O   UNL     1       5.081  -0.933   2.751  1.00  0.00    -0.463 OA
BRANCH   2   3
ATOM      3  C   UNL     1       4.666  -1.538   1.605  1.00  0.00     0.310 C 
ATOM      4  O   UNL     1       4.499  -2.743   1.468  1.00  0.00    -0.252 OA
BRANCH   3   5
ATOM      5  C   UNL     1       4.610  -0.542   0.466  1.00  0.00     0.115 C 
ATOM      6  C   UNL     1       3.748   0.717   0.679  1.00  0.00     0.096 C 
ATOM      7  C   UNL     1       3.089   0.911  -0.722  1.00  0.00     0.003 C 
ATOM      8  C   UNL     1       1.842   0.036  -0.752  1.00  0.00     0.005 C 
ATOM      9  C   UNL     1       3.980   0.112  -1.684  1.00  0.00     0.009 C 
ATOM     10  C   UNL     1       3.961  -1.136  -0.807  1.00  0.00     0.004 C 
ATOM     11  C   UNL     1       2.437  -1.373  -0.615  1.00  0.00     0.005 C 
BRANCH   6  12
ATOM     12  C   UNL     1       4.488   1.961   1.067  1.00  0.00     0.229 C 
ATOM     13  N   UNL     1       3.949   2.914   1.874  1.00  0.00    -0.317 N 
ATOM     14  H   UNL     1       4.515   3.720   1.900  1.00  0.00     0.170 HD
ATOM     15  O   UNL     1       5.612   2.187   0.604  1.00  0.00    -0.274 OA
BRANCH  13  16
ATOM     16  C   UNL     1       2.828   3.065   2.668  1.00  0.00     0.110 A 
ATOM     17  C   UNL     1       1.633   2.456   3.035  1.00  0.00     0.098 A 
ATOM     18  C   UNL     1       1.018   3.154   4.161  1.00  0.00    -0.017 A 
ATOM     19  S   UNL     1       3.039   4.560   3.518  1.00  0.00    -0.122 S 
ATOM     20  C   UNL     1       1.714   4.284   4.522  1.00  0.00     0.011 A 
ATOM     21  C   UNL     1      -0.156   2.655   4.967  1.00  0.00     0.038 C 
ATOM     22  C   UNL     1       1.378   5.169   5.682  1.00  0.00     0.047 C 
ATOM     23  C   UNL     1      -0.618   3.648   6.043  1.00  0.00     0.005 C 
ATOM     24  C   UNL     1       0.548   4.387   6.710  1.00  0.00     0.006 C 
BRANCH  17  25
ATOM     25  C   UNL     1       1.040   1.207   2.586  1.00  0.00     0.341 C 
ATOM     26  O   UNL     1       1.492   0.119   2.905  1.00  0.00    -0.246 OA
BRANCH  25  27
ATOM     27  O   UNL     1      -0.168   1.381   1.970  1.00  0.00    -0.462 OA
BRANCH  27  28
ATOM     28  C   UNL     1      -1.008   0.212   1.896  1.00  0.00     0.230 C 
ATOM     29  C   UNL     1      -1.635   0.092   0.519  1.00  0.00     0.049 C 
ENDBRANCH  27  28
ENDBRANCH  25  27
ENDBRANCH  17  25
ENDBRANCH  13  16
ENDBRANCH   6  12
ENDBRANCH   3   5
ENDBRANCH   2   3
ENDBRANCH   1   2
BRANCH   1  30
ATOM     30  C   UNL     1       4.627  -1.946   4.958  1.00  0.00     0.202 C 
BRANCH  30  31
ATOM     31  O   UNL     1       3.630  -2.953   4.777  1.00  0.00    -0.374 OA
BRANCH  31  32
ATOM     32  C   UNL     1       2.431  -2.495   4.149  1.00  0.00     0.202 C 
BRANCH  32  33
ATOM     33  C   UNL     1       1.407  -1.947   5.153  1.00  0.00     0.261 C 
BRANCH  33  34
ATOM     34  O   UNL     1       1.909  -0.763   5.803  1.00  0.00    -0.460 OA
BRANCH  34  35
ATOM     35  C   UNL     1       2.226  -0.891   7.112  1.00  0.00     0.338 C 
ATOM     36  O   UNL     1       1.954  -1.834   7.838  1.00  0.00    -0.246 OA
BRANCH  35  37
ATOM     37  C   UNL     1       3.025   0.277   7.576  1.00  0.00     0.060 A 
ATOM     38  C   UNL     1       3.633   0.195   8.835  1.00  0.00     0.016 A 
ATOM     39  C   UNL     1       3.192   1.437   6.809  1.00  0.00     0.016 A 
ATOM     40  C   UNL     1       4.346   1.280   9.349  1.00  0.00     0.010 A 
ATOM     41  C   UNL     1       3.901   2.528   7.326  1.00  0.00     0.010 A 
ATOM     42  C   UNL     1       4.451   2.466   8.612  1.00  0.00    -0.014 A 
BRANCH  42  43
ATOM     43  C   UNL     1       5.071   3.660   9.228  1.00  0.00     0.031 A 
ATOM     44  C   UNL     1       4.244   4.558  10.102  1.00  0.00     0.074 A 
ATOM     45  C   UNL     1       6.359   3.959   8.990  1.00  0.00     0.049 A 
ATOM     46  N   UNL     1       4.623   5.561  10.851  1.00  0.00    -0.248 NA
ATOM     47  C   UNL     1       2.795   4.303  10.123  1.00  0.00     0.031 C 
ATOM     48  C   UNL     1       7.252   3.210   8.108  1.00  0.00     0.029 A 
ATOM     49  N   UNL     1       7.133   4.986   9.466  1.00  0.00    -0.354 N 
ATOM     50  C   UNL     1       3.467   6.045  11.448  1.00  0.00     0.074 A 
ATOM     51  C   UNL     1       2.366   5.255  10.940  1.00  0.00     0.031 C 
ATOM     52  C   UNL     1       8.451   3.817   8.090  1.00  0.00     0.029 A 
ATOM     53  C   UNL     1       8.413   4.979   8.975  1.00  0.00     0.049 A 
ATOM     54  H   UNL     1       6.801   5.664  10.099  1.00  0.00     0.167 HD
ATOM     55  C   UNL     1       3.341   7.047  12.351  1.00  0.00     0.031 A 
ATOM     56  C   UNL     1       9.446   5.806   9.225  1.00  0.00     0.031 A 
ATOM     57  C   UNL     1       4.439   7.841  12.836  1.00  0.00     0.049 A 
ATOM     58  C   UNL     1       9.292   6.900  10.243  1.00  0.00     0.074 A 
ATOM     59  C   UNL     1       4.436   8.798  13.837  1.00  0.00     0.029 A 
ATOM     60  N   UNL     1       5.729   7.790  12.335  1.00  0.00    -0.354 N 
ATOM     61  N   UNL     1       8.232   7.237  10.937  1.00  0.00    -0.248 NA
ATOM     62  C   UNL     1      10.488   7.701  10.541  1.00  0.00     0.031 C 
ATOM     63  C   UNL     1       5.713   9.367  13.901  1.00  0.00     0.029 A 
ATOM     64  C   UNL     1       6.522   8.729  12.974  1.00  0.00     0.049 A 
ATOM     65  H   UNL     1       6.037   7.178  11.629  1.00  0.00     0.167 HD
ATOM     66  C   UNL     1       8.639   8.270  11.771  1.00  0.00     0.074 A 
ATOM     67  C   UNL     1      10.044   8.499  11.503  1.00  0.00     0.031 C 
ATOM     68  C   UNL     1       7.913   8.959  12.686  1.00  0.00     0.031 A 
BRANCH  55  69
ATOM     69  C   UNL     1       1.966   7.346  12.877  1.00  0.00    -0.014 A 
ATOM     70  C   UNL     1       1.320   6.466  13.760  1.00  0.00     0.009 A 
ATOM     71  C   UNL     1       1.336   8.555  12.542  1.00  0.00     0.009 A 
ATOM     72  C   UNL     1       0.060   6.778  14.276  1.00  0.00     0.001 A 
ATOM     73  C   UNL     1       0.087   8.875  13.077  1.00  0.00     0.001 A 
ATOM     74  C   UNL     1      -0.553   7.984  13.938  1.00  0.00     0.000 A 
ENDBRANCH  55  69
BRANCH  56  75
ATOM     75  C   UNL     1      10.735   5.587   8.526  1.00  0.00    -0.014 A 
ATOM     76  C   UNL     1      11.811   4.977   9.188  1.00  0.00     0.009 A 
ATOM     77  C   UNL     1      10.880   5.953   7.179  1.00  0.00     0.009 A 
ATOM     78  C   UNL     1      13.013   4.747   8.515  1.00  0.00     0.001 A 
ATOM     79  C   UNL     1      12.076   5.705   6.505  1.00  0.00     0.001 A 
ATOM     80  C   UNL     1      13.143   5.106   7.174  1.00  0.00     0.000 A 
ENDBRANCH  56  75
BRANCH  68  81
ATOM     81  C   UNL     1       8.628  10.021  13.471  1.00  0.00    -0.014 A 
ATOM     82  C   UNL     1       8.962  11.252  12.887  1.00  0.00     0.009 A 
ATOM     83  C   UNL     1       8.930   9.804  14.825  1.00  0.00     0.009 A 
ATOM     84  C   UNL     1       9.611  12.235  13.636  1.00  0.00     0.001 A 
ATOM     85  C   UNL     1       9.559  10.797  15.577  1.00  0.00     0.001 A 
ATOM     86  C   UNL     1       9.905  12.009  14.981  1.00  0.00     0.000 A 
ENDBRANCH  68  81
ENDBRANCH  42  43
ENDBRANCH  35  37
ENDBRANCH  34  35
ENDBRANCH  33  34
ENDBRANCH  32  33
ENDBRANCH  31  32
ENDBRANCH  30  31
ENDBRANCH   1  30
TORSDOF 19
