REMARK SMILES CC(=O)Nc1ccc(/C(=C\c2ccc(S(C)(=O)=O)cc2)C(=O)OCCOCCOC(=O)c2ccc(-c3c4nc(c(-c5ccccc5)c5ccc([nH]5)c(-c5ccccc5)c5nc(c(-c6ccccc6)c6ccc3[nH]6)C=C5)C=C4)cc2)cc1
REMARK SMILES IDX 26 1 25 2 24 3 23 4 21 5 22 6 9 7 10 8 8 9 5 10 6 11 81 12
REMARK SMILES IDX 7 13 80 14 4 15 1 16 2 17 3 18 11 20 12 21 20 22 13 23 19 24
REMARK SMILES IDX 14 25 15 26 16 27 17 28 18 29 27 30 28 31 29 32 30 33 31 34
REMARK SMILES IDX 32 35 33 36 79 37 34 38 78 39 35 40 36 41 37 42 72 43 38 44
REMARK SMILES IDX 77 45 71 46 73 47 39 48 76 49 70 50 69 51 40 53 62 54 47 55
REMARK SMILES IDX 61 56 48 57 51 58 60 59 74 60 49 61 50 62 59 64 75 65 52 66
REMARK SMILES IDX 41 67 42 68 46 69 43 70 45 71 44 72 63 73 64 74 68 75 65 76
REMARK SMILES IDX 67 77 66 78 53 79 54 80 58 81 55 82 57 83 56 84
REMARK H PARENT 4 19 73 52 51 63
REMARK Flexibility Score: inf
ROOT
ATOM      1  O   UNL     1       6.327   4.089  -1.216  1.00  0.00    -0.374 OA
ENDROOT
BRANCH   1   2
ATOM      2  C   UNL     1       7.316   4.602  -2.110  1.00  0.00     0.202 C 
BRANCH   2   3
ATOM      3  C   UNL     1       7.645   3.717  -3.316  1.00  0.00     0.261 C 
BRANCH   3   4
ATOM      4  O   UNL     1       6.484   3.553  -4.145  1.00  0.00    -0.460 OA
BRANCH   4   5
ATOM      5  C   UNL     1       6.098   2.266  -4.350  1.00  0.00     0.338 C 
ATOM      6  O   UNL     1       6.754   1.271  -4.082  1.00  0.00    -0.246 OA
BRANCH   5   7
ATOM      7  C   UNL     1       4.671   2.207  -4.809  1.00  0.00     0.067 C 
ATOM      8  C   UNL     1       4.320   3.083  -5.782  1.00  0.00     0.024 C 
BRANCH   7   9
ATOM      9  C   UNL     1       3.774   1.218  -4.142  1.00  0.00    -0.011 A 
ATOM     10  C   UNL     1       1.928  -0.396  -2.700  1.00  0.00     0.041 A 
ATOM     11  C   UNL     1       1.875  -0.312  -4.094  1.00  0.00     0.027 A 
ATOM     12  C   UNL     1       2.978   0.234  -2.044  1.00  0.00     0.027 A 
ATOM     13  C   UNL     1       2.795   0.473  -4.806  1.00  0.00     0.011 A 
ATOM     14  C   UNL     1       3.885   1.028  -2.755  1.00  0.00     0.011 A 
BRANCH  10  15
ATOM     15  N   UNL     1       0.935  -1.155  -2.061  1.00  0.00    -0.326 N 
ATOM     16  C   UNL     1       0.937  -0.170   0.237  1.00  0.00     0.114 C 
ATOM     17  C   UNL     1       0.501  -1.201  -0.768  1.00  0.00     0.221 C 
ATOM     18  O   UNL     1      -0.306  -2.077  -0.448  1.00  0.00    -0.275 OA
ATOM     19  H   UNL     1       0.461  -1.774  -2.662  1.00  0.00     0.169 HD
ENDBRANCH  10  15
ENDBRANCH   7   9
BRANCH   8  20
ATOM     20  C   UNL     1       3.044   3.110  -6.512  1.00  0.00    -0.025 A 
ATOM     21  C   UNL     1       3.089   2.752  -7.867  1.00  0.00     0.009 A 
ATOM     22  C   UNL     1       1.804   3.310  -5.890  1.00  0.00     0.009 A 
ATOM     23  C   UNL     1       1.915   2.459  -8.559  1.00  0.00     0.021 A 
ATOM     24  C   UNL     1       0.622   3.011  -6.578  1.00  0.00     0.021 A 
ATOM     25  C   UNL     1       0.690   2.551  -7.896  1.00  0.00     0.067 A 
BRANCH  25  26
ATOM     26  S   UNL     1      -0.752   1.871  -8.686  1.00  0.00     0.175 S 
ATOM     27  C   UNL     1      -1.183   3.064  -9.920  1.00  0.00     0.163 C 
ATOM     28  O   UNL     1      -0.324   0.659  -9.358  1.00  0.00    -0.224 OA
ATOM     29  O   UNL     1      -1.817   1.835  -7.702  1.00  0.00    -0.224 OA
ENDBRANCH  25  26
ENDBRANCH   8  20
ENDBRANCH   5   7
ENDBRANCH   4   5
ENDBRANCH   3   4
ENDBRANCH   2   3
ENDBRANCH   1   2
BRANCH   1  30
ATOM     30  C   UNL     1       4.958   4.261  -1.585  1.00  0.00     0.202 C 
BRANCH  30  31
ATOM     31  C   UNL     1       4.344   5.641  -1.337  1.00  0.00     0.261 C 
BRANCH  31  32
ATOM     32  O   UNL     1       4.879   6.628  -2.232  1.00  0.00    -0.460 OA
BRANCH  32  33
ATOM     33  C   UNL     1       5.715   7.522  -1.659  1.00  0.00     0.338 C 
ATOM     34  O   UNL     1       6.003   7.620  -0.473  1.00  0.00    -0.246 OA
BRANCH  33  35
ATOM     35  C   UNL     1       6.401   8.294  -2.708  1.00  0.00     0.060 A 
ATOM     36  C   UNL     1       7.795   8.415  -2.627  1.00  0.00     0.016 A 
ATOM     37  C   UNL     1       5.685   8.938  -3.719  1.00  0.00     0.016 A 
ATOM     38  C   UNL     1       8.477   9.232  -3.525  1.00  0.00     0.010 A 
ATOM     39  C   UNL     1       6.368   9.764  -4.612  1.00  0.00     0.010 A 
ATOM     40  C   UNL     1       7.758   9.945  -4.492  1.00  0.00    -0.014 A 
BRANCH  40  41
ATOM     41  C   UNL     1       8.409  11.030  -5.260  1.00  0.00     0.031 A 
ATOM     42  C   UNL     1       8.209  12.446  -4.800  1.00  0.00     0.074 A 
ATOM     43  C   UNL     1       9.139  10.766  -6.355  1.00  0.00     0.049 A 
ATOM     44  N   UNL     1       8.558  13.565  -5.380  1.00  0.00    -0.248 NA
ATOM     45  C   UNL     1       7.512  12.620  -3.515  1.00  0.00     0.031 C 
ATOM     46  C   UNL     1       9.464   9.434  -6.858  1.00  0.00     0.029 A 
ATOM     47  N   UNL     1       9.728  11.622  -7.250  1.00  0.00    -0.354 N 
ATOM     48  C   UNL     1       8.102  14.576  -4.543  1.00  0.00     0.074 A 
ATOM     49  C   UNL     1       7.434  13.939  -3.429  1.00  0.00     0.031 C 
ATOM     50  C   UNL     1      10.191   9.561  -7.982  1.00  0.00     0.029 A 
ATOM     51  C   UNL     1      10.337  10.980  -8.299  1.00  0.00     0.049 A 
ATOM     52  H   UNL     1       9.716  12.601  -7.149  1.00  0.00     0.167 HD
ATOM     53  C   UNL     1       8.226  15.916  -4.691  1.00  0.00     0.031 A 
ATOM     54  C   UNL     1      10.919  11.486  -9.403  1.00  0.00     0.031 A 
ATOM     55  C   UNL     1       8.874  16.543  -5.810  1.00  0.00     0.049 A 
ATOM     56  C   UNL     1      10.953  12.977  -9.603  1.00  0.00     0.074 A 
ATOM     57  C   UNL     1       9.058  17.892  -6.057  1.00  0.00     0.029 A 
ATOM     58  N   UNL     1       9.437  15.858  -6.876  1.00  0.00    -0.354 N 
ATOM     59  N   UNL     1      10.517  13.928  -8.812  1.00  0.00    -0.248 NA
ATOM     60  C   UNL     1      11.558  13.465 -10.851  1.00  0.00     0.031 C 
ATOM     61  C   UNL     1       9.684  18.024  -7.301  1.00  0.00     0.029 A 
ATOM     62  C   UNL     1       9.946  16.756  -7.797  1.00  0.00     0.049 A 
ATOM     63  H   UNL     1       9.470  14.878  -6.964  1.00  0.00     0.167 HD
ATOM     64  C   UNL     1      10.831  15.124  -9.444  1.00  0.00     0.074 A 
ATOM     65  C   UNL     1      11.487  14.780 -10.689  1.00  0.00     0.031 C 
ATOM     66  C   UNL     1      10.607  16.394  -9.025  1.00  0.00     0.031 A 
BRANCH  53  67
ATOM     67  C   UNL     1       7.595  16.780  -3.636  1.00  0.00    -0.014 A 
ATOM     68  C   UNL     1       8.113  16.844  -2.333  1.00  0.00     0.009 A 
ATOM     69  C   UNL     1       6.452  17.533  -3.950  1.00  0.00     0.009 A 
ATOM     70  C   UNL     1       7.469  17.604  -1.353  1.00  0.00     0.001 A 
ATOM     71  C   UNL     1       5.830  18.316  -2.977  1.00  0.00     0.001 A 
ATOM     72  C   UNL     1       6.330  18.340  -1.676  1.00  0.00     0.000 A 
ENDBRANCH  53  67
BRANCH  54  73
ATOM     73  C   UNL     1      11.514  10.570 -10.409  1.00  0.00    -0.014 A 
ATOM     74  C   UNL     1      12.907  10.486 -10.550  1.00  0.00     0.009 A 
ATOM     75  C   UNL     1      10.699   9.767 -11.222  1.00  0.00     0.009 A 
ATOM     76  C   UNL     1      13.472   9.625 -11.494  1.00  0.00     0.001 A 
ATOM     77  C   UNL     1      11.267   8.889 -12.148  1.00  0.00     0.001 A 
ATOM     78  C   UNL     1      12.652   8.823 -12.287  1.00  0.00     0.000 A 
ENDBRANCH  54  73
BRANCH  66  79
ATOM     79  C   UNL     1      11.128  17.512  -9.883  1.00  0.00    -0.014 A 
ATOM     80  C   UNL     1      10.493  17.879 -11.078  1.00  0.00     0.009 A 
ATOM     81  C   UNL     1      12.230  18.262  -9.438  1.00  0.00     0.009 A 
ATOM     82  C   UNL     1      10.963  18.965 -11.820  1.00  0.00     0.001 A 
ATOM     83  C   UNL     1      12.681  19.361 -10.167  1.00  0.00     0.001 A 
ATOM     84  C   UNL     1      12.051  19.709 -11.360  1.00  0.00     0.000 A 
ENDBRANCH  66  79
ENDBRANCH  40  41
ENDBRANCH  33  35
ENDBRANCH  32  33
ENDBRANCH  31  32
ENDBRANCH  30  31
ENDBRANCH   1  30
TORSDOF 18
