REMARK SMILES C[C@@H](C(=O)OCCOCCOC(=O)c1ccc(-c2c3nc(c(-c4ccccc4)c4ccc([nH]4)c(-c4ccccc4)c4nc(c(-c5ccccc5)c5ccc2[nH]5)C=C4)C=C3)cc1)c1ccc(OC2CCCC2)cc1F
REMARK SMILES IDX 7 1 6 2 5 3 3 4 4 5 2 6 1 7 62 8 63 9 73 10 64 11 72 12
REMARK SMILES IDX 74 13 65 14 66 15 67 16 68 17 71 18 69 19 70 20 8 21 9 22
REMARK SMILES IDX 10 23 11 24 12 25 13 26 14 27 15 28 61 29 16 30 60 31 17 32
REMARK SMILES IDX 18 33 19 34 54 35 20 36 59 37 53 38 55 39 21 40 58 41 52 42
REMARK SMILES IDX 51 43 22 45 44 46 29 47 43 48 30 49 33 50 42 51 56 52 31 53
REMARK SMILES IDX 32 54 41 56 57 57 34 58 23 59 24 60 28 61 25 62 27 63 26 64
REMARK SMILES IDX 45 65 46 66 50 67 47 68 49 69 48 70 35 71 36 72 40 73 37 74
REMARK SMILES IDX 39 75 38 76
REMARK H PARENT 55 44 33 55
REMARK Flexibility Score: inf
ROOT
ATOM      1  C   UNL     1       2.258  -4.165  -1.704  1.00  0.00     0.202 C 
ENDROOT
BRANCH   1   2
ATOM      2  C   UNL     1       2.079  -3.064  -2.756  1.00  0.00     0.261 C 
BRANCH   2   3
ATOM      3  O   UNL     1       1.829  -1.811  -2.098  1.00  0.00    -0.463 OA
BRANCH   3   4
ATOM      4  C   UNL     1       1.040  -0.937  -2.778  1.00  0.00     0.313 C 
ATOM      5  O   UNL     1       0.789  -1.019  -3.975  1.00  0.00    -0.252 OA
BRANCH   4   6
ATOM      6  C   UNL     1       0.423   0.118  -1.854  1.00  0.00     0.129 C 
ATOM      7  C   UNL     1       1.142   0.272  -0.507  1.00  0.00     0.025 C 
BRANCH   6   8
ATOM      8  C   UNL     1      -1.071  -0.074  -1.633  1.00  0.00     0.002 A 
ATOM      9  C   UNL     1      -1.891   1.024  -1.343  1.00  0.00     0.011 A 
ATOM     10  C   UNL     1      -1.677  -1.333  -1.653  1.00  0.00     0.130 A 
ATOM     11  C   UNL     1      -3.264   0.848  -1.118  1.00  0.00     0.047 A 
ATOM     12  C   UNL     1      -3.030  -1.516  -1.381  1.00  0.00     0.086 A 
ATOM     13  F   UNL     1      -0.967  -2.426  -1.950  1.00  0.00    -0.207 F 
ATOM     14  C   UNL     1      -3.849  -0.422  -1.152  1.00  0.00     0.122 A 
BRANCH  14  15
ATOM     15  O   UNL     1      -5.197  -0.439  -0.959  1.00  0.00    -0.490 OA
BRANCH  15  16
ATOM     16  C   UNL     1      -5.992  -1.612  -1.122  1.00  0.00     0.173 C 
ATOM     17  C   UNL     1      -5.895  -2.356  -2.452  1.00  0.00     0.045 C 
ATOM     18  C   UNL     1      -5.828  -2.653  -0.020  1.00  0.00     0.045 C 
ATOM     19  C   UNL     1      -6.418  -3.752  -2.145  1.00  0.00     0.004 C 
ATOM     20  C   UNL     1      -6.232  -3.983  -0.646  1.00  0.00     0.004 C 
ENDBRANCH  15  16
ENDBRANCH  14  15
ENDBRANCH   6   8
ENDBRANCH   4   6
ENDBRANCH   3   4
ENDBRANCH   2   3
ENDBRANCH   1   2
BRANCH   1  21
ATOM     21  O   UNL     1       1.075  -4.554  -1.000  1.00  0.00    -0.374 OA
BRANCH  21  22
ATOM     22  C   UNL     1       0.587  -3.648  -0.009  1.00  0.00     0.202 C 
BRANCH  22  23
ATOM     23  C   UNL     1       1.182  -3.801   1.391  1.00  0.00     0.261 C 
BRANCH  23  24
ATOM     24  O   UNL     1       2.594  -3.542   1.391  1.00  0.00    -0.460 OA
BRANCH  24  25
ATOM     25  C   UNL     1       3.360  -4.653   1.449  1.00  0.00     0.338 C 
ATOM     26  O   UNL     1       2.990  -5.807   1.621  1.00  0.00    -0.246 OA
BRANCH  25  27
ATOM     27  C   UNL     1       4.750  -4.316   1.103  1.00  0.00     0.060 A 
ATOM     28  C   UNL     1       5.395  -5.139   0.171  1.00  0.00     0.016 A 
ATOM     29  C   UNL     1       5.428  -3.255   1.709  1.00  0.00     0.016 A 
ATOM     30  C   UNL     1       6.742  -4.947  -0.110  1.00  0.00     0.010 A 
ATOM     31  C   UNL     1       6.784  -3.068   1.431  1.00  0.00     0.010 A 
ATOM     32  C   UNL     1       7.454  -3.941   0.554  1.00  0.00    -0.014 A 
BRANCH  32  33
ATOM     33  C   UNL     1       8.930  -3.921   0.461  1.00  0.00     0.031 A 
ATOM     34  C   UNL     1       9.731  -4.546   1.570  1.00  0.00     0.074 A 
ATOM     35  C   UNL     1       9.544  -3.396  -0.613  1.00  0.00     0.049 A 
ATOM     36  N   UNL     1      11.028  -4.645   1.701  1.00  0.00    -0.248 NA
ATOM     37  C   UNL     1       8.965  -5.141   2.678  1.00  0.00     0.031 C 
ATOM     38  C   UNL     1       8.872  -2.809  -1.771  1.00  0.00     0.029 A 
ATOM     39  N   UNL     1      10.880  -3.279  -0.900  1.00  0.00    -0.354 N 
ATOM     40  C   UNL     1      11.234  -5.302   2.908  1.00  0.00     0.074 A 
ATOM     41  C   UNL     1       9.931  -5.554   3.484  1.00  0.00     0.031 C 
ATOM     42  C   UNL     1       9.802  -2.393  -2.647  1.00  0.00     0.029 A 
ATOM     43  C   UNL     1      11.130  -2.655  -2.097  1.00  0.00     0.049 A 
ATOM     44  H   UNL     1      11.591  -3.610  -0.306  1.00  0.00     0.167 HD
ATOM     45  C   UNL     1      12.403  -5.667   3.483  1.00  0.00     0.031 A 
ATOM     46  C   UNL     1      12.300  -2.320  -2.672  1.00  0.00     0.031 A 
ATOM     47  C   UNL     1      13.697  -5.407   2.913  1.00  0.00     0.049 A 
ATOM     48  C   UNL     1      13.588  -2.667  -1.974  1.00  0.00     0.074 A 
ATOM     49  C   UNL     1      14.943  -5.751   3.406  1.00  0.00     0.029 A 
ATOM     50  N   UNL     1      13.909  -4.727   1.723  1.00  0.00    -0.354 N 
ATOM     51  N   UNL     1      13.770  -3.312  -0.846  1.00  0.00    -0.248 NA
ATOM     52  C   UNL     1      14.831  -2.246  -2.635  1.00  0.00     0.031 C 
ATOM     53  C   UNL     1      15.912  -5.230   2.543  1.00  0.00     0.029 A 
ATOM     54  C   UNL     1      15.268  -4.614   1.482  1.00  0.00     0.049 A 
ATOM     55  H   UNL     1      13.200  -4.377   1.138  1.00  0.00     0.167 HD
ATOM     56  C   UNL     1      15.146  -3.398  -0.677  1.00  0.00     0.074 A 
ATOM     57  C   UNL     1      15.750  -2.752  -1.824  1.00  0.00     0.031 C 
ATOM     58  C   UNL     1      15.848  -3.965   0.335  1.00  0.00     0.031 A 
BRANCH  45  59
ATOM     59  C   UNL     1      12.332  -6.352   4.819  1.00  0.00    -0.014 A 
ATOM     60  C   UNL     1      11.867  -7.671   4.943  1.00  0.00     0.009 A 
ATOM     61  C   UNL     1      12.761  -5.673   5.970  1.00  0.00     0.009 A 
ATOM     62  C   UNL     1      11.801  -8.282   6.197  1.00  0.00     0.001 A 
ATOM     63  C   UNL     1      12.720  -6.296   7.218  1.00  0.00     0.001 A 
ATOM     64  C   UNL     1      12.232  -7.596   7.332  1.00  0.00     0.000 A 
ENDBRANCH  45  59
BRANCH  46  65
ATOM     65  C   UNL     1      12.312  -1.602  -3.973  1.00  0.00    -0.014 A 
ATOM     66  C   UNL     1      12.768  -2.238  -5.137  1.00  0.00     0.009 A 
ATOM     67  C   UNL     1      11.879  -0.269  -4.053  1.00  0.00     0.009 A 
ATOM     68  C   UNL     1      12.813  -1.546  -6.350  1.00  0.00     0.001 A 
ATOM     69  C   UNL     1      11.899   0.411  -5.272  1.00  0.00     0.001 A 
ATOM     70  C   UNL     1      12.374  -0.224  -6.417  1.00  0.00     0.000 A 
ENDBRANCH  46  65
BRANCH  58  71
ATOM     71  C   UNL     1      17.347  -3.943   0.229  1.00  0.00    -0.014 A 
ATOM     72  C   UNL     1      18.075  -2.758   0.417  1.00  0.00     0.009 A 
ATOM     73  C   UNL     1      18.042  -5.137  -0.021  1.00  0.00     0.009 A 
ATOM     74  C   UNL     1      19.468  -2.764   0.324  1.00  0.00     0.001 A 
ATOM     75  C   UNL     1      19.436  -5.145  -0.084  1.00  0.00     0.001 A 
ATOM     76  C   UNL     1      20.147  -3.958   0.079  1.00  0.00     0.000 A 
ENDBRANCH  58  71
ENDBRANCH  32  33
ENDBRANCH  25  27
ENDBRANCH  24  25
ENDBRANCH  23  24
ENDBRANCH  22  23
ENDBRANCH  21  22
ENDBRANCH   1  21
TORSDOF 17
