REMARK SMILES CCCCCCCNC(=O)Oc1cccc(-c2ccc([C@@H](C)C(=O)OCCOCCOC(=O)c3ccc(-c4c5nc(c(-c6ccccc6)c6ccc([nH]6)c(-c6ccccc6)c6nc(c(-c7ccccc7)c7ccc4[nH]7)C=C6)C=C5)cc3)cc2F)c1
REMARK SMILES IDX 23 1 24 2 21 3 22 4 20 5 17 6 18 7 83 8 19 9 82 10 84 11
REMARK SMILES IDX 16 12 12 13 13 14 85 15 14 16 15 17 11 18 9 19 8 20 10 22
REMARK SMILES IDX 7 23 6 24 5 25 4 26 3 27 2 28 1 29 25 30 26 31 27 32 28 33
REMARK SMILES IDX 29 34 30 35 31 36 32 37 33 38 34 39 35 40 81 41 36 42 80 43
REMARK SMILES IDX 37 44 38 45 39 46 74 47 40 48 79 49 73 50 75 51 41 52 78 53
REMARK SMILES IDX 72 54 71 55 42 57 64 58 49 59 63 60 50 61 53 62 62 63 76 64
REMARK SMILES IDX 51 65 52 66 61 68 77 69 54 70 43 71 44 72 48 73 45 74 47 75
REMARK SMILES IDX 46 76 65 77 66 78 70 79 67 80 69 81 68 82 55 83 56 84 60 85
REMARK SMILES IDX 57 86 59 87 58 88
REMARK H PARENT 8 21 75 56 53 67
REMARK Flexibility Score: inf
ROOT
ATOM      1  C   UNL     1     -11.050  -2.434  10.488  1.00  0.00     0.313 C 
ATOM      2  O   UNL     1     -12.055  -1.730  10.467  1.00  0.00    -0.252 OA
ENDROOT
BRANCH   1   3
ATOM      3  C   UNL     1     -10.886  -3.621   9.552  1.00  0.00     0.126 C 
ATOM      4  C   UNL     1     -11.706  -4.793  10.084  1.00  0.00     0.025 C 
BRANCH   3   5
ATOM      5  C   UNL     1      -9.472  -4.048   9.171  1.00  0.00    -0.031 A 
ATOM      6  C   UNL     1      -6.930  -5.047   8.324  1.00  0.00     0.018 A 
ATOM      7  C   UNL     1      -7.321  -5.089   9.673  1.00  0.00     0.012 A 
ATOM      8  C   UNL     1      -7.822  -4.454   7.423  1.00  0.00     0.131 A 
ATOM      9  C   UNL     1      -8.570  -4.601  10.090  1.00  0.00     0.005 A 
ATOM     10  C   UNL     1      -9.066  -3.963   7.829  1.00  0.00     0.044 A 
ATOM     11  F   UNL     1      -7.519  -4.380   6.117  1.00  0.00    -0.206 F 
BRANCH   6  12
ATOM     12  C   UNL     1      -5.661  -5.651   7.874  1.00  0.00    -0.012 A 
ATOM     13  C   UNL     1      -3.580  -5.555   6.621  1.00  0.00     0.133 A 
ATOM     14  C   UNL     1      -3.287  -6.877   6.946  1.00  0.00     0.047 A 
ATOM     15  C   UNL     1      -4.756  -4.944   7.065  1.00  0.00     0.056 A 
ATOM     16  C   UNL     1      -4.170  -7.591   7.749  1.00  0.00     0.004 A 
ATOM     17  C   UNL     1      -5.343  -6.982   8.209  1.00  0.00     0.009 A 
BRANCH  13  18
ATOM     18  O   UNL     1      -2.708  -4.915   5.725  1.00  0.00    -0.410 OA
BRANCH  18  19
ATOM     19  C   UNL     1      -2.201  -3.677   6.079  1.00  0.00     0.412 C 
ATOM     20  N   UNL     1      -1.394  -3.128   5.122  1.00  0.00    -0.321 N 
ATOM     21  H   UNL     1      -1.010  -2.245   5.325  1.00  0.00     0.167 HD
ATOM     22  O   UNL     1      -2.410  -3.087   7.139  1.00  0.00    -0.224 OA
BRANCH  20  23
ATOM     23  C   UNL     1      -1.042  -3.708   3.840  1.00  0.00     0.119 C 
BRANCH  23  24
ATOM     24  C   UNL     1      -1.524  -2.853   2.668  1.00  0.00     0.021 C 
BRANCH  24  25
ATOM     25  C   UNL     1      -0.922  -1.443   2.606  1.00  0.00     0.002 C 
BRANCH  25  26
ATOM     26  C   UNL     1       0.605  -1.383   2.497  1.00  0.00     0.000 C 
BRANCH  26  27
ATOM     27  C   UNL     1       1.198  -2.034   1.243  1.00  0.00    -0.000 C 
BRANCH  27  28
ATOM     28  C   UNL     1       0.746  -1.427  -0.088  1.00  0.00    -0.003 C 
ATOM     29  C   UNL     1       1.121   0.039  -0.244  1.00  0.00     0.004 C 
ENDBRANCH  27  28
ENDBRANCH  26  27
ENDBRANCH  25  26
ENDBRANCH  24  25
ENDBRANCH  23  24
ENDBRANCH  20  23
ENDBRANCH  18  19
ENDBRANCH  13  18
ENDBRANCH   6  12
ENDBRANCH   3   5
ENDBRANCH   1   3
BRANCH   1  30
ATOM     30  O   UNL     1     -10.013  -2.263  11.349  1.00  0.00    -0.463 OA
BRANCH  30  31
ATOM     31  C   UNL     1     -10.054  -1.071  12.154  1.00  0.00     0.261 C 
BRANCH  31  32
ATOM     32  C   UNL     1      -8.861  -0.161  11.853  1.00  0.00     0.202 C 
BRANCH  32  33
ATOM     33  O   UNL     1      -8.833   0.436  10.557  1.00  0.00    -0.374 OA
BRANCH  33  34
ATOM     34  C   UNL     1      -8.459  -0.394   9.457  1.00  0.00     0.202 C 
BRANCH  34  35
ATOM     35  C   UNL     1      -6.964  -0.700   9.299  1.00  0.00     0.261 C 
BRANCH  35  36
ATOM     36  O   UNL     1      -6.434  -1.448  10.406  1.00  0.00    -0.460 OA
BRANCH  36  37
ATOM     37  C   UNL     1      -5.566  -0.757  11.183  1.00  0.00     0.338 C 
ATOM     38  O   UNL     1      -5.154   0.377  11.007  1.00  0.00    -0.246 OA
BRANCH  37  39
ATOM     39  C   UNL     1      -5.298  -1.493  12.434  1.00  0.00     0.060 A 
ATOM     40  C   UNL     1      -5.461  -0.785  13.631  1.00  0.00     0.016 A 
ATOM     41  C   UNL     1      -4.809  -2.802  12.444  1.00  0.00     0.016 A 
ATOM     42  C   UNL     1      -5.071  -1.357  14.839  1.00  0.00     0.010 A 
ATOM     43  C   UNL     1      -4.415  -3.374  13.662  1.00  0.00     0.010 A 
ATOM     44  C   UNL     1      -4.503  -2.637  14.857  1.00  0.00    -0.014 A 
BRANCH  44  45
ATOM     45  C   UNL     1      -3.870  -3.116  16.112  1.00  0.00     0.031 A 
ATOM     46  C   UNL     1      -2.375  -3.015  16.265  1.00  0.00     0.074 A 
ATOM     47  C   UNL     1      -4.621  -3.554  17.138  1.00  0.00     0.049 A 
ATOM     48  N   UNL     1      -1.627  -3.305  17.301  1.00  0.00    -0.248 NA
ATOM     49  C   UNL     1      -1.625  -2.518  15.101  1.00  0.00     0.031 C 
ATOM     50  C   UNL     1      -6.079  -3.658  17.136  1.00  0.00     0.029 A 
ATOM     51  N   UNL     1      -4.254  -3.979  18.391  1.00  0.00    -0.354 N 
ATOM     52  C   UNL     1      -0.322  -3.026  16.913  1.00  0.00     0.074 A 
ATOM     53  C   UNL     1      -0.375  -2.578  15.539  1.00  0.00     0.031 C 
ATOM     54  C   UNL     1      -6.485  -4.110  18.335  1.00  0.00     0.029 A 
ATOM     55  C   UNL     1      -5.316  -4.350  19.178  1.00  0.00     0.049 A 
ATOM     56  H   UNL     1      -3.318  -4.015  18.695  1.00  0.00     0.167 HD
ATOM     57  C   UNL     1       0.819  -3.123  17.637  1.00  0.00     0.031 A 
ATOM     58  C   UNL     1      -5.342  -4.835  20.435  1.00  0.00     0.031 A 
ATOM     59  C   UNL     1       0.881  -3.578  19.001  1.00  0.00     0.049 A 
ATOM     60  C   UNL     1      -4.053  -4.999  21.194  1.00  0.00     0.074 A 
ATOM     61  C   UNL     1       1.990  -3.695  19.821  1.00  0.00     0.029 A 
ATOM     62  N   UNL     1      -0.212  -3.997  19.743  1.00  0.00    -0.354 N 
ATOM     63  N   UNL     1      -2.831  -4.701  20.825  1.00  0.00    -0.248 NA
ATOM     64  C   UNL     1      -4.153  -5.556  22.552  1.00  0.00     0.031 C 
ATOM     65  C   UNL     1       1.575  -4.238  21.042  1.00  0.00     0.029 A 
ATOM     66  C   UNL     1       0.200  -4.402  21.001  1.00  0.00     0.049 A 
ATOM     67  H   UNL     1      -1.143  -4.005  19.422  1.00  0.00     0.167 HD
ATOM     68  C   UNL     1      -2.021  -5.010  21.912  1.00  0.00     0.074 A 
ATOM     69  C   UNL     1      -2.893  -5.500  22.959  1.00  0.00     0.031 C 
ATOM     70  C   UNL     1      -0.676  -4.894  22.032  1.00  0.00     0.031 A 
BRANCH  57  71
ATOM     71  C   UNL     1       2.106  -2.758  16.951  1.00  0.00    -0.014 A 
ATOM     72  C   UNL     1       2.423  -1.423  16.656  1.00  0.00     0.009 A 
ATOM     73  C   UNL     1       3.030  -3.764  16.626  1.00  0.00     0.009 A 
ATOM     74  C   UNL     1       3.626  -1.106  16.021  1.00  0.00     0.001 A 
ATOM     75  C   UNL     1       4.243  -3.441  16.016  1.00  0.00     0.001 A 
ATOM     76  C   UNL     1       4.537  -2.114  15.706  1.00  0.00     0.000 A 
ENDBRANCH  57  71
BRANCH  58  77
ATOM     77  C   UNL     1      -6.637  -5.214  21.058  1.00  0.00    -0.014 A 
ATOM     78  C   UNL     1      -7.166  -4.474  22.127  1.00  0.00     0.009 A 
ATOM     79  C   UNL     1      -7.340  -6.340  20.599  1.00  0.00     0.009 A 
ATOM     80  C   UNL     1      -8.358  -4.869  22.739  1.00  0.00     0.001 A 
ATOM     81  C   UNL     1      -8.545  -6.715  21.194  1.00  0.00     0.001 A 
ATOM     82  C   UNL     1      -9.049  -5.986  22.270  1.00  0.00     0.000 A 
ENDBRANCH  58  77
BRANCH  70  83
ATOM     83  C   UNL     1      -0.068  -5.278  23.353  1.00  0.00    -0.014 A 
ATOM     84  C   UNL     1       0.014  -6.620  23.757  1.00  0.00     0.009 A 
ATOM     85  C   UNL     1       0.456  -4.282  24.193  1.00  0.00     0.009 A 
ATOM     86  C   UNL     1       0.573  -6.952  24.993  1.00  0.00     0.001 A 
ATOM     87  C   UNL     1       1.041  -4.620  25.414  1.00  0.00     0.001 A 
ATOM     88  C   UNL     1       1.089  -5.953  25.818  1.00  0.00     0.000 A 
ENDBRANCH  70  83
ENDBRANCH  44  45
ENDBRANCH  37  39
ENDBRANCH  36  37
ENDBRANCH  35  36
ENDBRANCH  34  35
ENDBRANCH  33  34
ENDBRANCH  32  33
ENDBRANCH  31  32
ENDBRANCH  30  31
ENDBRANCH   1  30
TORSDOF 24
