REMARK SMILES O=C(OCCOCCOC(=O)c1cc(N2CCN(c3ccc(F)cc3)CC2)ccc1NC(=O)C1CCCC1)c1ccc(-c2c3nc(c(-c4ccccc4)c4ccc([nH]4)c(-c4ccccc4)c4nc(c(-c5ccccc5)c5ccc2[nH]5)C=C4)C=C3)cc1
REMARK SMILES IDX 6 1 5 2 4 3 3 4 2 5 1 6 39 7 40 8 86 9 41 10 85 11 42 12
REMARK SMILES IDX 43 13 44 14 79 15 45 16 84 17 78 18 80 19 46 20 83 21 77 22
REMARK SMILES IDX 76 23 47 25 69 26 54 27 68 28 55 29 58 30 67 31 81 32 56 33
REMARK SMILES IDX 57 34 66 36 82 37 59 38 48 39 49 40 53 41 50 42 52 43 51 44
REMARK SMILES IDX 70 45 71 46 75 47 72 48 74 49 73 50 60 51 61 52 65 53 62 54
REMARK SMILES IDX 64 55 63 56 7 57 8 58 9 59 10 60 11 61 12 62 13 63 30 64
REMARK SMILES IDX 14 65 29 66 28 67 31 68 32 69 33 71 34 72 35 73 38 74 36 75
REMARK SMILES IDX 37 76 15 77 16 78 27 79 17 80 26 81 18 82 19 83 20 84 25 85
REMARK SMILES IDX 21 86 24 87 22 88 23 89
REMARK H PARENT 80 24 58 35 31 70
REMARK Flexibility Score: inf
ROOT
ATOM      1  O   UNL     1       3.726   0.347   1.343  1.00  0.00    -0.374 OA
ENDROOT
BRANCH   1   2
ATOM      2  C   UNL     1       3.943   1.508   0.550  1.00  0.00     0.202 C 
BRANCH   2   3
ATOM      3  C   UNL     1       3.691   1.253  -0.935  1.00  0.00     0.261 C 
BRANCH   3   4
ATOM      4  O   UNL     1       2.333   0.829  -1.133  1.00  0.00    -0.460 OA
BRANCH   4   5
ATOM      5  C   UNL     1       1.865  -0.430  -1.291  1.00  0.00     0.338 C 
ATOM      6  O   UNL     1       0.651  -0.596  -1.402  1.00  0.00    -0.246 OA
BRANCH   5   7
ATOM      7  C   UNL     1       2.735  -1.643  -1.367  1.00  0.00     0.060 A 
ATOM      8  C   UNL     1       3.941  -1.814  -0.684  1.00  0.00     0.016 A 
ATOM      9  C   UNL     1       2.236  -2.733  -2.100  1.00  0.00     0.016 A 
ATOM     10  C   UNL     1       4.647  -3.005  -0.739  1.00  0.00     0.010 A 
ATOM     11  C   UNL     1       2.927  -3.947  -2.144  1.00  0.00     0.010 A 
ATOM     12  C   UNL     1       4.139  -4.079  -1.460  1.00  0.00    -0.014 A 
BRANCH  12  13
ATOM     13  C   UNL     1       4.961  -5.295  -1.539  1.00  0.00     0.031 A 
ATOM     14  C   UNL     1       5.764  -5.527  -2.778  1.00  0.00     0.074 A 
ATOM     15  C   UNL     1       5.082  -6.079  -0.453  1.00  0.00     0.049 A 
ATOM     16  N   UNL     1       6.531  -6.535  -3.086  1.00  0.00    -0.248 NA
ATOM     17  C   UNL     1       5.711  -4.469  -3.802  1.00  0.00     0.031 C 
ATOM     18  C   UNL     1       4.442  -5.831   0.843  1.00  0.00     0.029 A 
ATOM     19  N   UNL     1       5.812  -7.218  -0.252  1.00  0.00    -0.354 N 
ATOM     20  C   UNL     1       7.026  -6.251  -4.351  1.00  0.00     0.074 A 
ATOM     21  C   UNL     1       6.483  -4.973  -4.752  1.00  0.00     0.031 C 
ATOM     22  C   UNL     1       4.830  -6.779   1.711  1.00  0.00     0.029 A 
ATOM     23  C   UNL     1       5.681  -7.736   1.014  1.00  0.00     0.049 A 
ATOM     24  H   UNL     1       6.377  -7.627  -0.947  1.00  0.00     0.167 HD
ATOM     25  C   UNL     1       7.848  -7.010  -5.110  1.00  0.00     0.031 A 
ATOM     26  C   UNL     1       6.168  -8.880   1.528  1.00  0.00     0.031 A 
ATOM     27  C   UNL     1       8.355  -8.284  -4.684  1.00  0.00     0.049 A 
ATOM     28  C   UNL     1       6.991  -9.755   0.621  1.00  0.00     0.074 A 
ATOM     29  C   UNL     1       9.127  -9.189  -5.385  1.00  0.00     0.029 A 
ATOM     30  N   UNL     1       8.133  -8.827  -3.425  1.00  0.00    -0.354 N 
ATOM     31  N   UNL     1       7.392  -9.524  -0.608  1.00  0.00    -0.248 NA
ATOM     32  C   UNL     1       7.411 -11.054   1.160  1.00  0.00     0.031 C 
ATOM     33  C   UNL     1       9.333 -10.304  -4.564  1.00  0.00     0.029 A 
ATOM     34  C   UNL     1       8.736 -10.067  -3.334  1.00  0.00     0.049 A 
ATOM     35  H   UNL     1       7.621  -8.393  -2.705  1.00  0.00     0.167 HD
ATOM     36  C   UNL     1       8.119 -10.642  -0.987  1.00  0.00     0.074 A 
ATOM     37  C   UNL     1       8.127 -11.537   0.155  1.00  0.00     0.031 C 
ATOM     38  C   UNL     1       8.719 -10.916  -2.171  1.00  0.00     0.031 A 
BRANCH  25  39
ATOM     39  C   UNL     1       8.149  -6.513  -6.493  1.00  0.00    -0.014 A 
ATOM     40  C   UNL     1       9.022  -5.436  -6.718  1.00  0.00     0.009 A 
ATOM     41  C   UNL     1       7.519  -7.117  -7.591  1.00  0.00     0.009 A 
ATOM     42  C   UNL     1       9.229  -4.955  -8.014  1.00  0.00     0.001 A 
ATOM     43  C   UNL     1       7.745  -6.650  -8.887  1.00  0.00     0.001 A 
ATOM     44  C   UNL     1       8.592  -5.563  -9.096  1.00  0.00     0.000 A 
ENDBRANCH  25  39
BRANCH  26  45
ATOM     45  C   UNL     1       5.829  -9.299   2.915  1.00  0.00    -0.014 A 
ATOM     46  C   UNL     1       6.823  -9.443   3.894  1.00  0.00     0.009 A 
ATOM     47  C   UNL     1       4.499  -9.592   3.260  1.00  0.00     0.009 A 
ATOM     48  C   UNL     1       6.496  -9.898   5.176  1.00  0.00     0.001 A 
ATOM     49  C   UNL     1       4.170 -10.015   4.550  1.00  0.00     0.001 A 
ATOM     50  C   UNL     1       5.171 -10.180   5.504  1.00  0.00     0.000 A 
ENDBRANCH  26  45
BRANCH  38  51
ATOM     51  C   UNL     1       9.454 -12.220  -2.265  1.00  0.00    -0.014 A 
ATOM     52  C   UNL     1       8.762 -13.434  -2.381  1.00  0.00     0.009 A 
ATOM     53  C   UNL     1      10.857 -12.221  -2.289  1.00  0.00     0.009 A 
ATOM     54  C   UNL     1       9.467 -14.633  -2.489  1.00  0.00     0.001 A 
ATOM     55  C   UNL     1      11.557 -13.418  -2.426  1.00  0.00     0.001 A 
ATOM     56  C   UNL     1      10.861 -14.623  -2.518  1.00  0.00     0.000 A 
ENDBRANCH  38  51
ENDBRANCH  12  13
ENDBRANCH   5   7
ENDBRANCH   4   5
ENDBRANCH   3   4
ENDBRANCH   2   3
ENDBRANCH   1   2
BRANCH   1  57
ATOM     57  C   UNL     1       2.441   0.208   1.953  1.00  0.00     0.202 C 
BRANCH  57  58
ATOM     58  C   UNL     1       2.657  -0.167   3.419  1.00  0.00     0.261 C 
BRANCH  58  59
ATOM     59  O   UNL     1       3.383   0.909   4.037  1.00  0.00    -0.460 OA
BRANCH  59  60
ATOM     60  C   UNL     1       4.730   0.852   3.869  1.00  0.00     0.340 C 
ATOM     61  O   UNL     1       5.389  -0.124   3.554  1.00  0.00    -0.246 OA
BRANCH  60  62
ATOM     62  C   UNL     1       5.320   2.200   4.040  1.00  0.00     0.085 A 
ATOM     63  C   UNL     1       6.426   2.514   3.219  1.00  0.00     0.043 A 
ATOM     64  C   UNL     1       4.900   3.088   5.041  1.00  0.00     0.055 A 
ATOM     65  C   UNL     1       7.197   3.650   3.455  1.00  0.00     0.038 A 
ATOM     66  C   UNL     1       5.819   4.033   5.427  1.00  0.00     0.029 A 
ATOM     67  C   UNL     1       6.912   4.356   4.623  1.00  0.00     0.028 A 
BRANCH  64  68
ATOM     68  N   UNL     1       3.616   3.002   5.602  1.00  0.00    -0.325 N 
ATOM     69  C   UNL     1       2.745   3.831   6.228  1.00  0.00     0.227 C 
ATOM     70  H   UNL     1       3.248   2.093   5.518  1.00  0.00     0.169 HD
ATOM     71  O   UNL     1       1.650   3.296   6.480  1.00  0.00    -0.274 OA
BRANCH  69  72
ATOM     72  C   UNL     1       2.906   5.304   6.642  1.00  0.00     0.079 C 
ATOM     73  C   UNL     1       4.027   6.230   6.206  1.00  0.00     0.013 C 
ATOM     74  C   UNL     1       1.672   6.090   6.142  1.00  0.00     0.013 C 
ATOM     75  C   UNL     1       3.519   7.636   6.467  1.00  0.00     0.001 C 
ATOM     76  C   UNL     1       2.031   7.574   6.198  1.00  0.00     0.001 C 
ENDBRANCH  69  72
ENDBRANCH  64  68
BRANCH  65  77
ATOM     77  N   UNL     1       8.287   3.954   2.669  1.00  0.00    -0.368 N 
ATOM     78  C   UNL     1       8.147   4.537   1.311  1.00  0.00     0.138 C 
ATOM     79  C   UNL     1       9.570   4.221   3.336  1.00  0.00     0.138 C 
ATOM     80  C   UNL     1       8.620   6.029   1.229  1.00  0.00     0.138 C 
ATOM     81  C   UNL     1       9.859   5.730   3.362  1.00  0.00     0.138 C 
ATOM     82  N   UNL     1       9.861   6.262   1.996  1.00  0.00    -0.368 N 
BRANCH  82  83
ATOM     83  C   UNL     1      11.056   6.617   1.409  1.00  0.00     0.037 A 
ATOM     84  C   UNL     1      11.175   7.806   0.677  1.00  0.00     0.029 A 
ATOM     85  C   UNL     1      12.221   5.852   1.599  1.00  0.00     0.029 A 
ATOM     86  C   UNL     1      12.418   8.238   0.198  1.00  0.00     0.041 A 
ATOM     87  C   UNL     1      13.460   6.266   1.110  1.00  0.00     0.041 A 
ATOM     88  C   UNL     1      13.549   7.465   0.424  1.00  0.00     0.123 A 
ATOM     89  F   UNL     1      14.742   7.884  -0.017  1.00  0.00    -0.207 F 
ENDBRANCH  82  83
ENDBRANCH  65  77
ENDBRANCH  60  62
ENDBRANCH  59  60
ENDBRANCH  58  59
ENDBRANCH  57  58
ENDBRANCH   1  57
TORSDOF 18
