REMARK SMILES O=C(OCCOCCOC(=O)[C@H]1CC[C@@H](CNc2cccc(F)c2[N+](=O)[O-])O1)c1ccc(-c2c3nc(c(-c4ccccc4)c4ccc([nH]4)c(-c4ccccc4)c4nc(c(-c5ccccc5)c5ccc2[nH]5)C=C4)C=C3)cc1
REMARK SMILES IDX 7 1 6 2 5 3 4 4 3 5 2 6 1 7 29 8 30 9 76 10 31 11 75 12
REMARK SMILES IDX 32 13 33 14 34 15 69 16 35 17 74 18 68 19 70 20 36 21 73 22
REMARK SMILES IDX 67 23 66 24 37 26 59 27 44 28 58 29 45 30 48 31 57 32 71 33
REMARK SMILES IDX 46 34 47 35 56 37 72 38 49 39 38 40 39 41 43 42 40 43 42 44
REMARK SMILES IDX 41 45 60 46 61 47 65 48 62 49 64 50 63 51 50 52 51 53 55 54
REMARK SMILES IDX 52 55 54 56 53 57 8 58 9 59 10 60 11 61 12 62 13 63 28 64
REMARK SMILES IDX 14 65 15 66 16 67 17 68 18 70 19 71 24 72 20 73 22 74 21 75
REMARK SMILES IDX 23 76 25 77 26 78 27 79
REMARK H PARENT 70 25 48 36 17 69
REMARK Flexibility Score: inf
ROOT
ATOM      1  C   UNL     1       4.879   0.776   6.344  1.00  0.00     0.202 C 
ENDROOT
BRANCH   1   2
ATOM      2  O   UNL     1       5.461   2.072   6.164  1.00  0.00    -0.374 OA
BRANCH   2   3
ATOM      3  C   UNL     1       6.561   2.089   5.258  1.00  0.00     0.202 C 
BRANCH   3   4
ATOM      4  C   UNL     1       7.919   1.732   5.885  1.00  0.00     0.261 C 
BRANCH   4   5
ATOM      5  O   UNL     1       7.888   0.436   6.533  1.00  0.00    -0.460 OA
BRANCH   5   6
ATOM      6  C   UNL     1       8.026   0.164   7.858  1.00  0.00     0.338 C 
ATOM      7  O   UNL     1       8.141  -0.969   8.282  1.00  0.00    -0.246 OA
BRANCH   6   8
ATOM      8  C   UNL     1       8.089   1.306   8.791  1.00  0.00     0.060 A 
ATOM      9  C   UNL     1       7.218   2.370   8.633  1.00  0.00     0.016 A 
ATOM     10  C   UNL     1       9.032   1.338   9.817  1.00  0.00     0.016 A 
ATOM     11  C   UNL     1       7.455   3.567   9.250  1.00  0.00     0.010 A 
ATOM     12  C   UNL     1       9.123   2.480  10.618  1.00  0.00     0.010 A 
ATOM     13  C   UNL     1       8.351   3.610  10.309  1.00  0.00    -0.014 A 
BRANCH  13  14
ATOM     14  C   UNL     1       8.405   4.869  11.068  1.00  0.00     0.031 A 
ATOM     15  C   UNL     1       9.679   5.644  11.106  1.00  0.00     0.074 A 
ATOM     16  C   UNL     1       7.255   5.342  11.593  1.00  0.00     0.049 A 
ATOM     17  N   UNL     1       9.967   6.702  11.810  1.00  0.00    -0.248 NA
ATOM     18  C   UNL     1      10.779   5.170  10.246  1.00  0.00     0.031 C 
ATOM     19  C   UNL     1       5.939   4.691  11.484  1.00  0.00     0.029 A 
ATOM     20  N   UNL     1       6.984   6.499  12.265  1.00  0.00    -0.354 N 
ATOM     21  C   UNL     1      11.300   6.976  11.540  1.00  0.00     0.074 A 
ATOM     22  C   UNL     1      11.760   5.995  10.584  1.00  0.00     0.031 C 
ATOM     23  C   UNL     1       4.997   5.501  11.983  1.00  0.00     0.029 A 
ATOM     24  C   UNL     1       5.656   6.641  12.593  1.00  0.00     0.049 A 
ATOM     25  H   UNL     1       7.672   7.166  12.493  1.00  0.00     0.167 HD
ATOM     26  C   UNL     1      12.063   7.950  12.085  1.00  0.00     0.031 A 
ATOM     27  C   UNL     1       5.052   7.555  13.370  1.00  0.00     0.031 A 
ATOM     28  C   UNL     1      11.546   8.903  13.027  1.00  0.00     0.049 A 
ATOM     29  C   UNL     1       5.938   8.576  14.015  1.00  0.00     0.074 A 
ATOM     30  C   UNL     1      12.213   9.898  13.714  1.00  0.00     0.029 A 
ATOM     31  N   UNL     1      10.209   8.976  13.405  1.00  0.00    -0.354 N 
ATOM     32  N   UNL     1       7.226   8.768  13.848  1.00  0.00    -0.248 NA
ATOM     33  C   UNL     1       5.307   9.476  14.982  1.00  0.00     0.031 C 
ATOM     34  C   UNL     1      11.287  10.545  14.540  1.00  0.00     0.029 A 
ATOM     35  C   UNL     1      10.033   9.989  14.327  1.00  0.00     0.049 A 
ATOM     36  H   UNL     1       9.494   8.391  13.066  1.00  0.00     0.167 HD
ATOM     37  C   UNL     1       7.565   9.811  14.691  1.00  0.00     0.074 A 
ATOM     38  C   UNL     1       6.335  10.233  15.339  1.00  0.00     0.031 C 
ATOM     39  C   UNL     1       8.778  10.365  14.930  1.00  0.00     0.031 A 
BRANCH  26  40
ATOM     40  C   UNL     1      13.527   7.946  11.750  1.00  0.00    -0.014 A 
ATOM     41  C   UNL     1      14.005   8.343  10.492  1.00  0.00     0.009 A 
ATOM     42  C   UNL     1      14.446   7.509  12.717  1.00  0.00     0.009 A 
ATOM     43  C   UNL     1      15.370   8.272  10.201  1.00  0.00     0.001 A 
ATOM     44  C   UNL     1      15.812   7.462  12.432  1.00  0.00     0.001 A 
ATOM     45  C   UNL     1      16.272   7.834  11.171  1.00  0.00     0.000 A 
ENDBRANCH  26  40
BRANCH  27  46
ATOM     46  C   UNL     1       3.598   7.457  13.671  1.00  0.00    -0.014 A 
ATOM     47  C   UNL     1       2.710   8.475  13.294  1.00  0.00     0.009 A 
ATOM     48  C   UNL     1       3.083   6.334  14.343  1.00  0.00     0.009 A 
ATOM     49  C   UNL     1       1.350   8.381  13.605  1.00  0.00     0.001 A 
ATOM     50  C   UNL     1       1.719   6.223  14.617  1.00  0.00     0.001 A 
ATOM     51  C   UNL     1       0.854   7.253  14.259  1.00  0.00     0.000 A 
ENDBRANCH  27  46
BRANCH  39  52
ATOM     52  C   UNL     1       8.800  11.505  15.899  1.00  0.00    -0.014 A 
ATOM     53  C   UNL     1       8.668  11.285  17.278  1.00  0.00     0.009 A 
ATOM     54  C   UNL     1       8.984  12.810  15.420  1.00  0.00     0.009 A 
ATOM     55  C   UNL     1       8.688  12.363  18.161  1.00  0.00     0.001 A 
ATOM     56  C   UNL     1       9.034  13.881  16.309  1.00  0.00     0.001 A 
ATOM     57  C   UNL     1       8.876  13.658  17.676  1.00  0.00     0.000 A 
ENDBRANCH  39  52
ENDBRANCH  13  14
ENDBRANCH   6   8
ENDBRANCH   5   6
ENDBRANCH   4   5
ENDBRANCH   3   4
ENDBRANCH   2   3
ENDBRANCH   1   2
BRANCH   1  58
ATOM     58  C   UNL     1       3.468   0.767   5.771  1.00  0.00     0.261 C 
BRANCH  58  59
ATOM     59  O   UNL     1       3.538   1.068   4.368  1.00  0.00    -0.461 OA
BRANCH  59  60
ATOM     60  C   UNL     1       3.403   2.388   4.049  1.00  0.00     0.335 C 
ATOM     61  O   UNL     1       2.997   3.259   4.811  1.00  0.00    -0.249 OA
BRANCH  60  62
ATOM     62  C   UNL     1       3.806   2.625   2.588  1.00  0.00     0.228 C 
ATOM     63  C   UNL     1       3.595   4.084   2.179  1.00  0.00     0.047 C 
ATOM     64  O   UNL     1       5.185   2.320   2.292  1.00  0.00    -0.361 OA
ATOM     65  C   UNL     1       5.010   4.624   2.115  1.00  0.00     0.037 C 
ATOM     66  C   UNL     1       5.730   3.419   1.541  1.00  0.00     0.138 C 
BRANCH  66  67
ATOM     67  C   UNL     1       7.272   3.519   1.498  1.00  0.00     0.145 C 
BRANCH  67  68
ATOM     68  N   UNL     1       7.957   2.782   2.559  1.00  0.00    -0.377 N 
ATOM     69  H   UNL     1       7.663   2.868   3.494  1.00  0.00     0.160 HD
BRANCH  68  70
ATOM     70  C   UNL     1       9.034   1.954   2.231  1.00  0.00     0.116 A 
ATOM     71  C   UNL     1      10.244   2.538   1.822  1.00  0.00     0.033 A 
ATOM     72  C   UNL     1       9.049   0.565   2.460  1.00  0.00     0.327 A 
ATOM     73  C   UNL     1      11.411   1.776   1.671  1.00  0.00     0.006 A 
ATOM     74  C   UNL     1      10.212  -0.193   2.344  1.00  0.00     0.202 A 
ATOM     75  C   UNL     1      11.400   0.412   1.956  1.00  0.00     0.047 A 
ATOM     76  F   UNL     1      10.218  -1.510   2.593  1.00  0.00    -0.199 F 
BRANCH  72  77
ATOM     77  N   UNL     1       7.841  -0.166   2.750  1.00  0.00     0.068 N 
ATOM     78  O   UNL     1       6.984  -0.220   1.858  1.00  0.00    -0.258 OA
ATOM     79  O   UNL     1       7.772  -0.737   3.846  1.00  0.00    -0.258 OA
ENDBRANCH  72  77
ENDBRANCH  68  70
ENDBRANCH  67  68
ENDBRANCH  66  67
ENDBRANCH  60  62
ENDBRANCH  59  60
ENDBRANCH  58  59
ENDBRANCH   1  58
TORSDOF 18
