REMARK SMILES CC[C@@H]1CCCN(S(=O)(=O)c2cc(C(=O)OCCOCCOC(=O)c3ccc(-c4c5nc(c(-c6ccccc6)c6ccc([nH]6)c(-c6ccccc6)c6nc(c(-c7ccccc7)c7ccc4[nH]7)C=C6)C=C5)cc3)ccc2F)C1
REMARK SMILES IDX 18 1 17 2 16 3 14 4 15 5 13 6 11 7 12 8 75 9 74 10 76 11
REMARK SMILES IDX 73 12 8 13 9 14 10 15 7 16 3 17 4 18 77 19 5 20 6 21 2 22
REMARK SMILES IDX 1 23 19 24 20 25 21 26 22 27 23 28 24 29 25 30 26 31 72 32
REMARK SMILES IDX 27 33 71 34 28 35 29 36 30 37 65 38 31 39 70 40 64 41 66 42
REMARK SMILES IDX 32 43 69 44 63 45 62 46 33 48 55 49 40 50 54 51 41 52 44 53
REMARK SMILES IDX 53 54 67 55 42 56 43 57 52 59 68 60 45 61 34 62 35 63 39 64
REMARK SMILES IDX 36 65 38 66 37 67 56 68 57 69 61 70 58 71 60 72 59 73 46 74
REMARK SMILES IDX 47 75 51 76 48 77 50 78 49 79
REMARK H PARENT 66 47 44 58
REMARK Flexibility Score: inf
ROOT
ATOM      1  C   UNL     1      -7.210   7.163   5.737  1.00  0.00     0.202 C 
ENDROOT
BRANCH   1   2
ATOM      2  C   UNL     1      -6.335   6.021   6.261  1.00  0.00     0.261 C 
BRANCH   2   3
ATOM      3  O   UNL     1      -4.947   6.243   5.973  1.00  0.00    -0.460 OA
BRANCH   3   4
ATOM      4  C   UNL     1      -4.404   5.377   5.082  1.00  0.00     0.338 C 
ATOM      5  O   UNL     1      -4.922   4.373   4.625  1.00  0.00    -0.246 OA
BRANCH   4   6
ATOM      6  C   UNL     1      -3.117   5.915   4.582  1.00  0.00     0.061 A 
ATOM      7  C   UNL     1      -1.584   6.125   2.722  1.00  0.00     0.119 A 
ATOM      8  C   UNL     1      -2.767   5.613   3.260  1.00  0.00     0.040 A 
ATOM      9  C   UNL     1      -0.775   6.959   3.485  1.00  0.00     0.143 A 
ATOM     10  C   UNL     1      -1.114   7.254   4.805  1.00  0.00     0.041 A 
ATOM     11  F   UNL     1       0.372   7.455   3.004  1.00  0.00    -0.206 F 
ATOM     12  C   UNL     1      -2.288   6.736   5.357  1.00  0.00     0.019 A 
BRANCH   7  13
ATOM     13  S   UNL     1      -1.168   5.763   1.049  1.00  0.00     0.246 S 
ATOM     14  O   UNL     1      -0.402   6.857   0.499  1.00  0.00    -0.207 OA
ATOM     15  O   UNL     1      -2.389   5.332   0.393  1.00  0.00    -0.207 OA
BRANCH  13  16
ATOM     16  N   UNL     1      -0.132   4.381   1.176  1.00  0.00    -0.197 NA
ATOM     17  C   UNL     1       0.959   2.505  -0.109  1.00  0.00     0.004 C 
ATOM     18  C   UNL     1       2.264   2.784   0.650  1.00  0.00     0.006 C 
ATOM     19  C   UNL     1       0.102   3.779  -0.175  1.00  0.00     0.106 C 
ATOM     20  C   UNL     1       2.000   3.413   2.011  1.00  0.00     0.017 C 
ATOM     21  C   UNL     1       1.152   4.670   1.880  1.00  0.00     0.102 C 
BRANCH  17  22
ATOM     22  C   UNL     1       0.179   1.305   0.470  1.00  0.00     0.001 C 
ATOM     23  C   UNL     1       0.767  -0.027   0.016  1.00  0.00     0.004 C 
ENDBRANCH  17  22
ENDBRANCH  13  16
ENDBRANCH   7  13
ENDBRANCH   4   6
ENDBRANCH   3   4
ENDBRANCH   2   3
ENDBRANCH   1   2
BRANCH   1  24
ATOM     24  O   UNL     1      -7.205   7.408   4.333  1.00  0.00    -0.374 OA
BRANCH  24  25
ATOM     25  C   UNL     1      -6.082   8.085   3.771  1.00  0.00     0.202 C 
BRANCH  25  26
ATOM     26  C   UNL     1      -5.954   9.595   4.019  1.00  0.00     0.261 C 
BRANCH  26  27
ATOM     27  O   UNL     1      -5.813   9.930   5.411  1.00  0.00    -0.460 OA
BRANCH  27  28
ATOM     28  C   UNL     1      -6.912  10.499   5.964  1.00  0.00     0.338 C 
ATOM     29  O   UNL     1      -7.958  10.789   5.409  1.00  0.00    -0.246 OA
BRANCH  28  30
ATOM     30  C   UNL     1      -6.753  10.577   7.427  1.00  0.00     0.060 A 
ATOM     31  C   UNL     1      -7.740   9.979   8.221  1.00  0.00     0.016 A 
ATOM     32  C   UNL     1      -5.708  11.294   8.011  1.00  0.00     0.016 A 
ATOM     33  C   UNL     1      -7.713  10.137   9.605  1.00  0.00     0.010 A 
ATOM     34  C   UNL     1      -5.685  11.456   9.400  1.00  0.00     0.010 A 
ATOM     35  C   UNL     1      -6.707  10.909  10.200  1.00  0.00    -0.014 A 
BRANCH  35  36
ATOM     36  C   UNL     1      -6.801  11.259  11.638  1.00  0.00     0.031 A 
ATOM     37  C   UNL     1      -7.256  12.639  12.029  1.00  0.00     0.074 A 
ATOM     38  C   UNL     1      -6.515  10.349  12.586  1.00  0.00     0.049 A 
ATOM     39  N   UNL     1      -7.373  13.167  13.222  1.00  0.00    -0.248 NA
ATOM     40  C   UNL     1      -7.626  13.545  10.930  1.00  0.00     0.031 C 
ATOM     41  C   UNL     1      -6.113   8.964  12.339  1.00  0.00     0.029 A 
ATOM     42  N   UNL     1      -6.519  10.460  13.954  1.00  0.00    -0.354 N 
ATOM     43  C   UNL     1      -7.826  14.465  13.016  1.00  0.00     0.074 A 
ATOM     44  C   UNL     1      -7.923  14.658  11.585  1.00  0.00     0.031 C 
ATOM     45  C   UNL     1      -5.909   8.353  13.519  1.00  0.00     0.029 A 
ATOM     46  C   UNL     1      -6.125   9.313  14.599  1.00  0.00     0.049 A 
ATOM     47  H   UNL     1      -6.779  11.283  14.428  1.00  0.00     0.167 HD
ATOM     48  C   UNL     1      -8.144  15.408  13.934  1.00  0.00     0.031 A 
ATOM     49  C   UNL     1      -5.941   9.072  15.911  1.00  0.00     0.031 A 
ATOM     50  C   UNL     1      -8.030  15.223  15.357  1.00  0.00     0.049 A 
ATOM     51  C   UNL     1      -6.206  10.171  16.907  1.00  0.00     0.074 A 
ATOM     52  C   UNL     1      -8.324  16.120  16.370  1.00  0.00     0.029 A 
ATOM     53  N   UNL     1      -7.583  14.062  15.969  1.00  0.00    -0.354 N 
ATOM     54  N   UNL     1      -6.647  11.389  16.701  1.00  0.00    -0.248 NA
ATOM     55  C   UNL     1      -5.956   9.855  18.321  1.00  0.00     0.031 C 
ATOM     56  C   UNL     1      -7.998  15.522  17.592  1.00  0.00     0.029 A 
ATOM     57  C   UNL     1      -7.571  14.228  17.343  1.00  0.00     0.049 A 
ATOM     58  H   UNL     1      -7.314  13.242  15.495  1.00  0.00     0.167 HD
ATOM     59  C   UNL     1      -6.767  11.967  17.960  1.00  0.00     0.074 A 
ATOM     60  C   UNL     1      -6.367  10.962  18.922  1.00  0.00     0.031 C 
ATOM     61  C   UNL     1      -7.178  13.216  18.291  1.00  0.00     0.031 A 
BRANCH  48  62
ATOM     62  C   UNL     1      -8.621  16.741  13.423  1.00  0.00    -0.014 A 
ATOM     63  C   UNL     1      -9.875  16.879  12.806  1.00  0.00     0.009 A 
ATOM     64  C   UNL     1      -7.822  17.882  13.595  1.00  0.00     0.009 A 
ATOM     65  C   UNL     1     -10.302  18.125  12.341  1.00  0.00     0.001 A 
ATOM     66  C   UNL     1      -8.265  19.132  13.158  1.00  0.00     0.001 A 
ATOM     67  C   UNL     1      -9.500  19.250  12.523  1.00  0.00     0.000 A 
ENDBRANCH  48  62
BRANCH  49  68
ATOM     68  C   UNL     1      -5.461   7.741  16.372  1.00  0.00    -0.014 A 
ATOM     69  C   UNL     1      -6.284   6.913  17.151  1.00  0.00     0.009 A 
ATOM     70  C   UNL     1      -4.157   7.312  16.074  1.00  0.00     0.009 A 
ATOM     71  C   UNL     1      -5.799   5.702  17.652  1.00  0.00     0.001 A 
ATOM     72  C   UNL     1      -3.688   6.085  16.548  1.00  0.00     0.001 A 
ATOM     73  C   UNL     1      -4.504   5.288  17.348  1.00  0.00     0.000 A 
ENDBRANCH  49  68
BRANCH  61  74
ATOM     74  C   UNL     1      -7.273  13.546  19.756  1.00  0.00    -0.014 A 
ATOM     75  C   UNL     1      -6.130  13.688  20.558  1.00  0.00     0.009 A 
ATOM     76  C   UNL     1      -8.537  13.748  20.336  1.00  0.00     0.009 A 
ATOM     77  C   UNL     1      -6.253  13.981  21.918  1.00  0.00     0.001 A 
ATOM     78  C   UNL     1      -8.655  14.076  21.687  1.00  0.00     0.001 A 
ATOM     79  C   UNL     1      -7.514  14.179  22.480  1.00  0.00     0.000 A 
ENDBRANCH  61  74
ENDBRANCH  35  36
ENDBRANCH  28  30
ENDBRANCH  27  28
ENDBRANCH  26  27
ENDBRANCH  25  26
ENDBRANCH  24  25
ENDBRANCH   1  24
TORSDOF 17
