REMARK SMILES C[NH2+]C[C@H](C)C(=O)N1CCc2cc(C(=O)OCCOCCOC(=O)c3ccc(-c4c5nc(c(-c6ccccc6)c6ccc([nH]6)c(-c6ccccc6)c6nc(c(-c7ccccc7)c7ccc4[nH]7)C=C6)C=C5)cc3)ccc21
REMARK SMILES IDX 18 1 17 2 16 3 14 4 15 5 13 6 8 7 9 8 75 9 10 10 11 11 74 12
REMARK SMILES IDX 12 13 73 14 6 15 7 16 4 17 5 18 3 19 2 20 1 21 19 24 20 25
REMARK SMILES IDX 21 26 22 27 23 28 24 29 25 30 26 31 72 32 27 33 71 34 28 35
REMARK SMILES IDX 29 36 30 37 65 38 31 39 70 40 64 41 66 42 32 43 69 44 63 45
REMARK SMILES IDX 62 46 33 48 55 49 40 50 54 51 41 52 44 53 53 54 67 55 42 56
REMARK SMILES IDX 43 57 52 59 68 60 45 61 34 62 35 63 39 64 36 65 38 66 37 67
REMARK SMILES IDX 56 68 57 69 61 70 58 71 60 72 59 73 46 74 47 75 51 76 48 77
REMARK SMILES IDX 50 78 49 79
REMARK H PARENT 2 22 2 23 66 47 44 58
REMARK Flexibility Score: inf
ROOT
ATOM      1  C   UNL     1      -2.793  -2.987  -8.945  1.00  0.00     0.202 C 
ENDROOT
BRANCH   1   2
ATOM      2  C   UNL     1      -1.884  -1.766  -8.779  1.00  0.00     0.261 C 
BRANCH   2   3
ATOM      3  O   UNL     1      -1.901  -1.296  -7.425  1.00  0.00    -0.460 OA
BRANCH   3   4
ATOM      4  C   UNL     1      -2.581  -0.141  -7.229  1.00  0.00     0.338 C 
ATOM      5  O   UNL     1      -3.029   0.600  -8.090  1.00  0.00    -0.246 OA
BRANCH   4   6
ATOM      6  C   UNL     1      -2.855   0.046  -5.784  1.00  0.00     0.060 A 
ATOM      7  N   UNL     1      -3.805   0.990  -1.848  1.00  0.00    -0.311 N 
ATOM      8  C   UNL     1      -5.072   1.722  -2.015  1.00  0.00     0.130 C 
ATOM      9  C   UNL     1      -3.387   0.528  -3.099  1.00  0.00     0.047 A 
ATOM     10  C   UNL     1      -5.449   1.663  -3.497  1.00  0.00     0.059 C 
ATOM     11  C   UNL     1      -4.239   1.015  -4.089  1.00  0.00    -0.022 A 
ATOM     12  C   UNL     1      -2.375  -0.349  -3.432  1.00  0.00     0.027 A 
ATOM     13  C   UNL     1      -3.974   0.811  -5.433  1.00  0.00     0.021 A 
ATOM     14  C   UNL     1      -2.093  -0.580  -4.783  1.00  0.00     0.018 A 
BRANCH   7  15
ATOM     15  C   UNL     1      -3.200   0.979  -0.614  1.00  0.00     0.235 C 
ATOM     16  O   UNL     1      -3.899   0.930   0.408  1.00  0.00    -0.274 OA
BRANCH  15  17
ATOM     17  C   UNL     1      -1.697   1.262  -0.452  1.00  0.00     0.131 C 
ATOM     18  C   UNL     1      -0.765   0.072  -0.646  1.00  0.00     0.024 C 
BRANCH  17  19
ATOM     19  C   UNL     1      -1.190   2.502  -1.216  1.00  0.00     0.273 C 
BRANCH  19  20
ATOM     20  N   UNL     1      -2.000   3.723  -1.179  1.00  0.00    -0.348 N 
ATOM     21  C   UNL     1      -2.311   4.189   0.164  1.00  0.00     0.330 C 
ATOM     22  H   UNL     1      -1.491   4.460  -1.665  1.00  0.00     0.346 HD
ATOM     23  H   UNL     1      -2.890   3.498  -1.625  1.00  0.00     0.346 HD
ENDBRANCH  19  20
ENDBRANCH  17  19
ENDBRANCH  15  17
ENDBRANCH   7  15
ENDBRANCH   4   6
ENDBRANCH   3   4
ENDBRANCH   2   3
ENDBRANCH   1   2
BRANCH   1  24
ATOM     24  O   UNL     1      -4.186  -2.794  -8.708  1.00  0.00    -0.374 OA
BRANCH  24  25
ATOM     25  C   UNL     1      -4.632  -2.797  -7.351  1.00  0.00     0.202 C 
BRANCH  25  26
ATOM     26  C   UNL     1      -4.782  -4.159  -6.662  1.00  0.00     0.261 C 
BRANCH  26  27
ATOM     27  O   UNL     1      -3.524  -4.838  -6.506  1.00  0.00    -0.460 OA
BRANCH  27  28
ATOM     28  C   UNL     1      -3.337  -5.875  -7.357  1.00  0.00     0.338 C 
ATOM     29  O   UNL     1      -4.127  -6.316  -8.175  1.00  0.00    -0.246 OA
BRANCH  28  30
ATOM     30  C   UNL     1      -1.933  -6.320  -7.298  1.00  0.00     0.060 A 
ATOM     31  C   UNL     1      -1.218  -6.370  -8.501  1.00  0.00     0.016 A 
ATOM     32  C   UNL     1      -1.352  -6.752  -6.105  1.00  0.00     0.016 A 
ATOM     33  C   UNL     1       0.068  -6.903  -8.525  1.00  0.00     0.010 A 
ATOM     34  C   UNL     1      -0.063  -7.291  -6.133  1.00  0.00     0.010 A 
ATOM     35  C   UNL     1       0.639  -7.402  -7.348  1.00  0.00    -0.014 A 
BRANCH  35  36
ATOM     36  C   UNL     1       1.911  -8.161  -7.411  1.00  0.00     0.031 A 
ATOM     37  C   UNL     1       1.874  -9.662  -7.321  1.00  0.00     0.074 A 
ATOM     38  C   UNL     1       3.083  -7.523  -7.569  1.00  0.00     0.049 A 
ATOM     39  N   UNL     1       2.865 -10.517  -7.312  1.00  0.00    -0.248 NA
ATOM     40  C   UNL     1       0.543 -10.283  -7.223  1.00  0.00     0.031 C 
ATOM     41  C   UNL     1       3.247  -6.077  -7.717  1.00  0.00     0.029 A 
ATOM     42  N   UNL     1       4.362  -8.016  -7.628  1.00  0.00    -0.354 N 
ATOM     43  C   UNL     1       2.280 -11.772  -7.196  1.00  0.00     0.074 A 
ATOM     44  C   UNL     1       0.851 -11.566  -7.105  1.00  0.00     0.031 C 
ATOM     45  C   UNL     1       4.556  -5.799  -7.846  1.00  0.00     0.029 A 
ATOM     46  C   UNL     1       5.321  -7.040  -7.750  1.00  0.00     0.049 A 
ATOM     47  H   UNL     1       4.573  -8.976  -7.587  1.00  0.00     0.167 HD
ATOM     48  C   UNL     1       2.877 -12.987  -7.173  1.00  0.00     0.031 A 
ATOM     49  C   UNL     1       6.664  -7.136  -7.758  1.00  0.00     0.031 A 
ATOM     50  C   UNL     1       4.300 -13.190  -7.251  1.00  0.00     0.049 A 
ATOM     51  C   UNL     1       7.308  -8.492  -7.645  1.00  0.00     0.074 A 
ATOM     52  C   UNL     1       5.002 -14.383  -7.253  1.00  0.00     0.029 A 
ATOM     53  N   UNL     1       5.239 -12.173  -7.330  1.00  0.00    -0.354 N 
ATOM     54  N   UNL     1       6.744  -9.673  -7.562  1.00  0.00    -0.248 NA
ATOM     55  C   UNL     1       8.778  -8.527  -7.636  1.00  0.00     0.031 C 
ATOM     56  C   UNL     1       6.368 -14.086  -7.266  1.00  0.00     0.029 A 
ATOM     57  C   UNL     1       6.516 -12.710  -7.348  1.00  0.00     0.049 A 
ATOM     58  H   UNL     1       5.030 -11.212  -7.368  1.00  0.00     0.167 HD
ATOM     59  C   UNL     1       7.787 -10.591  -7.525  1.00  0.00     0.074 A 
ATOM     60  C   UNL     1       9.017  -9.830  -7.609  1.00  0.00     0.031 C 
ATOM     61  C   UNL     1       7.732 -11.942  -7.433  1.00  0.00     0.031 A 
BRANCH  48  62
ATOM     62  C   UNL     1       1.992 -14.194  -7.020  1.00  0.00    -0.014 A 
ATOM     63  C   UNL     1       1.133 -14.609  -8.050  1.00  0.00     0.009 A 
ATOM     64  C   UNL     1       2.045 -14.948  -5.837  1.00  0.00     0.009 A 
ATOM     65  C   UNL     1       0.321 -15.734  -7.884  1.00  0.00     0.001 A 
ATOM     66  C   UNL     1       1.256 -16.089  -5.686  1.00  0.00     0.001 A 
ATOM     67  C   UNL     1       0.387 -16.475  -6.705  1.00  0.00     0.000 A 
ENDBRANCH  48  62
BRANCH  49  68
ATOM     68  C   UNL     1       7.498  -5.908  -7.857  1.00  0.00    -0.014 A 
ATOM     69  C   UNL     1       8.277  -5.660  -8.998  1.00  0.00     0.009 A 
ATOM     70  C   UNL     1       7.536  -4.987  -6.798  1.00  0.00     0.009 A 
ATOM     71  C   UNL     1       9.096  -4.531  -9.063  1.00  0.00     0.001 A 
ATOM     72  C   UNL     1       8.331  -3.842  -6.880  1.00  0.00     0.001 A 
ATOM     73  C   UNL     1       9.119  -3.621  -8.008  1.00  0.00     0.000 A 
ENDBRANCH  49  68
BRANCH  61  74
ATOM     74  C   UNL     1       9.036 -12.693  -7.465  1.00  0.00    -0.014 A 
ATOM     75  C   UNL     1       9.938 -12.647  -6.391  1.00  0.00     0.009 A 
ATOM     76  C   UNL     1       9.346 -13.492  -8.578  1.00  0.00     0.009 A 
ATOM     77  C   UNL     1      11.139 -13.358  -6.447  1.00  0.00     0.001 A 
ATOM     78  C   UNL     1      10.531 -14.229  -8.616  1.00  0.00     0.001 A 
ATOM     79  C   UNL     1      11.431 -14.152  -7.555  1.00  0.00     0.000 A 
ENDBRANCH  61  74
ENDBRANCH  35  36
ENDBRANCH  28  30
ENDBRANCH  27  28
ENDBRANCH  26  27
ENDBRANCH  25  26
ENDBRANCH  24  25
ENDBRANCH   1  24
TORSDOF 18
