REMARK SMILES O=C(OCCOCCOC(=O)c1ccc2c(c1)[C@@H](C1CCOCC1)C(=O)N2)c1ccc(-c2c3nc(c(-c4ccccc4)c4ccc([nH]4)c(-c4ccccc4)c4nc(c(-c5ccccc5)c5ccc2[nH]5)C=C4)C=C3)cc1
REMARK SMILES IDX 5 1 4 2 3 3 2 4 1 5 28 6 29 7 75 8 30 9 74 10 31 11 32 12
REMARK SMILES IDX 33 13 68 14 34 15 73 16 67 17 69 18 35 19 72 20 66 21 65 22
REMARK SMILES IDX 36 24 58 25 43 26 57 27 44 28 47 29 56 30 70 31 45 32 46 33
REMARK SMILES IDX 55 35 71 36 48 37 37 38 38 39 42 40 39 41 41 42 40 43 59 44
REMARK SMILES IDX 60 45 64 46 61 47 63 48 62 49 49 50 50 51 54 52 51 53 53 54
REMARK SMILES IDX 52 55 6 56 7 57 8 58 9 59 10 60 11 61 12 62 13 63 17 64
REMARK SMILES IDX 14 65 16 66 15 67 18 68 27 69 25 70 26 72 19 73 20 74 24 75
REMARK SMILES IDX 21 76 23 77 22 78
REMARK H PARENT 69 23 47 34 27 71
REMARK Flexibility Score: inf
ROOT
ATOM      1  C   UNL     1       4.419  -1.468   0.772  1.00  0.00     0.202 C 
ENDROOT
BRANCH   1   2
ATOM      2  C   UNL     1       4.165  -0.113   1.433  1.00  0.00     0.261 C 
BRANCH   2   3
ATOM      3  O   UNL     1       2.772   0.218   1.362  1.00  0.00    -0.460 OA
BRANCH   3   4
ATOM      4  C   UNL     1       2.147   0.985   0.440  1.00  0.00     0.338 C 
ATOM      5  O   UNL     1       0.921   1.077   0.486  1.00  0.00    -0.246 OA
BRANCH   4   6
ATOM      6  C   UNL     1       2.859   1.760  -0.620  1.00  0.00     0.060 A 
ATOM      7  C   UNL     1       4.041   1.370  -1.256  1.00  0.00     0.016 A 
ATOM      8  C   UNL     1       2.218   2.924  -1.075  1.00  0.00     0.016 A 
ATOM      9  C   UNL     1       4.589   2.104  -2.295  1.00  0.00     0.010 A 
ATOM     10  C   UNL     1       2.754   3.667  -2.126  1.00  0.00     0.010 A 
ATOM     11  C   UNL     1       3.946   3.254  -2.729  1.00  0.00    -0.014 A 
BRANCH  11  12
ATOM     12  C   UNL     1       4.620   4.085  -3.731  1.00  0.00     0.031 A 
ATOM     13  C   UNL     1       5.356   5.290  -3.249  1.00  0.00     0.074 A 
ATOM     14  C   UNL     1       4.624   3.707  -5.018  1.00  0.00     0.049 A 
ATOM     15  N   UNL     1       5.908   6.250  -3.935  1.00  0.00    -0.248 NA
ATOM     16  C   UNL     1       5.488   5.428  -1.788  1.00  0.00     0.031 C 
ATOM     17  C   UNL     1       4.049   2.462  -5.534  1.00  0.00     0.029 A 
ATOM     18  N   UNL     1       5.132   4.330  -6.123  1.00  0.00    -0.354 N 
ATOM     19  C   UNL     1       6.411   7.132  -2.990  1.00  0.00     0.074 A 
ATOM     20  C   UNL     1       6.109   6.591  -1.685  1.00  0.00     0.031 C 
ATOM     21  C   UNL     1       4.223   2.423  -6.865  1.00  0.00     0.029 A 
ATOM     22  C   UNL     1       4.852   3.667  -7.292  1.00  0.00     0.049 A 
ATOM     23  H   UNL     1       5.645   5.168  -6.084  1.00  0.00     0.167 HD
ATOM     24  C   UNL     1       7.044   8.306  -3.210  1.00  0.00     0.031 A 
ATOM     25  C   UNL     1       5.036   4.064  -8.564  1.00  0.00     0.031 A 
ATOM     26  C   UNL     1       7.290   8.818  -4.529  1.00  0.00     0.049 A 
ATOM     27  C   UNL     1       5.651   5.417  -8.792  1.00  0.00     0.074 A 
ATOM     28  C   UNL     1       7.867  10.015  -4.903  1.00  0.00     0.029 A 
ATOM     29  N   UNL     1       6.956   8.143  -5.698  1.00  0.00    -0.354 N 
ATOM     30  N   UNL     1       6.070   6.289  -7.903  1.00  0.00    -0.248 NA
ATOM     31  C   UNL     1       5.809   5.849 -10.184  1.00  0.00     0.031 C 
ATOM     32  C   UNL     1       7.829  10.088  -6.300  1.00  0.00     0.029 A 
ATOM     33  C   UNL     1       7.293   8.908  -6.798  1.00  0.00     0.049 A 
ATOM     34  H   UNL     1       6.541   7.252  -5.737  1.00  0.00     0.167 HD
ATOM     35  C   UNL     1       6.564   7.365  -8.625  1.00  0.00     0.074 A 
ATOM     36  C   UNL     1       6.394   7.030 -10.028  1.00  0.00     0.031 C 
ATOM     37  C   UNL     1       7.110   8.522  -8.177  1.00  0.00     0.031 A 
BRANCH  24  38
ATOM     38  C   UNL     1       7.380   9.127  -1.998  1.00  0.00    -0.014 A 
ATOM     39  C   UNL     1       8.358   8.723  -1.073  1.00  0.00     0.009 A 
ATOM     40  C   UNL     1       6.637  10.288  -1.733  1.00  0.00     0.009 A 
ATOM     41  C   UNL     1       8.538   9.430   0.119  1.00  0.00     0.001 A 
ATOM     42  C   UNL     1       6.842  11.011  -0.556  1.00  0.00     0.001 A 
ATOM     43  C   UNL     1       7.779  10.572   0.377  1.00  0.00     0.000 A 
ENDBRANCH  24  38
BRANCH  25  44
ATOM     44  C   UNL     1       4.570   3.200  -9.680  1.00  0.00    -0.014 A 
ATOM     45  C   UNL     1       5.483   2.560 -10.530  1.00  0.00     0.009 A 
ATOM     46  C   UNL     1       3.196   2.967  -9.867  1.00  0.00     0.009 A 
ATOM     47  C   UNL     1       5.029   1.710 -11.544  1.00  0.00     0.001 A 
ATOM     48  C   UNL     1       2.747   2.096 -10.863  1.00  0.00     0.001 A 
ATOM     49  C   UNL     1       3.665   1.472 -11.704  1.00  0.00     0.000 A 
ENDBRANCH  25  44
BRANCH  37  50
ATOM     50  C   UNL     1       7.611   9.486  -9.211  1.00  0.00    -0.014 A 
ATOM     51  C   UNL     1       6.729  10.290  -9.947  1.00  0.00     0.009 A 
ATOM     52  C   UNL     1       8.995   9.661  -9.366  1.00  0.00     0.009 A 
ATOM     53  C   UNL     1       7.228  11.246 -10.831  1.00  0.00     0.001 A 
ATOM     54  C   UNL     1       9.490  10.636 -10.230  1.00  0.00     0.001 A 
ATOM     55  C   UNL     1       8.606  11.425 -10.964  1.00  0.00     0.000 A 
ENDBRANCH  37  50
ENDBRANCH  11  12
ENDBRANCH   4   6
ENDBRANCH   3   4
ENDBRANCH   2   3
ENDBRANCH   1   2
BRANCH   1  56
ATOM     56  O   UNL     1       4.068  -1.509  -0.610  1.00  0.00    -0.374 OA
BRANCH  56  57
ATOM     57  C   UNL     1       2.737  -1.940  -0.914  1.00  0.00     0.202 C 
BRANCH  57  58
ATOM     58  C   UNL     1       2.798  -3.197  -1.782  1.00  0.00     0.261 C 
BRANCH  58  59
ATOM     59  O   UNL     1       3.405  -4.247  -1.014  1.00  0.00    -0.460 OA
BRANCH  59  60
ATOM     60  C   UNL     1       4.766  -4.266  -1.051  1.00  0.00     0.338 C 
ATOM     61  O   UNL     1       5.498  -3.728  -1.850  1.00  0.00    -0.246 OA
BRANCH  60  62
ATOM     62  C   UNL     1       5.236  -4.911   0.198  1.00  0.00     0.060 A 
ATOM     63  C   UNL     1       4.569  -6.046   0.703  1.00  0.00     0.018 A 
ATOM     64  C   UNL     1       6.344  -4.354   0.868  1.00  0.00     0.022 A 
ATOM     65  C   UNL     1       5.043  -6.684   1.846  1.00  0.00     0.027 A 
ATOM     66  C   UNL     1       6.768  -4.960   2.037  1.00  0.00    -0.011 A 
ATOM     67  C   UNL     1       6.151  -6.140   2.461  1.00  0.00     0.045 A 
ATOM     68  C   UNL     1       7.919  -4.638   2.968  1.00  0.00     0.114 C 
ATOM     69  N   UNL     1       6.878  -6.704   3.491  1.00  0.00    -0.325 N 
ATOM     70  C   UNL     1       8.013  -5.959   3.773  1.00  0.00     0.232 C 
ATOM     71  H   UNL     1       6.623  -7.529   3.963  1.00  0.00     0.169 HD
ATOM     72  O   UNL     1       8.906  -6.306   4.527  1.00  0.00    -0.274 OA
BRANCH  68  73
ATOM     73  C   UNL     1       7.698  -3.410   3.904  1.00  0.00     0.010 C 
ATOM     74  C   UNL     1       8.926  -3.170   4.810  1.00  0.00     0.033 C 
ATOM     75  C   UNL     1       6.423  -3.499   4.770  1.00  0.00     0.033 C 
ATOM     76  C   UNL     1       8.690  -2.089   5.857  1.00  0.00     0.160 C 
ATOM     77  C   UNL     1       6.349  -2.379   5.802  1.00  0.00     0.160 C 
ATOM     78  O   UNL     1       7.517  -2.366   6.616  1.00  0.00    -0.381 OA
ENDBRANCH  68  73
ENDBRANCH  60  62
ENDBRANCH  59  60
ENDBRANCH  58  59
ENDBRANCH  57  58
ENDBRANCH  56  57
ENDBRANCH   1  56
TORSDOF 15
