REMARK SMILES CC1CCN(C(=O)Nc2nccnc2C(=O)OCCOCCOC(=O)c2ccc(-c3c4nc(c(-c5ccccc5)c5ccc([nH]5)c(-c5ccccc5)c5nc(c(-c6ccccc6)c6ccc3[nH]6)C=C5)C=C4)cc2)CC1
REMARK SMILES IDX 21 1 20 2 19 3 18 4 17 5 15 6 16 7 14 8 9 9 10 10 11 11
REMARK SMILES IDX 13 12 12 13 8 14 1 15 2 16 3 17 75 18 4 19 74 20 5 21 6 22
REMARK SMILES IDX 7 23 22 25 23 26 24 27 25 28 26 29 27 30 73 31 28 32 72 33
REMARK SMILES IDX 29 34 30 35 31 36 66 37 32 38 71 39 65 40 67 41 33 42 70 43
REMARK SMILES IDX 64 44 63 45 34 47 56 48 41 49 55 50 42 51 45 52 54 53 68 54
REMARK SMILES IDX 43 55 44 56 53 58 69 59 46 60 35 61 36 62 40 63 37 64 39 65
REMARK SMILES IDX 38 66 57 67 58 68 62 69 59 70 61 71 60 72 47 73 48 74 52 75
REMARK SMILES IDX 49 76 51 77 50 78
REMARK H PARENT 8 24 67 46 45 57
REMARK Flexibility Score: inf
ROOT
ATOM      1  C   UNL     1       6.163  -2.997   1.272  1.00  0.00     0.202 C 
ENDROOT
BRANCH   1   2
ATOM      2  O   UNL     1       7.435  -3.091   0.626  1.00  0.00    -0.374 OA
BRANCH   2   3
ATOM      3  C   UNL     1       7.706  -2.160  -0.421  1.00  0.00     0.202 C 
BRANCH   3   4
ATOM      4  C   UNL     1       7.151  -2.537  -1.795  1.00  0.00     0.261 C 
BRANCH   4   5
ATOM      5  O   UNL     1       5.710  -2.584  -1.769  1.00  0.00    -0.458 OA
BRANCH   5   6
ATOM      6  C   UNL     1       5.175  -3.821  -1.944  1.00  0.00     0.360 C 
ATOM      7  O   UNL     1       5.810  -4.810  -2.285  1.00  0.00    -0.244 OA
BRANCH   6   8
ATOM      8  C   UNL     1       3.716  -3.874  -1.609  1.00  0.00     0.191 A 
ATOM      9  C   UNL     1       2.869  -2.768  -1.408  1.00  0.00     0.167 A 
ATOM     10  N   UNL     1       1.543  -2.978  -1.233  1.00  0.00    -0.235 NA
ATOM     11  C   UNL     1       1.108  -4.254  -1.119  1.00  0.00     0.133 A 
ATOM     12  N   UNL     1       3.263  -5.164  -1.478  1.00  0.00    -0.244 NA
ATOM     13  C   UNL     1       1.959  -5.328  -1.206  1.00  0.00     0.132 A 
BRANCH   9  14
ATOM     14  N   UNL     1       3.353  -1.450  -1.383  1.00  0.00    -0.290 N 
ATOM     15  C   UNL     1      -2.491   0.093  -0.066  1.00  0.00     0.008 C 
ATOM     16  C   UNL     1      -1.046   0.211   0.421  1.00  0.00    -0.011 C 
ATOM     17  C   UNL     1      -0.294   1.296  -0.373  1.00  0.00     0.025 C 
ATOM     18  C   UNL     1      -0.325  -1.143   0.317  1.00  0.00     0.025 C 
ATOM     19  C   UNL     1       1.212   1.305  -0.093  1.00  0.00     0.121 C 
ATOM     20  C   UNL     1       1.150  -0.988   0.690  1.00  0.00     0.121 C 
ATOM     21  N   UNL     1       1.778  -0.041  -0.224  1.00  0.00    -0.324 N 
ATOM     22  C   UNL     1       2.839  -0.239  -1.065  1.00  0.00     0.323 C 
ATOM     23  O   UNL     1       3.457   0.724  -1.539  1.00  0.00    -0.248 OA
ATOM     24  H   UNL     1       4.294  -1.392  -1.667  1.00  0.00     0.173 HD
ENDBRANCH   9  14
ENDBRANCH   6   8
ENDBRANCH   5   6
ENDBRANCH   4   5
ENDBRANCH   3   4
ENDBRANCH   2   3
ENDBRANCH   1   2
BRANCH   1  25
ATOM     25  C   UNL     1       6.027  -1.887   2.320  1.00  0.00     0.261 C 
BRANCH  25  26
ATOM     26  O   UNL     1       5.994  -0.585   1.707  1.00  0.00    -0.460 OA
BRANCH  26  27
ATOM     27  C   UNL     1       7.091   0.178   1.919  1.00  0.00     0.338 C 
ATOM     28  O   UNL     1       8.051  -0.087   2.631  1.00  0.00    -0.246 OA
BRANCH  27  29
ATOM     29  C   UNL     1       7.079   1.340   1.012  1.00  0.00     0.060 A 
ATOM     30  C   UNL     1       8.239   1.598   0.268  1.00  0.00     0.016 A 
ATOM     31  C   UNL     1       5.976   2.192   0.927  1.00  0.00     0.016 A 
ATOM     32  C   UNL     1       8.319   2.739  -0.527  1.00  0.00     0.010 A 
ATOM     33  C   UNL     1       6.064   3.342   0.139  1.00  0.00     0.010 A 
ATOM     34  C   UNL     1       7.246   3.638  -0.563  1.00  0.00    -0.014 A 
BRANCH  34  35
ATOM     35  C   UNL     1       7.403   4.955  -1.221  1.00  0.00     0.031 A 
ATOM     36  C   UNL     1       7.709   6.159  -0.377  1.00  0.00     0.074 A 
ATOM     37  C   UNL     1       7.267   5.080  -2.552  1.00  0.00     0.049 A 
ATOM     38  N   UNL     1       7.811   7.415  -0.728  1.00  0.00    -0.248 NA
ATOM     39  C   UNL     1       7.921   5.912   1.058  1.00  0.00     0.031 C 
ATOM     40  C   UNL     1       7.005   3.985  -3.482  1.00  0.00     0.029 A 
ATOM     41  N   UNL     1       7.314   6.198  -3.346  1.00  0.00    -0.354 N 
ATOM     42  C   UNL     1       8.083   8.111   0.443  1.00  0.00     0.074 A 
ATOM     43  C   UNL     1       8.108   7.141   1.517  1.00  0.00     0.031 C 
ATOM     44  C   UNL     1       6.896   4.487  -4.723  1.00  0.00     0.029 A 
ATOM     45  C   UNL     1       7.044   5.941  -4.666  1.00  0.00     0.049 A 
ATOM     46  H   UNL     1       7.522   7.097  -3.002  1.00  0.00     0.167 HD
ATOM     47  C   UNL     1       8.292   9.439   0.610  1.00  0.00     0.031 A 
ATOM     48  C   UNL     1       6.899   6.785  -5.705  1.00  0.00     0.031 A 
ATOM     49  C   UNL     1       8.245  10.406  -0.454  1.00  0.00     0.049 A 
ATOM     50  C   UNL     1       7.063   8.264  -5.487  1.00  0.00     0.074 A 
ATOM     51  C   UNL     1       8.462  11.771  -0.391  1.00  0.00     0.029 A 
ATOM     52  N   UNL     1       7.946  10.108  -1.775  1.00  0.00    -0.354 N 
ATOM     53  N   UNL     1       7.346   8.911  -4.381  1.00  0.00    -0.248 NA
ATOM     54  C   UNL     1       6.893   9.130  -6.662  1.00  0.00     0.031 C 
ATOM     55  C   UNL     1       8.240  12.307  -1.664  1.00  0.00     0.029 A 
ATOM     56  C   UNL     1       7.943  11.268  -2.532  1.00  0.00     0.049 A 
ATOM     57  H   UNL     1       7.763   9.206  -2.123  1.00  0.00     0.167 HD
ATOM     58  C   UNL     1       7.412  10.254  -4.732  1.00  0.00     0.074 A 
ATOM     59  C   UNL     1       7.149  10.328  -6.154  1.00  0.00     0.031 C 
ATOM     60  C   UNL     1       7.672  11.328  -3.946  1.00  0.00     0.031 A 
BRANCH  47  61
ATOM     61  C   UNL     1       8.541   9.920   2.012  1.00  0.00    -0.014 A 
ATOM     62  C   UNL     1       9.739   9.629   2.685  1.00  0.00     0.009 A 
ATOM     63  C   UNL     1       7.560  10.678   2.671  1.00  0.00     0.009 A 
ATOM     64  C   UNL     1       9.929  10.049   4.004  1.00  0.00     0.001 A 
ATOM     65  C   UNL     1       7.765  11.121   3.978  1.00  0.00     0.001 A 
ATOM     66  C   UNL     1       8.943  10.796   4.648  1.00  0.00     0.000 A 
ENDBRANCH  47  61
BRANCH  48  67
ATOM     67  C   UNL     1       6.555   6.245  -7.045  1.00  0.00    -0.014 A 
ATOM     68  C   UNL     1       7.506   6.230  -8.075  1.00  0.00     0.009 A 
ATOM     69  C   UNL     1       5.275   5.725  -7.293  1.00  0.00     0.009 A 
ATOM     70  C   UNL     1       7.178   5.714  -9.331  1.00  0.00     0.001 A 
ATOM     71  C   UNL     1       4.957   5.188  -8.541  1.00  0.00     0.001 A 
ATOM     72  C   UNL     1       5.907   5.188  -9.561  1.00  0.00     0.000 A 
ENDBRANCH  48  67
BRANCH  60  73
ATOM     73  C   UNL     1       7.719  12.674  -4.612  1.00  0.00    -0.014 A 
ATOM     74  C   UNL     1       6.549  13.317  -5.046  1.00  0.00     0.009 A 
ATOM     75  C   UNL     1       8.952  13.329  -4.766  1.00  0.00     0.009 A 
ATOM     76  C   UNL     1       6.617  14.576  -5.646  1.00  0.00     0.001 A 
ATOM     77  C   UNL     1       9.014  14.599  -5.341  1.00  0.00     0.001 A 
ATOM     78  C   UNL     1       7.848  15.218  -5.789  1.00  0.00     0.000 A 
ENDBRANCH  60  73
ENDBRANCH  34  35
ENDBRANCH  27  29
ENDBRANCH  26  27
ENDBRANCH  25  26
ENDBRANCH   1  25
TORSDOF 15
