REMARK SMILES COc1ccccc1[C@@H]1CN(C(=O)CCc2cc(Cl)no2)C[C@H]1C(=O)OCCOCCOC(=O)c1ccc(-c2c3nc(c(-c4ccccc4)c4ccc([nH]4)c(-c4ccccc4)c4nc(c(-c5ccccc5)c5ccc2[nH]5)C=C4)C=C3)cc1
REMARK SMILES IDX 28 1 27 2 26 3 24 4 25 5 23 6 9 7 10 8 11 9 22 10 8 11 3 12
REMARK SMILES IDX 4 13 5 14 7 15 6 16 2 17 1 18 12 19 13 20 14 21 15 22 16 23
REMARK SMILES IDX 17 24 21 25 18 26 20 27 19 28 29 29 30 30 31 31 32 32 33 33
REMARK SMILES IDX 34 34 35 35 36 36 82 37 37 38 81 39 38 40 39 41 40 42 75 43
REMARK SMILES IDX 41 44 80 45 74 46 76 47 42 48 79 49 73 50 72 51 43 53 65 54
REMARK SMILES IDX 50 55 64 56 51 57 54 58 63 59 77 60 52 61 53 62 62 64 78 65
REMARK SMILES IDX 55 66 44 67 45 68 49 69 46 70 48 71 47 72 66 73 67 74 71 75
REMARK SMILES IDX 68 76 70 77 69 78 56 79 57 80 61 81 58 82 60 83 59 84
REMARK H PARENT 76 52 54 63
REMARK Flexibility Score: inf
ROOT
ATOM      1  C   UNL     1       3.609  -4.709   3.320  1.00  0.00     0.202 C 
ENDROOT
BRANCH   1   2
ATOM      2  C   UNL     1       4.255  -4.264   2.009  1.00  0.00     0.261 C 
BRANCH   2   3
ATOM      3  O   UNL     1       4.031  -2.871   1.734  1.00  0.00    -0.463 OA
BRANCH   3   4
ATOM      4  C   UNL     1       3.218  -2.642   0.676  1.00  0.00     0.311 C 
ATOM      5  O   UNL     1       2.788  -3.510  -0.078  1.00  0.00    -0.252 OA
BRANCH   4   6
ATOM      6  C   UNL     1       2.866  -1.194   0.456  1.00  0.00     0.128 C 
ATOM      7  C   UNL     1       3.159  -0.132   1.537  1.00  0.00     0.058 C 
ATOM      8  C   UNL     1       3.762   1.049   0.754  1.00  0.00     0.129 C 
ATOM      9  N   UNL     1       4.128   0.558  -0.555  1.00  0.00    -0.341 N 
ATOM     10  C   UNL     1       3.607  -0.765  -0.798  1.00  0.00     0.135 C 
BRANCH   7  11
ATOM     11  C   UNL     1       2.056   0.431   2.446  1.00  0.00    -0.000 A 
ATOM     12  C   UNL     1       0.665   0.342   2.263  1.00  0.00     0.122 A 
ATOM     13  C   UNL     1      -0.224   0.906   3.194  1.00  0.00     0.047 A 
ATOM     14  C   UNL     1       0.247   1.583   4.317  1.00  0.00     0.004 A 
ATOM     15  C   UNL     1       2.498   1.165   3.575  1.00  0.00     0.008 A 
ATOM     16  C   UNL     1       1.614   1.714   4.508  1.00  0.00     0.001 A 
BRANCH  12  17
ATOM     17  O   UNL     1       0.081  -0.415   1.286  1.00  0.00    -0.496 OA
ATOM     18  C   UNL     1      -0.039   0.270   0.038  1.00  0.00     0.278 C 
ENDBRANCH  12  17
ENDBRANCH   7  11
BRANCH   9  19
ATOM     19  C   UNL     1       4.801   1.215  -1.558  1.00  0.00     0.223 C 
ATOM     20  O   UNL     1       4.966   0.700  -2.666  1.00  0.00    -0.275 OA
BRANCH  19  21
ATOM     21  C   UNL     1       5.323   2.612  -1.298  1.00  0.00     0.108 C 
BRANCH  21  22
ATOM     22  C   UNL     1       4.424   3.660  -1.949  1.00  0.00     0.088 C 
BRANCH  22  23
ATOM     23  C   UNL     1       3.241   3.979  -1.113  1.00  0.00     0.138 A 
ATOM     24  C   UNL     1       1.932   3.558  -1.097  1.00  0.00     0.089 A 
ATOM     25  O   UNL     1       3.447   4.846  -0.083  1.00  0.00    -0.360 OA
ATOM     26  C   UNL     1       1.390   4.194   0.034  1.00  0.00     0.172 A 
ATOM     27  N   UNL     1       2.278   4.975   0.650  1.00  0.00    -0.068 NA
ATOM     28  Cl  UNL     1      -0.175   3.989   0.642  1.00  0.00    -0.058 Cl
ENDBRANCH  22  23
ENDBRANCH  21  22
ENDBRANCH  19  21
ENDBRANCH   9  19
ENDBRANCH   4   6
ENDBRANCH   3   4
ENDBRANCH   2   3
ENDBRANCH   1   2
BRANCH   1  29
ATOM     29  O   UNL     1       2.202  -4.541   3.460  1.00  0.00    -0.374 OA
BRANCH  29  30
ATOM     30  C   UNL     1       1.643  -3.233   3.566  1.00  0.00     0.202 C 
BRANCH  30  31
ATOM     31  C   UNL     1       2.018  -2.402   4.785  1.00  0.00     0.261 C 
BRANCH  31  32
ATOM     32  O   UNL     1       3.382  -1.988   4.743  1.00  0.00    -0.460 OA
BRANCH  32  33
ATOM     33  C   UNL     1       4.168  -2.578   5.673  1.00  0.00     0.338 C 
ATOM     34  O   UNL     1       3.893  -3.534   6.370  1.00  0.00    -0.246 OA
BRANCH  33  35
ATOM     35  C   UNL     1       5.388  -1.783   5.853  1.00  0.00     0.060 A 
ATOM     36  C   UNL     1       6.209  -2.182   6.906  1.00  0.00     0.016 A 
ATOM     37  C   UNL     1       5.511  -0.524   5.252  1.00  0.00     0.016 A 
ATOM     38  C   UNL     1       6.956  -1.220   7.539  1.00  0.00     0.010 A 
ATOM     39  C   UNL     1       6.244   0.445   5.894  1.00  0.00     0.010 A 
ATOM     40  C   UNL     1       6.873   0.101   7.085  1.00  0.00    -0.014 A 
BRANCH  40  41
ATOM     41  C   UNL     1       7.584   1.101   7.846  1.00  0.00     0.031 A 
ATOM     42  C   UNL     1       9.047   0.975   7.683  1.00  0.00     0.074 A 
ATOM     43  C   UNL     1       6.963   2.057   8.559  1.00  0.00     0.049 A 
ATOM     44  N   UNL     1       9.901   0.590   8.568  1.00  0.00    -0.248 NA
ATOM     45  C   UNL     1       9.592   1.087   6.318  1.00  0.00     0.031 C 
ATOM     46  C   UNL     1       5.546   2.425   8.564  1.00  0.00     0.029 A 
ATOM     47  N   UNL     1       7.518   2.997   9.364  1.00  0.00    -0.354 N 
ATOM     48  C   UNL     1      11.131   0.607   7.924  1.00  0.00     0.074 A 
ATOM     49  C   UNL     1      10.855   0.714   6.514  1.00  0.00     0.031 C 
ATOM     50  C   UNL     1       5.414   3.660   9.106  1.00  0.00     0.029 A 
ATOM     51  C   UNL     1       6.712   4.102   9.592  1.00  0.00     0.049 A 
ATOM     52  H   UNL     1       8.417   2.903   9.754  1.00  0.00     0.167 HD
ATOM     53  C   UNL     1      12.279   0.834   8.614  1.00  0.00     0.031 A 
ATOM     54  C   UNL     1       7.128   5.313  10.048  1.00  0.00     0.031 A 
ATOM     55  C   UNL     1      12.106   0.607  10.026  1.00  0.00     0.049 A 
ATOM     56  C   UNL     1       8.468   5.121  10.665  1.00  0.00     0.074 A 
ATOM     57  C   UNL     1      11.715  -0.478  10.788  1.00  0.00     0.029 A 
ATOM     58  N   UNL     1      11.939   1.712  10.829  1.00  0.00    -0.354 N 
ATOM     59  N   UNL     1       8.655   4.453  11.768  1.00  0.00    -0.248 NA
ATOM     60  C   UNL     1       9.634   5.232   9.798  1.00  0.00     0.031 C 
ATOM     61  C   UNL     1      10.877   0.071  11.803  1.00  0.00     0.029 A 
ATOM     62  C   UNL     1      10.876   1.459  11.657  1.00  0.00     0.049 A 
ATOM     63  H   UNL     1      12.483   2.532  10.811  1.00  0.00     0.167 HD
ATOM     64  C   UNL     1       9.791   3.691  11.532  1.00  0.00     0.074 A 
ATOM     65  C   UNL     1      10.393   4.267  10.328  1.00  0.00     0.031 C 
ATOM     66  C   UNL     1       9.979   2.484  12.143  1.00  0.00     0.031 A 
BRANCH  53  67
ATOM     67  C   UNL     1      13.380   1.704   8.065  1.00  0.00    -0.014 A 
ATOM     68  C   UNL     1      14.540   1.884   8.835  1.00  0.00     0.009 A 
ATOM     69  C   UNL     1      13.200   2.580   6.974  1.00  0.00     0.009 A 
ATOM     70  C   UNL     1      15.424   2.937   8.575  1.00  0.00     0.001 A 
ATOM     71  C   UNL     1      14.102   3.604   6.686  1.00  0.00     0.001 A 
ATOM     72  C   UNL     1      15.200   3.801   7.507  1.00  0.00     0.000 A 
ENDBRANCH  53  67
BRANCH  54  73
ATOM     73  C   UNL     1       6.625   6.652   9.657  1.00  0.00    -0.014 A 
ATOM     74  C   UNL     1       6.983   7.802  10.380  1.00  0.00     0.009 A 
ATOM     75  C   UNL     1       6.000   6.841   8.409  1.00  0.00     0.009 A 
ATOM     76  C   UNL     1       6.753   9.085   9.860  1.00  0.00     0.001 A 
ATOM     77  C   UNL     1       5.767   8.120   7.891  1.00  0.00     0.001 A 
ATOM     78  C   UNL     1       6.156   9.243   8.611  1.00  0.00     0.000 A 
ENDBRANCH  54  73
BRANCH  66  79
ATOM     79  C   UNL     1       9.037   2.082  13.252  1.00  0.00    -0.014 A 
ATOM     80  C   UNL     1       7.643   1.974  13.089  1.00  0.00     0.009 A 
ATOM     81  C   UNL     1       9.597   1.648  14.463  1.00  0.00     0.009 A 
ATOM     82  C   UNL     1       6.838   1.479  14.122  1.00  0.00     0.001 A 
ATOM     83  C   UNL     1       8.797   1.134  15.484  1.00  0.00     0.001 A 
ATOM     84  C   UNL     1       7.417   1.057  15.317  1.00  0.00     0.000 A 
ENDBRANCH  66  79
ENDBRANCH  40  41
ENDBRANCH  33  35
ENDBRANCH  32  33
ENDBRANCH  31  32
ENDBRANCH  30  31
ENDBRANCH  29  30
ENDBRANCH   1  29
TORSDOF 20
