REMARK SMILES C[C@@H](C(=O)OCCOCCOC(=O)c1ccc(-c2c3nc(c(-c4ccccc4)c4ccc([nH]4)c(-c4ccccc4)c4nc(c(-c5ccccc5)c5ccc2[nH]5)C=C4)C=C3)cc1)N(C)c1ccc(C(N)=O)nn1
REMARK SMILES IDX 7 1 6 2 5 3 3 4 4 5 2 6 1 7 62 8 63 9 64 10 65 11 72 12
REMARK SMILES IDX 66 13 71 14 67 15 68 16 69 17 70 18 8 21 9 22 10 23 11 24
REMARK SMILES IDX 12 25 13 26 14 27 15 28 61 29 16 30 60 31 17 32 18 33 19 34
REMARK SMILES IDX 54 35 20 36 59 37 53 38 55 39 21 40 58 41 52 42 51 43 22 45
REMARK SMILES IDX 44 46 29 47 43 48 30 49 33 50 42 51 56 52 31 53 32 54 41 56
REMARK SMILES IDX 57 57 34 58 23 59 24 60 28 61 25 62 27 63 26 64 45 65 46 66
REMARK SMILES IDX 50 67 47 68 49 69 48 70 35 71 36 72 40 73 37 74 39 75 38 76
REMARK H PARENT 69 19 69 20 55 44 33 55
REMARK Flexibility Score: inf
ROOT
ATOM      1  C   UNL     1       2.332   1.362   4.306  1.00  0.00     0.202 C 
ENDROOT
BRANCH   1   2
ATOM      2  C   UNL     1       2.099  -0.141   4.135  1.00  0.00     0.261 C 
BRANCH   2   3
ATOM      3  O   UNL     1       1.829  -0.440   2.752  1.00  0.00    -0.462 OA
BRANCH   3   4
ATOM      4  C   UNL     1       0.721  -1.194   2.503  1.00  0.00     0.328 C 
ATOM      5  O   UNL     1       0.074  -1.768   3.372  1.00  0.00    -0.250 OA
BRANCH   4   6
ATOM      6  C   UNL     1       0.406  -1.285   0.991  1.00  0.00     0.190 C 
ATOM      7  C   UNL     1       1.316  -0.448   0.090  1.00  0.00     0.044 C 
BRANCH   6   8
ATOM      8  N   UNL     1      -1.045  -1.090   0.689  1.00  0.00    -0.345 N 
ATOM      9  C   UNL     1      -1.915  -2.203   1.086  1.00  0.00     0.146 C 
BRANCH   8  10
ATOM     10  C   UNL     1      -1.647   0.156   0.889  1.00  0.00     0.151 A 
ATOM     11  C   UNL     1      -1.406   1.213   0.016  1.00  0.00     0.051 A 
ATOM     12  N   UNL     1      -2.548   0.336   1.883  1.00  0.00    -0.132 NA
ATOM     13  C   UNL     1      -2.066   2.435   0.179  1.00  0.00     0.040 A 
ATOM     14  N   UNL     1      -3.214   1.537   2.061  1.00  0.00    -0.143 NA
ATOM     15  C   UNL     1      -2.969   2.558   1.216  1.00  0.00     0.150 A 
BRANCH  15  16
ATOM     16  C   UNL     1      -3.709   3.830   1.447  1.00  0.00     0.269 C 
ATOM     17  N   UNL     1      -4.644   3.820   2.448  1.00  0.00    -0.364 N 
ATOM     18  O   UNL     1      -3.495   4.833   0.778  1.00  0.00    -0.268 OA
ATOM     19  H   UNL     1      -4.797   3.000   2.971  1.00  0.00     0.160 HD
ATOM     20  H   UNL     1      -5.163   4.633   2.644  1.00  0.00     0.160 HD
ENDBRANCH  15  16
ENDBRANCH   8  10
ENDBRANCH   6   8
ENDBRANCH   4   6
ENDBRANCH   3   4
ENDBRANCH   2   3
ENDBRANCH   1   2
BRANCH   1  21
ATOM     21  O   UNL     1       1.163   2.180   4.227  1.00  0.00    -0.374 OA
BRANCH  21  22
ATOM     22  C   UNL     1       0.578   2.355   2.938  1.00  0.00     0.202 C 
BRANCH  22  23
ATOM     23  C   UNL     1       1.199   3.450   2.064  1.00  0.00     0.261 C 
BRANCH  23  24
ATOM     24  O   UNL     1       2.600   3.231   1.832  1.00  0.00    -0.460 OA
BRANCH  24  25
ATOM     25  C   UNL     1       3.411   4.071   2.514  1.00  0.00     0.338 C 
ATOM     26  O   UNL     1       3.082   5.034   3.197  1.00  0.00    -0.246 OA
BRANCH  25  27
ATOM     27  C   UNL     1       4.801   3.588   2.472  1.00  0.00     0.060 A 
ATOM     28  C   UNL     1       5.478   3.485   3.694  1.00  0.00     0.016 A 
ATOM     29  C   UNL     1       5.458   3.318   1.269  1.00  0.00     0.016 A 
ATOM     30  C   UNL     1       6.833   3.172   3.715  1.00  0.00     0.010 A 
ATOM     31  C   UNL     1       6.823   3.009   1.292  1.00  0.00     0.010 A 
ATOM     32  C   UNL     1       7.523   2.975   2.512  1.00  0.00    -0.014 A 
BRANCH  32  33
ATOM     33  C   UNL     1       9.002   2.892   2.535  1.00  0.00     0.031 A 
ATOM     34  C   UNL     1       9.805   4.126   2.227  1.00  0.00     0.074 A 
ATOM     35  C   UNL     1       9.621   1.750   2.879  1.00  0.00     0.049 A 
ATOM     36  N   UNL     1      11.104   4.286   2.209  1.00  0.00    -0.248 NA
ATOM     37  C   UNL     1       9.043   5.342   1.898  1.00  0.00     0.031 C 
ATOM     38  C   UNL     1       8.953   0.502   3.246  1.00  0.00     0.029 A 
ATOM     39  N   UNL     1      10.958   1.461   2.981  1.00  0.00    -0.354 N 
ATOM     40  C   UNL     1      11.314   5.616   1.863  1.00  0.00     0.074 A 
ATOM     41  C   UNL     1      10.012   6.211   1.652  1.00  0.00     0.031 C 
ATOM     42  C   UNL     1       9.886  -0.421   3.536  1.00  0.00     0.029 A 
ATOM     43  C   UNL     1      11.213   0.163   3.347  1.00  0.00     0.049 A 
ATOM     44  H   UNL     1      11.667   2.122   2.809  1.00  0.00     0.167 HD
ATOM     45  C   UNL     1      12.485   6.284   1.739  1.00  0.00     0.031 A 
ATOM     46  C   UNL     1      12.384  -0.484   3.500  1.00  0.00     0.031 A 
ATOM     47  C   UNL     1      13.780   5.692   1.940  1.00  0.00     0.049 A 
ATOM     48  C   UNL     1      13.673   0.262   3.281  1.00  0.00     0.074 A 
ATOM     49  C   UNL     1      15.025   6.291   1.854  1.00  0.00     0.029 A 
ATOM     50  N   UNL     1      13.995   4.361   2.259  1.00  0.00    -0.354 N 
ATOM     51  N   UNL     1      13.857   1.525   2.981  1.00  0.00    -0.248 NA
ATOM     52  C   UNL     1      14.916  -0.509   3.429  1.00  0.00     0.031 C 
ATOM     53  C   UNL     1      15.996   5.308   2.070  1.00  0.00     0.029 A 
ATOM     54  C   UNL     1      15.354   4.111   2.344  1.00  0.00     0.049 A 
ATOM     55  H   UNL     1      13.288   3.692   2.404  1.00  0.00     0.167 HD
ATOM     56  C   UNL     1      15.234   1.706   2.932  1.00  0.00     0.074 A 
ATOM     57  C   UNL     1      15.837   0.427   3.245  1.00  0.00     0.031 C 
ATOM     58  C   UNL     1      15.937   2.832   2.655  1.00  0.00     0.031 A 
BRANCH  45  59
ATOM     59  C   UNL     1      12.415   7.729   1.333  1.00  0.00    -0.014 A 
ATOM     60  C   UNL     1      11.970   8.718   2.224  1.00  0.00     0.009 A 
ATOM     61  C   UNL     1      12.829   8.109   0.047  1.00  0.00     0.009 A 
ATOM     62  C   UNL     1      11.911  10.055   1.823  1.00  0.00     0.001 A 
ATOM     63  C   UNL     1      12.794   9.449  -0.343  1.00  0.00     0.001 A 
ATOM     64  C   UNL     1      12.326  10.419   0.542  1.00  0.00     0.000 A 
ENDBRANCH  45  59
BRANCH  46  65
ATOM     65  C   UNL     1      12.398  -1.924   3.865  1.00  0.00    -0.014 A 
ATOM     66  C   UNL     1      12.843  -2.338   5.130  1.00  0.00     0.009 A 
ATOM     67  C   UNL     1      11.982  -2.894   2.940  1.00  0.00     0.009 A 
ATOM     68  C   UNL     1      12.893  -3.697   5.451  1.00  0.00     0.001 A 
ATOM     69  C   UNL     1      12.008  -4.250   3.274  1.00  0.00     0.001 A 
ATOM     70  C   UNL     1      12.471  -4.650   4.526  1.00  0.00     0.000 A 
ENDBRANCH  46  65
BRANCH  58  71
ATOM     71  C   UNL     1      17.435   2.739   2.711  1.00  0.00    -0.014 A 
ATOM     72  C   UNL     1      18.162   2.078   1.710  1.00  0.00     0.009 A 
ATOM     73  C   UNL     1      18.131   3.359   3.761  1.00  0.00     0.009 A 
ATOM     74  C   UNL     1      19.556   2.014   1.776  1.00  0.00     0.001 A 
ATOM     75  C   UNL     1      19.524   3.317   3.810  1.00  0.00     0.001 A 
ATOM     76  C   UNL     1      20.235   2.637   2.823  1.00  0.00     0.000 A 
ENDBRANCH  58  71
ENDBRANCH  32  33
ENDBRANCH  25  27
ENDBRANCH  24  25
ENDBRANCH  23  24
ENDBRANCH  22  23
ENDBRANCH  21  22
ENDBRANCH   1  21
TORSDOF 17
