REMARK SMILES CCCO[C@@H]1CCC[C@]([NH3+])(C(=O)OCCOCCOC(=O)c2ccc(-c3c4nc(c(-c5ccccc5)c5ccc([nH]5)c(-c5ccccc5)c5nc(c(-c6ccccc6)c6ccc3[nH]6)C=C5)C=C4)cc2)C1
REMARK SMILES IDX 15 1 14 2 13 3 11 4 12 5 9 6 5 7 6 8 70 9 7 10 8 11 4 12
REMARK SMILES IDX 3 13 2 14 1 15 10 16 16 20 17 21 18 22 19 23 20 24 21 25
REMARK SMILES IDX 22 26 23 27 69 28 24 29 68 30 25 31 26 32 27 33 62 34 28 35
REMARK SMILES IDX 67 36 61 37 63 38 29 39 66 40 60 41 59 42 30 44 52 45 37 46
REMARK SMILES IDX 51 47 38 48 41 49 50 50 64 51 39 52 40 53 49 55 65 56 42 57
REMARK SMILES IDX 31 58 32 59 36 60 33 61 35 62 34 63 53 64 54 65 58 66 55 67
REMARK SMILES IDX 57 68 56 69 43 70 44 71 48 72 45 73 47 74 46 75
REMARK H PARENT 10 17 10 18 10 19 63 43 41 54
REMARK Flexibility Score: inf
ROOT
ATOM      1  C   UNL     1      -0.774  -2.876   3.247  1.00  0.00     0.202 C 
ENDROOT
BRANCH   1   2
ATOM      2  C   UNL     1       0.737  -2.948   3.006  1.00  0.00     0.261 C 
BRANCH   2   3
ATOM      3  O   UNL     1       1.056  -2.459   1.692  1.00  0.00    -0.459 OA
BRANCH   3   4
ATOM      4  C   UNL     1       1.694  -3.319   0.852  1.00  0.00     0.368 C 
ATOM      5  O   UNL     1       2.133  -4.417   1.176  1.00  0.00    -0.245 OA
BRANCH   4   6
ATOM      6  C   UNL     1       1.854  -2.736  -0.583  1.00  0.00     0.195 C 
ATOM      7  C   UNL     1       1.217  -0.810  -2.168  1.00  0.00     0.125 C 
ATOM      8  C   UNL     1       0.589  -1.821  -3.133  1.00  0.00     0.032 C 
ATOM      9  C   UNL     1       1.222  -1.348  -0.738  1.00  0.00     0.113 C 
ATOM     10  C   UNL     1       1.224  -3.202  -3.021  1.00  0.00     0.010 C 
ATOM     11  C   UNL     1       1.204  -3.716  -1.580  1.00  0.00     0.081 C 
BRANCH   7  12
ATOM     12  O   UNL     1       0.420   0.381  -2.216  1.00  0.00    -0.378 OA
BRANCH  12  13
ATOM     13  C   UNL     1       1.076   1.557  -1.739  1.00  0.00     0.160 C 
BRANCH  13  14
ATOM     14  C   UNL     1       0.388   2.109  -0.487  1.00  0.00     0.025 C 
ATOM     15  C   UNL     1       1.073   1.725   0.820  1.00  0.00     0.006 C 
ENDBRANCH  13  14
ENDBRANCH  12  13
ENDBRANCH   7  12
BRANCH   6  16
ATOM     16  N   UNL     1       3.309  -2.628  -0.868  1.00  0.00    -0.343 N 
ATOM     17  H   UNL     1       3.445  -2.248  -1.804  1.00  0.00     0.345 HD
ATOM     18  H   UNL     1       3.736  -3.553  -0.811  1.00  0.00     0.345 HD
ATOM     19  H   UNL     1       3.745  -2.010  -0.183  1.00  0.00     0.345 HD
ENDBRANCH   6  16
ENDBRANCH   4   6
ENDBRANCH   3   4
ENDBRANCH   2   3
ENDBRANCH   1   2
BRANCH   1  20
ATOM     20  O   UNL     1      -1.550  -3.784   2.463  1.00  0.00    -0.374 OA
BRANCH  20  21
ATOM     21  C   UNL     1      -1.839  -3.381   1.124  1.00  0.00     0.202 C 
BRANCH  21  22
ATOM     22  C   UNL     1      -3.053  -2.460   0.957  1.00  0.00     0.261 C 
BRANCH  22  23
ATOM     23  O   UNL     1      -2.880  -1.207   1.642  1.00  0.00    -0.460 OA
BRANCH  23  24
ATOM     24  C   UNL     1      -3.637  -1.070   2.757  1.00  0.00     0.338 C 
ATOM     25  O   UNL     1      -4.481  -1.843   3.177  1.00  0.00    -0.246 OA
BRANCH  24  26
ATOM     26  C   UNL     1      -3.210   0.114   3.529  1.00  0.00     0.060 A 
ATOM     27  C   UNL     1      -3.001  -0.066   4.901  1.00  0.00     0.016 A 
ATOM     28  C   UNL     1      -3.107   1.385   2.957  1.00  0.00     0.016 A 
ATOM     29  C   UNL     1      -2.744   1.033   5.717  1.00  0.00     0.010 A 
ATOM     30  C   UNL     1      -2.854   2.489   3.781  1.00  0.00     0.010 A 
ATOM     31  C   UNL     1      -2.707   2.322   5.170  1.00  0.00    -0.014 A 
BRANCH  31  32
ATOM     32  C   UNL     1      -2.631   3.489   6.084  1.00  0.00     0.031 A 
ATOM     33  C   UNL     1      -3.890   4.229   6.448  1.00  0.00     0.074 A 
ATOM     34  C   UNL     1      -1.459   3.842   6.641  1.00  0.00     0.049 A 
ATOM     35  N   UNL     1      -4.048   5.236   7.271  1.00  0.00    -0.248 NA
ATOM     36  C   UNL     1      -5.134   3.772   5.809  1.00  0.00     0.031 C 
ATOM     37  C   UNL     1      -0.175   3.184   6.402  1.00  0.00     0.029 A 
ATOM     38  N   UNL     1      -1.165   4.841   7.536  1.00  0.00    -0.354 N 
ATOM     39  C   UNL     1      -5.407   5.528   7.253  1.00  0.00     0.074 A 
ATOM     40  C   UNL     1      -6.023   4.615   6.314  1.00  0.00     0.031 C 
ATOM     41  C   UNL     1       0.771   3.795   7.137  1.00  0.00     0.029 A 
ATOM     42  C   UNL     1       0.164   4.898   7.878  1.00  0.00     0.049 A 
ATOM     43  H   UNL     1      -1.842   5.457   7.898  1.00  0.00     0.167 HD
ATOM     44  C   UNL     1      -6.084   6.462   7.962  1.00  0.00     0.031 A 
ATOM     45  C   UNL     1       0.818   5.750   8.690  1.00  0.00     0.031 A 
ATOM     46  C   UNL     1      -5.477   7.383   8.886  1.00  0.00     0.049 A 
ATOM     47  C   UNL     1       0.052   6.827   9.409  1.00  0.00     0.074 A 
ATOM     48  C   UNL     1      -6.085   8.364   9.652  1.00  0.00     0.029 A 
ATOM     49  N   UNL     1      -4.122   7.442   9.165  1.00  0.00    -0.354 N 
ATOM     50  N   UNL     1      -1.236   7.072   9.402  1.00  0.00    -0.248 NA
ATOM     51  C   UNL     1       0.833   7.739  10.258  1.00  0.00     0.031 C 
ATOM     52  C   UNL     1      -5.090   9.047  10.360  1.00  0.00     0.029 A 
ATOM     53  C   UNL     1      -3.870   8.457  10.073  1.00  0.00     0.049 A 
ATOM     54  H   UNL     1      -3.438   6.850   8.775  1.00  0.00     0.167 HD
ATOM     55  C   UNL     1      -1.421   8.149  10.260  1.00  0.00     0.074 A 
ATOM     56  C   UNL     1      -0.118   8.496  10.787  1.00  0.00     0.031 C 
ATOM     57  C   UNL     1      -2.568   8.795  10.583  1.00  0.00     0.031 A 
BRANCH  44  58
ATOM     58  C   UNL     1      -7.569   6.550   7.752  1.00  0.00    -0.014 A 
ATOM     59  C   UNL     1      -8.435   5.583   8.287  1.00  0.00     0.009 A 
ATOM     60  C   UNL     1      -8.113   7.641   7.056  1.00  0.00     0.009 A 
ATOM     61  C   UNL     1      -9.816   5.696   8.109  1.00  0.00     0.001 A 
ATOM     62  C   UNL     1      -9.495   7.763   6.900  1.00  0.00     0.001 A 
ATOM     63  C   UNL     1     -10.344   6.788   7.421  1.00  0.00     0.000 A 
ENDBRANCH  44  58
BRANCH  45  64
ATOM     64  C   UNL     1       2.291   5.640   8.859  1.00  0.00    -0.014 A 
ATOM     65  C   UNL     1       2.845   5.230  10.081  1.00  0.00     0.009 A 
ATOM     66  C   UNL     1       3.150   5.987   7.805  1.00  0.00     0.009 A 
ATOM     67  C   UNL     1       4.232   5.201  10.253  1.00  0.00     0.001 A 
ATOM     68  C   UNL     1       4.535   5.929   7.971  1.00  0.00     0.001 A 
ATOM     69  C   UNL     1       5.074   5.548   9.198  1.00  0.00     0.000 A 
ENDBRANCH  45  64
BRANCH  57  70
ATOM     70  C   UNL     1      -2.462   9.924  11.569  1.00  0.00    -0.014 A 
ATOM     71  C   UNL     1      -1.885  11.152  11.210  1.00  0.00     0.009 A 
ATOM     72  C   UNL     1      -2.965   9.763  12.870  1.00  0.00     0.009 A 
ATOM     73  C   UNL     1      -1.777  12.182  12.146  1.00  0.00     0.001 A 
ATOM     74  C   UNL     1      -2.880  10.803  13.796  1.00  0.00     0.001 A 
ATOM     75  C   UNL     1      -2.276  12.008  13.437  1.00  0.00     0.000 A 
ENDBRANCH  57  70
ENDBRANCH  31  32
ENDBRANCH  24  26
ENDBRANCH  23  24
ENDBRANCH  22  23
ENDBRANCH  21  22
ENDBRANCH  20  21
ENDBRANCH   1  20
TORSDOF 18
