REMARK SMILES C#Cc1cc(Cl)c2c(c1)C=C(C(=O)OCCOCCOC(=O)c1ccc(-c3c4nc(c(-c5ccccc5)c5ccc([nH]5)c(-c5ccccc5)c5nc(c(-c6ccccc6)c6ccc3[nH]6)C=C5)C=C4)cc1)[C@@H](C(F)(F)F)O2
REMARK SMILES IDX 18 1 17 2 16 3 15 4 14 5 12 6 13 7 11 8 3 9 4 10 9 11 5 12
REMARK SMILES IDX 8 13 6 14 7 15 10 16 76 17 71 18 2 19 1 20 72 21 73 22 74 23
REMARK SMILES IDX 75 24 19 25 20 26 21 27 22 28 23 29 24 30 70 31 25 32 69 33
REMARK SMILES IDX 26 34 27 35 28 36 63 37 29 38 68 39 62 40 64 41 30 42 67 43
REMARK SMILES IDX 61 44 60 45 31 47 53 48 38 49 52 50 39 51 42 52 51 53 65 54
REMARK SMILES IDX 40 55 41 56 50 58 66 59 43 60 32 61 33 62 37 63 34 64 36 65
REMARK SMILES IDX 35 66 54 67 55 68 59 69 56 70 58 71 57 72 44 73 45 74 49 75
REMARK SMILES IDX 46 76 48 77 47 78
REMARK H PARENT 64 46 42 57
REMARK Flexibility Score: inf
ROOT
ATOM      1  C   UNL     1      -6.265   5.004   2.064  1.00  0.00     0.202 C 
ENDROOT
BRANCH   1   2
ATOM      2  O   UNL     1      -6.851   6.104   1.373  1.00  0.00    -0.374 OA
BRANCH   2   3
ATOM      3  C   UNL     1      -8.120   5.939   0.752  1.00  0.00     0.202 C 
BRANCH   3   4
ATOM      4  C   UNL     1      -8.232   5.074  -0.507  1.00  0.00     0.261 C 
BRANCH   4   5
ATOM      5  O   UNL     1      -7.658   3.773  -0.333  1.00  0.00    -0.460 OA
BRANCH   5   6
ATOM      6  C   UNL     1      -6.473   3.607  -0.967  1.00  0.00     0.338 C 
ATOM      7  O   UNL     1      -5.920   4.404  -1.707  1.00  0.00    -0.246 OA
BRANCH   6   8
ATOM      8  C   UNL     1      -5.847   2.347  -0.525  1.00  0.00     0.087 C 
ATOM      9  C   UNL     1      -1.750  -0.064   0.137  1.00  0.00     0.027 A 
ATOM     10  C   UNL     1      -2.461  -1.261   0.216  1.00  0.00     0.041 A 
ATOM     11  C   UNL     1      -2.436   1.145   0.016  1.00  0.00     0.029 A 
ATOM     12  C   UNL     1      -3.859  -1.243   0.195  1.00  0.00     0.084 A 
ATOM     13  C   UNL     1      -3.834   1.157  -0.049  1.00  0.00     0.020 A 
ATOM     14  Cl  UNL     1      -4.697  -2.751   0.286  1.00  0.00    -0.080 Cl
ATOM     15  C   UNL     1      -4.556  -0.035   0.064  1.00  0.00     0.146 A 
ATOM     16  C   UNL     1      -4.525   2.401  -0.325  1.00  0.00     0.027 C 
ATOM     17  O   UNL     1      -5.924  -0.071   0.060  1.00  0.00    -0.474 OA
ATOM     18  C   UNL     1      -6.672   1.103  -0.359  1.00  0.00     0.316 C 
BRANCH   9  19
ATOM     19  C   UNL     1      -0.322  -0.069   0.138  1.00  0.00    -0.070 C 
ATOM     20  C   UNL     1       0.881  -0.058   0.120  1.00  0.00     0.010 C 
ENDBRANCH   9  19
BRANCH  18  21
ATOM     21  C   UNL     1      -7.468   0.752  -1.625  1.00  0.00     0.430 C 
ATOM     22  F   UNL     1      -8.148  -0.409  -1.473  1.00  0.00    -0.167 F 
ATOM     23  F   UNL     1      -8.388   1.701  -1.919  1.00  0.00    -0.167 F 
ATOM     24  F   UNL     1      -6.665   0.618  -2.704  1.00  0.00    -0.167 F 
ENDBRANCH  18  21
ENDBRANCH   6   8
ENDBRANCH   5   6
ENDBRANCH   4   5
ENDBRANCH   3   4
ENDBRANCH   2   3
ENDBRANCH   1   2
BRANCH   1  25
ATOM     25  C   UNL     1      -6.928   4.448   3.333  1.00  0.00     0.261 C 
BRANCH  25  26
ATOM     26  O   UNL     1      -8.285   4.015   3.146  1.00  0.00    -0.460 OA
BRANCH  26  27
ATOM     27  C   UNL     1      -9.211   4.835   3.705  1.00  0.00     0.338 C 
ATOM     28  O   UNL     1      -9.013   5.860   4.334  1.00  0.00    -0.246 OA
BRANCH  27  29
ATOM     29  C   UNL     1     -10.558   4.415   3.288  1.00  0.00     0.060 A 
ATOM     30  C   UNL     1     -11.316   5.302   2.510  1.00  0.00     0.016 A 
ATOM     31  C   UNL     1     -11.104   3.215   3.740  1.00  0.00     0.016 A 
ATOM     32  C   UNL     1     -12.640   5.003   2.206  1.00  0.00     0.010 A 
ATOM     33  C   UNL     1     -12.438   2.924   3.445  1.00  0.00     0.010 A 
ATOM     34  C   UNL     1     -13.220   3.831   2.706  1.00  0.00    -0.014 A 
BRANCH  34  35
ATOM     35  C   UNL     1     -14.682   3.628   2.577  1.00  0.00     0.031 A 
ATOM     36  C   UNL     1     -15.560   3.868   3.774  1.00  0.00     0.074 A 
ATOM     37  C   UNL     1     -15.223   3.273   1.398  1.00  0.00     0.049 A 
ATOM     38  N   UNL     1     -16.854   3.714   3.894  1.00  0.00    -0.248 NA
ATOM     39  C   UNL     1     -14.895   4.345   4.999  1.00  0.00     0.031 C 
ATOM     40  C   UNL     1     -14.482   3.071   0.154  1.00  0.00     0.029 A 
ATOM     41  N   UNL     1     -16.529   3.023   1.057  1.00  0.00    -0.354 N 
ATOM     42  C   UNL     1     -17.155   4.069   5.203  1.00  0.00     0.074 A 
ATOM     43  C   UNL     1     -15.909   4.410   5.851  1.00  0.00     0.031 C 
ATOM     44  C   UNL     1     -15.346   2.733  -0.818  1.00  0.00     0.029 A 
ATOM     45  C   UNL     1     -16.692   2.650  -0.255  1.00  0.00     0.049 A 
ATOM     46  H   UNL     1     -17.276   3.103   1.692  1.00  0.00     0.167 HD
ATOM     47  C   UNL     1     -18.366   4.119   5.805  1.00  0.00     0.031 A 
ATOM     48  C   UNL     1     -17.800   2.267  -0.920  1.00  0.00     0.031 A 
ATOM     49  C   UNL     1     -19.604   3.778   5.157  1.00  0.00     0.049 A 
ATOM     50  C   UNL     1     -19.119   2.234  -0.195  1.00  0.00     0.074 A 
ATOM     51  C   UNL     1     -20.883   3.805   5.685  1.00  0.00     0.029 A 
ATOM     52  N   UNL     1     -19.720   3.349   3.845  1.00  0.00    -0.354 N 
ATOM     53  N   UNL     1     -19.395   2.589   1.038  1.00  0.00    -0.248 NA
ATOM     54  C   UNL     1     -20.283   1.754  -0.954  1.00  0.00     0.031 C 
ATOM     55  C   UNL     1     -21.764   3.325   4.715  1.00  0.00     0.029 A 
ATOM     56  C   UNL     1     -21.046   3.075   3.557  1.00  0.00     0.049 A 
ATOM     57  H   UNL     1     -18.971   3.253   3.213  1.00  0.00     0.167 HD
ATOM     58  C   UNL     1     -20.764   2.404   1.190  1.00  0.00     0.074 A 
ATOM     59  C   UNL     1     -21.266   1.926  -0.081  1.00  0.00     0.031 C 
ATOM     60  C   UNL     1     -21.535   2.607   2.286  1.00  0.00     0.031 A 
BRANCH  47  61
ATOM     61  C   UNL     1     -18.424   4.549   7.244  1.00  0.00    -0.014 A 
ATOM     62  C   UNL     1     -18.201   5.884   7.613  1.00  0.00     0.009 A 
ATOM     63  C   UNL     1     -18.810   3.627   8.231  1.00  0.00     0.009 A 
ATOM     64  C   UNL     1     -18.355   6.285   8.941  1.00  0.00     0.001 A 
ATOM     65  C   UNL     1     -18.992   4.037   9.552  1.00  0.00     0.001 A 
ATOM     66  C   UNL     1     -18.762   5.365   9.907  1.00  0.00     0.000 A 
ENDBRANCH  47  61
BRANCH  48  67
ATOM     67  C   UNL     1     -17.711   1.871  -2.352  1.00  0.00    -0.014 A 
ATOM     68  C   UNL     1     -18.344   2.634  -3.345  1.00  0.00     0.009 A 
ATOM     69  C   UNL     1     -17.005   0.719  -2.734  1.00  0.00     0.009 A 
ATOM     70  C   UNL     1     -18.293   2.239  -4.684  1.00  0.00     0.001 A 
ATOM     71  C   UNL     1     -16.924   0.346  -4.077  1.00  0.00     0.001 A 
ATOM     72  C   UNL     1     -17.577   1.100  -5.050  1.00  0.00     0.000 A 
ENDBRANCH  48  67
BRANCH  60  73
ATOM     73  C   UNL     1     -23.012   2.347   2.165  1.00  0.00    -0.014 A 
ATOM     74  C   UNL     1     -23.515   1.042   2.047  1.00  0.00     0.009 A 
ATOM     75  C   UNL     1     -23.918   3.417   2.261  1.00  0.00     0.009 A 
ATOM     76  C   UNL     1     -24.892   0.817   2.003  1.00  0.00     0.001 A 
ATOM     77  C   UNL     1     -25.294   3.185   2.254  1.00  0.00     0.001 A 
ATOM     78  C   UNL     1     -25.780   1.887   2.117  1.00  0.00     0.000 A 
ENDBRANCH  60  73
ENDBRANCH  34  35
ENDBRANCH  27  29
ENDBRANCH  26  27
ENDBRANCH  25  26
ENDBRANCH   1  25
TORSDOF 16
