REMARK SMILES Cc1nsc(NC(=O)c2ccc(N)cc2)c1C(=O)OCCOCCOC(=O)c1ccc(-c2c3nc(c(-c4ccccc4)c4ccc([nH]4)c(-c4ccccc4)c4nc(c(-c5ccccc5)c5ccc2[nH]5)C=C4)C=C3)cc1
REMARK SMILES IDX 21 1 20 2 19 3 17 4 18 5 16 6 1 7 2 8 3 9 4 10 5 11 6 12
REMARK SMILES IDX 7 13 8 15 9 16 10 17 15 18 11 19 14 20 12 21 13 22 22 25
REMARK SMILES IDX 23 26 24 27 25 28 26 29 27 30 28 31 29 32 75 33 30 34 74 35
REMARK SMILES IDX 31 36 32 37 33 38 68 39 34 40 73 41 67 42 69 43 35 44 72 45
REMARK SMILES IDX 66 46 65 47 36 49 58 50 43 51 57 52 44 53 47 54 56 55 70 56
REMARK SMILES IDX 45 57 46 58 55 60 71 61 48 62 37 63 38 64 42 65 39 66 41 67
REMARK SMILES IDX 40 68 59 69 60 70 64 71 61 72 63 73 62 74 49 75 50 76 54 77
REMARK SMILES IDX 51 78 53 79 52 80
REMARK H PARENT 6 14 13 23 13 24 69 48 47 59
REMARK Flexibility Score: inf
ROOT
ATOM      1  C   UNL     1      -0.612   4.703   1.127  1.00  0.00     0.202 C 
ENDROOT
BRANCH   1   2
ATOM      2  C   UNL     1       0.796   4.108   1.256  1.00  0.00     0.261 C 
BRANCH   2   3
ATOM      3  O   UNL     1       0.774   2.671   1.183  1.00  0.00    -0.460 OA
BRANCH   3   4
ATOM      4  C   UNL     1       1.011   2.017   2.358  1.00  0.00     0.343 C 
ATOM      5  O   UNL     1       1.399   2.550   3.384  1.00  0.00    -0.246 OA
BRANCH   4   6
ATOM      6  C   UNL     1       0.509   0.650   2.327  1.00  0.00     0.117 A 
ATOM      7  C   UNL     1       1.087  -0.043  -0.134  1.00  0.00     0.069 C 
ATOM      8  C   UNL     1       0.492  -0.266   1.215  1.00  0.00     0.068 A 
ATOM      9  N   UNL     1      -0.127  -1.428   1.429  1.00  0.00    -0.195 NA
ATOM     10  S   UNL     1      -0.762  -1.427   2.951  1.00  0.00    -0.017 S 
ATOM     11  C   UNL     1      -0.140   0.085   3.419  1.00  0.00     0.131 A 
BRANCH  11  12
ATOM     12  N   UNL     1      -0.423   0.689   4.636  1.00  0.00    -0.312 N 
ATOM     13  C   UNL     1      -1.016   0.199   5.777  1.00  0.00     0.256 C 
ATOM     14  H   UNL     1      -0.151   1.634   4.693  1.00  0.00     0.171 HD
ATOM     15  O   UNL     1      -1.567   0.975   6.557  1.00  0.00    -0.269 OA
BRANCH  13  16
ATOM     16  C   UNL     1      -0.933  -1.229   6.145  1.00  0.00     0.040 A 
ATOM     17  C   UNL     1       0.262  -1.937   5.993  1.00  0.00     0.016 A 
ATOM     18  C   UNL     1      -2.056  -1.859   6.685  1.00  0.00     0.016 A 
ATOM     19  C   UNL     1       0.294  -3.305   6.266  1.00  0.00     0.026 A 
ATOM     20  C   UNL     1      -2.005  -3.225   6.979  1.00  0.00     0.026 A 
ATOM     21  C   UNL     1      -0.838  -3.961   6.755  1.00  0.00     0.031 A 
BRANCH  21  22
ATOM     22  N   UNL     1      -0.822  -5.329   6.947  1.00  0.00    -0.399 N 
ATOM     23  H   UNL     1       0.005  -5.839   6.786  1.00  0.00     0.156 HD
ATOM     24  H   UNL     1      -1.637  -5.794   7.244  1.00  0.00     0.156 HD
ENDBRANCH  21  22
ENDBRANCH  13  16
ENDBRANCH  11  12
ENDBRANCH   4   6
ENDBRANCH   3   4
ENDBRANCH   2   3
ENDBRANCH   1   2
BRANCH   1  25
ATOM     25  O   UNL     1      -1.510   4.511   2.219  1.00  0.00    -0.374 OA
BRANCH  25  26
ATOM     26  C   UNL     1      -2.086   3.232   2.446  1.00  0.00     0.202 C 
BRANCH  26  27
ATOM     27  C   UNL     1      -3.127   2.714   1.466  1.00  0.00     0.261 C 
BRANCH  27  28
ATOM     28  O   UNL     1      -2.611   2.564   0.151  1.00  0.00    -0.460 OA
BRANCH  28  29
ATOM     29  C   UNL     1      -3.037   3.522  -0.707  1.00  0.00     0.338 C 
ATOM     30  O   UNL     1      -3.451   4.630  -0.426  1.00  0.00    -0.246 OA
BRANCH  29  31
ATOM     31  C   UNL     1      -3.109   2.941  -2.053  1.00  0.00     0.060 A 
ATOM     32  C   UNL     1      -3.620   3.765  -3.056  1.00  0.00     0.016 A 
ATOM     33  C   UNL     1      -2.942   1.560  -2.240  1.00  0.00     0.016 A 
ATOM     34  C   UNL     1      -4.153   3.169  -4.177  1.00  0.00     0.010 A 
ATOM     35  C   UNL     1      -3.478   0.966  -3.360  1.00  0.00     0.010 A 
ATOM     36  C   UNL     1      -4.150   1.769  -4.274  1.00  0.00    -0.014 A 
BRANCH  36  37
ATOM     37  C   UNL     1      -4.754   1.176  -5.446  1.00  0.00     0.031 A 
ATOM     38  C   UNL     1      -3.994   1.482  -6.675  1.00  0.00     0.074 A 
ATOM     39  C   UNL     1      -5.854   0.402  -5.427  1.00  0.00     0.049 A 
ATOM     40  N   UNL     1      -4.332   2.321  -7.593  1.00  0.00    -0.248 NA
ATOM     41  C   UNL     1      -2.625   0.961  -6.799  1.00  0.00     0.031 C 
ATOM     42  C   UNL     1      -6.561  -0.171  -4.280  1.00  0.00     0.029 A 
ATOM     43  N   UNL     1      -6.536  -0.107  -6.487  1.00  0.00    -0.354 N 
ATOM     44  C   UNL     1      -3.306   2.292  -8.523  1.00  0.00     0.074 A 
ATOM     45  C   UNL     1      -2.214   1.581  -7.906  1.00  0.00     0.031 C 
ATOM     46  C   UNL     1      -7.417  -1.128  -4.716  1.00  0.00     0.029 A 
ATOM     47  C   UNL     1      -7.426  -1.124  -6.170  1.00  0.00     0.049 A 
ATOM     48  H   UNL     1      -6.409   0.220  -7.407  1.00  0.00     0.167 HD
ATOM     49  C   UNL     1      -3.536   2.629  -9.819  1.00  0.00     0.031 A 
ATOM     50  C   UNL     1      -8.082  -1.920  -7.053  1.00  0.00     0.031 A 
ATOM     51  C   UNL     1      -4.784   3.332  -9.973  1.00  0.00     0.049 A 
ATOM     52  C   UNL     1      -8.104  -1.212  -8.355  1.00  0.00     0.074 A 
ATOM     53  C   UNL     1      -5.293   4.529  -9.510  1.00  0.00     0.029 A 
ATOM     54  N   UNL     1      -5.867   2.583 -10.369  1.00  0.00    -0.354 N 
ATOM     55  N   UNL     1      -8.786  -0.123  -8.560  1.00  0.00    -0.248 NA
ATOM     56  C   UNL     1      -7.010  -1.448  -9.284  1.00  0.00     0.031 C 
ATOM     57  C   UNL     1      -6.665   4.261  -9.226  1.00  0.00     0.029 A 
ATOM     58  C   UNL     1      -6.940   2.943  -9.597  1.00  0.00     0.049 A 
ATOM     59  H   UNL     1      -5.870   1.905 -11.083  1.00  0.00     0.167 HD
ATOM     60  C   UNL     1      -7.945   0.678  -9.317  1.00  0.00     0.074 A 
ATOM     61  C   UNL     1      -6.911  -0.227  -9.819  1.00  0.00     0.031 C 
ATOM     62  C   UNL     1      -8.006   2.039  -9.225  1.00  0.00     0.031 A 
BRANCH  49  63
ATOM     63  C   UNL     1      -2.871   1.925 -10.970  1.00  0.00    -0.014 A 
ATOM     64  C   UNL     1      -3.136   2.373 -12.274  1.00  0.00     0.009 A 
ATOM     65  C   UNL     1      -2.244   0.670 -10.842  1.00  0.00     0.009 A 
ATOM     66  C   UNL     1      -2.854   1.572 -13.386  1.00  0.00     0.001 A 
ATOM     67  C   UNL     1      -1.925  -0.114 -11.950  1.00  0.00     0.001 A 
ATOM     68  C   UNL     1      -2.256   0.326 -13.223  1.00  0.00     0.000 A 
ENDBRANCH  49  63
BRANCH  50  69
ATOM     69  C   UNL     1      -8.421  -3.357  -6.952  1.00  0.00    -0.014 A 
ATOM     70  C   UNL     1      -9.340  -3.944  -7.840  1.00  0.00     0.009 A 
ATOM     71  C   UNL     1      -7.613  -4.216  -6.187  1.00  0.00     0.009 A 
ATOM     72  C   UNL     1      -9.412  -5.337  -7.989  1.00  0.00     0.001 A 
ATOM     73  C   UNL     1      -7.685  -5.607  -6.337  1.00  0.00     0.001 A 
ATOM     74  C   UNL     1      -8.573  -6.166  -7.250  1.00  0.00     0.000 A 
ENDBRANCH  50  69
BRANCH  62  75
ATOM     75  C   UNL     1      -9.172   2.640  -8.475  1.00  0.00    -0.014 A 
ATOM     76  C   UNL     1      -9.431   2.399  -7.113  1.00  0.00     0.009 A 
ATOM     77  C   UNL     1      -9.962   3.588  -9.142  1.00  0.00     0.009 A 
ATOM     78  C   UNL     1     -10.471   3.065  -6.452  1.00  0.00     0.001 A 
ATOM     79  C   UNL     1     -10.984   4.268  -8.477  1.00  0.00     0.001 A 
ATOM     80  C   UNL     1     -11.243   4.002  -7.135  1.00  0.00     0.000 A 
ENDBRANCH  62  75
ENDBRANCH  36  37
ENDBRANCH  29  31
ENDBRANCH  28  29
ENDBRANCH  27  28
ENDBRANCH  26  27
ENDBRANCH  25  26
ENDBRANCH   1  25
TORSDOF 17
