REMARK SMILES O=C1C[C@@H](C(=O)OCCOCCOC(=O)c2ccc(-c3c4nc(c(-c5ccccc5)c5ccc([nH]5)c(-c5ccccc5)c5nc(c(-c6ccccc6)c6ccc3[nH]6)C=C5)C=C4)cc2)C2(CC[NH+](Cc3c[nH]nc3-c3ccc(Cl)cc3)CC2)N1
REMARK SMILES IDX 9 1 8 2 7 3 5 4 6 5 4 6 1 7 2 8 3 9 83 10 64 11 65 13 82 14
REMARK SMILES IDX 66 15 81 16 67 17 68 19 69 20 70 21 73 22 71 23 72 24 74 26
REMARK SMILES IDX 75 27 80 28 76 29 79 30 77 31 78 32 10 33 11 34 12 35 13 36
REMARK SMILES IDX 14 37 15 38 16 39 17 40 63 41 18 42 62 43 19 44 20 45 21 46
REMARK SMILES IDX 56 47 22 48 61 49 55 50 57 51 23 52 60 53 54 54 53 55 24 57
REMARK SMILES IDX 46 58 31 59 45 60 32 61 35 62 44 63 58 64 33 65 34 66 43 68
REMARK SMILES IDX 59 69 36 70 25 71 26 72 30 73 27 74 29 75 28 76 47 77 48 78
REMARK SMILES IDX 52 79 49 80 51 81 50 82 37 83 38 84 42 85 39 86 41 87 40 88
REMARK H PARENT 83 12 67 18 71 25 57 56 35 67
REMARK Flexibility Score: inf
ROOT
ATOM      1  C   UNL     1       3.354   3.124  -4.499  1.00  0.00     0.202 C 
ENDROOT
BRANCH   1   2
ATOM      2  C   UNL     1       2.676   1.860  -3.958  1.00  0.00     0.261 C 
BRANCH   2   3
ATOM      3  O   UNL     1       3.171   1.401  -2.684  1.00  0.00    -0.463 OA
BRANCH   3   4
ATOM      4  C   UNL     1       3.999   0.328  -2.732  1.00  0.00     0.311 C 
ATOM      5  O   UNL     1       4.434  -0.164  -3.768  1.00  0.00    -0.252 OA
BRANCH   4   6
ATOM      6  C   UNL     1       4.262  -0.328  -1.390  1.00  0.00     0.134 C 
ATOM      7  O   UNL     1       1.113  -0.877   0.202  1.00  0.00    -0.275 OA
ATOM      8  C   UNL     1       2.242  -0.581  -0.140  1.00  0.00     0.221 C 
ATOM      9  C   UNL     1       3.095  -1.307  -1.146  1.00  0.00     0.117 C 
ATOM     10  N   UNL     1       2.979   0.454   0.382  1.00  0.00    -0.349 N 
ATOM     11  C   UNL     1       4.358   0.478  -0.075  1.00  0.00     0.064 C 
ATOM     12  H   UNL     1       2.607   1.117   1.008  1.00  0.00     0.164 HD
ATOM     13  C   UNL     1       4.838   1.932  -0.150  1.00  0.00     0.091 C 
ATOM     14  C   UNL     1       5.211  -0.324   0.954  1.00  0.00     0.091 C 
ATOM     15  C   UNL     1       6.353   2.069  -0.224  1.00  0.00     0.264 C 
ATOM     16  C   UNL     1       6.708   0.005   0.969  1.00  0.00     0.264 C 
ATOM     17  N   UNL     1       7.032   1.419   0.879  1.00  0.00    -0.331 N 
ATOM     18  H   UNL     1       8.020   1.425   0.629  1.00  0.00     0.348 HD
BRANCH  17  19
ATOM     19  C   UNL     1       7.202   2.186   2.123  1.00  0.00     0.303 C 
BRANCH  19  20
ATOM     20  C   UNL     1       5.979   2.334   2.973  1.00  0.00     0.052 A 
ATOM     21  C   UNL     1       5.434   1.361   3.794  1.00  0.00     0.115 A 
ATOM     22  C   UNL     1       5.197   3.503   3.278  1.00  0.00     0.101 A 
ATOM     23  N   UNL     1       4.326   1.898   4.364  1.00  0.00    -0.285 N 
ATOM     24  N   UNL     1       4.162   3.190   4.078  1.00  0.00    -0.175 NA
ATOM     25  H   UNL     1       3.707   1.385   4.932  1.00  0.00     0.189 HD
BRANCH  22  26
ATOM     26  C   UNL     1       5.388   4.909   2.912  1.00  0.00     0.003 A 
ATOM     27  C   UNL     1       5.325   5.883   3.923  1.00  0.00     0.012 A 
ATOM     28  C   UNL     1       5.577   5.328   1.593  1.00  0.00     0.012 A 
ATOM     29  C   UNL     1       5.448   7.243   3.622  1.00  0.00     0.021 A 
ATOM     30  C   UNL     1       5.710   6.689   1.289  1.00  0.00     0.021 A 
ATOM     31  C   UNL     1       5.636   7.640   2.303  1.00  0.00     0.041 A 
ATOM     32  Cl  UNL     1       5.756   9.312   1.920  1.00  0.00    -0.084 Cl
ENDBRANCH  22  26
ENDBRANCH  19  20
ENDBRANCH  17  19
ENDBRANCH   4   6
ENDBRANCH   3   4
ENDBRANCH   2   3
ENDBRANCH   1   2
BRANCH   1  33
ATOM     33  O   UNL     1       4.739   3.021  -4.818  1.00  0.00    -0.374 OA
BRANCH  33  34
ATOM     34  C   UNL     1       5.672   3.102  -3.741  1.00  0.00     0.202 C 
BRANCH  34  35
ATOM     35  C   UNL     1       5.771   4.474  -3.069  1.00  0.00     0.261 C 
BRANCH  35  36
ATOM     36  O   UNL     1       4.578   4.741  -2.311  1.00  0.00    -0.460 OA
BRANCH  36  37
ATOM     37  C   UNL     1       4.336   6.060  -2.139  1.00  0.00     0.338 C 
ATOM     38  O   UNL     1       5.123   6.976  -2.293  1.00  0.00    -0.246 OA
BRANCH  37  39
ATOM     39  C   UNL     1       2.898   6.266  -1.907  1.00  0.00     0.060 A 
ATOM     40  C   UNL     1       2.127   6.702  -2.990  1.00  0.00     0.016 A 
ATOM     41  C   UNL     1       2.346   6.162  -0.630  1.00  0.00     0.016 A 
ATOM     42  C   UNL     1       0.809   7.102  -2.781  1.00  0.00     0.010 A 
ATOM     43  C   UNL     1       1.021   6.564  -0.426  1.00  0.00     0.010 A 
ATOM     44  C   UNL     1       0.263   7.079  -1.491  1.00  0.00    -0.014 A 
BRANCH  44  45
ATOM     45  C   UNL     1      -1.048   7.729  -1.249  1.00  0.00     0.031 A 
ATOM     46  C   UNL     1      -1.086   9.139  -0.725  1.00  0.00     0.074 A 
ATOM     47  C   UNL     1      -2.194   7.089  -1.539  1.00  0.00     0.049 A 
ATOM     48  N   UNL     1      -2.118   9.920  -0.527  1.00  0.00    -0.248 NA
ATOM     49  C   UNL     1       0.208   9.750  -0.381  1.00  0.00     0.031 C 
ATOM     50  C   UNL     1      -2.292   5.726  -2.059  1.00  0.00     0.029 A 
ATOM     51  N   UNL     1      -3.496   7.509  -1.438  1.00  0.00    -0.354 N 
ATOM     52  C   UNL     1      -1.599  11.113  -0.040  1.00  0.00     0.074 A 
ATOM     53  C   UNL     1      -0.166  10.943   0.059  1.00  0.00     0.031 C 
ATOM     54  C   UNL     1      -3.590   5.421  -2.232  1.00  0.00     0.029 A 
ATOM     55  C   UNL     1      -4.410   6.559  -1.822  1.00  0.00     0.049 A 
ATOM     56  H   UNL     1      -3.751   8.405  -1.120  1.00  0.00     0.167 HD
ATOM     57  C   UNL     1      -2.254  12.253   0.288  1.00  0.00     0.031 A 
ATOM     58  C   UNL     1      -5.756   6.601  -1.838  1.00  0.00     0.031 A 
ATOM     59  C   UNL     1      -3.680  12.422   0.210  1.00  0.00     0.049 A 
ATOM     60  C   UNL     1      -6.465   7.862  -1.426  1.00  0.00     0.074 A 
ATOM     61  C   UNL     1      -4.432  13.551   0.484  1.00  0.00     0.029 A 
ATOM     62  N   UNL     1      -4.572  11.426  -0.155  1.00  0.00    -0.354 N 
ATOM     63  N   UNL     1      -5.957   9.006  -1.036  1.00  0.00    -0.248 NA
ATOM     64  C   UNL     1      -7.935   7.840  -1.470  1.00  0.00     0.031 C 
ATOM     65  C   UNL     1      -5.784  13.223   0.336  1.00  0.00     0.029 A 
ATOM     66  C   UNL     1      -5.869  11.904  -0.081  1.00  0.00     0.049 A 
ATOM     67  H   UNL     1      -4.320  10.514  -0.427  1.00  0.00     0.167 HD
ATOM     68  C   UNL     1      -7.040   9.845  -0.808  1.00  0.00     0.074 A 
ATOM     69  C   UNL     1      -8.233   9.083  -1.118  1.00  0.00     0.031 C 
ATOM     70  C   UNL     1      -7.046  11.131  -0.382  1.00  0.00     0.031 A 
BRANCH  57  71
ATOM     71  C   UNL     1      -1.427  13.402   0.791  1.00  0.00    -0.014 A 
ATOM     72  C   UNL     1      -0.615  14.148  -0.077  1.00  0.00     0.009 A 
ATOM     73  C   UNL     1      -1.482  13.759   2.147  1.00  0.00     0.009 A 
ATOM     74  C   UNL     1       0.152  15.209   0.410  1.00  0.00     0.001 A 
ATOM     75  C   UNL     1      -0.733  14.835   2.627  1.00  0.00     0.001 A 
ATOM     76  C   UNL     1       0.089  15.553   1.760  1.00  0.00     0.000 A 
ENDBRANCH  57  71
BRANCH  58  77
ATOM     77  C   UNL     1      -6.524   5.402  -2.261  1.00  0.00    -0.014 A 
ATOM     78  C   UNL     1      -7.192   5.375  -3.494  1.00  0.00     0.009 A 
ATOM     79  C   UNL     1      -6.585   4.274  -1.428  1.00  0.00     0.009 A 
ATOM     80  C   UNL     1      -7.920   4.245  -3.876  1.00  0.00     0.001 A 
ATOM     81  C   UNL     1      -7.294   3.139  -1.823  1.00  0.00     0.001 A 
ATOM     82  C   UNL     1      -7.966   3.127  -3.044  1.00  0.00     0.000 A 
ENDBRANCH  58  77
BRANCH  70  83
ATOM     83  C   UNL     1      -8.383  11.802  -0.239  1.00  0.00    -0.014 A 
ATOM     84  C   UNL     1      -9.241  11.491   0.826  1.00  0.00     0.009 A 
ATOM     85  C   UNL     1      -8.769  12.790  -1.160  1.00  0.00     0.009 A 
ATOM     86  C   UNL     1     -10.474  12.135   0.950  1.00  0.00     0.001 A 
ATOM     87  C   UNL     1      -9.991  13.449  -1.019  1.00  0.00     0.001 A 
ATOM     88  C   UNL     1     -10.846  13.115   0.031  1.00  0.00     0.000 A 
ENDBRANCH  70  83
ENDBRANCH  44  45
ENDBRANCH  37  39
ENDBRANCH  36  37
ENDBRANCH  35  36
ENDBRANCH  34  35
ENDBRANCH  33  34
ENDBRANCH   1  33
TORSDOF 17
