REMARK SMILES CC[C@@H](C)SCc1cc(F)cc(/C=C/C(=O)OCCOCCOC(=O)c2ccc(-c3c4nc(c(-c5ccccc5)c5ccc([nH]5)c(-c5ccccc5)c5nc(c(-c6ccccc6)c6ccc3[nH]6)C=C5)C=C4)cc2)c1
REMARK SMILES IDX 18 1 17 2 15 3 16 4 14 5 13 6 12 7 7 8 8 9 74 10 9 11 10 12
REMARK SMILES IDX 11 13 6 14 5 15 3 16 4 17 2 18 1 19 19 20 20 21 21 22 22 23
REMARK SMILES IDX 23 24 24 25 25 26 26 27 27 28 73 29 28 30 72 31 29 32 30 33
REMARK SMILES IDX 31 34 66 35 32 36 71 37 65 38 67 39 33 40 70 41 64 42 63 43
REMARK SMILES IDX 34 45 56 46 41 47 55 48 42 49 45 50 54 51 68 52 43 53 44 54
REMARK SMILES IDX 53 56 69 57 46 58 35 59 36 60 40 61 37 62 39 63 38 64 57 65
REMARK SMILES IDX 58 66 62 67 59 68 61 69 60 70 47 71 48 72 52 73 49 74 51 75
REMARK SMILES IDX 50 76
REMARK H PARENT 67 44 45 55
REMARK Flexibility Score: inf
ROOT
ATOM      1  C   UNL     1      -5.596   6.481  -8.664  1.00  0.00     0.261 C 
ENDROOT
BRANCH   1   2
ATOM      2  O   UNL     1      -5.012   5.856  -7.509  1.00  0.00    -0.460 OA
BRANCH   2   3
ATOM      3  C   UNL     1      -5.458   4.604  -7.268  1.00  0.00     0.330 C 
ATOM      4  O   UNL     1      -6.353   4.022  -7.863  1.00  0.00    -0.247 OA
BRANCH   3   5
ATOM      5  C   UNL     1      -4.708   3.919  -6.199  1.00  0.00     0.094 C 
ATOM      6  C   UNL     1      -3.679   4.371  -5.462  1.00  0.00     0.016 C 
BRANCH   6   7
ATOM      7  C   UNL     1      -3.062   3.514  -4.428  1.00  0.00    -0.022 A 
ATOM      8  C   UNL     1      -2.031   3.253  -2.218  1.00  0.00    -0.035 A 
ATOM      9  C   UNL     1      -2.169   1.867  -2.341  1.00  0.00     0.043 A 
ATOM     10  C   UNL     1      -2.494   4.074  -3.269  1.00  0.00     0.013 A 
ATOM     11  C   UNL     1      -2.626   1.314  -3.524  1.00  0.00     0.124 A 
ATOM     12  F   UNL     1      -2.664  -0.017  -3.658  1.00  0.00    -0.207 F 
ATOM     13  C   UNL     1      -3.044   2.119  -4.571  1.00  0.00     0.047 A 
BRANCH   8  14
ATOM     14  C   UNL     1      -1.408   3.836  -0.975  1.00  0.00     0.105 C 
BRANCH  14  15
ATOM     15  S   UNL     1       0.388   4.136  -1.091  1.00  0.00    -0.154 SA
BRANCH  15  16
ATOM     16  C   UNL     1       1.165   2.454  -1.033  1.00  0.00     0.043 C 
ATOM     17  C   UNL     1       1.228   1.824  -2.424  1.00  0.00     0.019 C 
BRANCH  16  18
ATOM     18  C   UNL     1       0.623   1.544   0.082  1.00  0.00     0.011 C 
ATOM     19  C   UNL     1       1.168   0.120   0.042  1.00  0.00     0.005 C 
ENDBRANCH  16  18
ENDBRANCH  15  16
ENDBRANCH  14  15
ENDBRANCH   8  14
ENDBRANCH   6   7
ENDBRANCH   3   5
ENDBRANCH   2   3
ENDBRANCH   1   2
BRANCH   1  20
ATOM     20  C   UNL     1      -4.554   6.718  -9.757  1.00  0.00     0.202 C 
BRANCH  20  21
ATOM     21  O   UNL     1      -3.923   5.552 -10.282  1.00  0.00    -0.374 OA
BRANCH  21  22
ATOM     22  C   UNL     1      -2.836   5.007  -9.531  1.00  0.00     0.202 C 
BRANCH  22  23
ATOM     23  C   UNL     1      -1.494   5.739  -9.664  1.00  0.00     0.261 C 
BRANCH  23  24
ATOM     24  O   UNL     1      -1.521   7.030  -9.026  1.00  0.00    -0.460 OA
BRANCH  24  25
ATOM     25  C   UNL     1      -1.466   8.087  -9.870  1.00  0.00     0.338 C 
ATOM     26  O   UNL     1      -1.310   8.061 -11.084  1.00  0.00    -0.246 OA
BRANCH  25  27
ATOM     27  C   UNL     1      -1.810   9.326  -9.148  1.00  0.00     0.060 A 
ATOM     28  C   UNL     1      -2.810  10.140  -9.698  1.00  0.00     0.016 A 
ATOM     29  C   UNL     1      -1.128   9.722  -7.996  1.00  0.00     0.016 A 
ATOM     30  C   UNL     1      -3.095  11.379  -9.129  1.00  0.00     0.010 A 
ATOM     31  C   UNL     1      -1.410  10.970  -7.430  1.00  0.00     0.010 A 
ATOM     32  C   UNL     1      -2.367  11.819  -8.016  1.00  0.00    -0.014 A 
BRANCH  32  33
ATOM     33  C   UNL     1      -2.503  13.224  -7.562  1.00  0.00     0.031 A 
ATOM     34  C   UNL     1      -1.468  14.230  -7.985  1.00  0.00     0.074 A 
ATOM     35  C   UNL     1      -3.548  13.608  -6.809  1.00  0.00     0.049 A 
ATOM     36  N   UNL     1      -1.379  15.502  -7.691  1.00  0.00    -0.248 NA
ATOM     37  C   UNL     1      -0.390  13.736  -8.857  1.00  0.00     0.031 C 
ATOM     38  C   UNL     1      -4.640  12.742  -6.369  1.00  0.00     0.029 A 
ATOM     39  N   UNL     1      -3.857  14.836  -6.279  1.00  0.00    -0.354 N 
ATOM     40  C   UNL     1      -0.234  15.957  -8.332  1.00  0.00     0.074 A 
ATOM     41  C   UNL     1       0.354  14.822  -9.008  1.00  0.00     0.031 C 
ATOM     42  C   UNL     1      -5.498  13.465  -5.629  1.00  0.00     0.029 A 
ATOM     43  C   UNL     1      -5.000  14.835  -5.519  1.00  0.00     0.049 A 
ATOM     44  H   UNL     1      -3.310  15.641  -6.429  1.00  0.00     0.167 HD
ATOM     45  C   UNL     1       0.281  17.210  -8.361  1.00  0.00     0.031 A 
ATOM     46  C   UNL     1      -5.569  15.822  -4.801  1.00  0.00     0.031 A 
ATOM     47  C   UNL     1      -0.295  18.339  -7.682  1.00  0.00     0.049 A 
ATOM     48  C   UNL     1      -4.938  17.189  -4.789  1.00  0.00     0.074 A 
ATOM     49  C   UNL     1       0.145  19.651  -7.665  1.00  0.00     0.029 A 
ATOM     50  N   UNL     1      -1.433  18.287  -6.893  1.00  0.00    -0.354 N 
ATOM     51  N   UNL     1      -3.869  17.612  -5.421  1.00  0.00    -0.248 NA
ATOM     52  C   UNL     1      -5.598  18.216  -3.971  1.00  0.00     0.031 C 
ATOM     53  C   UNL     1      -0.698  20.383  -6.822  1.00  0.00     0.029 A 
ATOM     54  C   UNL     1      -1.696  19.538  -6.362  1.00  0.00     0.049 A 
ATOM     55  H   UNL     1      -1.974  17.480  -6.734  1.00  0.00     0.167 HD
ATOM     56  C   UNL     1      -3.748  18.959  -5.101  1.00  0.00     0.074 A 
ATOM     57  C   UNL     1      -4.857  19.285  -4.229  1.00  0.00     0.031 C 
ATOM     58  C   UNL     1      -2.805  19.848  -5.498  1.00  0.00     0.031 A 
BRANCH  45  59
ATOM     59  C   UNL     1       1.555  17.416  -9.131  1.00  0.00    -0.014 A 
ATOM     60  C   UNL     1       1.572  17.391 -10.535  1.00  0.00     0.009 A 
ATOM     61  C   UNL     1       2.750  17.671  -8.441  1.00  0.00     0.009 A 
ATOM     62  C   UNL     1       2.767  17.587 -11.230  1.00  0.00     0.001 A 
ATOM     63  C   UNL     1       3.938  17.893  -9.140  1.00  0.00     0.001 A 
ATOM     64  C   UNL     1       3.947  17.843 -10.533  1.00  0.00     0.000 A 
ENDBRANCH  45  59
BRANCH  46  65
ATOM     65  C   UNL     1      -6.801  15.555  -4.013  1.00  0.00    -0.014 A 
ATOM     66  C   UNL     1      -8.029  16.121  -4.389  1.00  0.00     0.009 A 
ATOM     67  C   UNL     1      -6.748  14.749  -2.865  1.00  0.00     0.009 A 
ATOM     68  C   UNL     1      -9.173  15.905  -3.617  1.00  0.00     0.001 A 
ATOM     69  C   UNL     1      -7.899  14.511  -2.111  1.00  0.00     0.001 A 
ATOM     70  C   UNL     1      -9.108  15.097  -2.482  1.00  0.00     0.000 A 
ENDBRANCH  46  65
BRANCH  58  71
ATOM     71  C   UNL     1      -2.953  21.268  -5.028  1.00  0.00    -0.014 A 
ATOM     72  C   UNL     1      -2.693  21.629  -3.697  1.00  0.00     0.009 A 
ATOM     73  C   UNL     1      -3.315  22.267  -5.946  1.00  0.00     0.009 A 
ATOM     74  C   UNL     1      -2.825  22.958  -3.288  1.00  0.00     0.001 A 
ATOM     75  C   UNL     1      -3.418  23.599  -5.541  1.00  0.00     0.001 A 
ATOM     76  C   UNL     1      -3.182  23.941  -4.211  1.00  0.00     0.000 A 
ENDBRANCH  58  71
ENDBRANCH  32  33
ENDBRANCH  25  27
ENDBRANCH  24  25
ENDBRANCH  23  24
ENDBRANCH  22  23
ENDBRANCH  21  22
ENDBRANCH  20  21
ENDBRANCH   1  20
TORSDOF 19
