REMARK SMILES Cc1nn(C)c(=O)c(C(=O)N2CC[C@@H](C(=O)OCCOCCOC(=O)c3ccc(-c4c5nc(c(-c6ccccc6)c6ccc([nH]6)c(-c6ccccc6)c6nc(c(-c7ccccc7)c7ccc4[nH]7)C=C6)C=C5)cc3)[C@@H]2C)c1C
REMARK SMILES IDX 20 1 19 2 18 3 17 4 15 5 16 6 14 7 11 8 12 9 74 10 13 11
REMARK SMILES IDX 75 12 9 13 10 14 8 15 1 16 2 17 3 18 76 19 4 20 77 21 5 22
REMARK SMILES IDX 6 23 7 24 21 25 22 26 23 27 24 28 25 29 26 30 27 31 73 32
REMARK SMILES IDX 28 33 72 34 29 35 30 36 31 37 66 38 32 39 71 40 65 41 67 42
REMARK SMILES IDX 33 43 70 44 64 45 63 46 34 48 56 49 41 50 55 51 42 52 45 53
REMARK SMILES IDX 54 54 68 55 43 56 44 57 53 59 69 60 46 61 35 62 36 63 40 64
REMARK SMILES IDX 37 65 39 66 38 67 57 68 58 69 62 70 59 71 61 72 60 73 47 74
REMARK SMILES IDX 48 75 52 76 49 77 51 78 50 79
REMARK H PARENT 67 47 45 58
REMARK Flexibility Score: inf
ROOT
ATOM      1  O   UNL     1       1.060   5.408  -3.534  1.00  0.00    -0.374 OA
ENDROOT
BRANCH   1   2
ATOM      2  C   UNL     1       2.115   4.496  -3.239  1.00  0.00     0.202 C 
BRANCH   2   3
ATOM      3  C   UNL     1       3.145   4.961  -2.208  1.00  0.00     0.261 C 
BRANCH   3   4
ATOM      4  O   UNL     1       2.551   5.124  -0.908  1.00  0.00    -0.463 OA
BRANCH   4   5
ATOM      5  C   UNL     1       2.376   6.409  -0.501  1.00  0.00     0.311 C 
ATOM      6  O   UNL     1       2.733   7.397  -1.130  1.00  0.00    -0.252 OA
BRANCH   5   7
ATOM      7  C   UNL     1       1.751   6.510   0.870  1.00  0.00     0.123 C 
ATOM      8  N   UNL     1       1.134   4.851   2.467  1.00  0.00    -0.335 N 
ATOM      9  C   UNL     1       2.079   5.745   3.103  1.00  0.00     0.121 C 
ATOM     10  C   UNL     1       0.657   5.468   1.220  1.00  0.00     0.096 C 
ATOM     11  C   UNL     1       2.834   6.336   1.936  1.00  0.00     0.039 C 
ATOM     12  C   UNL     1      -0.705   6.154   1.384  1.00  0.00     0.032 C 
BRANCH   8  13
ATOM     13  C   UNL     1       0.370   4.045   3.289  1.00  0.00     0.260 C 
ATOM     14  O   UNL     1      -0.114   4.554   4.299  1.00  0.00    -0.269 OA
BRANCH  13  15
ATOM     15  C   UNL     1       0.301   2.547   3.029  1.00  0.00     0.111 A 
ATOM     16  C   UNL     1       1.257  -0.384   0.811  1.00  0.00     0.069 C 
ATOM     17  C   UNL     1       0.722   0.401   1.979  1.00  0.00     0.062 A 
ATOM     18  N   UNL     1       0.140  -0.307   2.881  1.00  0.00    -0.175 NA
ATOM     19  C   UNL     1       0.897   1.889   2.005  1.00  0.00    -0.010 A 
ATOM     20  N   UNL     1      -0.403   0.340   3.936  1.00  0.00    -0.232 N 
ATOM     21  C   UNL     1       1.747   2.440   0.896  1.00  0.00     0.047 C 
ATOM     22  C   UNL     1      -1.028  -0.530   4.920  1.00  0.00     0.178 C 
ATOM     23  C   UNL     1      -0.443   1.721   4.070  1.00  0.00     0.279 A 
ATOM     24  O   UNL     1      -1.050   2.242   5.004  1.00  0.00    -0.267 OA
ENDBRANCH  13  15
ENDBRANCH   8  13
ENDBRANCH   5   7
ENDBRANCH   4   5
ENDBRANCH   3   4
ENDBRANCH   2   3
ENDBRANCH   1   2
BRANCH   1  25
ATOM     25  C   UNL     1      -0.049   5.426  -2.638  1.00  0.00     0.202 C 
BRANCH  25  26
ATOM     26  C   UNL     1      -1.089   4.309  -2.807  1.00  0.00     0.261 C 
BRANCH  26  27
ATOM     27  O   UNL     1      -0.539   2.997  -2.589  1.00  0.00    -0.460 OA
BRANCH  27  28
ATOM     28  C   UNL     1      -0.314   2.278  -3.716  1.00  0.00     0.338 C 
ATOM     29  O   UNL     1      -0.567   2.596  -4.870  1.00  0.00    -0.246 OA
BRANCH  28  30
ATOM     30  C   UNL     1       0.458   1.073  -3.372  1.00  0.00     0.060 A 
ATOM     31  C   UNL     1       1.733   0.904  -3.925  1.00  0.00     0.016 A 
ATOM     32  C   UNL     1      -0.085   0.098  -2.541  1.00  0.00     0.016 A 
ATOM     33  C   UNL     1       2.475  -0.247  -3.646  1.00  0.00     0.010 A 
ATOM     34  C   UNL     1       0.662  -1.052  -2.268  1.00  0.00     0.010 A 
ATOM     35  C   UNL     1       1.943  -1.246  -2.822  1.00  0.00    -0.014 A 
BRANCH  35  36
ATOM     36  C   UNL     1       2.632  -2.559  -2.657  1.00  0.00     0.031 A 
ATOM     37  C   UNL     1       1.950  -3.797  -3.186  1.00  0.00     0.074 A 
ATOM     38  C   UNL     1       3.835  -2.675  -2.059  1.00  0.00     0.049 A 
ATOM     39  N   UNL     1       2.311  -5.052  -3.090  1.00  0.00    -0.248 NA
ATOM     40  C   UNL     1       0.674  -3.594  -3.893  1.00  0.00     0.031 C 
ATOM     41  C   UNL     1       4.628  -1.575  -1.508  1.00  0.00     0.029 A 
ATOM     42  N   UNL     1       4.610  -3.788  -1.826  1.00  0.00    -0.354 N 
ATOM     43  C   UNL     1       1.291  -5.778  -3.692  1.00  0.00     0.074 A 
ATOM     44  C   UNL     1       0.266  -4.837  -4.079  1.00  0.00     0.031 C 
ATOM     45  C   UNL     1       5.790  -2.064  -1.039  1.00  0.00     0.029 A 
ATOM     46  C   UNL     1       5.813  -3.515  -1.218  1.00  0.00     0.049 A 
ATOM     47  H   UNL     1       4.329  -4.699  -2.073  1.00  0.00     0.167 HD
ATOM     48  C   UNL     1       1.220  -7.105  -3.946  1.00  0.00     0.031 A 
ATOM     49  C   UNL     1       6.819  -4.336  -0.851  1.00  0.00     0.031 A 
ATOM     50  C   UNL     1       2.248  -8.049  -3.613  1.00  0.00     0.049 A 
ATOM     51  C   UNL     1       6.703  -5.819  -1.102  1.00  0.00     0.074 A 
ATOM     52  C   UNL     1       2.279  -9.409  -3.864  1.00  0.00     0.029 A 
ATOM     53  N   UNL     1       3.432  -7.728  -2.971  1.00  0.00    -0.354 N 
ATOM     54  N   UNL     1       5.741  -6.485  -1.693  1.00  0.00    -0.248 NA
ATOM     55  C   UNL     1       7.817  -6.662  -0.639  1.00  0.00     0.031 C 
ATOM     56  C   UNL     1       3.466  -9.920  -3.333  1.00  0.00     0.029 A 
ATOM     57  C   UNL     1       4.197  -8.868  -2.804  1.00  0.00     0.049 A 
ATOM     58  H   UNL     1       3.691  -6.824  -2.679  1.00  0.00     0.167 HD
ATOM     59  C   UNL     1       6.146  -7.816  -1.697  1.00  0.00     0.074 A 
ATOM     60  C   UNL     1       7.446  -7.863  -1.064  1.00  0.00     0.031 C 
ATOM     61  C   UNL     1       5.495  -8.902  -2.182  1.00  0.00     0.031 A 
BRANCH  48  62
ATOM     62  C   UNL     1      -0.018  -7.605  -4.637  1.00  0.00    -0.014 A 
ATOM     63  C   UNL     1      -0.282  -7.278  -5.977  1.00  0.00     0.009 A 
ATOM     64  C   UNL     1      -0.924  -8.423  -3.945  1.00  0.00     0.009 A 
ATOM     65  C   UNL     1      -1.451  -7.722  -6.596  1.00  0.00     0.001 A 
ATOM     66  C   UNL     1      -2.074  -8.896  -4.579  1.00  0.00     0.001 A 
ATOM     67  C   UNL     1      -2.342  -8.536  -5.899  1.00  0.00     0.000 A 
ENDBRANCH  48  62
BRANCH  49  68
ATOM     68  C   UNL     1       8.054  -3.780  -0.230  1.00  0.00    -0.014 A 
ATOM     69  C   UNL     1       9.267  -3.788  -0.937  1.00  0.00     0.009 A 
ATOM     70  C   UNL     1       8.036  -3.258   1.073  1.00  0.00     0.009 A 
ATOM     71  C   UNL     1      10.437  -3.301  -0.348  1.00  0.00     0.001 A 
ATOM     72  C   UNL     1       9.202  -2.746   1.649  1.00  0.00     0.001 A 
ATOM     73  C   UNL     1      10.403  -2.775   0.942  1.00  0.00     0.000 A 
ENDBRANCH  49  68
BRANCH  61  74
ATOM     74  C   UNL     1       6.176 -10.239  -2.083  1.00  0.00    -0.014 A 
ATOM     75  C   UNL     1       6.289 -10.908  -0.855  1.00  0.00     0.009 A 
ATOM     76  C   UNL     1       6.615 -10.884  -3.251  1.00  0.00     0.009 A 
ATOM     77  C   UNL     1       6.841 -12.189  -0.798  1.00  0.00     0.001 A 
ATOM     78  C   UNL     1       7.139 -12.176  -3.195  1.00  0.00     0.001 A 
ATOM     79  C   UNL     1       7.256 -12.825  -1.968  1.00  0.00     0.000 A 
ENDBRANCH  61  74
ENDBRANCH  35  36
ENDBRANCH  28  30
ENDBRANCH  27  28
ENDBRANCH  26  27
ENDBRANCH  25  26
ENDBRANCH   1  25
TORSDOF 16
