REMARK SMILES C/C=C(\C)[C@H]1C(C)=C[C@H]2CC[C@@H](OS(=O)(=O)[O-])[C@@H](C)[C@H]2[C@H]1/C=C/C=C/C(=O)OCCOCCOC(=O)c1ccc(-c2c3nc(c(-c4ccccc4)c4ccc([nH]4)c(-c4ccccc4)c4nc(c(-c5ccccc5)c5ccc2[nH]5)C=C4)C=C3)cc1
REMARK SMILES IDX 30 1 29 2 28 3 26 4 27 5 25 6 24 7 23 8 22 9 21 10 5 11 6 12
REMARK SMILES IDX 7 13 8 14 20 15 9 16 18 17 10 18 12 19 19 20 11 21 3 22 1 23
REMARK SMILES IDX 2 24 4 25 13 26 14 27 15 28 16 29 17 30 31 31 32 32 33 33
REMARK SMILES IDX 34 34 35 35 36 36 37 37 38 38 84 39 39 40 83 41 40 42 41 43
REMARK SMILES IDX 42 44 77 45 43 46 82 47 76 48 78 49 44 50 81 51 75 52 74 53
REMARK SMILES IDX 45 55 67 56 52 57 66 58 53 59 56 60 65 61 79 62 54 63 55 64
REMARK SMILES IDX 64 66 80 67 57 68 46 69 47 70 51 71 48 72 50 73 49 74 68 75
REMARK SMILES IDX 69 76 73 77 70 78 72 79 71 80 58 81 59 82 63 83 60 84 62 85
REMARK SMILES IDX 61 86
REMARK H PARENT 78 54 56 65
REMARK Flexibility Score: inf
ROOT
ATOM      1  C   UNL     1       5.050   0.175  -7.156  1.00  0.00     0.202 C 
ENDROOT
BRANCH   1   2
ATOM      2  C   UNL     1       5.613   1.351  -6.353  1.00  0.00     0.261 C 
BRANCH   2   3
ATOM      3  O   UNL     1       4.596   2.021  -5.598  1.00  0.00    -0.460 OA
BRANCH   3   4
ATOM      4  C   UNL     1       4.199   3.216  -6.102  1.00  0.00     0.330 C 
ATOM      5  O   UNL     1       4.691   3.806  -7.051  1.00  0.00    -0.247 OA
BRANCH   4   6
ATOM      6  C   UNL     1       2.993   3.727  -5.419  1.00  0.00     0.093 C 
ATOM      7  C   UNL     1       2.539   3.261  -4.248  1.00  0.00     0.007 C 
BRANCH   7   8
ATOM      8  C   UNL     1       1.405   3.838  -3.564  1.00  0.00    -0.004 C 
ATOM      9  C   UNL     1       1.179   3.548  -2.275  1.00  0.00    -0.022 C 
BRANCH   9  10
ATOM     10  C   UNL     1       0.133   4.188  -1.382  1.00  0.00     0.027 C 
ATOM     11  C   UNL     1      -0.771   3.186  -0.544  1.00  0.00     0.047 C 
ATOM     12  C   UNL     1      -1.043   3.616   0.901  1.00  0.00    -0.069 C 
ATOM     13  C   UNL     1      -1.714   2.649   1.843  1.00  0.00     0.040 C 
ATOM     14  C   UNL     1      -0.801   4.871   1.326  1.00  0.00    -0.024 C 
ATOM     15  C   UNL     1       0.787   5.358  -0.570  1.00  0.00     0.009 C 
ATOM     16  C   UNL     1      -0.214   5.940   0.451  1.00  0.00     0.016 C 
ATOM     17  C   UNL     1       2.222   5.112   0.017  1.00  0.00     0.021 C 
ATOM     18  C   UNL     1       0.389   7.101   1.260  1.00  0.00     0.011 C 
ATOM     19  C   UNL     1       2.734   6.377   0.743  1.00  0.00     0.141 C 
ATOM     20  C   UNL     1       2.387   3.865   0.896  1.00  0.00     0.011 C 
ATOM     21  C   UNL     1       1.764   6.800   1.843  1.00  0.00     0.034 C 
BRANCH  11  22
ATOM     22  C   UNL     1      -0.402   1.699  -0.749  1.00  0.00    -0.070 C 
ATOM     23  C   UNL     1       0.979  -0.356  -0.064  1.00  0.00     0.035 C 
ATOM     24  C   UNL     1       0.434   1.029   0.072  1.00  0.00    -0.031 C 
ATOM     25  C   UNL     1      -1.039   1.085  -1.976  1.00  0.00     0.040 C 
ENDBRANCH  11  22
BRANCH  19  26
ATOM     26  O   UNL     1       4.019   6.099   1.286  1.00  0.00    -0.276 OA
BRANCH  26  27
ATOM     27  S   UNL     1       5.060   7.309   1.558  1.00  0.00     0.217 S 
ATOM     28  O   UNL     1       5.160   8.134   0.380  1.00  0.00    -0.213 OA
ATOM     29  O   UNL     1       4.786   7.874   2.862  1.00  0.00    -0.213 OA
ATOM     30  O   UNL     1       6.464   6.536   1.716  1.00  0.00    -0.726 OA
ENDBRANCH  26  27
ENDBRANCH  19  26
ENDBRANCH   9  10
ENDBRANCH   7   8
ENDBRANCH   4   6
ENDBRANCH   3   4
ENDBRANCH   2   3
ENDBRANCH   1   2
BRANCH   1  31
ATOM     31  O   UNL     1       3.995   0.450  -8.073  1.00  0.00    -0.374 OA
BRANCH  31  32
ATOM     32  C   UNL     1       2.676   0.587  -7.542  1.00  0.00     0.202 C 
BRANCH  32  33
ATOM     33  C   UNL     1       1.943  -0.695  -7.123  1.00  0.00     0.261 C 
BRANCH  33  34
ATOM     34  O   UNL     1       2.576  -1.365  -6.018  1.00  0.00    -0.460 OA
BRANCH  34  35
ATOM     35  C   UNL     1       3.203  -2.524  -6.338  1.00  0.00     0.338 C 
ATOM     36  O   UNL     1       3.243  -3.074  -7.424  1.00  0.00    -0.246 OA
BRANCH  35  37
ATOM     37  C   UNL     1       4.019  -2.968  -5.193  1.00  0.00     0.060 A 
ATOM     38  C   UNL     1       5.398  -3.119  -5.387  1.00  0.00     0.016 A 
ATOM     39  C   UNL     1       3.434  -3.288  -3.967  1.00  0.00     0.016 A 
ATOM     40  C   UNL     1       6.199  -3.610  -4.358  1.00  0.00     0.010 A 
ATOM     41  C   UNL     1       4.237  -3.791  -2.940  1.00  0.00     0.010 A 
ATOM     42  C   UNL     1       5.619  -3.974  -3.136  1.00  0.00    -0.014 A 
BRANCH  42  43
ATOM     43  C   UNL     1       6.434  -4.630  -2.087  1.00  0.00     0.031 A 
ATOM     44  C   UNL     1       6.306  -6.112  -1.872  1.00  0.00     0.074 A 
ATOM     45  C   UNL     1       7.272  -3.907  -1.323  1.00  0.00     0.049 A 
ATOM     46  N   UNL     1       6.854  -6.866  -0.953  1.00  0.00    -0.248 NA
ATOM     47  C   UNL     1       5.442  -6.840  -2.814  1.00  0.00     0.031 C 
ATOM     48  C   UNL     1       7.517  -2.472  -1.461  1.00  0.00     0.029 A 
ATOM     49  N   UNL     1       8.060  -4.284  -0.264  1.00  0.00    -0.354 N 
ATOM     50  C   UNL     1       6.388  -8.152  -1.195  1.00  0.00     0.074 A 
ATOM     51  C   UNL     1       5.495  -8.073  -2.331  1.00  0.00     0.031 C 
ATOM     52  C   UNL     1       8.387  -2.086  -0.513  1.00  0.00     0.029 A 
ATOM     53  C   UNL     1       8.723  -3.235   0.325  1.00  0.00     0.049 A 
ATOM     54  H   UNL     1       8.143  -5.215   0.043  1.00  0.00     0.167 HD
ATOM     55  C   UNL     1       6.678  -9.295  -0.529  1.00  0.00     0.031 A 
ATOM     56  C   UNL     1       9.485  -3.199   1.436  1.00  0.00     0.031 A 
ATOM     57  C   UNL     1       7.557  -9.368   0.609  1.00  0.00     0.049 A 
ATOM     58  C   UNL     1       9.720  -4.468   2.211  1.00  0.00     0.074 A 
ATOM     59  C   UNL     1       7.937 -10.484   1.333  1.00  0.00     0.029 A 
ATOM     60  N   UNL     1       8.181  -8.278   1.196  1.00  0.00    -0.354 N 
ATOM     61  N   UNL     1       9.305  -5.684   1.953  1.00  0.00    -0.248 NA
ATOM     62  C   UNL     1      10.533  -4.358   3.432  1.00  0.00     0.031 C 
ATOM     63  C   UNL     1       8.732 -10.061   2.403  1.00  0.00     0.029 A 
ATOM     64  C   UNL     1       8.909  -8.691   2.300  1.00  0.00     0.049 A 
ATOM     65  H   UNL     1       8.117  -7.349   0.876  1.00  0.00     0.167 HD
ATOM     66  C   UNL     1       9.827  -6.487   2.961  1.00  0.00     0.074 A 
ATOM     67  C   UNL     1      10.604  -5.622   3.824  1.00  0.00     0.031 C 
ATOM     68  C   UNL     1       9.676  -7.820   3.153  1.00  0.00     0.031 A 
BRANCH  55  69
ATOM     69  C   UNL     1       6.005 -10.560  -0.986  1.00  0.00    -0.014 A 
ATOM     70  C   UNL     1       6.339 -11.171  -2.205  1.00  0.00     0.009 A 
ATOM     71  C   UNL     1       5.052 -11.175  -0.158  1.00  0.00     0.009 A 
ATOM     72  C   UNL     1       5.709 -12.355  -2.598  1.00  0.00     0.001 A 
ATOM     73  C   UNL     1       4.447 -12.374  -0.539  1.00  0.00     0.001 A 
ATOM     74  C   UNL     1       4.769 -12.958  -1.762  1.00  0.00     0.000 A 
ENDBRANCH  55  69
BRANCH  56  75
ATOM     75  C   UNL     1      10.052  -1.907   1.909  1.00  0.00    -0.014 A 
ATOM     76  C   UNL     1      11.437  -1.683   1.894  1.00  0.00     0.009 A 
ATOM     77  C   UNL     1       9.208  -0.897   2.399  1.00  0.00     0.009 A 
ATOM     78  C   UNL     1      11.966  -0.487   2.386  1.00  0.00     0.001 A 
ATOM     79  C   UNL     1       9.737   0.310   2.859  1.00  0.00     0.001 A 
ATOM     80  C   UNL     1      11.116   0.510   2.862  1.00  0.00     0.000 A 
ENDBRANCH  56  75
BRANCH  68  81
ATOM     81  C   UNL     1      10.391  -8.438   4.324  1.00  0.00    -0.014 A 
ATOM     82  C   UNL     1       9.972  -8.204   5.643  1.00  0.00     0.009 A 
ATOM     83  C   UNL     1      11.464  -9.315   4.099  1.00  0.00     0.009 A 
ATOM     84  C   UNL     1      10.632  -8.813   6.713  1.00  0.00     0.001 A 
ATOM     85  C   UNL     1      12.101  -9.948   5.167  1.00  0.00     0.001 A 
ATOM     86  C   UNL     1      11.690  -9.690   6.474  1.00  0.00     0.000 A 
ENDBRANCH  68  81
ENDBRANCH  42  43
ENDBRANCH  35  37
ENDBRANCH  34  35
ENDBRANCH  33  34
ENDBRANCH  32  33
ENDBRANCH  31  32
ENDBRANCH   1  31
TORSDOF 19
