REMARK SMILES CCc1ccsc1CNC(=O)N[C@@H](CCO)C(=O)OCCOCCOC(=O)c1ccc(-c2c3nc(c(-c4ccccc4)c4ccc([nH]4)c(-c4ccccc4)c4nc(c(-c5ccccc5)c5ccc2[nH]5)C=C4)C=C3)cc1
REMARK SMILES IDX 21 1 20 2 19 3 17 4 18 5 13 6 12 7 9 8 10 9 11 11 8 13 7 14
REMARK SMILES IDX 3 15 4 16 5 17 6 18 2 19 1 20 14 21 15 22 16 23 22 25 23 26
REMARK SMILES IDX 24 27 25 28 26 29 27 30 28 31 29 32 75 33 30 34 74 35 31 36
REMARK SMILES IDX 32 37 33 38 68 39 34 40 73 41 67 42 69 43 35 44 72 45 66 46
REMARK SMILES IDX 65 47 36 49 58 50 43 51 57 52 44 53 47 54 56 55 70 56 45 57
REMARK SMILES IDX 46 58 55 60 71 61 48 62 37 63 38 64 42 65 39 66 41 67 40 68
REMARK SMILES IDX 59 69 60 70 64 71 61 72 63 73 62 74 49 75 50 76 54 77 51 78
REMARK SMILES IDX 53 79 52 80
REMARK H PARENT 9 10 12 12 16 24 69 48 47 59
REMARK Flexibility Score: inf
ROOT
ATOM      1  C   UNL     1       5.307  -5.722  -5.538  1.00  0.00     0.202 C 
ENDROOT
BRANCH   1   2
ATOM      2  C   UNL     1       5.246  -4.330  -6.168  1.00  0.00     0.261 C 
BRANCH   2   3
ATOM      3  O   UNL     1       5.661  -3.320  -5.228  1.00  0.00    -0.462 OA
BRANCH   3   4
ATOM      4  C   UNL     1       4.928  -2.167  -5.247  1.00  0.00     0.328 C 
ATOM      5  O   UNL     1       4.055  -1.906  -6.066  1.00  0.00    -0.250 OA
BRANCH   4   6
ATOM      6  C   UNL     1       5.404  -1.159  -4.185  1.00  0.00     0.196 C 
BRANCH   6   7
ATOM      7  N   UNL     1       6.086  -1.758  -3.032  1.00  0.00    -0.324 N 
ATOM      8  N   UNL     1       4.530  -1.842  -1.248  1.00  0.00    -0.333 N 
ATOM      9  C   UNL     1       5.749  -2.017  -1.764  1.00  0.00     0.315 C 
ATOM     10  H   UNL     1       4.501  -1.971  -0.273  1.00  0.00     0.165 HD
ATOM     11  O   UNL     1       6.632  -2.458  -1.026  1.00  0.00    -0.249 OA
ATOM     12  H   UNL     1       7.008  -2.033  -3.241  1.00  0.00     0.166 HD
BRANCH   8  13
ATOM     13  C   UNL     1       3.244  -1.506  -1.813  1.00  0.00     0.165 C 
BRANCH  13  14
ATOM     14  C   UNL     1       2.116  -2.290  -1.194  1.00  0.00     0.027 A 
ATOM     15  C   UNL     1       0.796  -1.890  -1.011  1.00  0.00    -0.033 A 
ATOM     16  C   UNL     1      -0.044  -3.012  -0.699  1.00  0.00     0.016 A 
ATOM     17  C   UNL     1       0.662  -4.182  -0.558  1.00  0.00     0.065 A 
ATOM     18  S   UNL     1       2.334  -3.927  -0.728  1.00  0.00    -0.147 S 
BRANCH  15  19
ATOM     19  C   UNL     1       0.270  -0.492  -1.178  1.00  0.00     0.033 C 
ATOM     20  C   UNL     1       0.535   0.356   0.060  1.00  0.00     0.009 C 
ENDBRANCH  15  19
ENDBRANCH  13  14
ENDBRANCH   8  13
ENDBRANCH   6   7
BRANCH   6  21
ATOM     21  C   UNL     1       6.256  -0.064  -4.846  1.00  0.00     0.065 C 
BRANCH  21  22
ATOM     22  C   UNL     1       7.639  -0.489  -5.329  1.00  0.00     0.159 C 
BRANCH  22  23
ATOM     23  O   UNL     1       7.556  -1.469  -6.349  1.00  0.00    -0.396 OA
ATOM     24  H   UNL     1       7.111  -2.259  -6.005  1.00  0.00     0.210 HD
ENDBRANCH  22  23
ENDBRANCH  21  22
ENDBRANCH   6  21
ENDBRANCH   4   6
ENDBRANCH   3   4
ENDBRANCH   2   3
ENDBRANCH   1   2
BRANCH   1  25
ATOM     25  O   UNL     1       4.352  -5.986  -4.515  1.00  0.00    -0.374 OA
BRANCH  25  26
ATOM     26  C   UNL     1       4.504  -5.297  -3.277  1.00  0.00     0.202 C 
BRANCH  26  27
ATOM     27  C   UNL     1       5.574  -5.824  -2.314  1.00  0.00     0.261 C 
BRANCH  27  28
ATOM     28  O   UNL     1       6.887  -5.840  -2.896  1.00  0.00    -0.460 OA
BRANCH  28  29
ATOM     29  C   UNL     1       7.377  -7.075  -3.139  1.00  0.00     0.338 C 
ATOM     30  O   UNL     1       6.864  -8.155  -2.865  1.00  0.00    -0.246 OA
BRANCH  29  31
ATOM     31  C   UNL     1       8.588  -6.979  -3.967  1.00  0.00     0.060 A 
ATOM     32  C   UNL     1       8.589  -7.661  -5.191  1.00  0.00     0.016 A 
ATOM     33  C   UNL     1       9.727  -6.306  -3.522  1.00  0.00     0.016 A 
ATOM     34  C   UNL     1       9.749  -7.711  -5.957  1.00  0.00     0.010 A 
ATOM     35  C   UNL     1      10.895  -6.367  -4.288  1.00  0.00     0.010 A 
ATOM     36  C   UNL     1      10.919  -7.099  -5.489  1.00  0.00    -0.014 A 
BRANCH  36  37
ATOM     37  C   UNL     1      12.199  -7.359  -6.187  1.00  0.00     0.031 A 
ATOM     38  C   UNL     1      13.111  -8.433  -5.662  1.00  0.00     0.074 A 
ATOM     39  C   UNL     1      12.525  -6.679  -7.299  1.00  0.00     0.049 A 
ATOM     40  N   UNL     1      14.265  -8.839  -6.124  1.00  0.00    -0.248 NA
ATOM     41  C   UNL     1      12.658  -9.144  -4.456  1.00  0.00     0.031 C 
ATOM     42  C   UNL     1      11.700  -5.655  -7.938  1.00  0.00     0.029 A 
ATOM     43  N   UNL     1      13.641  -6.759  -8.092  1.00  0.00    -0.354 N 
ATOM     44  C   UNL     1      14.681  -9.846  -5.262  1.00  0.00     0.074 A 
ATOM     45  C   UNL     1      13.668  -9.971  -4.236  1.00  0.00     0.031 C 
ATOM     46  C   UNL     1      12.336  -5.207  -9.033  1.00  0.00     0.029 A 
ATOM     47  C   UNL     1      13.623  -5.888  -9.152  1.00  0.00     0.049 A 
ATOM     48  H   UNL     1      14.384  -7.381  -7.918  1.00  0.00     0.167 HD
ATOM     49  C   UNL     1      15.803 -10.602  -5.320  1.00  0.00     0.031 A 
ATOM     50  C   UNL     1      14.547  -5.660 -10.104  1.00  0.00     0.031 A 
ATOM     51  C   UNL     1      16.818 -10.467  -6.330  1.00  0.00     0.049 A 
ATOM     52  C   UNL     1      15.830  -6.446 -10.093  1.00  0.00     0.074 A 
ATOM     53  C   UNL     1      17.980 -11.202  -6.491  1.00  0.00     0.029 A 
ATOM     54  N   UNL     1      16.798  -9.521  -7.344  1.00  0.00    -0.354 N 
ATOM     55  N   UNL     1      16.198  -7.416  -9.292  1.00  0.00    -0.248 NA
ATOM     56  C   UNL     1      16.823  -6.104 -11.122  1.00  0.00     0.031 C 
ATOM     57  C   UNL     1      18.692 -10.661  -7.568  1.00  0.00     0.029 A 
ATOM     58  C   UNL     1      17.946  -9.627  -8.111  1.00  0.00     0.049 A 
ATOM     59  H   UNL     1      16.075  -8.871  -7.495  1.00  0.00     0.167 HD
ATOM     60  C   UNL     1      17.452  -7.819  -9.735  1.00  0.00     0.074 A 
ATOM     61  C   UNL     1      17.776  -6.993 -10.881  1.00  0.00     0.031 C 
ATOM     62  C   UNL     1      18.259  -8.791  -9.242  1.00  0.00     0.031 A 
BRANCH  49  63
ATOM     63  C   UNL     1      16.008 -11.608  -4.223  1.00  0.00    -0.014 A 
ATOM     64  C   UNL     1      15.225 -12.771  -4.138  1.00  0.00     0.009 A 
ATOM     65  C   UNL     1      17.002 -11.387  -3.257  1.00  0.00     0.009 A 
ATOM     66  C   UNL     1      15.405 -13.668  -3.082  1.00  0.00     0.001 A 
ATOM     67  C   UNL     1      17.198 -12.299  -2.219  1.00  0.00     0.001 A 
ATOM     68  C   UNL     1      16.392 -13.432  -2.126  1.00  0.00     0.000 A 
ENDBRANCH  49  63
BRANCH  50  69
ATOM     69  C   UNL     1      14.293  -4.639 -11.152  1.00  0.00    -0.014 A 
ATOM     70  C   UNL     1      14.039  -5.027 -12.476  1.00  0.00     0.009 A 
ATOM     71  C   UNL     1      14.302  -3.272 -10.834  1.00  0.00     0.009 A 
ATOM     72  C   UNL     1      13.810  -4.066 -13.463  1.00  0.00     0.001 A 
ATOM     73  C   UNL     1      14.049  -2.314 -11.818  1.00  0.00     0.001 A 
ATOM     74  C   UNL     1      13.809  -2.711 -13.132  1.00  0.00     0.000 A 
ENDBRANCH  50  69
BRANCH  62  75
ATOM     75  C   UNL     1      19.558  -9.033  -9.956  1.00  0.00    -0.014 A 
ATOM     76  C   UNL     1      20.630  -8.134  -9.846  1.00  0.00     0.009 A 
ATOM     77  C   UNL     1      19.725 -10.201 -10.718  1.00  0.00     0.009 A 
ATOM     78  C   UNL     1      21.833  -8.385 -10.510  1.00  0.00     0.001 A 
ATOM     79  C   UNL     1      20.937 -10.462 -11.358  1.00  0.00     0.001 A 
ATOM     80  C   UNL     1      21.987  -9.550 -11.261  1.00  0.00     0.000 A 
ENDBRANCH  62  75
ENDBRANCH  36  37
ENDBRANCH  29  31
ENDBRANCH  28  29
ENDBRANCH  27  28
ENDBRANCH  26  27
ENDBRANCH  25  26
ENDBRANCH   1  25
TORSDOF 21
