REMARK SMILES O=C(OCCOCCOC(=O)c1ccc(-c2c3nc(c(-c4ccccc4)c4ccc([nH]4)c(-c4ccccc4)c4nc(c(-c5ccccc5)c5ccc2[nH]5)C=C4)C=C3)cc1)C1=Cc2c(ccc(Cl)c2-c2ccccc2)O[C@H]1C(F)(F)F
REMARK SMILES IDX 7 1 6 2 5 3 4 4 3 5 2 6 1 7 60 8 61 9 76 10 62 11 75 12
REMARK SMILES IDX 63 13 68 14 64 15 66 16 65 17 67 18 77 19 78 20 79 21 80 22
REMARK SMILES IDX 69 23 70 24 74 25 71 26 73 27 72 28 8 29 9 30 10 31 11 32
REMARK SMILES IDX 12 33 13 34 59 35 14 36 58 37 15 38 16 39 17 40 52 41 18 42
REMARK SMILES IDX 57 43 51 44 53 45 19 46 56 47 50 48 49 49 20 51 42 52 27 53
REMARK SMILES IDX 41 54 28 55 31 56 40 57 54 58 29 59 30 60 39 62 55 63 32 64
REMARK SMILES IDX 21 65 22 66 26 67 23 68 25 69 24 70 43 71 44 72 48 73 45 74
REMARK SMILES IDX 47 75 46 76 33 77 34 78 38 79 35 80 37 81 36 82
REMARK H PARENT 53 50 31 61
REMARK Flexibility Score: inf
ROOT
ATOM      1  C   UNL     1       0.832  -2.746   0.828  1.00  0.00     0.202 C 
ENDROOT
BRANCH   1   2
ATOM      2  O   UNL     1       1.097  -2.942  -0.558  1.00  0.00    -0.374 OA
BRANCH   2   3
ATOM      3  C   UNL     1       1.801  -1.957  -1.286  1.00  0.00     0.202 C 
BRANCH   3   4
ATOM      4  C   UNL     1       1.450  -0.473  -1.078  1.00  0.00     0.261 C 
BRANCH   4   5
ATOM      5  O   UNL     1       1.560   0.280  -2.295  1.00  0.00    -0.460 OA
BRANCH   5   6
ATOM      6  C   UNL     1       2.720   0.791  -2.759  1.00  0.00     0.338 C 
ATOM      7  O   UNL     1       2.697   1.704  -3.580  1.00  0.00    -0.246 OA
BRANCH   6   8
ATOM      8  C   UNL     1       4.025   0.189  -2.391  1.00  0.00     0.087 C 
ATOM      9  C   UNL     1       4.324  -0.627  -1.364  1.00  0.00     0.028 C 
ATOM     10  C   UNL     1       5.188   0.690  -3.210  1.00  0.00     0.316 C 
ATOM     11  C   UNL     1       5.186   0.063  -0.394  1.00  0.00     0.027 A 
ATOM     12  O   UNL     1       6.412   0.779  -2.408  1.00  0.00    -0.475 OA
ATOM     13  C   UNL     1       6.216   0.816  -1.037  1.00  0.00     0.128 A 
ATOM     14  C   UNL     1       4.949   0.067   1.014  1.00  0.00     0.011 A 
ATOM     15  C   UNL     1       7.059   1.614  -0.300  1.00  0.00     0.049 A 
ATOM     16  C   UNL     1       5.751   1.016   1.688  1.00  0.00     0.049 A 
ATOM     17  C   UNL     1       6.798   1.738   1.057  1.00  0.00     0.025 A 
ATOM     18  Cl  UNL     1       5.488   1.503   3.316  1.00  0.00    -0.084 Cl
BRANCH  10  19
ATOM     19  C   UNL     1       5.339  -0.245  -4.429  1.00  0.00     0.430 C 
ATOM     20  F   UNL     1       4.183  -0.904  -4.709  1.00  0.00    -0.167 F 
ATOM     21  F   UNL     1       5.688   0.425  -5.548  1.00  0.00    -0.167 F 
ATOM     22  F   UNL     1       6.273  -1.203  -4.210  1.00  0.00    -0.167 F 
ENDBRANCH  10  19
BRANCH  14  23
ATOM     23  C   UNL     1       3.932  -0.856   1.720  1.00  0.00    -0.016 A 
ATOM     24  C   UNL     1       2.861  -0.247   3.053  1.00  0.00     0.009 A 
ATOM     25  C   UNL     1       3.794  -2.606   1.265  1.00  0.00     0.009 A 
ATOM     26  C   UNL     1       1.755  -1.350   3.978  1.00  0.00     0.001 A 
ATOM     27  C   UNL     1       2.672  -3.733   2.154  1.00  0.00     0.001 A 
ATOM     28  C   UNL     1       1.643  -3.096   3.517  1.00  0.00     0.000 A 
ENDBRANCH  14  23
ENDBRANCH   6   8
ENDBRANCH   5   6
ENDBRANCH   4   5
ENDBRANCH   3   4
ENDBRANCH   2   3
ENDBRANCH   1   2
BRANCH   1  29
ATOM     29  C   UNL     1       1.775  -1.775   1.751  1.00  0.00     0.261 C 
BRANCH  29  30
ATOM     30  O   UNL     1       3.264  -2.140   3.071  1.00  0.00    -0.460 OA
BRANCH  30  31
ATOM     31  C   UNL     1       4.232  -2.793   3.852  1.00  0.00     0.338 C 
ATOM     32  O   UNL     1       4.580  -3.973   3.859  1.00  0.00    -0.246 OA
BRANCH  31  33
ATOM     33  C   UNL     1       4.857  -1.858   4.782  1.00  0.00     0.060 A 
ATOM     34  C   UNL     1       6.186  -1.499   4.563  1.00  0.00     0.016 A 
ATOM     35  C   UNL     1       4.131  -1.386   5.881  1.00  0.00     0.016 A 
ATOM     36  C   UNL     1       6.792  -0.623   5.449  1.00  0.00     0.010 A 
ATOM     37  C   UNL     1       4.709  -0.463   6.728  1.00  0.00     0.010 A 
ATOM     38  C   UNL     1       6.053  -0.121   6.531  1.00  0.00    -0.014 A 
BRANCH  38  39
ATOM     39  C   UNL     1       6.763   0.473   7.664  1.00  0.00     0.031 A 
ATOM     40  C   UNL     1       7.207  -0.483   8.727  1.00  0.00     0.074 A 
ATOM     41  C   UNL     1       6.949   1.798   7.741  1.00  0.00     0.049 A 
ATOM     42  N   UNL     1       7.828  -0.244   9.847  1.00  0.00    -0.248 NA
ATOM     43  C   UNL     1       6.891  -1.909   8.501  1.00  0.00     0.031 C 
ATOM     44  C   UNL     1       6.531   2.775   6.738  1.00  0.00     0.029 A 
ATOM     45  N   UNL     1       7.537   2.547   8.718  1.00  0.00    -0.354 N 
ATOM     46  C   UNL     1       7.973  -1.484  10.453  1.00  0.00     0.074 A 
ATOM     47  C   UNL     1       7.345  -2.468   9.607  1.00  0.00     0.031 C 
ATOM     48  C   UNL     1       6.893   4.003   7.145  1.00  0.00     0.029 A 
ATOM     49  C   UNL     1       7.528   3.893   8.453  1.00  0.00     0.049 A 
ATOM     50  H   UNL     1       7.929   2.160   9.534  1.00  0.00     0.167 HD
ATOM     51  C   UNL     1       8.585  -1.770  11.622  1.00  0.00     0.031 A 
ATOM     52  C   UNL     1       7.979   4.909   9.207  1.00  0.00     0.031 A 
ATOM     53  C   UNL     1       9.147  -0.757  12.466  1.00  0.00     0.049 A 
ATOM     54  C   UNL     1       8.601   4.569  10.535  1.00  0.00     0.074 A 
ATOM     55  C   UNL     1       9.787  -0.897  13.680  1.00  0.00     0.029 A 
ATOM     56  N   UNL     1       9.109   0.602  12.176  1.00  0.00    -0.354 N 
ATOM     57  N   UNL     1       8.786   3.391  11.084  1.00  0.00    -0.248 NA
ATOM     58  C   UNL     1       9.083   5.696  11.340  1.00  0.00     0.031 C 
ATOM     59  C   UNL     1      10.088   0.385  14.151  1.00  0.00     0.029 A 
ATOM     60  C   UNL     1       9.695   1.317  13.200  1.00  0.00     0.049 A 
ATOM     61  H   UNL     1       8.722   0.995  11.360  1.00  0.00     0.167 HD
ATOM     62  C   UNL     1       9.437   3.628  12.286  1.00  0.00     0.074 A 
ATOM     63  C   UNL     1       9.624   5.066  12.374  1.00  0.00     0.031 C 
ATOM     64  C   UNL     1       9.851   2.750  13.233  1.00  0.00     0.031 A 
BRANCH  51  65
ATOM     65  C   UNL     1       8.599  -3.210  12.044  1.00  0.00    -0.014 A 
ATOM     66  C   UNL     1       9.350  -4.170  11.343  1.00  0.00     0.009 A 
ATOM     67  C   UNL     1       7.805  -3.625  13.123  1.00  0.00     0.009 A 
ATOM     68  C   UNL     1       9.271  -5.521  11.689  1.00  0.00     0.001 A 
ATOM     69  C   UNL     1       7.752  -4.972  13.485  1.00  0.00     0.001 A 
ATOM     70  C   UNL     1       8.475  -5.920  12.762  1.00  0.00     0.000 A 
ENDBRANCH  51  65
BRANCH  52  71
ATOM     71  C   UNL     1       7.874   6.311   8.728  1.00  0.00    -0.014 A 
ATOM     72  C   UNL     1       9.026   7.033   8.381  1.00  0.00     0.009 A 
ATOM     73  C   UNL     1       6.623   6.938   8.607  1.00  0.00     0.009 A 
ATOM     74  C   UNL     1       8.931   8.360   7.953  1.00  0.00     0.001 A 
ATOM     75  C   UNL     1       6.528   8.255   8.152  1.00  0.00     0.001 A 
ATOM     76  C   UNL     1       7.683   8.969   7.836  1.00  0.00     0.000 A 
ENDBRANCH  52  71
BRANCH  64  77
ATOM     77  C   UNL     1      10.583   3.327  14.409  1.00  0.00    -0.014 A 
ATOM     78  C   UNL     1       9.915   4.069  15.394  1.00  0.00     0.009 A 
ATOM     79  C   UNL     1      11.958   3.084  14.545  1.00  0.00     0.009 A 
ATOM     80  C   UNL     1      10.623   4.593  16.475  1.00  0.00     0.001 A 
ATOM     81  C   UNL     1      12.656   3.579  15.645  1.00  0.00     0.001 A 
ATOM     82  C   UNL     1      11.990   4.343  16.602  1.00  0.00     0.000 A 
ENDBRANCH  64  77
ENDBRANCH  38  39
ENDBRANCH  31  33
ENDBRANCH  30  31
ENDBRANCH  29  30
ENDBRANCH   1  29
TORSDOF 16
