REMARK SMILES COc1ccc(CNC(=O)[C@H]2CC(C)=C(C)C[C@@H]2C(=O)OCCOCCOC(=O)c2ccc(-c3c4nc(c(-c5ccccc5)c5ccc([nH]5)c(-c5ccccc5)c5nc(c(-c6ccccc6)c6ccc3[nH]6)C=C5)C=C4)cc2)cc1OC
REMARK SMILES IDX 23 1 22 2 21 3 19 4 20 5 18 6 11 7 12 8 13 9 17 10 14 11
REMARK SMILES IDX 15 12 16 13 9 14 8 15 10 17 7 18 6 19 3 20 4 21 79 22 5 23
REMARK SMILES IDX 78 24 2 25 1 26 80 27 81 28 24 29 25 30 26 31 27 32 28 33
REMARK SMILES IDX 29 34 30 35 31 36 77 37 32 38 76 39 33 40 34 41 35 42 70 43
REMARK SMILES IDX 36 44 75 45 69 46 71 47 37 48 74 49 68 50 67 51 38 53 60 54
REMARK SMILES IDX 45 55 59 56 46 57 49 58 58 59 72 60 47 61 48 62 57 64 73 65
REMARK SMILES IDX 50 66 39 67 40 68 44 69 41 70 43 71 42 72 61 73 62 74 66 75
REMARK SMILES IDX 63 76 65 77 64 78 51 79 52 80 56 81 53 82 55 83 54 84
REMARK H PARENT 8 16 71 52 49 63
REMARK Flexibility Score: inf
ROOT
ATOM      1  C   UNL     1       0.964   0.609  12.533  1.00  0.00     0.202 C 
ENDROOT
BRANCH   1   2
ATOM      2  C   UNL     1       2.171   0.859  11.627  1.00  0.00     0.261 C 
BRANCH   2   3
ATOM      3  O   UNL     1       1.805   1.542  10.423  1.00  0.00    -0.463 OA
BRANCH   3   4
ATOM      4  C   UNL     1       1.736   0.738   9.337  1.00  0.00     0.310 C 
ATOM      5  O   UNL     1       2.106  -0.434   9.317  1.00  0.00    -0.252 OA
BRANCH   4   6
ATOM      6  C   UNL     1       1.193   1.412   8.088  1.00  0.00     0.116 C 
ATOM      7  C   UNL     1       0.727   2.878   8.148  1.00  0.00     0.097 C 
ATOM      8  C   UNL     1      -0.774   3.163   7.933  1.00  0.00     0.045 C 
ATOM      9  C   UNL     1      -1.589   2.149   7.183  1.00  0.00    -0.074 C 
ATOM     10  C   UNL     1       0.198   0.412   7.444  1.00  0.00     0.046 C 
ATOM     11  C   UNL     1      -2.953   2.647   6.760  1.00  0.00     0.039 C 
ATOM     12  C   UNL     1      -1.141   0.902   6.960  1.00  0.00    -0.073 C 
ATOM     13  C   UNL     1      -1.979  -0.147   6.267  1.00  0.00     0.039 C 
BRANCH   7  14
ATOM     14  C   UNL     1       1.480   3.893   7.267  1.00  0.00     0.224 C 
ATOM     15  N   UNL     1       1.811   3.683   5.964  1.00  0.00    -0.352 N 
ATOM     16  H   UNL     1       1.752   4.473   5.380  1.00  0.00     0.163 HD
ATOM     17  O   UNL     1       1.669   5.035   7.704  1.00  0.00    -0.275 OA
BRANCH  15  18
ATOM     18  C   UNL     1       2.234   2.467   5.321  1.00  0.00     0.151 C 
BRANCH  18  19
ATOM     19  C   UNL     1       1.909   2.329   3.869  1.00  0.00    -0.025 A 
ATOM     20  C   UNL     1       1.262   1.490   1.276  1.00  0.00     0.160 A 
ATOM     21  C   UNL     1       0.277   2.037   2.112  1.00  0.00     0.051 A 
ATOM     22  C   UNL     1       2.588   1.399   1.714  1.00  0.00     0.161 A 
ATOM     23  C   UNL     1       0.595   2.444   3.408  1.00  0.00     0.009 A 
ATOM     24  C   UNL     1       2.894   1.826   3.008  1.00  0.00     0.056 A 
BRANCH  20  25
ATOM     25  O   UNL     1       0.906   1.116   0.009  1.00  0.00    -0.493 OA
ATOM     26  C   UNL     1       0.103  -0.066   0.015  1.00  0.00     0.278 C 
ENDBRANCH  20  25
BRANCH  22  27
ATOM     27  O   UNL     1       3.683   0.920   1.052  1.00  0.00    -0.493 OA
ATOM     28  C   UNL     1       3.472   0.094  -0.080  1.00  0.00     0.278 C 
ENDBRANCH  22  27
ENDBRANCH  18  19
ENDBRANCH  15  18
ENDBRANCH   7  14
ENDBRANCH   4   6
ENDBRANCH   3   4
ENDBRANCH   2   3
ENDBRANCH   1   2
BRANCH   1  29
ATOM     29  O   UNL     1      -0.187   0.012  11.943  1.00  0.00    -0.374 OA
BRANCH  29  30
ATOM     30  C   UNL     1      -1.036   0.823  11.127  1.00  0.00     0.202 C 
BRANCH  30  31
ATOM     31  C   UNL     1      -1.770   1.990  11.795  1.00  0.00     0.261 C 
BRANCH  31  32
ATOM     32  O   UNL     1      -0.866   3.061  12.137  1.00  0.00    -0.460 OA
BRANCH  32  33
ATOM     33  C   UNL     1      -0.838   3.383  13.451  1.00  0.00     0.338 C 
ATOM     34  O   UNL     1      -1.541   2.924  14.343  1.00  0.00    -0.246 OA
BRANCH  33  35
ATOM     35  C   UNL     1       0.323   4.239  13.737  1.00  0.00     0.060 A 
ATOM     36  C   UNL     1       1.279   3.759  14.643  1.00  0.00     0.016 A 
ATOM     37  C   UNL     1       0.426   5.527  13.209  1.00  0.00     0.016 A 
ATOM     38  C   UNL     1       2.322   4.582  15.059  1.00  0.00     0.010 A 
ATOM     39  C   UNL     1       1.464   6.358  13.642  1.00  0.00     0.010 A 
ATOM     40  C   UNL     1       2.395   5.900  14.592  1.00  0.00    -0.014 A 
BRANCH  40  41
ATOM     41  C   UNL     1       3.359   6.838  15.211  1.00  0.00     0.031 A 
ATOM     42  C   UNL     1       2.884   7.759  16.300  1.00  0.00     0.074 A 
ATOM     43  C   UNL     1       4.647   6.849  14.829  1.00  0.00     0.049 A 
ATOM     44  N   UNL     1       3.545   8.682  16.951  1.00  0.00    -0.248 NA
ATOM     45  C   UNL     1       1.478   7.618  16.713  1.00  0.00     0.031 C 
ATOM     46  C   UNL     1       5.240   5.966  13.826  1.00  0.00     0.029 A 
ATOM     47  N   UNL     1       5.689   7.640  15.244  1.00  0.00    -0.354 N 
ATOM     48  C   UNL     1       2.636   9.236  17.844  1.00  0.00     0.074 A 
ATOM     49  C   UNL     1       1.372   8.562  17.636  1.00  0.00     0.031 C 
ATOM     50  C   UNL     1       6.543   6.272  13.694  1.00  0.00     0.029 A 
ATOM     51  C   UNL     1       6.862   7.394  14.575  1.00  0.00     0.049 A 
ATOM     52  H   UNL     1       5.603   8.318  15.952  1.00  0.00     0.167 HD
ATOM     53  C   UNL     1       2.836  10.217  18.755  1.00  0.00     0.031 A 
ATOM     54  C   UNL     1       8.051   8.024  14.645  1.00  0.00     0.031 A 
ATOM     55  C   UNL     1       4.087  10.899  18.948  1.00  0.00     0.049 A 
ATOM     56  C   UNL     1       8.220   9.178  15.596  1.00  0.00     0.074 A 
ATOM     57  C   UNL     1       4.393  11.899  19.855  1.00  0.00     0.029 A 
ATOM     58  N   UNL     1       5.237  10.659  18.213  1.00  0.00    -0.354 N 
ATOM     59  N   UNL     1       7.361   9.680  16.449  1.00  0.00    -0.248 NA
ATOM     60  C   UNL     1       9.527   9.853  15.592  1.00  0.00     0.031 C 
ATOM     61  C   UNL     1       5.713  12.304  19.628  1.00  0.00     0.029 A 
ATOM     62  C   UNL     1       6.245  11.514  18.622  1.00  0.00     0.049 A 
ATOM     63  H   UNL     1       5.324   9.980  17.505  1.00  0.00     0.167 HD
ATOM     64  C   UNL     1       8.028  10.711  17.099  1.00  0.00     0.074 A 
ATOM     65  C   UNL     1       9.368  10.753  16.552  1.00  0.00     0.031 C 
ATOM     66  C   UNL     1       7.573  11.546  18.065  1.00  0.00     0.031 A 
BRANCH  53  67
ATOM     67  C   UNL     1       1.658  10.639  19.587  1.00  0.00    -0.014 A 
ATOM     68  C   UNL     1       1.154   9.819  20.609  1.00  0.00     0.009 A 
ATOM     69  C   UNL     1       1.063  11.891  19.364  1.00  0.00     0.009 A 
ATOM     70  C   UNL     1       0.059  10.234  21.371  1.00  0.00     0.001 A 
ATOM     71  C   UNL     1      -0.014  12.313  20.144  1.00  0.00     0.001 A 
ATOM     72  C   UNL     1      -0.520  11.481  21.141  1.00  0.00     0.000 A 
ENDBRANCH  53  67
BRANCH  54  73
ATOM     73  C   UNL     1       9.170   7.599  13.765  1.00  0.00    -0.014 A 
ATOM     74  C   UNL     1      10.307   6.977  14.300  1.00  0.00     0.009 A 
ATOM     75  C   UNL     1       9.111   7.832  12.381  1.00  0.00     0.009 A 
ATOM     76  C   UNL     1      11.372   6.617  13.470  1.00  0.00     0.001 A 
ATOM     77  C   UNL     1      10.164   7.446  11.551  1.00  0.00     0.001 A 
ATOM     78  C   UNL     1      11.298   6.847  12.097  1.00  0.00     0.000 A 
ENDBRANCH  54  73
BRANCH  66  79
ATOM     79  C   UNL     1       8.539  12.557  18.615  1.00  0.00    -0.014 A 
ATOM     80  C   UNL     1       8.916  13.684  17.869  1.00  0.00     0.009 A 
ATOM     81  C   UNL     1       9.036  12.405  19.919  1.00  0.00     0.009 A 
ATOM     82  C   UNL     1       9.796  14.624  18.409  1.00  0.00     0.001 A 
ATOM     83  C   UNL     1       9.893  13.361  20.466  1.00  0.00     0.001 A 
ATOM     84  C   UNL     1      10.279  14.465  19.708  1.00  0.00     0.000 A 
ENDBRANCH  66  79
ENDBRANCH  40  41
ENDBRANCH  33  35
ENDBRANCH  32  33
ENDBRANCH  31  32
ENDBRANCH  30  31
ENDBRANCH  29  30
ENDBRANCH   1  29
TORSDOF 19
