REMARK SMILES Cc1cccc(OC2(C(=O)OCCOCCOC(=O)c3ccc(-c4c5nc(c(-c6ccccc6)c6ccc([nH]6)c(-c6ccccc6)c6nc(c(-c7ccccc7)c7ccc4[nH]7)C=C6)C=C5)cc3)CCN(C(=O)c3cnc[nH]c3=O)CC2)c1
REMARK SMILES IDX 14 1 13 2 12 3 11 4 9 5 10 6 8 7 68 8 81 9 69 10 80 11 70 12
REMARK SMILES IDX 71 13 72 14 7 15 6 16 1 17 2 18 3 19 82 20 4 21 5 22 73 23
REMARK SMILES IDX 74 24 78 25 75 26 77 27 79 28 76 29 15 31 16 32 17 33 18 34
REMARK SMILES IDX 19 35 20 36 21 37 67 38 22 39 66 40 23 41 24 42 25 43 60 44
REMARK SMILES IDX 26 45 65 46 59 47 61 48 27 49 64 50 58 51 57 52 28 54 50 55
REMARK SMILES IDX 35 56 49 57 36 58 39 59 48 60 62 61 37 62 38 63 47 65 63 66
REMARK SMILES IDX 40 67 29 68 30 69 34 70 31 71 33 72 32 73 51 74 52 75 56 76
REMARK SMILES IDX 53 77 55 78 54 79 41 80 42 81 46 82 43 83 45 84 44 85
REMARK H PARENT 77 30 61 53 39 64
REMARK Flexibility Score: inf
ROOT
ATOM      1  O   UNL     1       0.833   2.293  -2.593  1.00  0.00    -0.374 OA
ENDROOT
BRANCH   1   2
ATOM      2  C   UNL     1       1.532   3.490  -2.316  1.00  0.00     0.202 C 
BRANCH   2   3
ATOM      3  C   UNL     1       0.493   4.523  -1.997  1.00  0.00     0.261 C 
BRANCH   3   4
ATOM      4  O   UNL     1      -0.814   3.962  -1.544  1.00  0.00    -0.460 OA
BRANCH   4   5
ATOM      5  C   UNL     1      -1.377   3.276  -0.522  1.00  0.00     0.350 C 
ATOM      6  O   UNL     1      -2.508   2.808  -0.681  1.00  0.00    -0.247 OA
BRANCH   5   7
ATOM      7  C   UNL     1      -0.683   3.172   0.852  1.00  0.00     0.209 C 
ATOM      8  C   UNL     1       0.781   3.578   0.728  1.00  0.00     0.082 C 
ATOM      9  C   UNL     1      -1.376   4.153   1.836  1.00  0.00     0.082 C 
ATOM     10  C   UNL     1       1.567   3.890   1.962  1.00  0.00     0.124 C 
ATOM     11  C   UNL     1      -0.558   4.221   3.134  1.00  0.00     0.124 C 
ATOM     12  N   UNL     1       0.770   4.729   2.810  1.00  0.00    -0.338 N 
ATOM     13  C   UNL     1       1.233   5.989   3.149  1.00  0.00     0.261 C 
ATOM     14  O   UNL     1       1.890   6.703   2.426  1.00  0.00    -0.269 OA
BRANCH   7  15
ATOM     15  O   UNL     1      -0.941   1.905   1.504  1.00  0.00    -0.475 OA
BRANCH  15  16
ATOM     16  C   UNL     1      -0.475   0.771   0.921  1.00  0.00     0.121 A 
ATOM     17  C   UNL     1       2.872  -0.879   0.397  1.00  0.00     0.044 C 
ATOM     18  C   UNL     1       1.387  -0.695   0.432  1.00  0.00    -0.047 A 
ATOM     19  C   UNL     1       0.497  -1.641  -0.079  1.00  0.00     0.003 A 
ATOM     20  C   UNL     1       0.875   0.469   1.000  1.00  0.00     0.050 A 
ATOM     21  C   UNL     1      -0.878  -1.384  -0.075  1.00  0.00     0.004 A 
ATOM     22  C   UNL     1      -1.365  -0.167   0.411  1.00  0.00     0.046 A 
ENDBRANCH  15  16
ENDBRANCH   7  15
BRANCH  13  23
ATOM     23  C   UNL     1       0.930   6.333   4.548  1.00  0.00     0.123 A 
ATOM     24  C   UNL     1       0.223   7.426   4.848  1.00  0.00     0.132 A 
ATOM     25  C   UNL     1       1.302   5.422   5.645  1.00  0.00     0.263 A 
ATOM     26  N   UNL     1      -0.216   7.741   6.113  1.00  0.00    -0.246 NA
ATOM     27  N   UNL     1       0.806   5.766   6.865  1.00  0.00    -0.312 N 
ATOM     28  O   UNL     1       1.995   4.419   5.493  1.00  0.00    -0.269 OA
ATOM     29  C   UNL     1       0.080   6.905   7.051  1.00  0.00     0.199 A 
ATOM     30  H   UNL     1       0.978   5.177   7.635  1.00  0.00     0.171 HD
ENDBRANCH  13  23
ENDBRANCH   5   7
ENDBRANCH   4   5
ENDBRANCH   3   4
ENDBRANCH   2   3
ENDBRANCH   1   2
BRANCH   1  31
ATOM     31  C   UNL     1       1.616   1.119  -2.644  1.00  0.00     0.202 C 
BRANCH  31  32
ATOM     32  C   UNL     1       2.747   1.175  -3.673  1.00  0.00     0.261 C 
BRANCH  32  33
ATOM     33  O   UNL     1       2.206   1.317  -5.002  1.00  0.00    -0.460 OA
BRANCH  33  34
ATOM     34  C   UNL     1       2.223   2.582  -5.506  1.00  0.00     0.338 C 
ATOM     35  O   UNL     1       3.212   3.296  -5.578  1.00  0.00    -0.246 OA
BRANCH  34  36
ATOM     36  C   UNL     1       0.826   3.083  -5.667  1.00  0.00     0.060 A 
ATOM     37  C   UNL     1       0.595   4.456  -5.878  1.00  0.00     0.016 A 
ATOM     38  C   UNL     1      -0.216   2.262  -5.244  1.00  0.00     0.016 A 
ATOM     39  C   UNL     1      -0.638   5.025  -5.527  1.00  0.00     0.010 A 
ATOM     40  C   UNL     1      -1.361   2.853  -4.755  1.00  0.00     0.010 A 
ATOM     41  C   UNL     1      -1.589   4.230  -4.893  1.00  0.00    -0.014 A 
BRANCH  41  42
ATOM     42  C   UNL     1      -2.851   4.695  -4.310  1.00  0.00     0.031 A 
ATOM     43  C   UNL     1      -4.105   4.174  -4.875  1.00  0.00     0.074 A 
ATOM     44  C   UNL     1      -2.892   5.362  -3.135  1.00  0.00     0.049 A 
ATOM     45  N   UNL     1      -5.256   4.701  -4.651  1.00  0.00    -0.248 NA
ATOM     46  C   UNL     1      -4.170   3.046  -5.802  1.00  0.00     0.031 C 
ATOM     47  C   UNL     1      -3.955   5.414  -2.131  1.00  0.00     0.029 A 
ATOM     48  N   UNL     1      -1.879   6.099  -2.535  1.00  0.00    -0.354 N 
ATOM     49  C   UNL     1      -6.192   3.774  -5.031  1.00  0.00     0.074 A 
ATOM     50  C   UNL     1      -5.488   2.869  -5.903  1.00  0.00     0.031 C 
ATOM     51  C   UNL     1      -3.643   6.326  -1.187  1.00  0.00     0.029 A 
ATOM     52  C   UNL     1      -2.421   6.993  -1.610  1.00  0.00     0.049 A 
ATOM     53  H   UNL     1      -0.919   6.005  -2.734  1.00  0.00     0.167 HD
ATOM     54  C   UNL     1      -7.400   3.777  -4.402  1.00  0.00     0.031 A 
ATOM     55  C   UNL     1      -2.184   8.326  -1.742  1.00  0.00     0.031 A 
ATOM     56  C   UNL     1      -7.496   4.891  -3.436  1.00  0.00     0.049 A 
ATOM     57  C   UNL     1      -3.491   8.962  -2.118  1.00  0.00     0.074 A 
ATOM     58  C   UNL     1      -7.531   4.946  -2.051  1.00  0.00     0.029 A 
ATOM     59  N   UNL     1      -7.220   6.196  -3.859  1.00  0.00    -0.354 N 
ATOM     60  N   UNL     1      -4.457   8.280  -2.673  1.00  0.00    -0.248 NA
ATOM     61  C   UNL     1      -3.876  10.331  -1.804  1.00  0.00     0.031 C 
ATOM     62  C   UNL     1      -7.217   6.280  -1.652  1.00  0.00     0.029 A 
ATOM     63  C   UNL     1      -7.019   7.050  -2.789  1.00  0.00     0.049 A 
ATOM     64  H   UNL     1      -7.174   6.473  -4.803  1.00  0.00     0.167 HD
ATOM     65  C   UNL     1      -5.596   9.013  -2.652  1.00  0.00     0.074 A 
ATOM     66  C   UNL     1      -5.173  10.319  -2.167  1.00  0.00     0.031 C 
ATOM     67  C   UNL     1      -6.803   8.484  -3.000  1.00  0.00     0.031 A 
BRANCH  54  68
ATOM     68  C   UNL     1      -8.380   2.618  -4.467  1.00  0.00    -0.014 A 
ATOM     69  C   UNL     1      -9.464   2.568  -3.575  1.00  0.00     0.009 A 
ATOM     70  C   UNL     1      -8.286   1.525  -5.352  1.00  0.00     0.009 A 
ATOM     71  C   UNL     1     -10.363   1.488  -3.547  1.00  0.00     0.001 A 
ATOM     72  C   UNL     1      -9.168   0.435  -5.325  1.00  0.00     0.001 A 
ATOM     73  C   UNL     1     -10.211   0.416  -4.418  1.00  0.00     0.000 A 
ENDBRANCH  54  68
BRANCH  55  74
ATOM     74  C   UNL     1      -0.809   8.605  -2.272  1.00  0.00    -0.014 A 
ATOM     75  C   UNL     1       0.281   8.409  -1.391  1.00  0.00     0.009 A 
ATOM     76  C   UNL     1      -0.545   8.573  -3.651  1.00  0.00     0.009 A 
ATOM     77  C   UNL     1       1.555   8.067  -1.870  1.00  0.00     0.001 A 
ATOM     78  C   UNL     1       0.730   8.218  -4.125  1.00  0.00     0.001 A 
ATOM     79  C   UNL     1       1.768   7.931  -3.238  1.00  0.00     0.000 A 
ENDBRANCH  55  74
BRANCH  67  80
ATOM     80  C   UNL     1      -7.924   9.313  -3.551  1.00  0.00    -0.014 A 
ATOM     81  C   UNL     1      -7.756  10.623  -4.020  1.00  0.00     0.009 A 
ATOM     82  C   UNL     1      -9.165   8.695  -3.808  1.00  0.00     0.009 A 
ATOM     83  C   UNL     1      -8.789  11.297  -4.674  1.00  0.00     0.001 A 
ATOM     84  C   UNL     1     -10.175   9.340  -4.518  1.00  0.00     0.001 A 
ATOM     85  C   UNL     1      -9.990  10.649  -4.938  1.00  0.00     0.000 A 
ENDBRANCH  67  80
ENDBRANCH  41  42
ENDBRANCH  34  36
ENDBRANCH  33  34
ENDBRANCH  32  33
ENDBRANCH  31  32
ENDBRANCH   1  31
TORSDOF 17
