REMARK SMILES Cc1ccc(NC(=O)N[C@@H]2C=C[C@@H](C(=O)OCCOCCOC(=O)c3ccc(-c4c5nc(c(-c6ccccc6)c6ccc([nH]6)c(-c6ccccc6)c6nc(c(-c7ccccc7)c7ccc4[nH]7)C=C6)C=C5)cc3)C2)c(F)c1
REMARK SMILES IDX 19 1 18 2 17 3 16 4 14 5 15 6 13 7 10 8 11 9 73 10 12 11
REMARK SMILES IDX 9 12 6 13 7 14 8 16 5 18 1 19 2 20 3 21 76 22 4 23 74 24
REMARK SMILES IDX 75 25 20 26 21 27 22 28 23 29 24 30 25 31 26 32 72 33 27 34
REMARK SMILES IDX 71 35 28 36 29 37 30 38 65 39 31 40 70 41 64 42 66 43 32 44
REMARK SMILES IDX 69 45 63 46 62 47 33 49 55 50 40 51 54 52 41 53 44 54 53 55
REMARK SMILES IDX 67 56 42 57 43 58 52 60 68 61 45 62 34 63 35 64 39 65 36 66
REMARK SMILES IDX 38 67 37 68 56 69 57 70 61 71 58 72 60 73 59 74 46 75 47 76
REMARK SMILES IDX 51 77 48 78 50 79 49 80
REMARK H PARENT 6 15 9 17 66 48 44 59
REMARK Flexibility Score: inf
ROOT
ATOM      1  O   UNL     1       0.681  -0.026   5.849  1.00  0.00    -0.374 OA
ENDROOT
BRANCH   1   2
ATOM      2  C   UNL     1      -0.529   0.637   6.183  1.00  0.00     0.202 C 
BRANCH   2   3
ATOM      3  C   UNL     1      -1.182   1.609   5.187  1.00  0.00     0.261 C 
BRANCH   3   4
ATOM      4  O   UNL     1      -1.010   1.252   3.808  1.00  0.00    -0.463 OA
BRANCH   4   5
ATOM      5  C   UNL     1      -0.101   2.012   3.133  1.00  0.00     0.312 C 
ATOM      6  O   UNL     1       0.460   2.995   3.608  1.00  0.00    -0.252 OA
BRANCH   5   7
ATOM      7  C   UNL     1       0.258   1.423   1.763  1.00  0.00     0.124 C 
ATOM      8  C   UNL     1      -1.585   1.734   0.227  1.00  0.00     0.107 C 
ATOM      9  C   UNL     1      -0.513   2.748  -0.003  1.00  0.00    -0.006 C 
ATOM     10  C   UNL     1      -0.835   0.648   1.004  1.00  0.00     0.048 C 
ATOM     11  C   UNL     1       0.511   2.575   0.835  1.00  0.00    -0.014 C 
BRANCH   8  12
ATOM     12  N   UNL     1      -2.169   1.339  -1.035  1.00  0.00    -0.332 N 
ATOM     13  N   UNL     1      -3.329   3.330  -1.611  1.00  0.00    -0.305 N 
ATOM     14  C   UNL     1      -2.869   2.088  -1.934  1.00  0.00     0.319 C 
ATOM     15  H   UNL     1      -3.396   3.972  -2.354  1.00  0.00     0.171 HD
ATOM     16  O   UNL     1      -2.932   1.697  -3.100  1.00  0.00    -0.248 OA
ATOM     17  H   UNL     1      -2.043   0.394  -1.281  1.00  0.00     0.165 HD
BRANCH  13  18
ATOM     18  C   UNL     1      -3.720   3.808  -0.350  1.00  0.00     0.078 A 
ATOM     19  C   UNL     1      -3.605   4.661   3.837  1.00  0.00     0.044 C 
ATOM     20  C   UNL     1      -3.819   4.461   2.366  1.00  0.00    -0.048 A 
ATOM     21  C   UNL     1      -3.215   5.332   1.445  1.00  0.00     0.006 A 
ATOM     22  C   UNL     1      -4.513   3.342   1.894  1.00  0.00     0.045 A 
ATOM     23  C   UNL     1      -3.197   5.028   0.080  1.00  0.00     0.029 A 
ATOM     24  C   UNL     1      -4.464   3.024   0.540  1.00  0.00     0.147 A 
ATOM     25  F   UNL     1      -5.025   1.877   0.130  1.00  0.00    -0.205 F 
ENDBRANCH  13  18
ENDBRANCH   8  12
ENDBRANCH   5   7
ENDBRANCH   4   5
ENDBRANCH   3   4
ENDBRANCH   2   3
ENDBRANCH   1   2
BRANCH   1  26
ATOM     26  C   UNL     1       0.740  -0.853   4.696  1.00  0.00     0.202 C 
BRANCH  26  27
ATOM     27  C   UNL     1      -0.253  -2.007   4.491  1.00  0.00     0.261 C 
BRANCH  27  28
ATOM     28  O   UNL     1      -1.628  -1.693   4.760  1.00  0.00    -0.460 OA
BRANCH  28  29
ATOM     29  C   UNL     1      -2.126  -2.305   5.857  1.00  0.00     0.338 C 
ATOM     30  O   UNL     1      -1.530  -3.064   6.622  1.00  0.00    -0.246 OA
BRANCH  29  31
ATOM     31  C   UNL     1      -3.488  -1.844   6.150  1.00  0.00     0.060 A 
ATOM     32  C   UNL     1      -3.709  -1.200   7.374  1.00  0.00     0.016 A 
ATOM     33  C   UNL     1      -4.557  -2.185   5.319  1.00  0.00     0.016 A 
ATOM     34  C   UNL     1      -5.008  -0.944   7.801  1.00  0.00     0.010 A 
ATOM     35  C   UNL     1      -5.862  -1.936   5.754  1.00  0.00     0.010 A 
ATOM     36  C   UNL     1      -6.093  -1.355   7.015  1.00  0.00    -0.014 A 
BRANCH  36  37
ATOM     37  C   UNL     1      -7.457  -1.319   7.592  1.00  0.00     0.031 A 
ATOM     38  C   UNL     1      -8.051  -2.583   8.150  1.00  0.00     0.074 A 
ATOM     39  C   UNL     1      -8.139  -0.163   7.662  1.00  0.00     0.049 A 
ATOM     40  N   UNL     1      -9.226  -2.778   8.693  1.00  0.00    -0.248 NA
ATOM     41  C   UNL     1      -7.208  -3.788   8.091  1.00  0.00     0.031 C 
ATOM     42  C   UNL     1      -7.648   1.138   7.210  1.00  0.00     0.029 A 
ATOM     43  N   UNL     1      -9.395   0.098   8.146  1.00  0.00    -0.354 N 
ATOM     44  C   UNL     1      -9.268  -4.126   9.027  1.00  0.00     0.074 A 
ATOM     45  C   UNL     1      -8.012  -4.707   8.606  1.00  0.00     0.031 C 
ATOM     46  C   UNL     1      -8.596   2.063   7.439  1.00  0.00     0.029 A 
ATOM     47  C   UNL     1      -9.770   1.413   8.018  1.00  0.00     0.049 A 
ATOM     48  H   UNL     1      -9.973  -0.591   8.547  1.00  0.00     0.167 HD
ATOM     49  C   UNL     1     -10.262  -4.818   9.634  1.00  0.00     0.031 A 
ATOM     50  C   UNL     1     -10.935   2.018   8.317  1.00  0.00     0.031 A 
ATOM     51  C   UNL     1     -11.515  -4.242  10.045  1.00  0.00     0.049 A 
ATOM     52  C   UNL     1     -12.056   1.208   8.909  1.00  0.00     0.074 A 
ATOM     53  C   UNL     1     -12.578  -4.855  10.686  1.00  0.00     0.029 A 
ATOM     54  N   UNL     1     -11.878  -2.919   9.845  1.00  0.00    -0.354 N 
ATOM     55  N   UNL     1     -12.075  -0.060   9.243  1.00  0.00    -0.248 NA
ATOM     56  C   UNL     1     -13.317   1.918   9.169  1.00  0.00     0.031 C 
ATOM     57  C   UNL     1     -13.607  -3.917  10.819  1.00  0.00     0.029 A 
ATOM     58  C   UNL     1     -13.161  -2.705  10.319  1.00  0.00     0.049 A 
ATOM     59  H   UNL     1     -11.307  -2.234   9.428  1.00  0.00     0.167 HD
ATOM     60  C   UNL     1     -13.336  -0.292   9.780  1.00  0.00     0.074 A 
ATOM     61  C   UNL     1     -14.047   0.969   9.739  1.00  0.00     0.031 C 
ATOM     62  C   UNL     1     -13.856  -1.445  10.269  1.00  0.00     0.031 A 
BRANCH  49  63
ATOM     63  C   UNL     1     -10.049  -6.291   9.849  1.00  0.00    -0.014 A 
ATOM     64  C   UNL     1      -9.139  -6.769  10.804  1.00  0.00     0.009 A 
ATOM     65  C   UNL     1     -10.796  -7.215   9.100  1.00  0.00     0.009 A 
ATOM     66  C   UNL     1      -8.955  -8.143  10.979  1.00  0.00     0.001 A 
ATOM     67  C   UNL     1     -10.630  -8.587   9.297  1.00  0.00     0.001 A 
ATOM     68  C   UNL     1      -9.704  -9.050  10.229  1.00  0.00     0.000 A 
ENDBRANCH  49  63
BRANCH  50  69
ATOM     69  C   UNL     1     -11.111   3.467   8.043  1.00  0.00    -0.014 A 
ATOM     70  C   UNL     1     -11.223   4.386   9.097  1.00  0.00     0.009 A 
ATOM     71  C   UNL     1     -11.187   3.937   6.722  1.00  0.00     0.009 A 
ATOM     72  C   UNL     1     -11.430   5.742   8.834  1.00  0.00     0.001 A 
ATOM     73  C   UNL     1     -11.365   5.297   6.462  1.00  0.00     0.001 A 
ATOM     74  C   UNL     1     -11.496   6.197   7.518  1.00  0.00     0.000 A 
ENDBRANCH  50  69
BRANCH  62  75
ATOM     75  C   UNL     1     -15.249  -1.387  10.833  1.00  0.00    -0.014 A 
ATOM     76  C   UNL     1     -16.370  -1.249  10.001  1.00  0.00     0.009 A 
ATOM     77  C   UNL     1     -15.441  -1.511  12.218  1.00  0.00     0.009 A 
ATOM     78  C   UNL     1     -17.654  -1.202  10.549  1.00  0.00     0.001 A 
ATOM     79  C   UNL     1     -16.727  -1.495  12.760  1.00  0.00     0.001 A 
ATOM     80  C   UNL     1     -17.831  -1.330  11.926  1.00  0.00     0.000 A 
ENDBRANCH  62  75
ENDBRANCH  36  37
ENDBRANCH  29  31
ENDBRANCH  28  29
ENDBRANCH  27  28
ENDBRANCH  26  27
ENDBRANCH   1  26
TORSDOF 16
