REMARK SMILES CC(C)(C)OC(=O)N1CCC[C@H]1C(=O)N[C@@H](Cc1ccccc1)C(=O)OCCOCCOC(=O)c1ccc(-c2c3nc(c(-c4ccccc4)c4ccc([nH]4)c(-c4ccccc4)c4nc(c(-c5ccccc5)c5ccc2[nH]5)C=C4)C=C3)cc1
REMARK SMILES IDX 27 1 26 2 24 3 25 4 16 5 15 6 13 7 14 8 12 10 8 11 9 12
REMARK SMILES IDX 10 13 11 14 6 15 7 16 5 17 2 18 1 19 3 20 4 21 17 22 18 23
REMARK SMILES IDX 19 24 23 25 20 26 22 27 21 28 28 29 29 30 30 31 31 32 32 33
REMARK SMILES IDX 33 34 34 35 35 36 36 37 82 38 37 39 81 40 38 41 39 42 40 43
REMARK SMILES IDX 75 44 41 45 80 46 74 47 76 48 42 49 79 50 73 51 72 52 43 54
REMARK SMILES IDX 65 55 50 56 64 57 51 58 54 59 63 60 77 61 52 62 53 63 62 65
REMARK SMILES IDX 78 66 55 67 44 68 45 69 49 70 46 71 48 72 47 73 66 74 67 75
REMARK SMILES IDX 71 76 68 77 70 78 69 79 56 80 57 81 61 82 58 83 60 84 59 85
REMARK H PARENT 15 9 76 53 54 64
REMARK Flexibility Score: inf
ROOT
ATOM      1  C   UNL     1      -5.485   4.580   5.366  1.00  0.00     0.261 C 
ENDROOT
BRANCH   1   2
ATOM      2  O   UNL     1      -4.125   4.605   5.826  1.00  0.00    -0.462 OA
BRANCH   2   3
ATOM      3  C   UNL     1      -3.786   3.618   6.701  1.00  0.00     0.329 C 
ATOM      4  O   UNL     1      -4.572   2.819   7.200  1.00  0.00    -0.250 OA
BRANCH   3   5
ATOM      5  C   UNL     1      -2.306   3.677   7.111  1.00  0.00     0.196 C 
BRANCH   5   6
ATOM      6  N   UNL     1      -1.426   4.452   6.221  1.00  0.00    -0.341 N 
ATOM      7  C   UNL     1      -0.311   4.072   5.525  1.00  0.00     0.243 C 
ATOM      8  O   UNL     1       0.341   4.951   4.956  1.00  0.00    -0.273 OA
ATOM      9  H   UNL     1      -1.681   5.397   6.109  1.00  0.00     0.164 HD
BRANCH   7  10
ATOM     10  C   UNL     1       0.131   2.590   5.534  1.00  0.00     0.178 C 
ATOM     11  N   UNL     1       0.901   2.206   4.351  1.00  0.00    -0.296 N 
ATOM     12  C   UNL     1       2.235   1.762   4.686  1.00  0.00     0.124 C 
ATOM     13  C   UNL     1       2.095   1.319   6.132  1.00  0.00     0.024 C 
ATOM     14  C   UNL     1       1.075   2.302   6.706  1.00  0.00     0.037 C 
BRANCH  11  15
ATOM     15  C   UNL     1       0.290   2.125   3.129  1.00  0.00     0.410 C 
ATOM     16  O   UNL     1      -0.840   2.556   2.949  1.00  0.00    -0.224 OA
BRANCH  15  17
ATOM     17  O   UNL     1       1.027   1.476   2.195  1.00  0.00    -0.444 OA
BRANCH  17  18
ATOM     18  C   UNL     1       0.540   1.307   0.832  1.00  0.00     0.106 C 
ATOM     19  C   UNL     1       1.270   0.067   0.297  1.00  0.00     0.056 C 
ATOM     20  C   UNL     1       0.953   2.537   0.019  1.00  0.00     0.056 C 
ATOM     21  C   UNL     1      -0.971   1.050   0.699  1.00  0.00     0.056 C 
ENDBRANCH  17  18
ENDBRANCH  15  17
ENDBRANCH  11  15
ENDBRANCH   7  10
ENDBRANCH   5   6
BRANCH   5  22
ATOM     22  C   UNL     1      -2.235   4.201   8.561  1.00  0.00     0.072 C 
BRANCH  22  23
ATOM     23  C   UNL     1      -2.795   5.598   8.734  1.00  0.00    -0.045 A 
ATOM     24  C   UNL     1      -2.002   6.723   8.467  1.00  0.00     0.004 A 
ATOM     25  C   UNL     1      -4.135   5.786   9.107  1.00  0.00     0.004 A 
ATOM     26  C   UNL     1      -2.544   8.006   8.550  1.00  0.00     0.000 A 
ATOM     27  C   UNL     1      -4.673   7.071   9.193  1.00  0.00     0.000 A 
ATOM     28  C   UNL     1      -3.879   8.180   8.909  1.00  0.00     0.000 A 
ENDBRANCH  22  23
ENDBRANCH   5  22
ENDBRANCH   3   5
ENDBRANCH   2   3
ENDBRANCH   1   2
BRANCH   1  29
ATOM     29  C   UNL     1      -5.574   4.765   3.850  1.00  0.00     0.202 C 
BRANCH  29  30
ATOM     30  O   UNL     1      -4.902   3.806   3.042  1.00  0.00    -0.374 OA
BRANCH  30  31
ATOM     31  C   UNL     1      -3.476   3.765   3.094  1.00  0.00     0.202 C 
BRANCH  31  32
ATOM     32  C   UNL     1      -2.693   4.928   2.464  1.00  0.00     0.261 C 
BRANCH  32  33
ATOM     33  O   UNL     1      -3.081   6.223   2.946  1.00  0.00    -0.460 OA
BRANCH  33  34
ATOM     34  C   UNL     1      -3.702   6.994   2.024  1.00  0.00     0.338 C 
ATOM     35  O   UNL     1      -3.954   6.724   0.862  1.00  0.00    -0.246 OA
BRANCH  34  36
ATOM     36  C   UNL     1      -4.195   8.223   2.662  1.00  0.00     0.060 A 
ATOM     37  C   UNL     1      -5.570   8.477   2.597  1.00  0.00     0.016 A 
ATOM     38  C   UNL     1      -3.316   9.158   3.210  1.00  0.00     0.016 A 
ATOM     39  C   UNL     1      -6.068   9.698   3.038  1.00  0.00     0.010 A 
ATOM     40  C   UNL     1      -3.817  10.388   3.645  1.00  0.00     0.010 A 
ATOM     41  C   UNL     1      -5.189  10.675   3.525  1.00  0.00    -0.014 A 
BRANCH  41  42
ATOM     42  C   UNL     1      -5.693  12.046   3.765  1.00  0.00     0.031 A 
ATOM     43  C   UNL     1      -5.486  13.094   2.706  1.00  0.00     0.074 A 
ATOM     44  C   UNL     1      -6.375  12.335   4.887  1.00  0.00     0.049 A 
ATOM     45  N   UNL     1      -5.839  14.354   2.709  1.00  0.00    -0.248 NA
ATOM     46  C   UNL     1      -4.794  12.664   1.479  1.00  0.00     0.031 C 
ATOM     47  C   UNL     1      -6.687  11.387   5.957  1.00  0.00     0.029 A 
ATOM     48  N   UNL     1      -6.933  13.514   5.307  1.00  0.00    -0.354 N 
ATOM     49  C   UNL     1      -5.419  14.864   1.487  1.00  0.00     0.074 A 
ATOM     50  C   UNL     1      -4.754  13.790   0.782  1.00  0.00     0.031 C 
ATOM     51  C   UNL     1      -7.385  12.024   6.912  1.00  0.00     0.029 A 
ATOM     52  C   UNL     1      -7.538  13.428   6.537  1.00  0.00     0.049 A 
ATOM     53  H   UNL     1      -6.904  14.344   4.778  1.00  0.00     0.167 HD
ATOM     54  C   UNL     1      -5.582  16.113   0.991  1.00  0.00     0.031 A 
ATOM     55  C   UNL     1      -8.131  14.382   7.279  1.00  0.00     0.031 A 
ATOM     56  C   UNL     1      -6.225  17.186   1.699  1.00  0.00     0.049 A 
ATOM     57  C   UNL     1      -8.208  15.787   6.745  1.00  0.00     0.074 A 
ATOM     58  C   UNL     1      -6.422  18.494   1.292  1.00  0.00     0.029 A 
ATOM     59  N   UNL     1      -6.776  17.073   2.966  1.00  0.00    -0.354 N 
ATOM     60  N   UNL     1      -7.810  16.256   5.586  1.00  0.00    -0.248 NA
ATOM     61  C   UNL     1      -8.823  16.794   7.622  1.00  0.00     0.031 C 
ATOM     62  C   UNL     1      -7.055  19.184   2.331  1.00  0.00     0.029 A 
ATOM     63  C   UNL     1      -7.298  18.291   3.362  1.00  0.00     0.049 A 
ATOM     64  H   UNL     1      -6.793  16.248   3.503  1.00  0.00     0.167 HD
ATOM     65  C   UNL     1      -8.156  17.601   5.583  1.00  0.00     0.074 A 
ATOM     66  C   UNL     1      -8.808  17.870   6.848  1.00  0.00     0.031 C 
ATOM     67  C   UNL     1      -7.953  18.534   4.621  1.00  0.00     0.031 A 
BRANCH  54  68
ATOM     68  C   UNL     1      -5.038  16.392  -0.382  1.00  0.00    -0.014 A 
ATOM     69  C   UNL     1      -5.676  15.890  -1.527  1.00  0.00     0.009 A 
ATOM     70  C   UNL     1      -3.903  17.203  -0.534  1.00  0.00     0.009 A 
ATOM     71  C   UNL     1      -5.174  16.179  -2.798  1.00  0.00     0.001 A 
ATOM     72  C   UNL     1      -3.418  17.509  -1.807  1.00  0.00     0.001 A 
ATOM     73  C   UNL     1      -4.050  16.992  -2.937  1.00  0.00     0.000 A 
ENDBRANCH  54  68
BRANCH  55  74
ATOM     74  C   UNL     1      -8.679  14.059   8.623  1.00  0.00    -0.014 A 
ATOM     75  C   UNL     1     -10.060  14.107   8.864  1.00  0.00     0.009 A 
ATOM     76  C   UNL     1      -7.816  13.748   9.685  1.00  0.00     0.009 A 
ATOM     77  C   UNL     1     -10.562  13.888  10.149  1.00  0.00     0.001 A 
ATOM     78  C   UNL     1      -8.322  13.500  10.962  1.00  0.00     0.001 A 
ATOM     79  C   UNL     1      -9.694  13.583  11.196  1.00  0.00     0.000 A 
ENDBRANCH  55  74
BRANCH  67  80
ATOM     80  C   UNL     1      -8.484  19.915   4.880  1.00  0.00    -0.014 A 
ATOM     81  C   UNL     1      -7.865  20.773   5.801  1.00  0.00     0.009 A 
ATOM     82  C   UNL     1      -9.598  20.374   4.161  1.00  0.00     0.009 A 
ATOM     83  C   UNL     1      -8.376  22.053   6.023  1.00  0.00     0.001 A 
ATOM     84  C   UNL     1     -10.089  21.664   4.364  1.00  0.00     0.001 A 
ATOM     85  C   UNL     1      -9.483  22.499   5.302  1.00  0.00     0.000 A 
ENDBRANCH  67  80
ENDBRANCH  41  42
ENDBRANCH  34  36
ENDBRANCH  33  34
ENDBRANCH  32  33
ENDBRANCH  31  32
ENDBRANCH  30  31
ENDBRANCH  29  30
ENDBRANCH   1  29
TORSDOF 21
