REMARK SMILES Cn1cc(S(=O)(=O)N[C@@H]2C=C[C@@H](C(=O)OCCOCCOC(=O)c3ccc(-c4c5nc(c(-c6ccccc6)c6ccc([nH]6)c(-c6ccccc6)c6nc(c(-c7ccccc7)c7ccc4[nH]7)C=C6)C=C5)cc3)C2)cc1C(N)=O
REMARK SMILES IDX 17 1 16 2 15 3 13 4 14 5 12 6 9 7 10 8 72 9 11 10 8 11 5 13
REMARK SMILES IDX 6 14 7 15 4 16 1 17 2 18 3 19 74 20 73 21 75 22 76 23 77 24
REMARK SMILES IDX 18 27 19 28 20 29 21 30 22 31 23 32 24 33 25 34 71 35 26 36
REMARK SMILES IDX 70 37 27 38 28 39 29 40 64 41 30 42 69 43 63 44 65 45 31 46
REMARK SMILES IDX 68 47 62 48 61 49 32 51 54 52 39 53 53 54 40 55 43 56 52 57
REMARK SMILES IDX 66 58 41 59 42 60 51 62 67 63 44 64 33 65 34 66 38 67 35 68
REMARK SMILES IDX 37 69 36 70 55 71 56 72 60 73 57 74 59 75 58 76 45 77 46 78
REMARK SMILES IDX 50 79 47 80 49 81 48 82
REMARK H PARENT 8 12 76 25 76 26 65 50 43 61
REMARK Flexibility Score: inf
ROOT
ATOM      1  C   UNL     1      -1.617  -5.396  -0.933  1.00  0.00     0.202 C 
ENDROOT
BRANCH   1   2
ATOM      2  C   UNL     1      -3.128  -5.368  -0.703  1.00  0.00     0.261 C 
BRANCH   2   3
ATOM      3  O   UNL     1      -3.559  -4.057  -0.299  1.00  0.00    -0.463 OA
BRANCH   3   4
ATOM      4  C   UNL     1      -4.197  -3.984   0.897  1.00  0.00     0.312 C 
ATOM      5  O   UNL     1      -4.501  -4.945   1.596  1.00  0.00    -0.252 OA
BRANCH   4   6
ATOM      6  C   UNL     1      -4.582  -2.567   1.274  1.00  0.00     0.123 C 
ATOM      7  C   UNL     1      -4.511  -0.196   0.739  1.00  0.00     0.093 C 
ATOM      8  C   UNL     1      -5.776  -0.838   0.266  1.00  0.00    -0.011 C 
ATOM      9  C   UNL     1      -3.611  -1.436   0.903  1.00  0.00     0.043 C 
ATOM     10  C   UNL     1      -5.828  -2.142   0.562  1.00  0.00    -0.015 C 
BRANCH   7  11
ATOM     11  N   UNL     1      -4.662   0.433   2.062  1.00  0.00    -0.204 NA
ATOM     12  H   UNL     1      -4.798  -0.323   2.734  1.00  0.00     0.142 HD
BRANCH  11  13
ATOM     13  S   UNL     1      -5.899   1.549   2.326  1.00  0.00     0.242 S 
ATOM     14  O   UNL     1      -6.095   2.306   1.111  1.00  0.00    -0.207 OA
ATOM     15  O   UNL     1      -5.616   2.177   3.596  1.00  0.00    -0.207 OA
BRANCH  13  16
ATOM     16  C   UNL     1      -7.371   0.691   2.590  1.00  0.00     0.100 A 
ATOM     17  C   UNL     1     -10.943   0.205   2.417  1.00  0.00     0.150 C 
ATOM     18  N   UNL     1      -9.509   0.080   2.577  1.00  0.00    -0.345 N 
ATOM     19  C   UNL     1      -8.649   1.126   2.326  1.00  0.00     0.107 A 
ATOM     20  C   UNL     1      -8.794  -1.050   2.946  1.00  0.00     0.107 A 
ATOM     21  C   UNL     1      -7.473  -0.631   3.081  1.00  0.00     0.055 A 
BRANCH  20  22
ATOM     22  C   UNL     1      -9.339  -2.384   3.129  1.00  0.00     0.265 C 
ATOM     23  N   UNL     1      -8.421  -3.394   3.195  1.00  0.00    -0.364 N 
ATOM     24  O   UNL     1     -10.532  -2.661   3.186  1.00  0.00    -0.268 OA
ATOM     25  H   UNL     1      -7.459  -3.188   3.151  1.00  0.00     0.160 HD
ATOM     26  H   UNL     1      -8.722  -4.327   3.286  1.00  0.00     0.160 HD
ENDBRANCH  20  22
ENDBRANCH  13  16
ENDBRANCH  11  13
ENDBRANCH   7  11
ENDBRANCH   4   6
ENDBRANCH   3   4
ENDBRANCH   2   3
ENDBRANCH   1   2
BRANCH   1  27
ATOM     27  O   UNL     1      -0.817  -5.247   0.239  1.00  0.00    -0.374 OA
BRANCH  27  28
ATOM     28  C   UNL     1      -0.669  -3.931   0.773  1.00  0.00     0.202 C 
BRANCH  28  29
ATOM     29  C   UNL     1       0.301  -3.012   0.022  1.00  0.00     0.261 C 
BRANCH  29  30
ATOM     30  O   UNL     1      -0.219  -2.613  -1.261  1.00  0.00    -0.460 OA
BRANCH  30  31
ATOM     31  C   UNL     1       0.501  -3.046  -2.326  1.00  0.00     0.338 C 
ATOM     32  O   UNL     1       1.554  -3.660  -2.307  1.00  0.00    -0.246 OA
BRANCH  31  33
ATOM     33  C   UNL     1      -0.253  -2.820  -3.574  1.00  0.00     0.060 A 
ATOM     34  C   UNL     1      -0.456  -3.921  -4.415  1.00  0.00     0.016 A 
ATOM     35  C   UNL     1      -0.673  -1.545  -3.959  1.00  0.00     0.016 A 
ATOM     36  C   UNL     1      -1.044  -3.745  -5.667  1.00  0.00     0.010 A 
ATOM     37  C   UNL     1      -1.252  -1.369  -5.220  1.00  0.00     0.010 A 
ATOM     38  C   UNL     1      -1.412  -2.462  -6.091  1.00  0.00    -0.014 A 
BRANCH  38  39
ATOM     39  C   UNL     1      -1.838  -2.247  -7.494  1.00  0.00     0.031 A 
ATOM     40  C   UNL     1      -0.829  -1.771  -8.503  1.00  0.00     0.074 A 
ATOM     41  C   UNL     1      -3.105  -2.490  -7.874  1.00  0.00     0.049 A 
ATOM     42  N   UNL     1      -0.995  -1.488  -9.770  1.00  0.00    -0.248 NA
ATOM     43  C   UNL     1       0.550  -1.595  -8.020  1.00  0.00     0.031 C 
ATOM     44  C   UNL     1      -4.166  -2.998  -7.007  1.00  0.00     0.029 A 
ATOM     45  N   UNL     1      -3.711  -2.335  -9.095  1.00  0.00    -0.354 N 
ATOM     46  C   UNL     1       0.254  -1.095 -10.234  1.00  0.00     0.074 A 
ATOM     47  C   UNL     1       1.163  -1.155  -9.110  1.00  0.00     0.031 C 
ATOM     48  C   UNL     1      -5.299  -3.103  -7.723  1.00  0.00     0.029 A 
ATOM     49  C   UNL     1      -5.049  -2.640  -9.087  1.00  0.00     0.049 A 
ATOM     50  H   UNL     1      -3.232  -2.033  -9.901  1.00  0.00     0.167 HD
ATOM     51  C   UNL     1       0.614  -0.722 -11.485  1.00  0.00     0.031 A 
ATOM     52  C   UNL     1      -5.972  -2.537 -10.062  1.00  0.00     0.031 A 
ATOM     53  C   UNL     1      -0.287  -0.646 -12.602  1.00  0.00     0.049 A 
ATOM     54  C   UNL     1      -5.566  -2.032 -11.420  1.00  0.00     0.074 A 
ATOM     55  C   UNL     1      -0.008  -0.296 -13.912  1.00  0.00     0.029 A 
ATOM     56  N   UNL     1      -1.644  -0.916 -12.539  1.00  0.00    -0.354 N 
ATOM     57  N   UNL     1      -4.377  -1.688 -11.852  1.00  0.00    -0.248 NA
ATOM     58  C   UNL     1      -6.632  -1.901 -12.425  1.00  0.00     0.031 C 
ATOM     59  C   UNL     1      -1.208  -0.305 -14.631  1.00  0.00     0.029 A 
ATOM     60  C   UNL     1      -2.224  -0.709 -13.779  1.00  0.00     0.049 A 
ATOM     61  H   UNL     1      -2.124  -1.211 -11.732  1.00  0.00     0.167 HD
ATOM     62  C   UNL     1      -4.548  -1.321 -13.181  1.00  0.00     0.074 A 
ATOM     63  C   UNL     1      -5.952  -1.495 -13.488  1.00  0.00     0.031 C 
ATOM     64  C   UNL     1      -3.623  -0.881 -14.068  1.00  0.00     0.031 A 
BRANCH  51  65
ATOM     65  C   UNL     1       2.048  -0.331 -11.700  1.00  0.00    -0.014 A 
ATOM     66  C   UNL     1       3.065  -1.296 -11.749  1.00  0.00     0.009 A 
ATOM     67  C   UNL     1       2.379   1.020 -11.889  1.00  0.00     0.009 A 
ATOM     68  C   UNL     1       4.392  -0.912 -11.955  1.00  0.00     0.001 A 
ATOM     69  C   UNL     1       3.703   1.398 -12.116  1.00  0.00     0.001 A 
ATOM     70  C   UNL     1       4.709   0.433 -12.142  1.00  0.00     0.000 A 
ENDBRANCH  51  65
BRANCH  52  71
ATOM     71  C   UNL     1      -7.387  -2.890  -9.784  1.00  0.00    -0.014 A 
ATOM     72  C   UNL     1      -7.960  -4.043 -10.341  1.00  0.00     0.009 A 
ATOM     73  C   UNL     1      -8.178  -2.061  -8.971  1.00  0.00     0.009 A 
ATOM     74  C   UNL     1      -9.303  -4.348 -10.104  1.00  0.00     0.001 A 
ATOM     75  C   UNL     1      -9.512  -2.382  -8.718  1.00  0.00     0.001 A 
ATOM     76  C   UNL     1     -10.076  -3.521  -9.290  1.00  0.00     0.000 A 
ENDBRANCH  52  71
BRANCH  64  77
ATOM     77  C   UNL     1      -4.092  -0.580 -15.462  1.00  0.00    -0.014 A 
ATOM     78  C   UNL     1      -4.820   0.586 -15.746  1.00  0.00     0.009 A 
ATOM     79  C   UNL     1      -3.758  -1.448 -16.513  1.00  0.00     0.009 A 
ATOM     80  C   UNL     1      -5.224   0.864 -17.053  1.00  0.00     0.001 A 
ATOM     81  C   UNL     1      -4.143  -1.156 -17.822  1.00  0.00     0.001 A 
ATOM     82  C   UNL     1      -4.881  -0.004 -18.090  1.00  0.00     0.000 A 
ENDBRANCH  64  77
ENDBRANCH  38  39
ENDBRANCH  31  33
ENDBRANCH  30  31
ENDBRANCH  29  30
ENDBRANCH  28  29
ENDBRANCH  27  28
ENDBRANCH   1  27
TORSDOF 18
