REMARK SMILES O=C(OCCOCCOC(=O)[C@H](NC(=O)c1cccs1)[C@]12C[C@H]3C[C@H](C[C@H](C3)C1)C2)c1ccc(-c2c3nc(c(-c4ccccc4)c4ccc([nH]4)c(-c4ccccc4)c4nc(c(-c5ccccc5)c5ccc2[nH]5)C=C4)C=C3)cc1
REMARK SMILES IDX 6 1 5 2 4 3 3 4 2 5 1 6 31 7 32 8 78 9 33 10 77 11 34 12
REMARK SMILES IDX 35 13 36 14 71 15 37 16 76 17 70 18 72 19 38 20 75 21 69 22
REMARK SMILES IDX 68 23 39 25 61 26 46 27 60 28 47 29 50 30 59 31 73 32 48 33
REMARK SMILES IDX 49 34 58 36 74 37 51 38 40 39 41 40 45 41 42 42 44 43 43 44
REMARK SMILES IDX 62 45 63 46 67 47 64 48 66 49 65 50 52 51 53 52 57 53 54 54
REMARK SMILES IDX 56 55 55 56 7 57 8 58 9 59 10 60 11 61 12 62 13 63 14 64
REMARK SMILES IDX 15 66 16 67 17 68 20 69 18 70 19 71 21 72 22 73 29 74 30 75
REMARK SMILES IDX 23 76 27 77 25 78 24 79 28 80 26 81
REMARK H PARENT 72 24 50 35 13 65
REMARK Flexibility Score: inf
ROOT
ATOM      1  O   UNL     1       5.237  -3.810   0.261  1.00  0.00    -0.374 OA
ENDROOT
BRANCH   1   2
ATOM      2  C   UNL     1       6.330  -3.193  -0.426  1.00  0.00     0.202 C 
BRANCH   2   3
ATOM      3  C   UNL     1       7.638  -3.178   0.371  1.00  0.00     0.261 C 
BRANCH   3   4
ATOM      4  O   UNL     1       8.094  -4.519   0.619  1.00  0.00    -0.460 OA
BRANCH   4   5
ATOM      5  C   UNL     1       7.822  -5.325   1.671  1.00  0.00     0.338 C 
ATOM      6  O   UNL     1       8.226  -6.486   1.635  1.00  0.00    -0.246 OA
BRANCH   5   7
ATOM      7  C   UNL     1       7.037  -4.904   2.872  1.00  0.00     0.060 A 
ATOM      8  C   UNL     1       6.120  -3.854   2.901  1.00  0.00     0.016 A 
ATOM      9  C   UNL     1       7.157  -5.696   4.028  1.00  0.00     0.016 A 
ATOM     10  C   UNL     1       5.305  -3.619   3.983  1.00  0.00     0.010 A 
ATOM     11  C   UNL     1       6.372  -5.441   5.155  1.00  0.00     0.010 A 
ATOM     12  C   UNL     1       5.439  -4.403   5.116  1.00  0.00    -0.014 A 
BRANCH  12  13
ATOM     13  C   UNL     1       4.704  -3.919   6.282  1.00  0.00     0.031 A 
ATOM     14  C   UNL     1       5.433  -2.997   7.203  1.00  0.00     0.074 A 
ATOM     15  C   UNL     1       3.374  -4.094   6.328  1.00  0.00     0.049 A 
ATOM     16  N   UNL     1       5.012  -2.412   8.287  1.00  0.00    -0.248 NA
ATOM     17  C   UNL     1       6.820  -2.660   6.829  1.00  0.00     0.031 C 
ATOM     18  C   UNL     1       2.576  -4.788   5.310  1.00  0.00     0.029 A 
ATOM     19  N   UNL     1       2.452  -3.651   7.231  1.00  0.00    -0.354 N 
ATOM     20  C   UNL     1       6.092  -1.671   8.746  1.00  0.00     0.074 A 
ATOM     21  C   UNL     1       7.182  -1.863   7.820  1.00  0.00     0.031 C 
ATOM     22  C   UNL     1       1.279  -4.712   5.646  1.00  0.00     0.029 A 
ATOM     23  C   UNL     1       1.169  -4.037   6.932  1.00  0.00     0.049 A 
ATOM     24  H   UNL     1       2.684  -3.108   8.019  1.00  0.00     0.167 HD
ATOM     25  C   UNL     1       6.158  -0.920   9.866  1.00  0.00     0.031 A 
ATOM     26  C   UNL     1       0.050  -3.892   7.661  1.00  0.00     0.031 A 
ATOM     27  C   UNL     1       5.048  -0.789  10.766  1.00  0.00     0.049 A 
ATOM     28  C   UNL     1       0.187  -3.193   8.986  1.00  0.00     0.074 A 
ATOM     29  C   UNL     1       4.991  -0.161  11.994  1.00  0.00     0.029 A 
ATOM     30  N   UNL     1       3.784  -1.314  10.517  1.00  0.00    -0.354 N 
ATOM     31  N   UNL     1       1.240  -2.595   9.497  1.00  0.00    -0.248 NA
ATOM     32  C   UNL     1      -1.001  -3.167   9.844  1.00  0.00     0.031 C 
ATOM     33  C   UNL     1       3.707  -0.360  12.514  1.00  0.00     0.029 A 
ATOM     34  C   UNL     1       2.944  -1.050  11.580  1.00  0.00     0.049 A 
ATOM     35  H   UNL     1       3.527  -1.802   9.701  1.00  0.00     0.167 HD
ATOM     36  C   UNL     1       0.840  -2.107  10.731  1.00  0.00     0.074 A 
ATOM     37  C   UNL     1      -0.561  -2.461  10.877  1.00  0.00     0.031 C 
ATOM     38  C   UNL     1       1.556  -1.432  11.665  1.00  0.00     0.031 A 
BRANCH  25  39
ATOM     39  C   UNL     1       7.497  -0.335  10.207  1.00  0.00    -0.014 A 
ATOM     40  C   UNL     1       8.061   0.718   9.469  1.00  0.00     0.009 A 
ATOM     41  C   UNL     1       8.249  -0.917  11.239  1.00  0.00     0.009 A 
ATOM     42  C   UNL     1       9.368   1.143   9.729  1.00  0.00     0.001 A 
ATOM     43  C   UNL     1       9.543  -0.472  11.516  1.00  0.00     0.001 A 
ATOM     44  C   UNL     1      10.106   0.548  10.751  1.00  0.00     0.000 A 
ENDBRANCH  25  39
BRANCH  26  45
ATOM     45  C   UNL     1      -1.234  -4.494   7.211  1.00  0.00    -0.014 A 
ATOM     46  C   UNL     1      -2.354  -3.698   6.933  1.00  0.00     0.009 A 
ATOM     47  C   UNL     1      -1.350  -5.889   7.072  1.00  0.00     0.009 A 
ATOM     48  C   UNL     1      -3.564  -4.285   6.551  1.00  0.00     0.001 A 
ATOM     49  C   UNL     1      -2.550  -6.471   6.659  1.00  0.00     0.001 A 
ATOM     50  C   UNL     1      -3.660  -5.670   6.410  1.00  0.00     0.000 A 
ENDBRANCH  26  45
BRANCH  38  51
ATOM     51  C   UNL     1       0.814  -1.010  12.898  1.00  0.00    -0.014 A 
ATOM     52  C   UNL     1       0.441  -1.942  13.878  1.00  0.00     0.009 A 
ATOM     53  C   UNL     1       0.541   0.351  13.101  1.00  0.00     0.009 A 
ATOM     54  C   UNL     1      -0.223  -1.518  15.028  1.00  0.00     0.001 A 
ATOM     55  C   UNL     1      -0.091   0.774  14.268  1.00  0.00     0.001 A 
ATOM     56  C   UNL     1      -0.480  -0.161  15.225  1.00  0.00     0.000 A 
ENDBRANCH  38  51
ENDBRANCH  12  13
ENDBRANCH   5   7
ENDBRANCH   4   5
ENDBRANCH   3   4
ENDBRANCH   2   3
ENDBRANCH   1   2
BRANCH   1  57
ATOM     57  C   UNL     1       5.063  -5.218   0.052  1.00  0.00     0.202 C 
BRANCH  57  58
ATOM     58  C   UNL     1       3.820  -5.409  -0.788  1.00  0.00     0.261 C 
BRANCH  58  59
ATOM     59  O   UNL     1       4.100  -4.678  -1.981  1.00  0.00    -0.462 OA
BRANCH  59  60
ATOM     60  C   UNL     1       3.553  -3.442  -2.101  1.00  0.00     0.329 C 
ATOM     61  O   UNL     1       2.674  -2.968  -1.389  1.00  0.00    -0.250 OA
BRANCH  60  62
ATOM     62  C   UNL     1       4.223  -2.718  -3.283  1.00  0.00     0.198 C 
BRANCH  62  63
ATOM     63  N   UNL     1       3.690  -1.341  -3.241  1.00  0.00    -0.337 N 
ATOM     64  C   UNL     1       4.287  -0.102  -3.179  1.00  0.00     0.262 C 
ATOM     65  H   UNL     1       2.707  -1.301  -3.263  1.00  0.00     0.164 HD
ATOM     66  O   UNL     1       3.589   0.784  -2.679  1.00  0.00    -0.268 OA
BRANCH  64  67
ATOM     67  C   UNL     1       5.623   0.159  -3.701  1.00  0.00     0.092 A 
ATOM     68  C   UNL     1       6.338  -0.415  -4.734  1.00  0.00     0.025 A 
ATOM     69  S   UNL     1       6.487   1.520  -3.078  1.00  0.00    -0.139 S 
ATOM     70  C   UNL     1       7.576   0.239  -5.007  1.00  0.00     0.012 A 
ATOM     71  C   UNL     1       7.765   1.332  -4.196  1.00  0.00     0.065 A 
ENDBRANCH  64  67
ENDBRANCH  62  63
BRANCH  62  72
ATOM     72  C   UNL     1       4.012  -3.514  -4.626  1.00  0.00     0.002 C 
ATOM     73  C   UNL     1       3.142  -4.821  -4.514  1.00  0.00     0.013 C 
ATOM     74  C   UNL     1       5.397  -4.009  -5.142  1.00  0.00     0.013 C 
ATOM     75  C   UNL     1       3.328  -2.618  -5.688  1.00  0.00     0.013 C 
ATOM     76  C   UNL     1       2.998  -5.542  -5.860  1.00  0.00    -0.010 C 
ATOM     77  C   UNL     1       5.269  -4.695  -6.510  1.00  0.00    -0.010 C 
ATOM     78  C   UNL     1       3.203  -3.340  -7.032  1.00  0.00    -0.010 C 
ATOM     79  C   UNL     1       2.335  -4.592  -6.854  1.00  0.00     0.007 C 
ATOM     80  C   UNL     1       4.394  -5.945  -6.362  1.00  0.00     0.007 C 
ATOM     81  C   UNL     1       4.609  -3.733  -7.511  1.00  0.00     0.007 C 
ENDBRANCH  62  72
ENDBRANCH  60  62
ENDBRANCH  59  60
ENDBRANCH  58  59
ENDBRANCH  57  58
ENDBRANCH   1  57
TORSDOF 17
