REMARK SMILES CC1=C2C(=O)CC(C)(C)CC2=N[C@@H]1C(=O)OCCOCCOC(=O)c1ccc(-c2c3nc(c(-c4ccccc4)c4ccc([nH]4)c(-c4ccccc4)c4nc(c(-c5ccccc5)c5ccc2[nH]5)C=C4)C=C3)cc1
REMARK SMILES IDX 20 1 19 2 18 3 17 4 16 5 14 6 15 7 13 8 1 9 2 10 3 11 4 12
REMARK SMILES IDX 11 13 12 14 5 15 6 16 10 17 7 18 8 19 9 20 21 21 22 22 23 23
REMARK SMILES IDX 24 24 25 25 26 26 72 27 27 28 71 29 28 30 29 31 30 32 65 33
REMARK SMILES IDX 31 34 70 35 64 36 66 37 32 38 69 39 63 40 62 41 33 43 55 44
REMARK SMILES IDX 40 45 54 46 41 47 44 48 53 49 67 50 42 51 43 52 52 54 68 55
REMARK SMILES IDX 45 56 34 57 35 58 39 59 36 60 38 61 37 62 56 63 57 64 61 65
REMARK SMILES IDX 58 66 60 67 59 68 46 69 47 70 51 71 48 72 50 73 49 74
REMARK H PARENT 66 42 44 53
REMARK Flexibility Score: inf
ROOT
ATOM      1  C   UNL     1       3.580   1.845   0.740  1.00  0.00     0.202 C 
ENDROOT
BRANCH   1   2
ATOM      2  O   UNL     1       4.731   2.339   0.071  1.00  0.00    -0.374 OA
BRANCH   2   3
ATOM      3  C   UNL     1       4.667   3.426  -0.847  1.00  0.00     0.202 C 
BRANCH   3   4
ATOM      4  C   UNL     1       3.788   3.346  -2.096  1.00  0.00     0.261 C 
BRANCH   4   5
ATOM      5  O   UNL     1       2.382   3.184  -1.841  1.00  0.00    -0.461 OA
BRANCH   5   6
ATOM      6  C   UNL     1       1.966   1.904  -2.027  1.00  0.00     0.335 C 
ATOM      7  O   UNL     1       2.731   0.948  -2.150  1.00  0.00    -0.249 OA
BRANCH   6   8
ATOM      8  C   UNL     1       0.431   1.767  -2.171  1.00  0.00     0.242 C 
ATOM      9  C   UNL     1      -0.182   0.859   0.259  1.00  0.00     0.043 C 
ATOM     10  C   UNL     1      -0.225   0.772  -1.225  1.00  0.00    -0.025 C 
ATOM     11  C   UNL     1      -0.650  -0.301  -1.901  1.00  0.00     0.040 C 
ATOM     12  C   UNL     1      -1.183  -1.618  -1.527  1.00  0.00     0.165 C 
ATOM     13  C   UNL     1       0.158  -0.136  -3.092  1.00  0.00     0.048 C 
ATOM     14  N   UNL     1       0.353   1.081  -3.514  1.00  0.00    -0.269 NA
ATOM     15  O   UNL     1      -2.269  -1.723  -0.966  1.00  0.00    -0.294 OA
ATOM     16  C   UNL     1      -0.354  -2.821  -1.961  1.00  0.00     0.088 C 
ATOM     17  C   UNL     1       0.959  -1.321  -3.547  1.00  0.00     0.063 C 
ATOM     18  C   UNL     1       1.070  -2.412  -2.422  1.00  0.00    -0.023 C 
ATOM     19  C   UNL     1       1.879  -2.000  -1.157  1.00  0.00     0.012 C 
ATOM     20  C   UNL     1       1.827  -3.607  -3.025  1.00  0.00     0.012 C 
ENDBRANCH   6   8
ENDBRANCH   5   6
ENDBRANCH   4   5
ENDBRANCH   3   4
ENDBRANCH   2   3
ENDBRANCH   1   2
BRANCH   1  21
ATOM     21  C   UNL     1       2.830   2.726   1.725  1.00  0.00     0.261 C 
BRANCH  21  22
ATOM     22  O   UNL     1       2.572   4.017   1.213  1.00  0.00    -0.460 OA
BRANCH  22  23
ATOM     23  C   UNL     1       3.506   4.911   1.613  1.00  0.00     0.338 C 
ATOM     24  O   UNL     1       4.591   4.675   2.108  1.00  0.00    -0.246 OA
BRANCH  23  25
ATOM     25  C   UNL     1       2.922   6.250   1.543  1.00  0.00     0.060 A 
ATOM     26  C   UNL     1       3.701   7.245   2.131  1.00  0.00     0.016 A 
ATOM     27  C   UNL     1       1.541   6.386   1.336  1.00  0.00     0.016 A 
ATOM     28  C   UNL     1       3.046   8.249   2.792  1.00  0.00     0.010 A 
ATOM     29  C   UNL     1       0.887   7.382   2.010  1.00  0.00     0.010 A 
ATOM     30  C   UNL     1       1.647   8.231   2.808  1.00  0.00    -0.014 A 
BRANCH  30  31
ATOM     31  C   UNL     1       0.995   9.236   3.604  1.00  0.00     0.031 A 
ATOM     32  C   UNL     1       1.083  10.564   2.972  1.00  0.00     0.074 A 
ATOM     33  C   UNL     1       0.329   8.954   4.736  1.00  0.00     0.049 A 
ATOM     34  N   UNL     1       1.793  11.570   3.355  1.00  0.00    -0.248 NA
ATOM     35  C   UNL     1       0.483  10.709   1.634  1.00  0.00     0.031 C 
ATOM     36  C   UNL     1      -0.068   7.652   5.272  1.00  0.00     0.029 A 
ATOM     37  N   UNL     1      -0.247   9.827   5.596  1.00  0.00    -0.354 N 
ATOM     38  C   UNL     1       1.563  12.553   2.404  1.00  0.00     0.074 A 
ATOM     39  C   UNL     1       0.950  11.902   1.275  1.00  0.00     0.031 C 
ATOM     40  C   UNL     1      -1.037   7.840   6.201  1.00  0.00     0.029 A 
ATOM     41  C   UNL     1      -1.223   9.269   6.405  1.00  0.00     0.049 A 
ATOM     42  H   UNL     1       0.006  10.777   5.641  1.00  0.00     0.167 HD
ATOM     43  C   UNL     1       1.597  13.870   2.735  1.00  0.00     0.031 A 
ATOM     44  C   UNL     1      -2.168   9.964   7.088  1.00  0.00     0.031 A 
ATOM     45  C   UNL     1       2.318  14.098   3.961  1.00  0.00     0.049 A 
ATOM     46  C   UNL     1      -1.713  11.378   7.165  1.00  0.00     0.074 A 
ATOM     47  C   UNL     1       3.601  13.811   4.389  1.00  0.00     0.029 A 
ATOM     48  N   UNL     1       1.582  14.312   5.104  1.00  0.00    -0.354 N 
ATOM     49  N   UNL     1      -0.681  11.763   7.860  1.00  0.00    -0.248 NA
ATOM     50  C   UNL     1      -2.109  12.277   6.088  1.00  0.00     0.031 C 
ATOM     51  C   UNL     1       3.449  13.377   5.739  1.00  0.00     0.029 A 
ATOM     52  C   UNL     1       2.102  13.500   6.082  1.00  0.00     0.049 A 
ATOM     53  H   UNL     1       0.823  14.931   5.202  1.00  0.00     0.167 HD
ATOM     54  C   UNL     1      -0.040  12.697   7.058  1.00  0.00     0.074 A 
ATOM     55  C   UNL     1      -1.009  13.033   6.014  1.00  0.00     0.031 C 
ATOM     56  C   UNL     1       1.311  12.892   7.130  1.00  0.00     0.031 A 
BRANCH  43  57
ATOM     57  C   UNL     1       0.596  14.844   2.174  1.00  0.00    -0.014 A 
ATOM     58  C   UNL     1       0.726  16.205   2.482  1.00  0.00     0.009 A 
ATOM     59  C   UNL     1      -0.619  14.443   1.575  1.00  0.00     0.009 A 
ATOM     60  C   UNL     1      -0.325  17.101   2.250  1.00  0.00     0.001 A 
ATOM     61  C   UNL     1      -1.649  15.339   1.299  1.00  0.00     0.001 A 
ATOM     62  C   UNL     1      -1.511  16.668   1.662  1.00  0.00     0.000 A 
ENDBRANCH  43  57
BRANCH  44  63
ATOM     63  C   UNL     1      -3.579   9.583   7.337  1.00  0.00    -0.014 A 
ATOM     64  C   UNL     1      -4.366  10.318   8.238  1.00  0.00     0.009 A 
ATOM     65  C   UNL     1      -4.238   8.675   6.487  1.00  0.00     0.009 A 
ATOM     66  C   UNL     1      -5.762  10.182   8.255  1.00  0.00     0.001 A 
ATOM     67  C   UNL     1      -5.630   8.535   6.508  1.00  0.00     0.001 A 
ATOM     68  C   UNL     1      -6.393   9.302   7.380  1.00  0.00     0.000 A 
ENDBRANCH  44  63
BRANCH  56  69
ATOM     69  C   UNL     1       2.071  12.214   8.247  1.00  0.00    -0.014 A 
ATOM     70  C   UNL     1       2.082  10.821   8.445  1.00  0.00     0.009 A 
ATOM     71  C   UNL     1       2.925  12.998   9.038  1.00  0.00     0.009 A 
ATOM     72  C   UNL     1       2.893  10.239   9.427  1.00  0.00     0.001 A 
ATOM     73  C   UNL     1       3.750  12.417  10.003  1.00  0.00     0.001 A 
ATOM     74  C   UNL     1       3.729  11.039  10.203  1.00  0.00     0.000 A 
ENDBRANCH  56  69
ENDBRANCH  30  31
ENDBRANCH  23  25
ENDBRANCH  22  23
ENDBRANCH  21  22
ENDBRANCH   1  21
TORSDOF 14
