REMARK SMILES C[C@]1(C(=O)OCCOCCOC(=O)c2ccc(-c3c4nc(c(-c5ccccc5)c5ccc([nH]5)c(-c5ccccc5)c5nc(c(-c6ccccc6)c6ccc3[nH]6)C=C5)C=C4)cc2)[NH2+]C2(C(=O)c3ccccc3C2=O)[C@@H]2C(=O)N(c3ccccc3)C(=O)[C@H]21
REMARK SMILES IDX 9 1 8 2 7 3 6 4 5 5 3 6 4 7 2 8 1 9 62 10 86 11 63 12 74 15
REMARK SMILES IDX 84 16 64 17 72 18 75 19 77 20 85 21 65 22 66 23 71 24 73 25
REMARK SMILES IDX 76 26 67 27 70 28 68 29 69 30 78 31 79 32 83 33 80 34 82 35
REMARK SMILES IDX 81 36 10 37 11 38 12 39 13 40 14 41 15 42 61 43 16 44 60 45
REMARK SMILES IDX 17 46 18 47 19 48 54 49 20 50 59 51 53 52 55 53 21 54 58 55
REMARK SMILES IDX 52 56 51 57 22 59 44 60 29 61 43 62 30 63 33 64 42 65 56 66
REMARK SMILES IDX 31 67 32 68 41 70 57 71 34 72 23 73 24 74 28 75 25 76 27 77
REMARK SMILES IDX 26 78 45 79 46 80 50 81 47 82 49 83 48 84 35 85 36 86 40 87
REMARK SMILES IDX 37 88 39 89 38 90
REMARK H PARENT 62 13 62 14 55 58 33 69
REMARK Flexibility Score: inf
ROOT
ATOM      1  C   UNL     1      -2.279  -0.810  -1.366  1.00  0.00     0.202 C 
ENDROOT
BRANCH   1   2
ATOM      2  O   UNL     1      -3.218  -0.974  -0.304  1.00  0.00    -0.374 OA
BRANCH   2   3
ATOM      3  C   UNL     1      -3.819   0.191   0.250  1.00  0.00     0.202 C 
BRANCH   3   4
ATOM      4  C   UNL     1      -2.967   1.065   1.171  1.00  0.00     0.261 C 
BRANCH   4   5
ATOM      5  O   UNL     1      -1.788   1.556   0.521  1.00  0.00    -0.459 OA
BRANCH   5   6
ATOM      6  C   UNL     1      -0.626   0.928   0.854  1.00  0.00     0.368 C 
ATOM      7  O   UNL     1      -0.548   0.023   1.676  1.00  0.00    -0.245 OA
BRANCH   6   8
ATOM      8  C   UNL     1       0.601   1.510   0.093  1.00  0.00     0.205 C 
ATOM      9  C   UNL     1       1.698   0.442   0.116  1.00  0.00     0.093 C 
ATOM     10  N   UNL     1       0.323   1.889  -1.367  1.00  0.00    -0.313 N 
ATOM     11  C   UNL     1       1.015   2.829   0.690  1.00  0.00     0.172 C 
ATOM     12  C   UNL     1       0.332   3.410  -1.461  1.00  0.00     0.237 C 
ATOM     13  H   UNL     1      -0.588   1.529  -1.652  1.00  0.00     0.348 HD
ATOM     14  H   UNL     1       1.033   1.489  -1.980  1.00  0.00     0.348 HD
ATOM     15  C   UNL     1       0.094   3.786  -0.044  1.00  0.00     0.177 C 
ATOM     16  C   UNL     1       0.770   3.257   2.096  1.00  0.00     0.244 C 
ATOM     17  C   UNL     1       1.612   3.934  -2.109  1.00  0.00     0.232 C 
ATOM     18  C   UNL     1      -0.753   3.901  -2.410  1.00  0.00     0.232 C 
ATOM     19  C   UNL     1       0.349   5.042   0.697  1.00  0.00     0.245 C 
ATOM     20  N   UNL     1       0.465   4.615   2.020  1.00  0.00    -0.250 N 
ATOM     21  O   UNL     1       0.868   2.523   3.064  1.00  0.00    -0.273 OA
ATOM     22  O   UNL     1       2.758   3.745  -1.735  1.00  0.00    -0.286 OA
ATOM     23  C   UNL     1       1.257   4.647  -3.336  1.00  0.00     0.036 A 
ATOM     24  C   UNL     1      -0.118   4.603  -3.526  1.00  0.00     0.036 A 
ATOM     25  O   UNL     1      -1.962   3.791  -2.285  1.00  0.00    -0.286 OA
ATOM     26  O   UNL     1       0.304   6.157   0.213  1.00  0.00    -0.273 OA
ATOM     27  C   UNL     1       2.095   5.275  -4.240  1.00  0.00     0.013 A 
ATOM     28  C   UNL     1      -0.715   5.174  -4.636  1.00  0.00     0.013 A 
ATOM     29  C   UNL     1       1.510   5.865  -5.364  1.00  0.00     0.001 A 
ATOM     30  C   UNL     1       0.117   5.810  -5.564  1.00  0.00     0.001 A 
BRANCH  20  31
ATOM     31  C   UNL     1       0.105   5.376   3.152  1.00  0.00     0.052 A 
ATOM     32  C   UNL     1       0.714   5.144   4.392  1.00  0.00     0.027 A 
ATOM     33  C   UNL     1      -0.969   6.274   3.082  1.00  0.00     0.027 A 
ATOM     34  C   UNL     1       0.256   5.788   5.541  1.00  0.00     0.002 A 
ATOM     35  C   UNL     1      -1.455   6.884   4.241  1.00  0.00     0.002 A 
ATOM     36  C   UNL     1      -0.840   6.644   5.468  1.00  0.00     0.000 A 
ENDBRANCH  20  31
ENDBRANCH   6   8
ENDBRANCH   5   6
ENDBRANCH   4   5
ENDBRANCH   3   4
ENDBRANCH   2   3
ENDBRANCH   1   2
BRANCH   1  37
ATOM     37  C   UNL     1      -2.809  -0.398  -2.744  1.00  0.00     0.261 C 
BRANCH  37  38
ATOM     38  O   UNL     1      -3.376   0.922  -2.757  1.00  0.00    -0.460 OA
BRANCH  38  39
ATOM     39  C   UNL     1      -4.724   0.974  -2.883  1.00  0.00     0.338 C 
ATOM     40  O   UNL     1      -5.490   0.038  -3.032  1.00  0.00    -0.246 OA
BRANCH  39  41
ATOM     41  C   UNL     1      -5.191   2.350  -2.619  1.00  0.00     0.060 A 
ATOM     42  C   UNL     1      -4.711   3.429  -3.358  1.00  0.00     0.016 A 
ATOM     43  C   UNL     1      -6.165   2.542  -1.631  1.00  0.00     0.016 A 
ATOM     44  C   UNL     1      -5.214   4.708  -3.109  1.00  0.00     0.010 A 
ATOM     45  C   UNL     1      -6.677   3.818  -1.393  1.00  0.00     0.010 A 
ATOM     46  C   UNL     1      -6.219   4.908  -2.145  1.00  0.00    -0.014 A 
BRANCH  46  47
ATOM     47  C   UNL     1      -6.900   6.222  -2.045  1.00  0.00     0.031 A 
ATOM     48  C   UNL     1      -6.695   7.137  -0.878  1.00  0.00     0.074 A 
ATOM     49  C   UNL     1      -7.745   6.569  -3.035  1.00  0.00     0.049 A 
ATOM     50  N   UNL     1      -7.173   8.342  -0.692  1.00  0.00    -0.248 NA
ATOM     51  C   UNL     1      -5.856   6.644   0.224  1.00  0.00     0.031 C 
ATOM     52  C   UNL     1      -8.048   5.739  -4.202  1.00  0.00     0.029 A 
ATOM     53  N   UNL     1      -8.491   7.704  -3.229  1.00  0.00    -0.354 N 
ATOM     54  C   UNL     1      -6.686   8.759   0.539  1.00  0.00     0.074 A 
ATOM     55  C   UNL     1      -5.913   7.659   1.078  1.00  0.00     0.031 C 
ATOM     56  C   UNL     1      -8.880   6.409  -5.011  1.00  0.00     0.029 A 
ATOM     57  C   UNL     1      -9.206   7.695  -4.402  1.00  0.00     0.049 A 
ATOM     58  H   UNL     1      -8.512   8.452  -2.589  1.00  0.00     0.167 HD
ATOM     59  C   UNL     1      -6.857   9.957   1.148  1.00  0.00     0.031 A 
ATOM     60  C   UNL     1     -10.030   8.616  -4.937  1.00  0.00     0.031 A 
ATOM     61  C   UNL     1      -7.649  11.035   0.609  1.00  0.00     0.049 A 
ATOM     62  C   UNL     1     -10.238   9.919  -4.221  1.00  0.00     0.074 A 
ATOM     63  C   UNL     1      -7.841  12.302   1.135  1.00  0.00     0.029 A 
ATOM     64  N   UNL     1      -8.390  10.975  -0.562  1.00  0.00    -0.354 N 
ATOM     65  N   UNL     1      -9.700  10.335  -3.100  1.00  0.00    -0.248 NA
ATOM     66  C   UNL     1     -11.150  10.886  -4.845  1.00  0.00     0.031 C 
ATOM     67  C   UNL     1      -8.761  12.976   0.330  1.00  0.00     0.029 A 
ATOM     68  C   UNL     1      -9.073  12.166  -0.751  1.00  0.00     0.049 A 
ATOM     69  H   UNL     1      -8.427  10.200  -1.169  1.00  0.00     0.167 HD
ATOM     70  C   UNL     1     -10.188  11.618  -2.896  1.00  0.00     0.074 A 
ATOM     71  C   UNL     1     -11.052  11.920  -4.019  1.00  0.00     0.031 C 
ATOM     72  C   UNL     1      -9.937  12.465  -1.868  1.00  0.00     0.031 A 
BRANCH  59  73
ATOM     73  C   UNL     1      -6.178  10.187   2.473  1.00  0.00    -0.014 A 
ATOM     74  C   UNL     1      -6.949  10.408   3.627  1.00  0.00     0.009 A 
ATOM     75  C   UNL     1      -4.782  10.309   2.561  1.00  0.00     0.009 A 
ATOM     76  C   UNL     1      -6.340  10.766   4.832  1.00  0.00     0.001 A 
ATOM     77  C   UNL     1      -4.173  10.634   3.776  1.00  0.00     0.001 A 
ATOM     78  C   UNL     1      -4.953  10.875   4.906  1.00  0.00     0.000 A 
ENDBRANCH  59  73
BRANCH  60  79
ATOM     79  C   UNL     1     -10.672   8.332  -6.249  1.00  0.00    -0.014 A 
ATOM     80  C   UNL     1     -11.621   7.304  -6.373  1.00  0.00     0.009 A 
ATOM     81  C   UNL     1     -10.276   9.029  -7.400  1.00  0.00     0.009 A 
ATOM     82  C   UNL     1     -12.131   6.954  -7.625  1.00  0.00     0.001 A 
ATOM     83  C   UNL     1     -10.815   8.700  -8.646  1.00  0.00     0.001 A 
ATOM     84  C   UNL     1     -11.730   7.655  -8.760  1.00  0.00     0.000 A 
ENDBRANCH  60  79
BRANCH  72  85
ATOM     85  C   UNL     1     -10.591  13.822  -1.889  1.00  0.00    -0.014 A 
ATOM     86  C   UNL     1      -9.796  14.976  -2.001  1.00  0.00     0.009 A 
ATOM     87  C   UNL     1     -11.970  13.970  -1.677  1.00  0.00     0.009 A 
ATOM     88  C   UNL     1     -10.361  16.246  -1.870  1.00  0.00     0.001 A 
ATOM     89  C   UNL     1     -12.539  15.243  -1.583  1.00  0.00     0.001 A 
ATOM     90  C   UNL     1     -11.732  16.378  -1.665  1.00  0.00     0.000 A 
ENDBRANCH  72  85
ENDBRANCH  46  47
ENDBRANCH  39  41
ENDBRANCH  38  39
ENDBRANCH  37  38
ENDBRANCH   1  37
TORSDOF 15
