REMARK SMILES O=C(OCCOCCOC(=O)[C@]1(CCc2cccnc2)CCC[NH2+]C1)c1ccc(-c2c3nc(c(-c4ccccc4)c4ccc([nH]4)c(-c4ccccc4)c4nc(c(-c5ccccc5)c5ccc2[nH]5)C=C4)C=C3)cc1
REMARK SMILES IDX 7 1 6 2 5 3 4 4 3 5 2 6 1 7 26 8 27 9 73 10 28 11 72 12
REMARK SMILES IDX 29 13 30 14 31 15 66 16 32 17 71 18 65 19 67 20 33 21 70 22
REMARK SMILES IDX 64 23 63 24 34 26 56 27 41 28 55 29 42 30 45 31 54 32 68 33
REMARK SMILES IDX 43 34 44 35 53 37 69 38 46 39 35 40 36 41 40 42 37 43 39 44
REMARK SMILES IDX 38 45 57 46 58 47 62 48 59 49 61 50 60 51 47 52 48 53 52 54
REMARK SMILES IDX 49 55 51 56 50 57 8 58 9 59 10 60 11 61 12 62 21 63 25 64
REMARK SMILES IDX 22 65 24 66 23 67 13 70 14 71 15 72 16 73 20 74 17 75 19 76
REMARK SMILES IDX 18 77
REMARK H PARENT 67 25 45 36 24 68 24 69
REMARK Flexibility Score: inf
ROOT
ATOM      1  C   UNL     1       3.484   2.881   1.312  1.00  0.00     0.202 C 
ENDROOT
BRANCH   1   2
ATOM      2  O   UNL     1       4.786   2.301   1.290  1.00  0.00    -0.374 OA
BRANCH   2   3
ATOM      3  C   UNL     1       5.419   1.461   0.310  1.00  0.00     0.202 C 
BRANCH   3   4
ATOM      4  C   UNL     1       5.001   0.014  -0.588  1.00  0.00     0.261 C 
BRANCH   4   5
ATOM      5  O   UNL     1       3.253  -1.037  -0.539  1.00  0.00    -0.460 OA
BRANCH   5   6
ATOM      6  C   UNL     1       2.037  -1.548   0.178  1.00  0.00     0.338 C 
ATOM      7  O   UNL     1       1.125  -2.062  -0.471  1.00  0.00    -0.246 OA
BRANCH   6   8
ATOM      8  C   UNL     1       1.901  -1.565   1.748  1.00  0.00     0.060 A 
ATOM      9  C   UNL     1       1.928  -0.390   2.483  1.00  0.00     0.016 A 
ATOM     10  C   UNL     1       2.131  -2.727   2.485  1.00  0.00     0.016 A 
ATOM     11  C   UNL     1       2.832  -0.321   3.566  1.00  0.00     0.010 A 
ATOM     12  C   UNL     1       2.757  -2.650   3.764  1.00  0.00     0.010 A 
ATOM     13  C   UNL     1       3.341  -1.450   4.220  1.00  0.00    -0.014 A 
BRANCH  13  14
ATOM     14  C   UNL     1       4.527  -1.419   5.212  1.00  0.00     0.031 A 
ATOM     15  C   UNL     1       5.469  -2.635   5.334  1.00  0.00     0.074 A 
ATOM     16  C   UNL     1       4.912  -0.345   5.958  1.00  0.00     0.049 A 
ATOM     17  N   UNL     1       6.255  -3.002   6.325  1.00  0.00    -0.248 NA
ATOM     18  C   UNL     1       5.537  -3.558   4.187  1.00  0.00     0.031 C 
ATOM     19  C   UNL     1       4.354   1.007   5.922  1.00  0.00     0.029 A 
ATOM     20  N   UNL     1       5.910  -0.227   6.922  1.00  0.00    -0.354 N 
ATOM     21  C   UNL     1       6.799  -4.237   5.965  1.00  0.00     0.074 A 
ATOM     22  C   UNL     1       6.277  -4.551   4.656  1.00  0.00     0.031 C 
ATOM     23  C   UNL     1       5.033   1.813   6.748  1.00  0.00     0.029 A 
ATOM     24  C   UNL     1       5.956   1.013   7.530  1.00  0.00     0.049 A 
ATOM     25  H   UNL     1       6.526  -0.960   7.149  1.00  0.00     0.167 HD
ATOM     26  C   UNL     1       7.641  -5.052   6.654  1.00  0.00     0.031 A 
ATOM     27  C   UNL     1       6.560   1.468   8.650  1.00  0.00     0.031 A 
ATOM     28  C   UNL     1       8.246  -4.717   7.918  1.00  0.00     0.049 A 
ATOM     29  C   UNL     1       7.366   0.523   9.493  1.00  0.00     0.074 A 
ATOM     30  C   UNL     1       9.057  -5.496   8.728  1.00  0.00     0.029 A 
ATOM     31  N   UNL     1       8.142  -3.482   8.534  1.00  0.00    -0.354 N 
ATOM     32  N   UNL     1       7.687  -0.724   9.256  1.00  0.00    -0.248 NA
ATOM     33  C   UNL     1       7.864   1.040  10.778  1.00  0.00     0.031 C 
ATOM     34  C   UNL     1       9.401  -4.747   9.859  1.00  0.00     0.029 A 
ATOM     35  C   UNL     1       8.859  -3.482   9.719  1.00  0.00     0.049 A 
ATOM     36  H   UNL     1       7.633  -2.716   8.181  1.00  0.00     0.167 HD
ATOM     37  C   UNL     1       8.436  -1.134  10.351  1.00  0.00     0.074 A 
ATOM     38  C   UNL     1       8.544   0.002  11.241  1.00  0.00     0.031 C 
ATOM     39  C   UNL     1       8.976  -2.351  10.599  1.00  0.00     0.031 A 
BRANCH  26  40
ATOM     40  C   UNL     1       7.899  -6.435   6.102  1.00  0.00    -0.014 A 
ATOM     41  C   UNL     1       8.704  -6.664   4.976  1.00  0.00     0.009 A 
ATOM     42  C   UNL     1       7.342  -7.545   6.765  1.00  0.00     0.009 A 
ATOM     43  C   UNL     1       8.908  -7.966   4.503  1.00  0.00     0.001 A 
ATOM     44  C   UNL     1       7.574  -8.845   6.310  1.00  0.00     0.001 A 
ATOM     45  C   UNL     1       8.346  -9.054   5.171  1.00  0.00     0.000 A 
ENDBRANCH  26  40
BRANCH  27  46
ATOM     46  C   UNL     1       6.294   2.859   9.141  1.00  0.00    -0.014 A 
ATOM     47  C   UNL     1       7.326   3.804   9.260  1.00  0.00     0.009 A 
ATOM     48  C   UNL     1       4.995   3.238   9.529  1.00  0.00     0.009 A 
ATOM     49  C   UNL     1       7.064   5.083   9.764  1.00  0.00     0.001 A 
ATOM     50  C   UNL     1       4.728   4.530   9.987  1.00  0.00     0.001 A 
ATOM     51  C   UNL     1       5.765   5.449  10.115  1.00  0.00     0.000 A 
ENDBRANCH  27  46
BRANCH  39  52
ATOM     52  C   UNL     1       9.786  -2.498  11.854  1.00  0.00    -0.014 A 
ATOM     53  C   UNL     1       9.180  -2.521  13.120  1.00  0.00     0.009 A 
ATOM     54  C   UNL     1      11.181  -2.625  11.765  1.00  0.00     0.009 A 
ATOM     55  C   UNL     1       9.960  -2.626  14.273  1.00  0.00     0.001 A 
ATOM     56  C   UNL     1      11.955  -2.761  12.917  1.00  0.00     0.001 A 
ATOM     57  C   UNL     1      11.345  -2.750  14.171  1.00  0.00     0.000 A 
ENDBRANCH  39  52
ENDBRANCH  13  14
ENDBRANCH   6   8
ENDBRANCH   5   6
ENDBRANCH   4   5
ENDBRANCH   3   4
ENDBRANCH   2   3
ENDBRANCH   1   2
BRANCH   1  58
ATOM     58  C   UNL     1       3.006   3.975   0.334  1.00  0.00     0.261 C 
BRANCH  58  59
ATOM     59  O   UNL     1       3.182   3.655  -1.049  1.00  0.00    -0.463 OA
BRANCH  59  60
ATOM     60  C   UNL     1       4.464   3.844  -1.429  1.00  0.00     0.317 C 
ATOM     61  O   UNL     1       5.296   4.312  -0.660  1.00  0.00    -0.251 OA
BRANCH  60  62
ATOM     62  C   UNL     1       4.735   3.475  -2.897  1.00  0.00     0.117 C 
ATOM     63  C   UNL     1       6.214   3.051  -3.082  1.00  0.00     0.030 C 
ATOM     64  C   UNL     1       4.601   4.846  -3.630  1.00  0.00     0.279 C 
ATOM     65  C   UNL     1       7.220   4.116  -2.593  1.00  0.00     0.063 C 
ATOM     66  N   UNL     1       5.443   5.890  -3.053  1.00  0.00    -0.345 N 
ATOM     67  C   UNL     1       6.864   5.559  -2.987  1.00  0.00     0.260 C 
ATOM     68  H   UNL     1       5.339   6.732  -3.619  1.00  0.00     0.346 HD
ATOM     69  H   UNL     1       5.130   6.013  -2.090  1.00  0.00     0.346 HD
BRANCH  62  70
ATOM     70  C   UNL     1       3.680   2.461  -3.542  1.00  0.00     0.029 C 
BRANCH  70  71
ATOM     71  C   UNL     1       3.768   0.896  -3.496  1.00  0.00     0.038 C 
BRANCH  71  72
ATOM     72  C   UNL     1       3.457   0.046  -2.247  1.00  0.00    -0.030 A 
ATOM     73  C   UNL     1       4.294  -1.526  -2.174  1.00  0.00     0.007 A 
ATOM     74  C   UNL     1       3.058   0.819  -0.749  1.00  0.00     0.114 A 
ATOM     75  C   UNL     1       4.793  -2.275  -0.650  1.00  0.00     0.020 A 
ATOM     76  N   UNL     1       3.618   0.147   0.819  1.00  0.00    -0.264 NA
ATOM     77  C   UNL     1       4.504  -1.405   0.851  1.00  0.00     0.111 A 
ENDBRANCH  71  72
ENDBRANCH  70  71
ENDBRANCH  62  70
ENDBRANCH  60  62
ENDBRANCH  59  60
ENDBRANCH  58  59
ENDBRANCH   1  58
TORSDOF 17
