REMARK SMILES Cc1ccc(S(=O)(=O)N2c3ccc(C(=O)OCCOCCOC(=O)c4ccc(-c5c6nc(c(-c7ccccc7)c7ccc([nH]7)c(-c7ccccc7)c7nc(c(-c8ccccc8)c8ccc5[nH]8)C=C7)C=C6)cc4)cc3C[C@H]2C)cc1
REMARK SMILES IDX 19 1 18 2 17 3 16 4 14 5 15 6 13 7 9 8 10 9 76 10 11 11
REMARK SMILES IDX 74 12 75 13 77 14 12 15 73 16 6 17 7 18 8 19 5 20 1 21 2 22
REMARK SMILES IDX 3 23 79 24 4 25 78 26 20 27 21 28 22 29 23 30 24 31 25 32
REMARK SMILES IDX 26 33 72 34 27 35 71 36 28 37 29 38 30 39 65 40 31 41 70 42
REMARK SMILES IDX 64 43 66 44 32 45 69 46 63 47 62 48 33 50 55 51 40 52 54 53
REMARK SMILES IDX 41 54 44 55 53 56 67 57 42 58 43 59 52 61 68 62 45 63 34 64
REMARK SMILES IDX 35 65 39 66 36 67 38 68 37 69 56 70 57 71 61 72 58 73 60 74
REMARK SMILES IDX 59 75 46 76 47 77 51 78 48 79 50 80 49 81
REMARK H PARENT 66 49 44 60
REMARK Flexibility Score: inf
ROOT
ATOM      1  O   UNL     1     -10.078   4.885   0.996  1.00  0.00    -0.374 OA
ENDROOT
BRANCH   1   2
ATOM      2  C   UNL     1     -10.251   3.909   2.010  1.00  0.00     0.202 C 
BRANCH   2   3
ATOM      3  C   UNL     1     -10.696   2.699   1.278  1.00  0.00     0.261 C 
BRANCH   3   4
ATOM      4  O   UNL     1      -9.576   2.020   0.732  1.00  0.00    -0.460 OA
BRANCH   4   5
ATOM      5  C   UNL     1      -9.104   2.422  -0.483  1.00  0.00     0.338 C 
ATOM      6  O   UNL     1      -9.615   3.123  -1.318  1.00  0.00    -0.246 OA
BRANCH   5   7
ATOM      7  C   UNL     1      -7.697   2.005  -0.439  1.00  0.00     0.060 A 
ATOM      8  N   UNL     1      -3.665   1.705   0.398  1.00  0.00    -0.263 N 
ATOM      9  C   UNL     1      -5.087   1.729   0.219  1.00  0.00     0.055 A 
ATOM     10  C   UNL     1      -3.208   2.994  -0.266  1.00  0.00     0.101 C 
ATOM     11  C   UNL     1      -5.980   0.881   0.835  1.00  0.00     0.028 A 
ATOM     12  C   UNL     1      -5.466   2.668  -0.744  1.00  0.00    -0.021 A 
ATOM     13  C   UNL     1      -4.288   3.391  -1.288  1.00  0.00     0.063 C 
ATOM     14  C   UNL     1      -3.102   4.050   0.852  1.00  0.00     0.032 C 
ATOM     15  C   UNL     1      -7.300   0.992   0.465  1.00  0.00     0.018 A 
ATOM     16  C   UNL     1      -6.783   2.818  -1.102  1.00  0.00     0.021 A 
BRANCH   8  17
ATOM     17  S   UNL     1      -3.081   0.206  -0.225  1.00  0.00     0.264 S 
ATOM     18  O   UNL     1      -3.257   0.226  -1.664  1.00  0.00    -0.201 OA
ATOM     19  O   UNL     1      -3.648  -0.862   0.580  1.00  0.00    -0.201 OA
BRANCH  17  20
ATOM     20  C   UNL     1      -1.346   0.113   0.061  1.00  0.00     0.088 A 
ATOM     21  C   UNL     1       2.909  -0.260   0.012  1.00  0.00     0.044 C 
ATOM     22  C   UNL     1       1.419  -0.141   0.086  1.00  0.00    -0.051 A 
ATOM     23  C   UNL     1       0.619  -1.271  -0.114  1.00  0.00     0.005 A 
ATOM     24  C   UNL     1       0.822   1.091   0.370  1.00  0.00     0.005 A 
ATOM     25  C   UNL     1      -0.763  -1.143  -0.140  1.00  0.00     0.022 A 
ATOM     26  C   UNL     1      -0.563   1.210   0.394  1.00  0.00     0.022 A 
ENDBRANCH  17  20
ENDBRANCH   8  17
ENDBRANCH   5   7
ENDBRANCH   4   5
ENDBRANCH   3   4
ENDBRANCH   2   3
ENDBRANCH   1   2
BRANCH   1  27
ATOM     27  C   UNL     1      -9.787   6.183   1.460  1.00  0.00     0.202 C 
BRANCH  27  28
ATOM     28  C   UNL     1     -10.846   6.710   2.440  1.00  0.00     0.261 C 
BRANCH  28  29
ATOM     29  O   UNL     1     -12.144   6.692   1.799  1.00  0.00    -0.460 OA
BRANCH  29  30
ATOM     30  C   UNL     1     -13.039   5.752   2.221  1.00  0.00     0.338 C 
ATOM     31  O   UNL     1     -13.250   5.447   3.384  1.00  0.00    -0.246 OA
BRANCH  30  32
ATOM     32  C   UNL     1     -13.486   4.923   1.055  1.00  0.00     0.060 A 
ATOM     33  C   UNL     1     -14.123   3.680   1.269  1.00  0.00     0.016 A 
ATOM     34  C   UNL     1     -12.946   5.209  -0.194  1.00  0.00     0.016 A 
ATOM     35  C   UNL     1     -14.060   2.666   0.292  1.00  0.00     0.010 A 
ATOM     36  C   UNL     1     -12.798   4.180  -1.102  1.00  0.00     0.010 A 
ATOM     37  C   UNL     1     -13.314   2.888  -0.863  1.00  0.00    -0.014 A 
BRANCH  37  38
ATOM     38  C   UNL     1     -12.845   1.869  -1.824  1.00  0.00     0.031 A 
ATOM     39  C   UNL     1     -13.178   2.077  -3.248  1.00  0.00     0.074 A 
ATOM     40  C   UNL     1     -11.888   0.956  -1.506  1.00  0.00     0.049 A 
ATOM     41  N   UNL     1     -12.963   1.210  -4.171  1.00  0.00    -0.248 NA
ATOM     42  C   UNL     1     -13.808   3.292  -3.759  1.00  0.00     0.031 C 
ATOM     43  C   UNL     1     -10.921   0.277  -2.378  1.00  0.00     0.029 A 
ATOM     44  N   UNL     1     -11.577   0.430  -0.259  1.00  0.00    -0.354 N 
ATOM     45  C   UNL     1     -13.078   1.852  -5.379  1.00  0.00     0.074 A 
ATOM     46  C   UNL     1     -13.675   3.127  -5.075  1.00  0.00     0.031 C 
ATOM     47  C   UNL     1     -10.318  -0.725  -1.708  1.00  0.00     0.029 A 
ATOM     48  C   UNL     1     -10.934  -0.805  -0.395  1.00  0.00     0.049 A 
ATOM     49  H   UNL     1     -11.781   0.865   0.600  1.00  0.00     0.167 HD
ATOM     50  C   UNL     1     -12.525   1.269  -6.477  1.00  0.00     0.031 A 
ATOM     51  C   UNL     1     -11.454  -1.881   0.248  1.00  0.00     0.031 A 
ATOM     52  C   UNL     1     -11.960  -0.049  -6.138  1.00  0.00     0.049 A 
ATOM     53  C   UNL     1     -12.074  -2.729  -0.828  1.00  0.00     0.074 A 
ATOM     54  C   UNL     1     -10.668  -0.503  -5.930  1.00  0.00     0.029 A 
ATOM     55  N   UNL     1     -12.800  -1.015  -5.572  1.00  0.00    -0.354 N 
ATOM     56  N   UNL     1     -12.387  -2.243  -2.001  1.00  0.00    -0.248 NA
ATOM     57  C   UNL     1     -12.244  -4.174  -0.755  1.00  0.00     0.031 C 
ATOM     58  C   UNL     1     -10.744  -1.685  -5.127  1.00  0.00     0.029 A 
ATOM     59  C   UNL     1     -12.079  -1.972  -4.875  1.00  0.00     0.049 A 
ATOM     60  H   UNL     1     -13.781  -1.014  -5.657  1.00  0.00     0.167 HD
ATOM     61  C   UNL     1     -12.614  -3.261  -2.864  1.00  0.00     0.074 A 
ATOM     62  C   UNL     1     -12.594  -4.452  -2.026  1.00  0.00     0.031 C 
ATOM     63  C   UNL     1     -12.760  -3.085  -4.207  1.00  0.00     0.031 A 
BRANCH  50  64
ATOM     64  C   UNL     1     -12.289   2.018  -7.770  1.00  0.00    -0.014 A 
ATOM     65  C   UNL     1     -11.286   1.594  -8.658  1.00  0.00     0.009 A 
ATOM     66  C   UNL     1     -12.997   3.171  -8.163  1.00  0.00     0.009 A 
ATOM     67  C   UNL     1     -10.977   2.308  -9.828  1.00  0.00     0.001 A 
ATOM     68  C   UNL     1     -12.667   3.915  -9.305  1.00  0.00     0.001 A 
ATOM     69  C   UNL     1     -11.653   3.481 -10.141  1.00  0.00     0.000 A 
ENDBRANCH  50  64
BRANCH  51  70
ATOM     70  C   UNL     1     -11.959  -1.485   1.610  1.00  0.00    -0.014 A 
ATOM     71  C   UNL     1     -10.967  -1.139   2.566  1.00  0.00     0.009 A 
ATOM     72  C   UNL     1     -13.245  -0.953   1.795  1.00  0.00     0.009 A 
ATOM     73  C   UNL     1     -11.212  -0.188   3.570  1.00  0.00     0.001 A 
ATOM     74  C   UNL     1     -13.486  -0.000   2.805  1.00  0.00     0.001 A 
ATOM     75  C   UNL     1     -12.465   0.407   3.666  1.00  0.00     0.000 A 
ENDBRANCH  51  70
BRANCH  63  76
ATOM     76  C   UNL     1     -13.563  -4.049  -5.019  1.00  0.00    -0.014 A 
ATOM     77  C   UNL     1     -14.552  -4.864  -4.446  1.00  0.00     0.009 A 
ATOM     78  C   UNL     1     -13.476  -4.018  -6.421  1.00  0.00     0.009 A 
ATOM     79  C   UNL     1     -15.362  -5.677  -5.234  1.00  0.00     0.001 A 
ATOM     80  C   UNL     1     -14.331  -4.778  -7.215  1.00  0.00     0.001 A 
ATOM     81  C   UNL     1     -15.258  -5.626  -6.619  1.00  0.00     0.000 A 
ENDBRANCH  63  76
ENDBRANCH  37  38
ENDBRANCH  30  32
ENDBRANCH  29  30
ENDBRANCH  28  29
ENDBRANCH  27  28
ENDBRANCH   1  27
TORSDOF 16
