REMARK SMILES O=C(OCCOCCOC(=O)[C@H]1Cc2c([nH]c3ccccc23)[C@@H](c2ccc(OC(F)(F)F)cc2)[NH2+]1)c1ccc(-c2c3nc(c(-c4ccccc4)c4ccc([nH]4)c(-c4ccccc4)c4nc(c(-c5ccccc5)c5ccc2[nH]5)C=C4)C=C3)cc1
REMARK SMILES IDX 7 1 6 2 5 3 4 4 3 5 2 6 1 7 36 8 37 9 83 10 38 11 82 12
REMARK SMILES IDX 39 13 40 14 41 15 76 16 42 17 81 18 75 19 77 20 43 21 80 22
REMARK SMILES IDX 74 23 73 24 44 26 66 27 51 28 65 29 52 30 55 31 64 32 78 33
REMARK SMILES IDX 53 34 54 35 63 37 79 38 56 39 45 40 46 41 50 42 47 43 49 44
REMARK SMILES IDX 48 45 67 46 68 47 72 48 69 49 71 50 70 51 57 52 58 53 62 54
REMARK SMILES IDX 59 55 61 56 60 57 8 58 9 59 10 60 11 61 12 62 13 63 35 64
REMARK SMILES IDX 14 65 23 66 15 69 22 70 16 71 17 72 21 73 18 75 20 76 19 77
REMARK SMILES IDX 24 78 25 79 34 80 26 81 33 82 27 83 28 84 29 85 30 86 31 87
REMARK SMILES IDX 32 88
REMARK H PARENT 77 25 55 36 35 67 35 68 16 74
REMARK Flexibility Score: inf
ROOT
ATOM      1  C   UNL     1       2.507  -1.620   1.260  1.00  0.00     0.202 C 
ENDROOT
BRANCH   1   2
ATOM      2  O   UNL     1       3.888  -1.340   1.006  1.00  0.00    -0.374 OA
BRANCH   2   3
ATOM      3  C   UNL     1       4.352  -0.072   1.484  1.00  0.00     0.202 C 
BRANCH   3   4
ATOM      4  C   UNL     1       4.244   1.076   0.478  1.00  0.00     0.261 C 
BRANCH   4   5
ATOM      5  O   UNL     1       2.864   1.277   0.114  1.00  0.00    -0.460 OA
BRANCH   5   6
ATOM      6  C   UNL     1       2.209   0.762  -0.952  1.00  0.00     0.338 C 
ATOM      7  O   UNL     1       0.990   0.896  -1.037  1.00  0.00    -0.246 OA
BRANCH   6   8
ATOM      8  C   UNL     1       2.924   0.099  -2.074  1.00  0.00     0.060 A 
ATOM      9  C   UNL     1       4.029  -0.734  -1.910  1.00  0.00     0.016 A 
ATOM     10  C   UNL     1       2.404   0.271  -3.365  1.00  0.00     0.016 A 
ATOM     11  C   UNL     1       4.670  -1.307  -2.985  1.00  0.00     0.010 A 
ATOM     12  C   UNL     1       3.008  -0.354  -4.458  1.00  0.00     0.010 A 
ATOM     13  C   UNL     1       4.152  -1.133  -4.260  1.00  0.00    -0.014 A 
BRANCH  13  14
ATOM     14  C   UNL     1       4.900  -1.749  -5.359  1.00  0.00     0.031 A 
ATOM     15  C   UNL     1       5.760  -0.874  -6.207  1.00  0.00     0.074 A 
ATOM     16  C   UNL     1       4.919  -3.090  -5.452  1.00  0.00     0.049 A 
ATOM     17  N   UNL     1       6.464  -1.188  -7.258  1.00  0.00    -0.248 NA
ATOM     18  C   UNL     1       5.855   0.542  -5.811  1.00  0.00     0.031 C 
ATOM     19  C   UNL     1       4.229  -4.009  -4.538  1.00  0.00     0.029 A 
ATOM     20  N   UNL     1       5.573  -3.914  -6.322  1.00  0.00    -0.354 N 
ATOM     21  C   UNL     1       7.045  -0.001  -7.680  1.00  0.00     0.074 A 
ATOM     22  C   UNL     1       6.635   1.036  -6.761  1.00  0.00     0.031 C 
ATOM     23  C   UNL     1       4.522  -5.272  -4.883  1.00  0.00     0.029 A 
ATOM     24  C   UNL     1       5.337  -5.247  -6.090  1.00  0.00     0.049 A 
ATOM     25  H   UNL     1       6.155  -3.586  -7.044  1.00  0.00     0.167 HD
ATOM     26  C   UNL     1       7.827   0.192  -8.764  1.00  0.00     0.031 A 
ATOM     27  C   UNL     1       5.699  -6.318  -6.816  1.00  0.00     0.031 A 
ATOM     28  C   UNL     1       8.201  -0.872  -9.653  1.00  0.00     0.049 A 
ATOM     29  C   UNL     1       6.476  -6.062  -8.076  1.00  0.00     0.074 A 
ATOM     30  C   UNL     1       8.927  -0.811 -10.825  1.00  0.00     0.029 A 
ATOM     31  N   UNL     1       7.867  -2.206  -9.450  1.00  0.00    -0.354 N 
ATOM     32  N   UNL     1       6.952  -4.926  -8.531  1.00  0.00    -0.248 NA
ATOM     33  C   UNL     1       6.737  -7.219  -8.938  1.00  0.00     0.031 C 
ATOM     34  C   UNL     1       8.989  -2.104 -11.358  1.00  0.00     0.029 A 
ATOM     35  C   UNL     1       8.345  -2.976 -10.491  1.00  0.00     0.049 A 
ATOM     36  H   UNL     1       7.364  -2.551  -8.677  1.00  0.00     0.167 HD
ATOM     37  C   UNL     1       7.567  -5.228  -9.736  1.00  0.00     0.074 A 
ATOM     38  C   UNL     1       7.430  -6.661  -9.922  1.00  0.00     0.031 C 
ATOM     39  C   UNL     1       8.177  -4.402 -10.621  1.00  0.00     0.031 A 
BRANCH  26  40
ATOM     40  C   UNL     1       8.208   1.606  -9.085  1.00  0.00    -0.014 A 
ATOM     41  C   UNL     1       9.174   2.303  -8.342  1.00  0.00     0.009 A 
ATOM     42  C   UNL     1       7.548   2.268 -10.132  1.00  0.00     0.009 A 
ATOM     43  C   UNL     1       9.444   3.646  -8.623  1.00  0.00     0.001 A 
ATOM     44  C   UNL     1       7.836   3.602 -10.424  1.00  0.00     0.001 A 
ATOM     45  C   UNL     1       8.776   4.293  -9.663  1.00  0.00     0.000 A 
ENDBRANCH  26  40
BRANCH  27  46
ATOM     46  C   UNL     1       5.237  -7.679  -6.435  1.00  0.00    -0.014 A 
ATOM     47  C   UNL     1       6.148  -8.680  -6.067  1.00  0.00     0.009 A 
ATOM     48  C   UNL     1       3.865  -7.987  -6.440  1.00  0.00     0.009 A 
ATOM     49  C   UNL     1       5.695  -9.960  -5.731  1.00  0.00     0.001 A 
ATOM     50  C   UNL     1       3.413  -9.255  -6.073  1.00  0.00     0.001 A 
ATOM     51  C   UNL     1       4.330 -10.245  -5.729  1.00  0.00     0.000 A 
ENDBRANCH  27  46
BRANCH  39  52
ATOM     52  C   UNL     1       8.745  -5.043 -11.849  1.00  0.00    -0.014 A 
ATOM     53  C   UNL     1       7.909  -5.443 -12.902  1.00  0.00     0.009 A 
ATOM     54  C   UNL     1      10.134  -5.191 -11.973  1.00  0.00     0.009 A 
ATOM     55  C   UNL     1       8.458  -6.002 -14.055  1.00  0.00     0.001 A 
ATOM     56  C   UNL     1      10.680  -5.726 -13.138  1.00  0.00     0.001 A 
ATOM     57  C   UNL     1       9.841  -6.136 -14.175  1.00  0.00     0.000 A 
ENDBRANCH  39  52
ENDBRANCH  13  14
ENDBRANCH   6   8
ENDBRANCH   5   6
ENDBRANCH   4   5
ENDBRANCH   3   4
ENDBRANCH   2   3
ENDBRANCH   1   2
BRANCH   1  58
ATOM     58  C   UNL     1       2.369  -2.676   2.352  1.00  0.00     0.261 C 
BRANCH  58  59
ATOM     59  O   UNL     1       3.019  -2.189   3.537  1.00  0.00    -0.459 OA
BRANCH  59  60
ATOM     60  C   UNL     1       4.314  -2.617   3.675  1.00  0.00     0.365 C 
ATOM     61  O   UNL     1       4.808  -3.550   3.068  1.00  0.00    -0.245 OA
BRANCH  60  62
ATOM     62  C   UNL     1       5.037  -1.782   4.734  1.00  0.00     0.298 C 
ATOM     63  C   UNL     1       6.507  -2.243   4.761  1.00  0.00     0.115 C 
ATOM     64  N   UNL     1       4.913  -0.309   4.468  1.00  0.00    -0.323 N 
ATOM     65  C   UNL     1       7.165  -1.466   5.829  1.00  0.00    -0.006 A 
ATOM     66  C   UNL     1       5.704   0.590   5.342  1.00  0.00     0.262 C 
ATOM     67  H   UNL     1       3.930  -0.057   4.573  1.00  0.00     0.347 HD
ATOM     68  H   UNL     1       5.288  -0.172   3.530  1.00  0.00     0.347 HD
ATOM     69  C   UNL     1       6.751  -0.179   6.093  1.00  0.00     0.083 A 
ATOM     70  C   UNL     1       8.149  -1.826   6.770  1.00  0.00     0.003 A 
ATOM     71  N   UNL     1       7.438   0.257   7.194  1.00  0.00    -0.353 N 
ATOM     72  C   UNL     1       8.304  -0.730   7.622  1.00  0.00     0.046 A 
ATOM     73  C   UNL     1       8.902  -2.990   6.997  1.00  0.00     0.010 A 
ATOM     74  H   UNL     1       7.332   1.140   7.616  1.00  0.00     0.166 HD
ATOM     75  C   UNL     1       9.196  -0.746   8.698  1.00  0.00     0.026 A 
ATOM     76  C   UNL     1       9.793  -3.022   8.071  1.00  0.00     0.001 A 
ATOM     77  C   UNL     1       9.935  -1.915   8.906  1.00  0.00     0.002 A 
BRANCH  66  78
ATOM     78  C   UNL     1       6.269   1.776   4.535  1.00  0.00     0.016 A 
ATOM     79  C   UNL     1       7.650   2.016   4.418  1.00  0.00     0.014 A 
ATOM     80  C   UNL     1       5.411   2.705   3.917  1.00  0.00     0.014 A 
ATOM     81  C   UNL     1       8.143   3.162   3.785  1.00  0.00     0.047 A 
ATOM     82  C   UNL     1       5.909   3.846   3.254  1.00  0.00     0.047 A 
ATOM     83  C   UNL     1       7.280   4.092   3.208  1.00  0.00     0.129 A 
BRANCH  83  84
ATOM     84  O   UNL     1       7.914   5.170   2.665  1.00  0.00    -0.406 OA
BRANCH  84  85
ATOM     85  C   UNL     1       7.144   6.127   1.964  1.00  0.00     0.573 C 
ATOM     86  F   UNL     1       6.550   5.571   0.887  1.00  0.00    -0.132 F 
ATOM     87  F   UNL     1       6.208   6.687   2.759  1.00  0.00    -0.132 F 
ATOM     88  F   UNL     1       7.967   7.109   1.531  1.00  0.00    -0.132 F 
ENDBRANCH  84  85
ENDBRANCH  83  84
ENDBRANCH  66  78
ENDBRANCH  60  62
ENDBRANCH  59  60
ENDBRANCH  58  59
ENDBRANCH   1  58
TORSDOF 17
