REMARK SMILES C/C(=N\Nc1ccccc1C(=O)OCCOCCOC(=O)c1ccc(-c2c3nc(c(-c4ccccc4)c4ccc([nH]4)c(-c4ccccc4)c4nc(c(-c5ccccc5)c5ccc2[nH]5)C=C4)C=C3)cc1)c1ccc(S(C)(=O)=O)cc1
REMARK SMILES IDX 15 1 14 2 13 3 11 4 12 5 10 6 5 7 6 8 7 9 9 10 8 11 4 12
REMARK SMILES IDX 3 14 1 15 2 16 70 17 71 18 79 19 72 20 78 21 73 22 74 23
REMARK SMILES IDX 75 24 76 25 77 26 16 27 17 28 18 29 19 30 20 31 21 32 22 33
REMARK SMILES IDX 23 34 69 35 24 36 68 37 25 38 26 39 27 40 62 41 28 42 67 43
REMARK SMILES IDX 61 44 63 45 29 46 66 47 60 48 59 49 30 51 52 52 37 53 51 54
REMARK SMILES IDX 38 55 41 56 50 57 64 58 39 59 40 60 49 62 65 63 42 64 31 65
REMARK SMILES IDX 32 66 36 67 33 68 35 69 34 70 53 71 54 72 58 73 55 74 57 75
REMARK SMILES IDX 56 76 43 77 44 78 48 79 45 80 47 81 46 82
REMARK H PARENT 4 13 63 50 41 61
REMARK Flexibility Score: inf
ROOT
ATOM      1  C   UNL     1      -2.741  -2.150   1.694  1.00  0.00     0.202 C 
ENDROOT
BRANCH   1   2
ATOM      2  C   UNL     1      -1.462  -1.308   1.698  1.00  0.00     0.261 C 
BRANCH   2   3
ATOM      3  O   UNL     1      -1.253  -0.567   0.489  1.00  0.00    -0.460 OA
BRANCH   3   4
ATOM      4  C   UNL     1      -0.123  -0.895  -0.187  1.00  0.00     0.340 C 
ATOM      5  O   UNL     1       0.659  -1.792   0.094  1.00  0.00    -0.246 OA
BRANCH   4   6
ATOM      6  C   UNL     1       0.006  -0.129  -1.443  1.00  0.00     0.085 A 
ATOM      7  C   UNL     1      -0.018   1.272  -1.529  1.00  0.00     0.071 A 
ATOM      8  C   UNL     1       0.186   1.847  -2.804  1.00  0.00     0.028 A 
ATOM      9  C   UNL     1       0.442   1.068  -3.937  1.00  0.00     0.002 A 
ATOM     10  C   UNL     1       0.254  -0.911  -2.591  1.00  0.00     0.018 A 
ATOM     11  C   UNL     1       0.480  -0.315  -3.829  1.00  0.00     0.001 A 
BRANCH   7  12
ATOM     12  N   UNL     1      -0.020   2.186  -0.450  1.00  0.00    -0.277 N 
ATOM     13  H   UNL     1      -0.168   3.135  -0.668  1.00  0.00     0.190 HD
BRANCH  12  14
ATOM     14  N   UNL     1       0.162   1.878   0.849  1.00  0.00    -0.180 NA
ATOM     15  C   UNL     1       2.501   1.099   0.379  1.00  0.00     0.069 C 
ATOM     16  C   UNL     1       1.302   1.396   1.264  1.00  0.00     0.065 C 
BRANCH  16  17
ATOM     17  C   UNL     1       1.446   1.108   2.734  1.00  0.00    -0.002 A 
ATOM     18  C   UNL     1       0.386   1.411   3.607  1.00  0.00     0.011 A 
ATOM     19  C   UNL     1       2.621   0.553   3.257  1.00  0.00     0.011 A 
ATOM     20  C   UNL     1       0.505   1.177   4.980  1.00  0.00     0.021 A 
ATOM     21  C   UNL     1       2.752   0.333   4.629  1.00  0.00     0.021 A 
ATOM     22  C   UNL     1       1.698   0.656   5.484  1.00  0.00     0.067 A 
BRANCH  22  23
ATOM     23  S   UNL     1       1.877   0.395   7.232  1.00  0.00     0.175 S 
ATOM     24  C   UNL     1       1.711   2.019   7.927  1.00  0.00     0.163 C 
ATOM     25  O   UNL     1       0.741  -0.406   7.655  1.00  0.00    -0.224 OA
ATOM     26  O   UNL     1       3.235  -0.043   7.473  1.00  0.00    -0.224 OA
ENDBRANCH  22  23
ENDBRANCH  16  17
ENDBRANCH  12  14
ENDBRANCH   7  12
ENDBRANCH   4   6
ENDBRANCH   3   4
ENDBRANCH   2   3
ENDBRANCH   1   2
BRANCH   1  27
ATOM     27  O   UNL     1      -3.015  -3.002   0.590  1.00  0.00    -0.374 OA
BRANCH  27  28
ATOM     28  C   UNL     1      -3.106  -2.434  -0.710  1.00  0.00     0.202 C 
BRANCH  28  29
ATOM     29  C   UNL     1      -4.183  -1.378  -1.014  1.00  0.00     0.261 C 
BRANCH  29  30
ATOM     30  O   UNL     1      -4.282  -0.295  -0.074  1.00  0.00    -0.460 OA
BRANCH  30  31
ATOM     31  C   UNL     1      -5.390  -0.341   0.706  1.00  0.00     0.338 C 
ATOM     32  O   UNL     1      -6.266  -1.190   0.701  1.00  0.00    -0.246 OA
BRANCH  31  33
ATOM     33  C   UNL     1      -5.380   0.739   1.707  1.00  0.00     0.060 A 
ATOM     34  C   UNL     1      -5.359   0.370   3.057  1.00  0.00     0.016 A 
ATOM     35  C   UNL     1      -5.590   2.068   1.336  1.00  0.00     0.016 A 
ATOM     36  C   UNL     1      -5.610   1.322   4.040  1.00  0.00     0.010 A 
ATOM     37  C   UNL     1      -5.841   3.025   2.328  1.00  0.00     0.010 A 
ATOM     38  C   UNL     1      -5.898   2.646   3.681  1.00  0.00    -0.014 A 
BRANCH  38  39
ATOM     39  C   UNL     1      -6.374   3.579   4.732  1.00  0.00     0.031 A 
ATOM     40  C   UNL     1      -7.842   3.899   4.842  1.00  0.00     0.074 A 
ATOM     41  C   UNL     1      -5.510   4.065   5.641  1.00  0.00     0.049 A 
ATOM     42  N   UNL     1      -8.469   4.612   5.745  1.00  0.00    -0.248 NA
ATOM     43  C   UNL     1      -8.720   3.342   3.801  1.00  0.00     0.031 C 
ATOM     44  C   UNL     1      -4.071   3.801   5.661  1.00  0.00     0.029 A 
ATOM     45  N   UNL     1      -5.723   4.865   6.735  1.00  0.00    -0.354 N 
ATOM     46  C   UNL     1      -9.810   4.590   5.381  1.00  0.00     0.074 A 
ATOM     47  C   UNL     1      -9.902   3.826   4.155  1.00  0.00     0.031 C 
ATOM     48  C   UNL     1      -3.533   4.411   6.730  1.00  0.00     0.029 A 
ATOM     49  C   UNL     1      -4.581   5.131   7.449  1.00  0.00     0.049 A 
ATOM     50  H   UNL     1      -6.609   5.214   6.983  1.00  0.00     0.167 HD
ATOM     51  C   UNL     1     -10.872   5.145   6.014  1.00  0.00     0.031 A 
ATOM     52  C   UNL     1      -4.400   5.874   8.557  1.00  0.00     0.031 A 
ATOM     53  C   UNL     1     -10.781   5.917   7.228  1.00  0.00     0.049 A 
ATOM     54  C   UNL     1      -5.588   6.527   9.208  1.00  0.00     0.074 A 
ATOM     55  C   UNL     1     -11.801   6.508   7.954  1.00  0.00     0.029 A 
ATOM     56  N   UNL     1      -9.599   6.212   7.889  1.00  0.00    -0.354 N 
ATOM     57  N   UNL     1      -6.854   6.471   8.870  1.00  0.00    -0.248 NA
ATOM     58  C   UNL     1      -5.319   7.333  10.407  1.00  0.00     0.031 C 
ATOM     59  C   UNL     1     -11.229   7.213   9.020  1.00  0.00     0.029 A 
ATOM     60  C   UNL     1      -9.860   7.001   8.998  1.00  0.00     0.049 A 
ATOM     61  H   UNL     1      -8.705   5.905   7.612  1.00  0.00     0.167 HD
ATOM     62  C   UNL     1      -7.535   7.212   9.829  1.00  0.00     0.074 A 
ATOM     63  C   UNL     1      -6.543   7.683  10.774  1.00  0.00     0.031 C 
ATOM     64  C   UNL     1      -8.862   7.479   9.920  1.00  0.00     0.031 A 
BRANCH  51  65
ATOM     65  C   UNL     1     -12.228   4.967   5.384  1.00  0.00    -0.014 A 
ATOM     66  C   UNL     1     -12.871   3.718   5.366  1.00  0.00     0.009 A 
ATOM     67  C   UNL     1     -12.891   6.076   4.834  1.00  0.00     0.009 A 
ATOM     68  C   UNL     1     -14.132   3.579   4.779  1.00  0.00     0.001 A 
ATOM     69  C   UNL     1     -14.163   5.940   4.275  1.00  0.00     0.001 A 
ATOM     70  C   UNL     1     -14.778   4.690   4.239  1.00  0.00     0.000 A 
ENDBRANCH  51  65
BRANCH  52  71
ATOM     71  C   UNL     1      -3.035   6.045   9.120  1.00  0.00    -0.014 A 
ATOM     72  C   UNL     1      -2.692   5.487  10.361  1.00  0.00     0.009 A 
ATOM     73  C   UNL     1      -2.070   6.788   8.421  1.00  0.00     0.009 A 
ATOM     74  C   UNL     1      -1.421   5.695  10.903  1.00  0.00     0.001 A 
ATOM     75  C   UNL     1      -0.790   6.966   8.950  1.00  0.00     0.001 A 
ATOM     76  C   UNL     1      -0.470   6.429  10.196  1.00  0.00     0.000 A 
ENDBRANCH  52  71
BRANCH  64  77
ATOM     77  C   UNL     1      -9.312   8.295  11.103  1.00  0.00    -0.014 A 
ATOM     78  C   UNL     1      -8.974   9.653  11.229  1.00  0.00     0.009 A 
ATOM     79  C   UNL     1     -10.083   7.693  12.110  1.00  0.00     0.009 A 
ATOM     80  C   UNL     1      -9.349  10.372  12.366  1.00  0.00     0.001 A 
ATOM     81  C   UNL     1     -10.488   8.425  13.228  1.00  0.00     0.001 A 
ATOM     82  C   UNL     1     -10.106   9.758  13.363  1.00  0.00     0.000 A 
ENDBRANCH  64  77
ENDBRANCH  38  39
ENDBRANCH  31  33
ENDBRANCH  30  31
ENDBRANCH  29  30
ENDBRANCH  28  29
ENDBRANCH  27  28
ENDBRANCH   1  27
TORSDOF 18
