REMARK SMILES O=C(C[C@H]1S/C(=[NH+]\N=C\c2cc(Br)ccc2OCc2ccccc2)NC1=O)OCCOCCOC(=O)c1ccc(-c2c3nc(c(-c4ccccc4)c4ccc([nH]4)c(-c4ccccc4)c4nc(c(-c5ccccc5)c5ccc2[nH]5)C=C4)C=C3)cc1
REMARK SMILES IDX 29 1 28 2 2 3 1 4 3 5 4 6 5 7 26 8 6 9 25 10 27 11 7 12 8 15
REMARK SMILES IDX 9 16 10 17 11 18 16 19 12 20 15 21 13 22 14 23 17 24 18 25
REMARK SMILES IDX 19 26 20 27 24 28 21 29 23 30 22 31 30 32 31 33 32 34 33 35
REMARK SMILES IDX 34 36 35 37 36 38 37 39 38 40 84 41 39 42 83 43 40 44 41 45
REMARK SMILES IDX 42 46 77 47 43 48 82 49 76 50 78 51 44 52 81 53 75 54 74 55
REMARK SMILES IDX 45 57 67 58 52 59 66 60 53 61 56 62 65 63 79 64 54 65 55 66
REMARK SMILES IDX 64 68 80 69 57 70 46 71 47 72 51 73 48 74 50 75 49 76 68 77
REMARK SMILES IDX 69 78 73 79 70 80 72 81 71 82 58 83 59 84 63 85 60 86 62 87
REMARK SMILES IDX 61 88
REMARK H PARENT 25 13 7 14 78 56 56 67
REMARK Flexibility Score: inf
ROOT
ATOM      1  C   UNL     1       4.126   0.030   1.230  1.00  0.00     0.261 C 
ENDROOT
BRANCH   1   2
ATOM      2  O   UNL     1       2.723   0.317   1.242  1.00  0.00    -0.463 OA
BRANCH   2   3
ATOM      3  C   UNL     1       2.096   1.205   0.444  1.00  0.00     0.307 C 
ATOM      4  O   UNL     1       0.898   1.422   0.620  1.00  0.00    -0.252 OA
BRANCH   3   5
ATOM      5  C   UNL     1       2.816   1.839  -0.719  1.00  0.00     0.150 C 
BRANCH   5   6
ATOM      6  C   UNL     1       3.881   2.866  -0.356  1.00  0.00     0.184 C 
ATOM      7  S   UNL     1       5.557   2.317  -0.896  1.00  0.00    -0.020 SA
ATOM      8  C   UNL     1       3.654   4.107  -1.196  1.00  0.00     0.322 C 
ATOM      9  C   UNL     1       5.459   3.208  -2.373  1.00  0.00     0.337 C 
ATOM     10  N   UNL     1       4.449   4.108  -2.306  1.00  0.00    -0.202 N 
ATOM     11  O   UNL     1       2.813   4.963  -0.960  1.00  0.00    -0.246 OA
ATOM     12  N   UNL     1       6.192   3.125  -3.428  1.00  0.00    -0.142 N 
ATOM     13  H   UNL     1       4.292   4.747  -3.039  1.00  0.00     0.316 HD
ATOM     14  H   UNL     1       6.033   3.687  -4.220  1.00  0.00     0.343 HD
BRANCH  12  15
ATOM     15  N   UNL     1       7.233   2.186  -3.378  1.00  0.00    -0.093 NA
ATOM     16  C   UNL     1       7.711   2.039  -4.573  1.00  0.00     0.170 C 
BRANCH  16  17
ATOM     17  C   UNL     1       8.851   1.180  -4.907  1.00  0.00     0.040 A 
ATOM     18  C   UNL     1       8.536  -0.184  -5.027  1.00  0.00     0.029 A 
ATOM     19  C   UNL     1      10.124   1.648  -5.270  1.00  0.00     0.128 A 
ATOM     20  C   UNL     1       9.491  -1.081  -5.501  1.00  0.00     0.018 A 
ATOM     21  C   UNL     1      11.085   0.708  -5.680  1.00  0.00     0.048 A 
ATOM     22  Br  UNL     1       9.027  -2.891  -5.785  1.00  0.00    -0.051 Br
ATOM     23  C   UNL     1      10.772  -0.645  -5.812  1.00  0.00     0.019 A 
BRANCH  19  24
ATOM     24  O   UNL     1      10.621   2.918  -5.374  1.00  0.00    -0.488 OA
BRANCH  24  25
ATOM     25  C   UNL     1       9.806   4.085  -5.291  1.00  0.00     0.265 C 
BRANCH  25  26
ATOM     26  C   UNL     1       8.797   4.277  -6.409  1.00  0.00    -0.011 A 
ATOM     27  C   UNL     1       7.811   5.264  -6.248  1.00  0.00     0.007 A 
ATOM     28  C   UNL     1       8.723   3.428  -7.524  1.00  0.00     0.007 A 
ATOM     29  C   UNL     1       6.714   5.315  -7.109  1.00  0.00     0.000 A 
ATOM     30  C   UNL     1       7.609   3.459  -8.363  1.00  0.00     0.000 A 
ATOM     31  C   UNL     1       6.596   4.389  -8.143  1.00  0.00     0.000 A 
ENDBRANCH  25  26
ENDBRANCH  24  25
ENDBRANCH  19  24
ENDBRANCH  16  17
ENDBRANCH  12  15
ENDBRANCH   5   6
ENDBRANCH   3   5
ENDBRANCH   2   3
ENDBRANCH   1   2
BRANCH   1  32
ATOM     32  C   UNL     1       4.533  -1.083   0.269  1.00  0.00     0.202 C 
BRANCH  32  33
ATOM     33  O   UNL     1       4.028  -1.021  -1.061  1.00  0.00    -0.374 OA
BRANCH  33  34
ATOM     34  C   UNL     1       2.751  -1.634  -1.277  1.00  0.00     0.202 C 
BRANCH  34  35
ATOM     35  C   UNL     1       2.769  -3.154  -1.488  1.00  0.00     0.261 C 
BRANCH  35  36
ATOM     36  O   UNL     1       3.201  -3.844  -0.304  1.00  0.00    -0.460 OA
BRANCH  36  37
ATOM     37  C   UNL     1       4.494  -4.247  -0.324  1.00  0.00     0.338 C 
ATOM     38  O   UNL     1       5.263  -4.221  -1.273  1.00  0.00    -0.246 OA
BRANCH  37  39
ATOM     39  C   UNL     1       4.938  -4.527   1.056  1.00  0.00     0.060 A 
ATOM     40  C   UNL     1       6.189  -4.028   1.442  1.00  0.00     0.016 A 
ATOM     41  C   UNL     1       4.157  -5.256   1.957  1.00  0.00     0.016 A 
ATOM     42  C   UNL     1       6.699  -4.323   2.700  1.00  0.00     0.010 A 
ATOM     43  C   UNL     1       4.671  -5.555   3.221  1.00  0.00     0.010 A 
ATOM     44  C   UNL     1       5.965  -5.134   3.575  1.00  0.00    -0.014 A 
BRANCH  44  45
ATOM     45  C   UNL     1       6.641  -5.686   4.770  1.00  0.00     0.031 A 
ATOM     46  C   UNL     1       7.145  -7.104   4.721  1.00  0.00     0.074 A 
ATOM     47  C   UNL     1       6.872  -4.917   5.848  1.00  0.00     0.049 A 
ATOM     48  N   UNL     1       7.803  -7.783   5.625  1.00  0.00    -0.248 NA
ATOM     49  C   UNL     1       6.870  -7.857   3.485  1.00  0.00     0.031 C 
ATOM     50  C   UNL     1       6.462  -3.521   5.994  1.00  0.00     0.029 A 
ATOM     51  N   UNL     1       7.518  -5.205   7.022  1.00  0.00    -0.354 N 
ATOM     52  C   UNL     1       8.024  -9.036   5.066  1.00  0.00     0.074 A 
ATOM     53  C   UNL     1       7.388  -9.042   3.767  1.00  0.00     0.031 C 
ATOM     54  C   UNL     1       6.870  -3.071   7.193  1.00  0.00     0.029 A 
ATOM     55  C   UNL     1       7.542  -4.155   7.906  1.00  0.00     0.049 A 
ATOM     56  H   UNL     1       7.926  -6.080   7.213  1.00  0.00     0.167 HD
ATOM     57  C   UNL     1       8.711 -10.083   5.579  1.00  0.00     0.031 A 
ATOM     58  C   UNL     1       8.040  -4.085   9.155  1.00  0.00     0.031 A 
ATOM     59  C   UNL     1       9.324 -10.081   6.880  1.00  0.00     0.049 A 
ATOM     60  C   UNL     1       8.735  -5.289   9.733  1.00  0.00     0.074 A 
ATOM     61  C   UNL     1      10.037 -11.092   7.501  1.00  0.00     0.029 A 
ATOM     62  N   UNL     1       9.290  -9.013   7.764  1.00  0.00    -0.354 N 
ATOM     63  N   UNL     1       8.958  -6.460   9.186  1.00  0.00    -0.248 NA
ATOM     64  C   UNL     1       9.264  -5.152  11.097  1.00  0.00     0.031 C 
ATOM     65  C   UNL     1      10.385 -10.655   8.784  1.00  0.00     0.029 A 
ATOM     66  C   UNL     1       9.951  -9.347   8.934  1.00  0.00     0.049 A 
ATOM     67  H   UNL     1       8.860  -8.146   7.586  1.00  0.00     0.167 HD
ATOM     68  C   UNL     1       9.675  -7.189  10.127  1.00  0.00     0.074 A 
ATOM     69  C   UNL     1       9.874  -6.316  11.266  1.00  0.00     0.031 C 
ATOM     70  C   UNL     1      10.128  -8.466  10.060  1.00  0.00     0.031 A 
BRANCH  57  71
ATOM     71  C   UNL     1       8.813 -11.325   4.736  1.00  0.00    -0.014 A 
ATOM     72  C   UNL     1       9.587 -11.349   3.563  1.00  0.00     0.009 A 
ATOM     73  C   UNL     1       8.150 -12.497   5.132  1.00  0.00     0.009 A 
ATOM     74  C   UNL     1       9.668 -12.509   2.791  1.00  0.00     0.001 A 
ATOM     75  C   UNL     1       8.259 -13.665   4.375  1.00  0.00     0.001 A 
ATOM     76  C   UNL     1       9.010 -13.668   3.201  1.00  0.00     0.000 A 
ENDBRANCH  57  71
BRANCH  58  77
ATOM     77  C   UNL     1       7.880  -2.841   9.955  1.00  0.00    -0.014 A 
ATOM     78  C   UNL     1       8.991  -2.066  10.322  1.00  0.00     0.009 A 
ATOM     79  C   UNL     1       6.604  -2.437  10.383  1.00  0.00     0.009 A 
ATOM     80  C   UNL     1       8.831  -0.935  11.128  1.00  0.00     0.001 A 
ATOM     81  C   UNL     1       6.443  -1.288  11.159  1.00  0.00     0.001 A 
ATOM     82  C   UNL     1       7.558  -0.545  11.542  1.00  0.00     0.000 A 
ENDBRANCH  58  77
BRANCH  70  83
ATOM     83  C   UNL     1      10.910  -8.975  11.241  1.00  0.00    -0.014 A 
ATOM     84  C   UNL     1      10.297  -9.207  12.482  1.00  0.00     0.009 A 
ATOM     85  C   UNL     1      12.283  -9.237  11.102  1.00  0.00     0.009 A 
ATOM     86  C   UNL     1      11.054  -9.636  13.574  1.00  0.00     0.001 A 
ATOM     87  C   UNL     1      13.029  -9.703  12.185  1.00  0.00     0.001 A 
ATOM     88  C   UNL     1      12.417  -9.887  13.424  1.00  0.00     0.000 A 
ENDBRANCH  70  83
ENDBRANCH  44  45
ENDBRANCH  37  39
ENDBRANCH  36  37
ENDBRANCH  35  36
ENDBRANCH  34  35
ENDBRANCH  33  34
ENDBRANCH  32  33
ENDBRANCH   1  32
TORSDOF 20
