REMARK SMILES CC[C@H](C)CN(CC)c1ccc(/C=C/C(=O)OCCOCCOC(=O)c2ccc(-c3c4nc(c(-c5ccccc5)c5ccc([nH]5)c(-c5ccccc5)c5nc(c(-c6ccccc6)c6ccc3[nH]6)C=C5)C=C4)cc2)cc1F
REMARK SMILES IDX 18 1 17 2 15 3 16 4 14 5 13 6 12 7 9 8 10 9 75 10 11 11
REMARK SMILES IDX 74 12 76 13 6 14 5 15 3 16 4 17 2 18 1 19 7 20 8 21 19 22
REMARK SMILES IDX 20 23 21 24 22 25 23 26 24 27 25 28 26 29 27 30 73 31 28 32
REMARK SMILES IDX 72 33 29 34 30 35 31 36 66 37 32 38 71 39 65 40 67 41 33 42
REMARK SMILES IDX 70 43 64 44 63 45 34 47 56 48 41 49 55 50 42 51 45 52 54 53
REMARK SMILES IDX 68 54 43 55 44 56 53 58 69 59 46 60 35 61 36 62 40 63 37 64
REMARK SMILES IDX 39 65 38 66 57 67 58 68 62 69 59 70 61 71 60 72 47 73 48 74
REMARK SMILES IDX 52 75 49 76 51 77 50 78
REMARK H PARENT 67 46 45 57
REMARK Flexibility Score: inf
ROOT
ATOM      1  C   UNL     1      -1.482   5.123  -7.629  1.00  0.00     0.261 C 
ENDROOT
BRANCH   1   2
ATOM      2  O   UNL     1      -1.179   3.985  -6.808  1.00  0.00    -0.460 OA
BRANCH   2   3
ATOM      3  C   UNL     1      -1.888   2.870  -7.099  1.00  0.00     0.330 C 
ATOM      4  O   UNL     1      -2.846   2.791  -7.853  1.00  0.00    -0.247 OA
BRANCH   3   5
ATOM      5  C   UNL     1      -1.326   1.663  -6.462  1.00  0.00     0.094 C 
ATOM      6  C   UNL     1      -0.343   1.619  -5.547  1.00  0.00     0.016 C 
BRANCH   6   7
ATOM      7  C   UNL     1       0.161   0.375  -4.930  1.00  0.00    -0.022 A 
ATOM      8  C   UNL     1       0.993  -1.946  -3.499  1.00  0.00     0.073 A 
ATOM      9  C   UNL     1      -0.013  -2.014  -4.463  1.00  0.00     0.029 A 
ATOM     10  C   UNL     1       1.628  -0.707  -3.325  1.00  0.00     0.147 A 
ATOM     11  C   UNL     1      -0.413  -0.880  -5.177  1.00  0.00     0.010 A 
ATOM     12  C   UNL     1       1.212   0.441  -4.009  1.00  0.00     0.049 A 
ATOM     13  F   UNL     1       2.609  -0.578  -2.417  1.00  0.00    -0.205 F 
BRANCH   8  14
ATOM     14  N   UNL     1       1.272  -3.037  -2.689  1.00  0.00    -0.369 N 
BRANCH  14  15
ATOM     15  C   UNL     1       0.413  -3.265  -1.516  1.00  0.00     0.120 C 
BRANCH  15  16
ATOM     16  C   UNL     1       0.717  -2.267  -0.367  1.00  0.00     0.005 C 
ATOM     17  C   UNL     1      -0.230  -1.056  -0.423  1.00  0.00     0.009 C 
BRANCH  16  18
ATOM     18  C   UNL     1       0.590  -2.948   1.013  1.00  0.00     0.002 C 
ATOM     19  C   UNL     1       1.364  -2.205   2.099  1.00  0.00     0.004 C 
ENDBRANCH  16  18
ENDBRANCH  15  16
ENDBRANCH  14  15
BRANCH  14  20
ATOM     20  C   UNL     1       2.107  -4.122  -3.203  1.00  0.00     0.113 C 
ATOM     21  C   UNL     1       1.401  -4.976  -4.248  1.00  0.00     0.027 C 
ENDBRANCH  14  20
ENDBRANCH   8  14
ENDBRANCH   6   7
ENDBRANCH   3   5
ENDBRANCH   2   3
ENDBRANCH   1   2
BRANCH   1  22
ATOM     22  C   UNL     1      -0.274   5.523  -8.479  1.00  0.00     0.202 C 
BRANCH  22  23
ATOM     23  O   UNL     1       0.194   4.541  -9.403  1.00  0.00    -0.374 OA
BRANCH  23  24
ATOM     24  C   UNL     1       1.032   3.505  -8.886  1.00  0.00     0.202 C 
BRANCH  24  25
ATOM     25  C   UNL     1       2.494   3.884  -8.626  1.00  0.00     0.261 C 
BRANCH  25  26
ATOM     26  O   UNL     1       2.620   4.829  -7.546  1.00  0.00    -0.460 OA
BRANCH  26  27
ATOM     27  C   UNL     1       3.067   6.051  -7.913  1.00  0.00     0.338 C 
ATOM     28  O   UNL     1       3.466   6.395  -9.020  1.00  0.00    -0.246 OA
BRANCH  27  29
ATOM     29  C   UNL     1       2.852   7.023  -6.827  1.00  0.00     0.060 A 
ATOM     30  C   UNL     1       2.157   8.196  -7.147  1.00  0.00     0.016 A 
ATOM     31  C   UNL     1       3.391   6.843  -5.551  1.00  0.00     0.016 A 
ATOM     32  C   UNL     1       2.054   9.222  -6.213  1.00  0.00     0.010 A 
ATOM     33  C   UNL     1       3.291   7.879  -4.614  1.00  0.00     0.010 A 
ATOM     34  C   UNL     1       2.661   9.089  -4.957  1.00  0.00    -0.014 A 
BRANCH  34  35
ATOM     35  C   UNL     1       2.763  10.284  -4.084  1.00  0.00     0.031 A 
ATOM     36  C   UNL     1       4.040  11.081  -4.081  1.00  0.00     0.074 A 
ATOM     37  C   UNL     1       1.709  10.701  -3.361  1.00  0.00     0.049 A 
ATOM     38  N   UNL     1       4.319  12.197  -3.457  1.00  0.00    -0.248 NA
ATOM     39  C   UNL     1       5.148  10.551  -4.892  1.00  0.00     0.031 C 
ATOM     40  C   UNL     1       0.406  10.041  -3.305  1.00  0.00     0.029 A 
ATOM     41  N   UNL     1       1.570  11.795  -2.544  1.00  0.00    -0.354 N 
ATOM     42  C   UNL     1       5.630  12.504  -3.801  1.00  0.00     0.074 A 
ATOM     43  C   UNL     1       6.103  11.439  -4.658  1.00  0.00     0.031 C 
ATOM     44  C   UNL     1      -0.406  10.750  -2.500  1.00  0.00     0.029 A 
ATOM     45  C   UNL     1       0.326  11.899  -1.972  1.00  0.00     0.049 A 
ATOM     46  H   UNL     1       2.293  12.444  -2.384  1.00  0.00     0.167 HD
ATOM     47  C   UNL     1       6.372  13.580  -3.447  1.00  0.00     0.031 A 
ATOM     48  C   UNL     1      -0.165  12.816  -1.117  1.00  0.00     0.031 A 
ATOM     49  C   UNL     1       5.913  14.636  -2.585  1.00  0.00     0.049 A 
ATOM     50  C   UNL     1       0.703  13.969  -0.686  1.00  0.00     0.074 A 
ATOM     51  C   UNL     1       6.588  15.775  -2.182  1.00  0.00     0.029 A 
ATOM     52  N   UNL     1       4.665  14.676  -1.985  1.00  0.00    -0.354 N 
ATOM     53  N   UNL     1       1.926  14.266  -1.051  1.00  0.00    -0.248 NA
ATOM     54  C   UNL     1       0.111  14.920   0.266  1.00  0.00     0.031 C 
ATOM     55  C   UNL     1       5.765  16.480  -1.296  1.00  0.00     0.029 A 
ATOM     56  C   UNL     1       4.559  15.806  -1.191  1.00  0.00     0.049 A 
ATOM     57  H   UNL     1       3.959  14.001  -2.104  1.00  0.00     0.167 HD
ATOM     58  C   UNL     1       2.242  15.448  -0.393  1.00  0.00     0.074 A 
ATOM     59  C   UNL     1       1.074  15.824   0.377  1.00  0.00     0.031 C 
ATOM     60  C   UNL     1       3.395  16.161  -0.423  1.00  0.00     0.031 A 
BRANCH  47  61
ATOM     61  C   UNL     1       7.777  13.650  -3.977  1.00  0.00    -0.014 A 
ATOM     62  C   UNL     1       8.033  13.934  -5.328  1.00  0.00     0.009 A 
ATOM     63  C   UNL     1       8.860  13.453  -3.106  1.00  0.00     0.009 A 
ATOM     64  C   UNL     1       9.345  13.986  -5.803  1.00  0.00     0.001 A 
ATOM     65  C   UNL     1      10.171  13.531  -3.579  1.00  0.00     0.001 A 
ATOM     66  C   UNL     1      10.412  13.788  -4.927  1.00  0.00     0.000 A 
ENDBRANCH  47  61
BRANCH  48  67
ATOM     67  C   UNL     1      -1.551  12.685  -0.599  1.00  0.00    -0.014 A 
ATOM     68  C   UNL     1      -2.553  13.584  -0.995  1.00  0.00     0.009 A 
ATOM     69  C   UNL     1      -1.871  11.671   0.317  1.00  0.00     0.009 A 
ATOM     70  C   UNL     1      -3.841  13.486  -0.463  1.00  0.00     0.001 A 
ATOM     71  C   UNL     1      -3.166  11.558   0.826  1.00  0.00     0.001 A 
ATOM     72  C   UNL     1      -4.147  12.471   0.444  1.00  0.00     0.000 A 
ENDBRANCH  48  67
BRANCH  60  73
ATOM     73  C   UNL     1       3.437  17.430   0.382  1.00  0.00    -0.014 A 
ATOM     74  C   UNL     1       3.498  17.401   1.784  1.00  0.00     0.009 A 
ATOM     75  C   UNL     1       3.441  18.671  -0.273  1.00  0.00     0.009 A 
ATOM     76  C   UNL     1       3.520  18.591   2.515  1.00  0.00     0.001 A 
ATOM     77  C   UNL     1       3.493  19.859   0.459  1.00  0.00     0.001 A 
ATOM     78  C   UNL     1       3.521  19.818   1.852  1.00  0.00     0.000 A 
ENDBRANCH  60  73
ENDBRANCH  34  35
ENDBRANCH  27  29
ENDBRANCH  26  27
ENDBRANCH  25  26
ENDBRANCH  24  25
ENDBRANCH  23  24
ENDBRANCH  22  23
ENDBRANCH   1  22
TORSDOF 20
