REMARK SMILES O=C(Cc1ccccc1C(=O)OCCOCCOC(=O)c1ccc(-c2c3nc(c(-c4ccccc4)c4ccc([nH]4)c(-c4ccccc4)c4nc(c(-c5ccccc5)c5ccc2[nH]5)C=C4)C=C3)cc1)Nc1cccc(OC[C@@H]2CCCO2)c1
REMARK SMILES IDX 13 1 12 2 10 3 11 4 9 5 4 6 5 7 6 8 8 9 7 10 3 11 2 12 1 13
REMARK SMILES IDX 69 14 70 16 71 17 82 18 72 19 74 20 73 21 75 22 76 23 77 24
REMARK SMILES IDX 78 25 81 26 79 27 80 28 14 29 15 30 16 31 17 32 18 33 19 34
REMARK SMILES IDX 20 35 21 36 22 37 68 38 23 39 67 40 24 41 25 42 26 43 61 44
REMARK SMILES IDX 27 45 66 46 60 47 62 48 28 49 65 50 59 51 58 52 29 54 51 55
REMARK SMILES IDX 36 56 50 57 37 58 40 59 49 60 63 61 38 62 39 63 48 65 64 66
REMARK SMILES IDX 41 67 30 68 31 69 35 70 32 71 34 72 33 73 52 74 53 75 57 76
REMARK SMILES IDX 54 77 56 78 55 79 42 80 43 81 47 82 44 83 46 84 45 85
REMARK H PARENT 69 15 62 53 40 64
REMARK Flexibility Score: inf
ROOT
ATOM      1  C   UNL     1       5.029   2.804  -0.915  1.00  0.00     0.261 C 
ENDROOT
BRANCH   1   2
ATOM      2  O   UNL     1       4.907   1.355  -0.856  1.00  0.00    -0.460 OA
BRANCH   2   3
ATOM      3  C   UNL     1       5.060   0.710  -2.052  1.00  0.00     0.338 C 
ATOM      4  O   UNL     1       5.266   1.259  -3.122  1.00  0.00    -0.246 OA
BRANCH   3   5
ATOM      5  C   UNL     1       5.000  -0.778  -1.936  1.00  0.00     0.063 A 
ATOM      6  C   UNL     1       4.063  -1.545  -1.204  1.00  0.00    -0.024 A 
ATOM      7  C   UNL     1       4.136  -2.954  -1.302  1.00  0.00     0.005 A 
ATOM      8  C   UNL     1       5.092  -3.585  -2.097  1.00  0.00     0.000 A 
ATOM      9  C   UNL     1       5.955  -1.436  -2.736  1.00  0.00     0.016 A 
ATOM     10  C   UNL     1       6.004  -2.826  -2.815  1.00  0.00     0.001 A 
BRANCH   6  11
ATOM     11  C   UNL     1       2.966  -0.992  -0.322  1.00  0.00     0.136 C 
BRANCH  11  12
ATOM     12  C   UNL     1       1.887  -0.215  -1.055  1.00  0.00     0.228 C 
ATOM     13  O   UNL     1       0.843  -0.729  -1.436  1.00  0.00    -0.274 OA
ATOM     14  N   UNL     1       2.250   1.097  -1.214  1.00  0.00    -0.326 N 
ATOM     15  H   UNL     1       3.203   1.297  -1.063  1.00  0.00     0.169 HD
BRANCH  14  16
ATOM     16  C   UNL     1       1.456   2.182  -1.558  1.00  0.00     0.044 A 
ATOM     17  C   UNL     1       1.821   2.993  -2.627  1.00  0.00     0.026 A 
ATOM     18  C   UNL     1       0.534   2.627  -0.622  1.00  0.00     0.072 A 
ATOM     19  C   UNL     1       1.196   4.227  -2.795  1.00  0.00     0.006 A 
ATOM     20  C   UNL     1      -0.104   3.856  -0.780  1.00  0.00     0.121 A 
ATOM     21  C   UNL     1       0.236   4.656  -1.872  1.00  0.00     0.046 A 
BRANCH  20  22
ATOM     22  O   UNL     1      -1.060   4.357   0.066  1.00  0.00    -0.491 OA
BRANCH  22  23
ATOM     23  C   UNL     1      -1.325   3.594   1.248  1.00  0.00     0.261 C 
BRANCH  23  24
ATOM     24  C   UNL     1      -2.321   2.424   1.056  1.00  0.00     0.156 C 
ATOM     25  C   UNL     1      -2.128   1.310   2.083  1.00  0.00     0.038 C 
ATOM     26  O   UNL     1      -2.225   1.789  -0.231  1.00  0.00    -0.375 OA
ATOM     27  C   UNL     1      -2.522   0.066   1.331  1.00  0.00     0.031 C 
ATOM     28  C   UNL     1      -2.030   0.383  -0.056  1.00  0.00     0.161 C 
ENDBRANCH  23  24
ENDBRANCH  22  23
ENDBRANCH  20  22
ENDBRANCH  14  16
ENDBRANCH  11  12
ENDBRANCH   6  11
ENDBRANCH   3   5
ENDBRANCH   2   3
ENDBRANCH   1   2
BRANCH   1  29
ATOM     29  C   UNL     1       6.073   3.389   0.033  1.00  0.00     0.202 C 
BRANCH  29  30
ATOM     30  O   UNL     1       7.410   2.938  -0.126  1.00  0.00    -0.374 OA
BRANCH  30  31
ATOM     31  C   UNL     1       7.680   1.567   0.137  1.00  0.00     0.202 C 
BRANCH  31  32
ATOM     32  C   UNL     1       7.544   1.081   1.587  1.00  0.00     0.261 C 
BRANCH  32  33
ATOM     33  O   UNL     1       6.237   1.251   2.176  1.00  0.00    -0.460 OA
BRANCH  33  34
ATOM     34  C   UNL     1       6.207   2.124   3.217  1.00  0.00     0.338 C 
ATOM     35  O   UNL     1       7.128   2.805   3.634  1.00  0.00    -0.246 OA
BRANCH  34  36
ATOM     36  C   UNL     1       4.860   2.234   3.810  1.00  0.00     0.060 A 
ATOM     37  C   UNL     1       4.221   3.480   3.781  1.00  0.00     0.016 A 
ATOM     38  C   UNL     1       4.354   1.200   4.600  1.00  0.00     0.016 A 
ATOM     39  C   UNL     1       3.108   3.715   4.595  1.00  0.00     0.010 A 
ATOM     40  C   UNL     1       3.238   1.440   5.415  1.00  0.00     0.010 A 
ATOM     41  C   UNL     1       2.637   2.712   5.454  1.00  0.00    -0.014 A 
BRANCH  41  42
ATOM     42  C   UNL     1       1.613   3.024   6.487  1.00  0.00     0.031 A 
ATOM     43  C   UNL     1       2.028   3.244   7.915  1.00  0.00     0.074 A 
ATOM     44  C   UNL     1       0.312   3.150   6.171  1.00  0.00     0.049 A 
ATOM     45  N   UNL     1       1.278   3.476   8.964  1.00  0.00    -0.248 NA
ATOM     46  C   UNL     1       3.471   3.217   8.195  1.00  0.00     0.031 C 
ATOM     47  C   UNL     1      -0.234   3.065   4.823  1.00  0.00     0.029 A 
ATOM     48  N   UNL     1      -0.786   3.375   6.969  1.00  0.00    -0.354 N 
ATOM     49  C   UNL     1       2.156   3.640  10.026  1.00  0.00     0.074 A 
ATOM     50  C   UNL     1       3.492   3.437   9.502  1.00  0.00     0.031 C 
ATOM     51  C   UNL     1      -1.566   3.220   4.891  1.00  0.00     0.029 A 
ATOM     52  C   UNL     1      -1.973   3.342   6.283  1.00  0.00     0.049 A 
ATOM     53  H   UNL     1      -0.725   3.543   7.937  1.00  0.00     0.167 HD
ATOM     54  C   UNL     1       1.882   3.950  11.316  1.00  0.00     0.031 A 
ATOM     55  C   UNL     1      -3.250   3.368   6.706  1.00  0.00     0.031 A 
ATOM     56  C   UNL     1       0.561   4.142  11.855  1.00  0.00     0.049 A 
ATOM     57  C   UNL     1      -3.543   3.546   8.163  1.00  0.00     0.074 A 
ATOM     58  C   UNL     1       0.201   4.482  13.149  1.00  0.00     0.029 A 
ATOM     59  N   UNL     1      -0.616   4.002  11.139  1.00  0.00    -0.354 N 
ATOM     60  N   UNL     1      -2.701   3.704   9.153  1.00  0.00    -0.248 NA
ATOM     61  C   UNL     1      -4.958   3.575   8.558  1.00  0.00     0.031 C 
ATOM     62  C   UNL     1      -1.197   4.499  13.226  1.00  0.00     0.029 A 
ATOM     63  C   UNL     1      -1.704   4.215  11.970  1.00  0.00     0.049 A 
ATOM     64  H   UNL     1      -0.671   3.783  10.181  1.00  0.00     0.167 HD
ATOM     65  C   UNL     1      -3.482   3.897  10.282  1.00  0.00     0.074 A 
ATOM     66  C   UNL     1      -4.865   3.825   9.857  1.00  0.00     0.031 C 
ATOM     67  C   UNL     1      -3.079   4.134  11.553  1.00  0.00     0.031 A 
BRANCH  54  68
ATOM     68  C   UNL     1       3.052   4.081  12.245  1.00  0.00    -0.014 A 
ATOM     69  C   UNL     1       3.890   5.206  12.199  1.00  0.00     0.009 A 
ATOM     70  C   UNL     1       3.305   3.078  13.193  1.00  0.00     0.009 A 
ATOM     71  C   UNL     1       4.979   5.309  13.066  1.00  0.00     0.001 A 
ATOM     72  C   UNL     1       4.382   3.195  14.073  1.00  0.00     0.001 A 
ATOM     73  C   UNL     1       5.222   4.305  14.004  1.00  0.00     0.000 A 
ENDBRANCH  54  68
BRANCH  55  74
ATOM     74  C   UNL     1      -4.357   3.172   5.734  1.00  0.00    -0.014 A 
ATOM     75  C   UNL     1      -5.161   4.244   5.326  1.00  0.00     0.009 A 
ATOM     76  C   UNL     1      -4.612   1.892   5.215  1.00  0.00     0.009 A 
ATOM     77  C   UNL     1      -6.208   4.036   4.425  1.00  0.00     0.001 A 
ATOM     78  C   UNL     1      -5.646   1.691   4.298  1.00  0.00     0.001 A 
ATOM     79  C   UNL     1      -6.446   2.763   3.908  1.00  0.00     0.000 A 
ENDBRANCH  55  74
BRANCH  67  80
ATOM     80  C   UNL     1      -4.153   4.379  12.572  1.00  0.00    -0.014 A 
ATOM     81  C   UNL     1      -4.938   3.329  13.072  1.00  0.00     0.009 A 
ATOM     82  C   UNL     1      -4.376   5.682  13.043  1.00  0.00     0.009 A 
ATOM     83  C   UNL     1      -5.946   3.586  14.004  1.00  0.00     0.001 A 
ATOM     84  C   UNL     1      -5.368   5.932  13.991  1.00  0.00     0.001 A 
ATOM     85  C   UNL     1      -6.158   4.886  14.464  1.00  0.00     0.000 A 
ENDBRANCH  67  80
ENDBRANCH  41  42
ENDBRANCH  34  36
ENDBRANCH  33  34
ENDBRANCH  32  33
ENDBRANCH  31  32
ENDBRANCH  30  31
ENDBRANCH  29  30
ENDBRANCH   1  29
TORSDOF 20
