REMARK SMILES O=C1C[C@@H](C(=O)Nc2cccc(C(=O)OCCOCCOC(=O)c3ccc(-c4c5nc(c(-c6ccccc6)c6ccc([nH]6)c(-c6ccccc6)c6nc(c(-c7ccccc7)c7ccc4[nH]7)C=C6)C=C5)cc3)c2)[C@H](c2ccccc2)O1
REMARK SMILES IDX 17 1 16 2 15 3 13 4 14 5 12 6 8 7 9 8 72 9 10 10 11 11 7 12
REMARK SMILES IDX 5 13 6 14 4 16 1 17 2 18 3 19 80 20 73 21 74 22 75 23 79 24
REMARK SMILES IDX 76 25 78 26 77 27 18 28 19 29 20 30 21 31 22 32 23 33 24 34
REMARK SMILES IDX 25 35 71 36 26 37 70 38 27 39 28 40 29 41 64 42 30 43 69 44
REMARK SMILES IDX 63 45 65 46 31 47 68 48 62 49 61 50 32 52 54 53 39 54 53 55
REMARK SMILES IDX 40 56 43 57 52 58 66 59 41 60 42 61 51 63 67 64 44 65 33 66
REMARK SMILES IDX 34 67 38 68 35 69 37 70 36 71 55 72 56 73 60 74 57 75 59 76
REMARK SMILES IDX 58 77 45 78 46 79 50 80 47 81 49 82 48 83
REMARK H PARENT 7 15 65 51 43 62
REMARK Flexibility Score: inf
ROOT
ATOM      1  C   UNL     1       5.762   3.857  -4.041  1.00  0.00     0.202 C 
ENDROOT
BRANCH   1   2
ATOM      2  C   UNL     1       4.896   2.595  -4.077  1.00  0.00     0.261 C 
BRANCH   2   3
ATOM      3  O   UNL     1       4.759   2.025  -2.766  1.00  0.00    -0.460 OA
BRANCH   3   4
ATOM      4  C   UNL     1       5.455   0.885  -2.552  1.00  0.00     0.338 C 
ATOM      5  O   UNL     1       6.092   0.246  -3.380  1.00  0.00    -0.246 OA
BRANCH   4   6
ATOM      6  C   UNL     1       5.447   0.542  -1.110  1.00  0.00     0.062 A 
ATOM      7  C   UNL     1       4.318   0.467   1.028  1.00  0.00     0.042 A 
ATOM      8  C   UNL     1       5.356  -0.321   1.536  1.00  0.00     0.026 A 
ATOM      9  C   UNL     1       4.429   0.986  -0.259  1.00  0.00     0.041 A 
ATOM     10  C   UNL     1       6.420  -0.703   0.715  1.00  0.00     0.003 A 
ATOM     11  C   UNL     1       6.446  -0.303  -0.619  1.00  0.00     0.016 A 
BRANCH   7  12
ATOM     12  N   UNL     1       3.198   0.674   1.845  1.00  0.00    -0.326 N 
ATOM     13  C   UNL     1       1.872   0.838   1.541  1.00  0.00     0.232 C 
ATOM     14  O   UNL     1       1.110   1.101   2.474  1.00  0.00    -0.274 OA
ATOM     15  H   UNL     1       3.400   0.707   2.808  1.00  0.00     0.169 HD
BRANCH  13  16
ATOM     16  C   UNL     1       1.328   0.565   0.139  1.00  0.00     0.135 C 
ATOM     17  O   UNL     1      -2.159  -0.018   0.318  1.00  0.00    -0.252 OA
ATOM     18  C   UNL     1      -0.944  -0.058   0.212  1.00  0.00     0.307 C 
ATOM     19  C   UNL     1      -0.068   1.125  -0.039  1.00  0.00     0.140 C 
ATOM     20  O   UNL     1      -0.220  -1.211   0.211  1.00  0.00    -0.457 OA
ATOM     21  C   UNL     1       1.155  -0.934  -0.080  1.00  0.00     0.220 C 
BRANCH  21  22
ATOM     22  C   UNL     1       1.514  -1.378  -1.493  1.00  0.00    -0.007 A 
ATOM     23  C   UNL     1       0.559  -1.538  -2.507  1.00  0.00     0.007 A 
ATOM     24  C   UNL     1       2.858  -1.618  -1.817  1.00  0.00     0.007 A 
ATOM     25  C   UNL     1       0.945  -1.879  -3.808  1.00  0.00     0.000 A 
ATOM     26  C   UNL     1       3.250  -1.922  -3.123  1.00  0.00     0.000 A 
ATOM     27  C   UNL     1       2.291  -2.048  -4.121  1.00  0.00     0.000 A 
ENDBRANCH  21  22
ENDBRANCH  13  16
ENDBRANCH   7  12
ENDBRANCH   4   6
ENDBRANCH   3   4
ENDBRANCH   2   3
ENDBRANCH   1   2
BRANCH   1  28
ATOM     28  O   UNL     1       7.144   3.691  -3.724  1.00  0.00    -0.374 OA
BRANCH  28  29
ATOM     29  C   UNL     1       7.500   3.455  -2.364  1.00  0.00     0.202 C 
BRANCH  29  30
ATOM     30  C   UNL     1       7.511   4.655  -1.411  1.00  0.00     0.261 C 
BRANCH  30  31
ATOM     31  O   UNL     1       6.239   5.317  -1.333  1.00  0.00    -0.460 OA
BRANCH  31  32
ATOM     32  C   UNL     1       6.198   6.506  -1.979  1.00  0.00     0.338 C 
ATOM     33  O   UNL     1       7.121   7.079  -2.540  1.00  0.00    -0.246 OA
BRANCH  32  34
ATOM     34  C   UNL     1       4.810   6.988  -2.075  1.00  0.00     0.060 A 
ATOM     35  C   UNL     1       4.333   7.316  -3.349  1.00  0.00     0.016 A 
ATOM     36  C   UNL     1       4.026   7.210  -0.940  1.00  0.00     0.016 A 
ATOM     37  C   UNL     1       3.091   7.926  -3.491  1.00  0.00     0.010 A 
ATOM     38  C   UNL     1       2.781   7.831  -1.085  1.00  0.00     0.010 A 
ATOM     39  C   UNL     1       2.328   8.229  -2.356  1.00  0.00    -0.014 A 
BRANCH  39  40
ATOM     40  C   UNL     1       1.139   9.102  -2.499  1.00  0.00     0.031 A 
ATOM     41  C   UNL     1       1.270  10.568  -2.185  1.00  0.00     0.074 A 
ATOM     42  C   UNL     1      -0.024   8.609  -2.960  1.00  0.00     0.049 A 
ATOM     43  N   UNL     1       0.364  11.511  -2.240  1.00  0.00    -0.248 NA
ATOM     44  C   UNL     1       2.599  11.034  -1.757  1.00  0.00     0.031 C 
ATOM     45  C   UNL     1      -0.261   7.219  -3.346  1.00  0.00     0.029 A 
ATOM     46  N   UNL     1      -1.226   9.232  -3.181  1.00  0.00    -0.354 N 
ATOM     47  C   UNL     1       1.013  12.679  -1.862  1.00  0.00     0.074 A 
ATOM     48  C   UNL     1       2.378  12.323  -1.543  1.00  0.00     0.031 C 
ATOM     49  C   UNL     1      -1.538   7.093  -3.750  1.00  0.00     0.029 A 
ATOM     50  C   UNL     1      -2.211   8.383  -3.623  1.00  0.00     0.049 A 
ATOM     51  H   UNL     1      -1.369  10.195  -3.037  1.00  0.00     0.167 HD
ATOM     52  C   UNL     1       0.522  13.939  -1.799  1.00  0.00     0.031 A 
ATOM     53  C   UNL     1      -3.512   8.619  -3.876  1.00  0.00     0.031 A 
ATOM     54  C   UNL     1      -0.840  14.294  -2.096  1.00  0.00     0.049 A 
ATOM     55  C   UNL     1      -4.056  10.014  -3.711  1.00  0.00     0.074 A 
ATOM     56  C   UNL     1      -1.438  15.541  -2.042  1.00  0.00     0.029 A 
ATOM     57  N   UNL     1      -1.815  13.398  -2.502  1.00  0.00    -0.354 N 
ATOM     58  N   UNL     1      -3.428  11.111  -3.363  1.00  0.00    -0.248 NA
ATOM     59  C   UNL     1      -5.488  10.203  -3.985  1.00  0.00     0.031 C 
ATOM     60  C   UNL     1      -2.788  15.392  -2.374  1.00  0.00     0.029 A 
ATOM     61  C   UNL     1      -3.016  14.062  -2.688  1.00  0.00     0.049 A 
ATOM     62  H   UNL     1      -1.676  12.433  -2.638  1.00  0.00     0.167 HD
ATOM     63  C   UNL     1      -4.380  12.123  -3.406  1.00  0.00     0.074 A 
ATOM     64  C   UNL     1      -5.622  11.512  -3.831  1.00  0.00     0.031 C 
ATOM     65  C   UNL     1      -4.239  13.440  -3.120  1.00  0.00     0.031 A 
BRANCH  52  66
ATOM     66  C   UNL     1       1.464  15.029  -1.375  1.00  0.00    -0.014 A 
ATOM     67  C   UNL     1       2.473  15.489  -2.236  1.00  0.00     0.009 A 
ATOM     68  C   UNL     1       1.315  15.636  -0.118  1.00  0.00     0.009 A 
ATOM     69  C   UNL     1       3.328  16.519  -1.837  1.00  0.00     0.001 A 
ATOM     70  C   UNL     1       2.155  16.681   0.268  1.00  0.00     0.001 A 
ATOM     71  C   UNL     1       3.164  17.118  -0.588  1.00  0.00     0.000 A 
ENDBRANCH  52  66
BRANCH  53  72
ATOM     72  C   UNL     1      -4.410   7.505  -4.282  1.00  0.00    -0.014 A 
ATOM     73  C   UNL     1      -4.969   7.461  -5.568  1.00  0.00     0.009 A 
ATOM     74  C   UNL     1      -4.747   6.500  -3.361  1.00  0.00     0.009 A 
ATOM     75  C   UNL     1      -5.874   6.453  -5.911  1.00  0.00     0.001 A 
ATOM     76  C   UNL     1      -5.627   5.476  -3.717  1.00  0.00     0.001 A 
ATOM     77  C   UNL     1      -6.199   5.461  -4.987  1.00  0.00     0.000 A 
ENDBRANCH  53  72
BRANCH  65  78
ATOM     78  C   UNL     1      -5.446  14.317  -3.300  1.00  0.00    -0.014 A 
ATOM     79  C   UNL     1      -6.530  14.262  -2.411  1.00  0.00     0.009 A 
ATOM     80  C   UNL     1      -5.478  15.243  -4.356  1.00  0.00     0.009 A 
ATOM     81  C   UNL     1      -7.637  15.092  -2.596  1.00  0.00     0.001 A 
ATOM     82  C   UNL     1      -6.573  16.091  -4.521  1.00  0.00     0.001 A 
ATOM     83  C   UNL     1      -7.656  16.009  -3.647  1.00  0.00     0.000 A 
ENDBRANCH  65  78
ENDBRANCH  39  40
ENDBRANCH  32  34
ENDBRANCH  31  32
ENDBRANCH  30  31
ENDBRANCH  29  30
ENDBRANCH  28  29
ENDBRANCH   1  28
TORSDOF 17
