REMARK SMILES C[C@@]1(C(=O)c2ccccc2N)[C@H](C(=O)OCCOCCOC(=O)c2ccc(-c3c4nc(c(-c5ccccc5)c5ccc([nH]5)c(-c5ccccc5)c5nc(c(-c6ccccc6)c6ccc3[nH]6)C=C5)C=C4)cc2)[C@@H]1C(=O)N1CCOCC1
REMARK SMILES IDX 17 1 16 2 15 3 13 4 14 5 12 6 1 7 2 8 72 9 3 10 4 11 5 12
REMARK SMILES IDX 6 13 10 14 7 15 9 16 8 17 11 18 73 21 74 22 75 23 76 24
REMARK SMILES IDX 80 25 77 26 79 27 78 28 18 29 19 30 20 31 21 32 22 33 23 34
REMARK SMILES IDX 24 35 25 36 71 37 26 38 70 39 27 40 28 41 29 42 64 43 30 44
REMARK SMILES IDX 69 45 63 46 65 47 31 48 68 49 62 50 61 51 32 53 54 54 39 55
REMARK SMILES IDX 53 56 40 57 43 58 52 59 66 60 41 61 42 62 51 64 67 65 44 66
REMARK SMILES IDX 33 67 34 68 38 69 35 70 37 71 36 72 55 73 56 74 60 75 57 76
REMARK SMILES IDX 59 77 58 78 45 79 46 80 50 81 47 82 49 83 48 84
REMARK H PARENT 11 19 11 20 65 52 43 63
REMARK Flexibility Score: inf
ROOT
ATOM      1  C   UNL     1      -2.352   3.525   3.526  1.00  0.00     0.202 C 
ENDROOT
BRANCH   1   2
ATOM      2  C   UNL     1      -2.110   4.035   2.100  1.00  0.00     0.261 C 
BRANCH   2   3
ATOM      3  O   UNL     1      -1.296   3.199   1.262  1.00  0.00    -0.463 OA
BRANCH   3   4
ATOM      4  C   UNL     1      -0.015   3.634   1.126  1.00  0.00     0.310 C 
ATOM      5  O   UNL     1       0.447   4.647   1.636  1.00  0.00    -0.252 OA
BRANCH   4   6
ATOM      6  C   UNL     1       0.887   2.790   0.305  1.00  0.00     0.127 C 
ATOM      7  C   UNL     1       1.778   0.587  -0.602  1.00  0.00     0.022 C 
ATOM      8  C   UNL     1       0.623   1.591  -0.605  1.00  0.00     0.057 C 
ATOM      9  C   UNL     1       0.911   2.978  -1.192  1.00  0.00     0.108 C 
BRANCH   8  10
ATOM     10  C   UNL     1      -0.711   0.914  -0.494  1.00  0.00     0.172 C 
ATOM     11  O   UNL     1      -0.962   0.385   0.587  1.00  0.00    -0.293 OA
BRANCH  10  12
ATOM     12  C   UNL     1      -1.675   0.731  -1.620  1.00  0.00     0.041 A 
ATOM     13  C   UNL     1      -3.000   0.462  -1.222  1.00  0.00     0.014 A 
ATOM     14  C   UNL     1      -1.393   0.824  -2.991  1.00  0.00     0.042 A 
ATOM     15  C   UNL     1      -4.041   0.366  -2.146  1.00  0.00     0.001 A 
ATOM     16  C   UNL     1      -2.465   0.773  -3.905  1.00  0.00     0.026 A 
ATOM     17  C   UNL     1      -3.778   0.561  -3.491  1.00  0.00     0.002 A 
BRANCH  14  18
ATOM     18  N   UNL     1      -0.113   0.850  -3.549  1.00  0.00    -0.398 N 
ATOM     19  H   UNL     1       0.679   0.886  -2.965  1.00  0.00     0.156 HD
ATOM     20  H   UNL     1      -0.002   0.832  -4.527  1.00  0.00     0.156 HD
ENDBRANCH  14  18
ENDBRANCH  10  12
ENDBRANCH   8  10
BRANCH   9  21
ATOM     21  C   UNL     1      -0.089   3.779  -1.948  1.00  0.00     0.227 C 
ATOM     22  O   UNL     1      -0.353   3.494  -3.110  1.00  0.00    -0.275 OA
ATOM     23  N   UNL     1      -0.584   4.925  -1.356  1.00  0.00    -0.338 N 
ATOM     24  C   UNL     1       0.339   6.051  -1.203  1.00  0.00     0.148 C 
ATOM     25  C   UNL     1      -1.944   5.314  -1.718  1.00  0.00     0.148 C 
ATOM     26  C   UNL     1      -0.261   7.189  -0.375  1.00  0.00     0.181 C 
ATOM     27  C   UNL     1      -2.454   6.452  -0.834  1.00  0.00     0.181 C 
ATOM     28  O   UNL     1      -1.555   7.569  -0.873  1.00  0.00    -0.378 OA
ENDBRANCH   9  21
ENDBRANCH   4   6
ENDBRANCH   3   4
ENDBRANCH   2   3
ENDBRANCH   1   2
BRANCH   1  29
ATOM     29  O   UNL     1      -1.263   2.954   4.235  1.00  0.00    -0.374 OA
BRANCH  29  30
ATOM     30  C   UNL     1      -0.761   1.694   3.788  1.00  0.00     0.202 C 
BRANCH  30  31
ATOM     31  C   UNL     1      -1.719   0.496   3.764  1.00  0.00     0.261 C 
BRANCH  31  32
ATOM     32  O   UNL     1      -2.844   0.678   2.885  1.00  0.00    -0.460 OA
BRANCH  32  33
ATOM     33  C   UNL     1      -4.058   0.510   3.457  1.00  0.00     0.338 C 
ATOM     34  O   UNL     1      -4.310   0.225   4.615  1.00  0.00    -0.246 OA
BRANCH  33  35
ATOM     35  C   UNL     1      -5.111   0.848   2.488  1.00  0.00     0.060 A 
ATOM     36  C   UNL     1      -5.899   1.982   2.717  1.00  0.00     0.016 A 
ATOM     37  C   UNL     1      -5.410  -0.028   1.446  1.00  0.00     0.016 A 
ATOM     38  C   UNL     1      -7.019   2.223   1.920  1.00  0.00     0.010 A 
ATOM     39  C   UNL     1      -6.524   0.222   0.641  1.00  0.00     0.010 A 
ATOM     40  C   UNL     1      -7.358   1.325   0.899  1.00  0.00    -0.014 A 
BRANCH  40  41
ATOM     41  C   UNL     1      -8.670   1.429   0.214  1.00  0.00     0.031 A 
ATOM     42  C   UNL     1      -9.750   0.439   0.559  1.00  0.00     0.074 A 
ATOM     43  C   UNL     1      -8.904   2.379  -0.708  1.00  0.00     0.049 A 
ATOM     44  N   UNL     1     -10.947   0.302   0.048  1.00  0.00    -0.248 NA
ATOM     45  C   UNL     1      -9.429  -0.539   1.612  1.00  0.00     0.031 C 
ATOM     46  C   UNL     1      -7.952   3.405  -1.129  1.00  0.00     0.029 A 
ATOM     47  N   UNL     1     -10.021   2.622  -1.467  1.00  0.00    -0.354 N 
ATOM     48  C   UNL     1     -11.510  -0.789   0.698  1.00  0.00     0.074 A 
ATOM     49  C   UNL     1     -10.513  -1.299   1.613  1.00  0.00     0.031 C 
ATOM     50  C   UNL     1      -8.524   4.165  -2.078  1.00  0.00     0.029 A 
ATOM     51  C   UNL     1      -9.868   3.659  -2.353  1.00  0.00     0.049 A 
ATOM     52  H   UNL     1     -10.853   2.102  -1.385  1.00  0.00     0.167 HD
ATOM     53  C   UNL     1     -12.749  -1.319   0.556  1.00  0.00     0.031 A 
ATOM     54  C   UNL     1     -10.706   4.135  -3.294  1.00  0.00     0.031 A 
ATOM     55  C   UNL     1     -13.745  -0.815  -0.350  1.00  0.00     0.049 A 
ATOM     56  C   UNL     1     -12.067   3.514  -3.462  1.00  0.00     0.074 A 
ATOM     57  C   UNL     1     -15.045  -1.253  -0.532  1.00  0.00     0.029 A 
ATOM     58  N   UNL     1     -13.548   0.236  -1.232  1.00  0.00    -0.354 N 
ATOM     59  N   UNL     1     -12.604   2.513  -2.808  1.00  0.00    -0.248 NA
ATOM     60  C   UNL     1     -12.939   4.097  -4.493  1.00  0.00     0.031 C 
ATOM     61  C   UNL     1     -15.617  -0.501  -1.565  1.00  0.00     0.029 A 
ATOM     62  C   UNL     1     -14.691   0.441  -1.985  1.00  0.00     0.049 A 
ATOM     63  H   UNL     1     -12.717   0.759  -1.311  1.00  0.00     0.167 HD
ATOM     64  C   UNL     1     -13.881   2.356  -3.334  1.00  0.00     0.074 A 
ATOM     65  C   UNL     1     -14.043   3.376  -4.350  1.00  0.00     0.031 C 
ATOM     66  C   UNL     1     -14.834   1.451  -3.002  1.00  0.00     0.031 A 
BRANCH  53  67
ATOM     67  C   UNL     1     -13.070  -2.535   1.379  1.00  0.00    -0.014 A 
ATOM     68  C   UNL     1     -13.236  -2.455   2.771  1.00  0.00     0.009 A 
ATOM     69  C   UNL     1     -13.200  -3.782   0.750  1.00  0.00     0.009 A 
ATOM     70  C   UNL     1     -13.476  -3.609   3.521  1.00  0.00     0.001 A 
ATOM     71  C   UNL     1     -13.470  -4.929   1.498  1.00  0.00     0.001 A 
ATOM     72  C   UNL     1     -13.595  -4.844   2.884  1.00  0.00     0.000 A 
ENDBRANCH  53  67
BRANCH  54  73
ATOM     73  C   UNL     1     -10.268   5.254  -4.166  1.00  0.00    -0.014 A 
ATOM     74  C   UNL     1     -10.799   6.542  -4.003  1.00  0.00     0.009 A 
ATOM     75  C   UNL     1      -9.297   5.039  -5.158  1.00  0.00     0.009 A 
ATOM     76  C   UNL     1     -10.374   7.590  -4.824  1.00  0.00     0.001 A 
ATOM     77  C   UNL     1      -8.857   6.094  -5.959  1.00  0.00     0.001 A 
ATOM     78  C   UNL     1      -9.399   7.367  -5.796  1.00  0.00     0.000 A 
ENDBRANCH  54  73
BRANCH  66  79
ATOM     79  C   UNL     1     -16.147   1.531  -3.731  1.00  0.00    -0.014 A 
ATOM     80  C   UNL     1     -16.265   1.117  -5.066  1.00  0.00     0.009 A 
ATOM     81  C   UNL     1     -17.292   1.982  -3.054  1.00  0.00     0.009 A 
ATOM     82  C   UNL     1     -17.499   1.180  -5.718  1.00  0.00     0.001 A 
ATOM     83  C   UNL     1     -18.529   2.019  -3.700  1.00  0.00     0.001 A 
ATOM     84  C   UNL     1     -18.630   1.625  -5.033  1.00  0.00     0.000 A 
ENDBRANCH  66  79
ENDBRANCH  40  41
ENDBRANCH  33  35
ENDBRANCH  32  33
ENDBRANCH  31  32
ENDBRANCH  30  31
ENDBRANCH  29  30
ENDBRANCH   1  29
TORSDOF 18
