REMARK SMILES C[C@H](NC(=O)c1c(C(=O)OCCOCCOC(=O)c2ccc(-c3c4nc(c(-c5ccccc5)c5ccc([nH]5)c(-c5ccccc5)c5nc(c(-c6ccccc6)c6ccc3[nH]6)C=C5)C=C4)cc2)cnn1C)[C@]12C[C@H]3C[C@H](C[C@H](C3)C1)C2
REMARK SMILES IDX 12 1 11 2 10 3 8 4 9 5 7 6 6 7 69 8 67 9 68 10 70 11 4 12
REMARK SMILES IDX 3 13 5 15 2 16 1 17 71 18 72 19 79 20 80 21 73 22 77 23
REMARK SMILES IDX 75 24 74 25 78 26 76 27 13 28 14 29 15 30 16 31 17 32 18 33
REMARK SMILES IDX 19 34 20 35 66 36 21 37 65 38 22 39 23 40 24 41 59 42 25 43
REMARK SMILES IDX 64 44 58 45 60 46 26 47 63 48 57 49 56 50 27 52 49 53 34 54
REMARK SMILES IDX 48 55 35 56 38 57 47 58 61 59 36 60 37 61 46 63 62 64 39 65
REMARK SMILES IDX 28 66 29 67 33 68 30 69 32 70 31 71 50 72 51 73 55 74 52 75
REMARK SMILES IDX 54 76 53 77 40 78 41 79 45 80 42 81 44 82 43 83
REMARK H PARENT 3 14 60 51 38 62
REMARK Flexibility Score: inf
ROOT
ATOM      1  C   UNL     1      -1.267   3.905  -4.502  1.00  0.00     0.202 C 
ENDROOT
BRANCH   1   2
ATOM      2  C   UNL     1       0.158   3.398  -4.242  1.00  0.00     0.261 C 
BRANCH   2   3
ATOM      3  O   UNL     1       0.436   3.117  -2.863  1.00  0.00    -0.460 OA
BRANCH   3   4
ATOM      4  C   UNL     1       1.159   4.094  -2.238  1.00  0.00     0.342 C 
ATOM      5  O   UNL     1       1.548   5.116  -2.782  1.00  0.00    -0.246 OA
BRANCH   4   6
ATOM      6  C   UNL     1       1.360   3.889  -0.814  1.00  0.00     0.111 A 
ATOM      7  C   UNL     1       1.510   2.728  -0.045  1.00  0.00     0.140 A 
ATOM      8  N   UNL     1       2.122   3.221   1.090  1.00  0.00    -0.262 N 
ATOM      9  C   UNL     1       1.502   4.953   0.106  1.00  0.00     0.151 A 
ATOM     10  N   UNL     1       1.861   4.524   1.312  1.00  0.00    -0.180 NA
ATOM     11  C   UNL     1       3.252   2.656   1.796  1.00  0.00     0.174 C 
BRANCH   7  12
ATOM     12  C   UNL     1       1.447   1.355  -0.469  1.00  0.00     0.270 C 
ATOM     13  N   UNL     1       0.934   0.338   0.294  1.00  0.00    -0.348 N 
ATOM     14  H   UNL     1       1.035  -0.515  -0.186  1.00  0.00     0.164 HD
ATOM     15  O   UNL     1       1.871   1.012  -1.575  1.00  0.00    -0.267 OA
BRANCH  13  16
ATOM     16  C   UNL     1       0.280   0.094   1.599  1.00  0.00     0.085 C 
ATOM     17  C   UNL     1       0.929   0.792   2.787  1.00  0.00     0.031 C 
BRANCH  16  18
ATOM     18  C   UNL     1      -1.290   0.114   1.621  1.00  0.00    -0.009 C 
ATOM     19  C   UNL     1      -1.783  -0.653   2.896  1.00  0.00     0.012 C 
ATOM     20  C   UNL     1      -1.895  -0.619   0.391  1.00  0.00     0.012 C 
ATOM     21  C   UNL     1      -1.889   1.542   1.662  1.00  0.00     0.012 C 
ATOM     22  C   UNL     1      -3.312  -0.702   2.985  1.00  0.00    -0.010 C 
ATOM     23  C   UNL     1      -3.435  -0.685   0.488  1.00  0.00    -0.010 C 
ATOM     24  C   UNL     1      -3.430   1.489   1.752  1.00  0.00    -0.010 C 
ATOM     25  C   UNL     1      -3.851   0.736   3.025  1.00  0.00     0.007 C 
ATOM     26  C   UNL     1      -3.856  -1.433   1.756  1.00  0.00     0.007 C 
ATOM     27  C   UNL     1      -3.998   0.742   0.536  1.00  0.00     0.007 C 
ENDBRANCH  16  18
ENDBRANCH  13  16
ENDBRANCH   7  12
ENDBRANCH   4   6
ENDBRANCH   3   4
ENDBRANCH   2   3
ENDBRANCH   1   2
BRANCH   1  28
ATOM     28  O   UNL     1      -1.777   4.938  -3.667  1.00  0.00    -0.374 OA
BRANCH  28  29
ATOM     29  C   UNL     1      -2.117   4.623  -2.319  1.00  0.00     0.202 C 
BRANCH  29  30
ATOM     30  C   UNL     1      -3.252   3.625  -2.073  1.00  0.00     0.261 C 
BRANCH  30  31
ATOM     31  O   UNL     1      -2.967   2.313  -2.592  1.00  0.00    -0.460 OA
BRANCH  31  32
ATOM     32  C   UNL     1      -3.850   1.865  -3.519  1.00  0.00     0.338 C 
ATOM     33  O   UNL     1      -4.854   2.428  -3.920  1.00  0.00    -0.246 OA
BRANCH  32  34
ATOM     34  C   UNL     1      -3.376   0.600  -4.110  1.00  0.00     0.060 A 
ATOM     35  C   UNL     1      -3.227   0.520  -5.497  1.00  0.00     0.016 A 
ATOM     36  C   UNL     1      -3.202  -0.532  -3.319  1.00  0.00     0.016 A 
ATOM     37  C   UNL     1      -2.951  -0.710  -6.095  1.00  0.00     0.010 A 
ATOM     38  C   UNL     1      -2.928  -1.765  -3.913  1.00  0.00     0.010 A 
ATOM     39  C   UNL     1      -2.837  -1.867  -5.309  1.00  0.00    -0.014 A 
BRANCH  39  40
ATOM     40  C   UNL     1      -2.725  -3.198  -5.951  1.00  0.00     0.031 A 
ATOM     41  C   UNL     1      -3.935  -4.088  -6.037  1.00  0.00     0.074 A 
ATOM     42  C   UNL     1      -1.546  -3.610  -6.451  1.00  0.00     0.049 A 
ATOM     43  N   UNL     1      -4.048  -5.282  -6.560  1.00  0.00    -0.248 NA
ATOM     44  C   UNL     1      -5.181  -3.567  -5.449  1.00  0.00     0.031 C 
ATOM     45  C   UNL     1      -0.302  -2.843  -6.425  1.00  0.00     0.029 A 
ATOM     46  N   UNL     1      -1.208  -4.784  -7.075  1.00  0.00    -0.354 N 
ATOM     47  C   UNL     1      -5.372  -5.656  -6.366  1.00  0.00     0.074 A 
ATOM     48  C   UNL     1      -6.015  -4.580  -5.643  1.00  0.00     0.031 C 
ATOM     49  C   UNL     1       0.667  -3.567  -7.010  1.00  0.00     0.029 A 
ATOM     50  C   UNL     1       0.117  -4.853  -7.429  1.00  0.00     0.049 A 
ATOM     51  H   UNL     1      -1.852  -5.507  -7.251  1.00  0.00     0.167 HD
ATOM     52  C   UNL     1      -6.001  -6.788  -6.764  1.00  0.00     0.031 A 
ATOM     53  C   UNL     1       0.808  -5.846  -8.019  1.00  0.00     0.031 A 
ATOM     54  C   UNL     1      -5.363  -7.863  -7.476  1.00  0.00     0.049 A 
ATOM     55  C   UNL     1       0.096  -7.111  -8.416  1.00  0.00     0.074 A 
ATOM     56  C   UNL     1      -5.924  -9.035  -7.953  1.00  0.00     0.029 A 
ATOM     57  N   UNL     1      -4.018  -7.900  -7.806  1.00  0.00    -0.354 N 
ATOM     58  N   UNL     1      -1.169  -7.425  -8.277  1.00  0.00    -0.248 NA
ATOM     59  C   UNL     1       0.907  -8.151  -9.064  1.00  0.00     0.031 C 
ATOM     60  C   UNL     1      -4.908  -9.803  -8.532  1.00  0.00     0.029 A 
ATOM     61  C   UNL     1      -3.725  -9.085  -8.460  1.00  0.00     0.049 A 
ATOM     62  H   UNL     1      -3.367  -7.189  -7.606  1.00  0.00     0.167 HD
ATOM     63  C   UNL     1      -1.311  -8.685  -8.845  1.00  0.00     0.074 A 
ATOM     64  C   UNL     1      -0.006  -9.071  -9.342  1.00  0.00     0.031 C 
ATOM     65  C   UNL     1      -2.422  -9.453  -8.949  1.00  0.00     0.031 A 
BRANCH  52  66
ATOM     66  C   UNL     1      -7.460  -6.927  -6.429  1.00  0.00    -0.014 A 
ATOM     67  C   UNL     1      -8.433  -6.168  -7.098  1.00  0.00     0.009 A 
ATOM     68  C   UNL     1      -7.871  -7.864  -5.469  1.00  0.00     0.009 A 
ATOM     69  C   UNL     1      -9.786  -6.326  -6.792  1.00  0.00     0.001 A 
ATOM     70  C   UNL     1      -9.226  -8.037  -5.182  1.00  0.00     0.001 A 
ATOM     71  C   UNL     1     -10.182  -7.263  -5.838  1.00  0.00     0.000 A 
ENDBRANCH  52  66
BRANCH  53  72
ATOM     72  C   UNL     1       2.263  -5.689  -8.274  1.00  0.00    -0.014 A 
ATOM     73  C   UNL     1       2.747  -5.534  -9.582  1.00  0.00     0.009 A 
ATOM     74  C   UNL     1       3.177  -5.709  -7.209  1.00  0.00     0.009 A 
ATOM     75  C   UNL     1       4.119  -5.430  -9.820  1.00  0.00     0.001 A 
ATOM     76  C   UNL     1       4.546  -5.577  -7.448  1.00  0.00     0.001 A 
ATOM     77  C   UNL     1       5.017  -5.448  -8.754  1.00  0.00     0.000 A 
ENDBRANCH  53  72
BRANCH  65  78
ATOM     78  C   UNL     1      -2.283 -10.772  -9.655  1.00  0.00    -0.014 A 
ATOM     79  C   UNL     1      -1.630 -11.857  -9.050  1.00  0.00     0.009 A 
ATOM     80  C   UNL     1      -2.848 -10.941 -10.929  1.00  0.00     0.009 A 
ATOM     81  C   UNL     1      -1.518 -13.076  -9.722  1.00  0.00     0.001 A 
ATOM     82  C   UNL     1      -2.758 -12.168 -11.586  1.00  0.00     0.001 A 
ATOM     83  C   UNL     1      -2.085 -13.231 -10.987  1.00  0.00     0.000 A 
ENDBRANCH  65  78
ENDBRANCH  39  40
ENDBRANCH  32  34
ENDBRANCH  31  32
ENDBRANCH  30  31
ENDBRANCH  29  30
ENDBRANCH  28  29
ENDBRANCH   1  28
TORSDOF 17
