REMARK SMILES [NH3+][C@@]1(C(=O)OCCOCCOC(=O)c2ccc(-c3c4nc(c(-c5ccccc5)c5ccc([nH]5)c(-c5ccccc5)c5nc(c(-c6ccccc6)c6ccc3[nH]6)C=C5)C=C4)cc2)CC[C@H](Sc2cccs2)C1
REMARK SMILES IDX 8 1 7 2 6 3 5 4 3 5 4 6 2 7 62 8 71 9 63 10 64 11 1 12 65 16
REMARK SMILES IDX 66 17 67 18 70 19 68 20 69 21 9 22 10 23 11 24 12 25 13 26
REMARK SMILES IDX 14 27 15 28 61 29 16 30 60 31 17 32 18 33 19 34 54 35 20 36
REMARK SMILES IDX 59 37 53 38 55 39 21 40 58 41 52 42 51 43 22 45 44 46 29 47
REMARK SMILES IDX 43 48 30 49 33 50 42 51 56 52 31 53 32 54 41 56 57 57 34 58
REMARK SMILES IDX 23 59 24 60 28 61 25 62 27 63 26 64 45 65 46 66 50 67 47 68
REMARK SMILES IDX 49 69 48 70 35 71 36 72 40 73 37 74 39 75 38 76
REMARK H PARENT 1 13 1 14 1 15 55 44 33 55
REMARK Flexibility Score: inf
ROOT
ATOM      1  O   UNL     1      -2.870  -0.349  -1.448  1.00  0.00    -0.374 OA
ENDROOT
BRANCH   1   2
ATOM      2  C   UNL     1      -3.514   0.646  -0.654  1.00  0.00     0.202 C 
BRANCH   2   3
ATOM      3  C   UNL     1      -2.885   0.939   0.711  1.00  0.00     0.261 C 
BRANCH   3   4
ATOM      4  O   UNL     1      -1.578   1.525   0.576  1.00  0.00    -0.459 OA
BRANCH   4   5
ATOM      5  C   UNL     1      -0.553   0.824   1.133  1.00  0.00     0.368 C 
ATOM      6  O   UNL     1      -0.700  -0.197   1.797  1.00  0.00    -0.245 OA
BRANCH   5   7
ATOM      7  C   UNL     1       0.841   1.464   0.832  1.00  0.00     0.193 C 
ATOM      8  C   UNL     1       1.244   2.325   2.029  1.00  0.00     0.082 C 
ATOM      9  C   UNL     1       0.890   2.450  -0.353  1.00  0.00     0.095 C 
ATOM     10  C   UNL     1       0.555   3.656   1.751  1.00  0.00     0.022 C 
ATOM     11  C   UNL     1       0.749   3.866   0.248  1.00  0.00     0.059 C 
BRANCH   7  12
ATOM     12  N   UNL     1       1.814   0.368   0.638  1.00  0.00    -0.343 N 
ATOM     13  H   UNL     1       1.766  -0.273   1.430  1.00  0.00     0.345 HD
ATOM     14  H   UNL     1       2.755   0.756   0.570  1.00  0.00     0.345 HD
ATOM     15  H   UNL     1       1.591  -0.136  -0.221  1.00  0.00     0.345 HD
ENDBRANCH   7  12
BRANCH  11  16
ATOM     16  S   UNL     1      -0.603   4.766  -0.561  1.00  0.00    -0.112 SA
BRANCH  16  17
ATOM     17  C   UNL     1      -0.573   6.373   0.145  1.00  0.00     0.060 A 
ATOM     18  C   UNL     1       0.390   6.969   0.933  1.00  0.00     0.027 A 
ATOM     19  S   UNL     1      -1.882   7.445  -0.145  1.00  0.00    -0.137 S 
ATOM     20  C   UNL     1       0.028   8.292   1.333  1.00  0.00     0.013 A 
ATOM     21  C   UNL     1      -1.181   8.678   0.804  1.00  0.00     0.066 A 
ENDBRANCH  16  17
ENDBRANCH  11  16
ENDBRANCH   5   7
ENDBRANCH   4   5
ENDBRANCH   3   4
ENDBRANCH   2   3
ENDBRANCH   1   2
BRANCH   1  22
ATOM     22  C   UNL     1      -1.665   0.020  -2.115  1.00  0.00     0.202 C 
BRANCH  22  23
ATOM     23  C   UNL     1      -1.814   0.904  -3.361  1.00  0.00     0.261 C 
BRANCH  23  24
ATOM     24  O   UNL     1      -2.362   2.200  -3.057  1.00  0.00    -0.460 OA
BRANCH  24  25
ATOM     25  C   UNL     1      -3.577   2.444  -3.603  1.00  0.00     0.338 C 
ATOM     26  O   UNL     1      -4.195   1.731  -4.384  1.00  0.00    -0.246 OA
BRANCH  25  27
ATOM     27  C   UNL     1      -4.187   3.643  -3.002  1.00  0.00     0.060 A 
ATOM     28  C   UNL     1      -5.454   3.501  -2.422  1.00  0.00     0.016 A 
ATOM     29  C   UNL     1      -3.586   4.899  -3.091  1.00  0.00     0.016 A 
ATOM     30  C   UNL     1      -6.146   4.623  -1.969  1.00  0.00     0.010 A 
ATOM     31  C   UNL     1      -4.289   6.026  -2.648  1.00  0.00     0.010 A 
ATOM     32  C   UNL     1      -5.584   5.897  -2.115  1.00  0.00    -0.014 A 
BRANCH  32  33
ATOM     33  C   UNL     1      -6.418   7.095  -1.850  1.00  0.00     0.031 A 
ATOM     34  C   UNL     1      -7.077   7.798  -3.006  1.00  0.00     0.074 A 
ATOM     35  C   UNL     1      -6.630   7.528  -0.594  1.00  0.00     0.049 A 
ATOM     36  N   UNL     1      -7.858   8.849  -3.002  1.00  0.00    -0.248 NA
ATOM     37  C   UNL     1      -6.826   7.238  -4.344  1.00  0.00     0.031 C 
ATOM     38  C   UNL     1      -6.086   6.915   0.616  1.00  0.00     0.029 A 
ATOM     39  N   UNL     1      -7.370   8.589  -0.133  1.00  0.00    -0.354 N 
ATOM     40  C   UNL     1      -8.187   9.078  -4.332  1.00  0.00     0.074 A 
ATOM     41  C   UNL     1      -7.500   8.076  -5.118  1.00  0.00     0.031 C 
ATOM     42  C   UNL     1      -6.514   7.609   1.685  1.00  0.00     0.029 A 
ATOM     43  C   UNL     1      -7.336   8.730   1.232  1.00  0.00     0.049 A 
ATOM     44  H   UNL     1      -7.876   9.190  -0.725  1.00  0.00     0.167 HD
ATOM     45  C   UNL     1      -8.992  10.033  -4.856  1.00  0.00     0.031 A 
ATOM     46  C   UNL     1      -7.893   9.666   2.025  1.00  0.00     0.031 A 
ATOM     47  C   UNL     1      -9.668  11.040  -4.084  1.00  0.00     0.049 A 
ATOM     48  C   UNL     1      -8.723  10.763   1.412  1.00  0.00     0.074 A 
ATOM     49  C   UNL     1     -10.514  12.042  -4.526  1.00  0.00     0.029 A 
ATOM     50  N   UNL     1      -9.568  11.178  -2.709  1.00  0.00    -0.354 N 
ATOM     51  N   UNL     1      -9.045  10.953   0.155  1.00  0.00    -0.248 NA
ATOM     52  C   UNL     1      -9.269  11.773   2.331  1.00  0.00     0.031 C 
ATOM     53  C   UNL     1     -10.887  12.818  -3.423  1.00  0.00     0.029 A 
ATOM     54  C   UNL     1     -10.314  12.265  -2.289  1.00  0.00     0.049 A 
ATOM     55  H   UNL     1      -9.043  10.590  -2.119  1.00  0.00     0.167 HD
ATOM     56  C   UNL     1      -9.849  12.086   0.137  1.00  0.00     0.074 A 
ATOM     57  C   UNL     1      -9.978  12.533   1.508  1.00  0.00     0.031 C 
ATOM     58  C   UNL     1     -10.432  12.700  -0.922  1.00  0.00     0.031 A 
BRANCH  45  59
ATOM     59  C   UNL     1      -9.160  10.049  -6.348  1.00  0.00    -0.014 A 
ATOM     60  C   UNL     1      -9.936   9.081  -7.004  1.00  0.00     0.009 A 
ATOM     61  C   UNL     1      -8.557  11.066  -7.105  1.00  0.00     0.009 A 
ATOM     62  C   UNL     1     -10.080   9.114  -8.393  1.00  0.00     0.001 A 
ATOM     63  C   UNL     1      -8.723  11.111  -8.490  1.00  0.00     0.001 A 
ATOM     64  C   UNL     1      -9.478  10.131  -9.133  1.00  0.00     0.000 A 
ENDBRANCH  45  59
BRANCH  46  65
ATOM     65  C   UNL     1      -7.672   9.626   3.494  1.00  0.00    -0.014 A 
ATOM     66  C   UNL     1      -8.721   9.309   4.369  1.00  0.00     0.009 A 
ATOM     67  C   UNL     1      -6.410   9.932   4.028  1.00  0.00     0.009 A 
ATOM     68  C   UNL     1      -8.518   9.323   5.751  1.00  0.00     0.001 A 
ATOM     69  C   UNL     1      -6.203   9.919   5.409  1.00  0.00     0.001 A 
ATOM     70  C   UNL     1      -7.259   9.624   6.269  1.00  0.00     0.000 A 
ENDBRANCH  46  65
BRANCH  58  71
ATOM     71  C   UNL     1     -11.286  13.903  -0.638  1.00  0.00    -0.014 A 
ATOM     72  C   UNL     1     -10.714  15.136  -0.290  1.00  0.00     0.009 A 
ATOM     73  C   UNL     1     -12.681  13.810  -0.764  1.00  0.00     0.009 A 
ATOM     74  C   UNL     1     -11.527  16.246  -0.044  1.00  0.00     0.001 A 
ATOM     75  C   UNL     1     -13.488  14.927  -0.543  1.00  0.00     0.001 A 
ATOM     76  C   UNL     1     -12.911  16.142  -0.175  1.00  0.00     0.000 A 
ENDBRANCH  58  71
ENDBRANCH  32  33
ENDBRANCH  25  27
ENDBRANCH  24  25
ENDBRANCH  23  24
ENDBRANCH  22  23
ENDBRANCH   1  22
TORSDOF 17
