REMARK SMILES CS(=O)(=O)c1ccc(N2N=C(C(=O)OCCOCCOC(=O)c3ccc(-c4c5nc(c(-c6ccccc6)c6ccc([nH]6)c(-c6ccccc6)c6nc(c(-c7ccccc7)c7ccc4[nH]7)C=C6)C=C5)cc3)C[C@H]2c2cccs2)cc1
REMARK SMILES IDX 17 1 16 2 15 3 14 4 12 5 13 6 11 7 9 8 10 9 72 10 71 11 8 12
REMARK SMILES IDX 5 13 6 14 79 15 7 16 78 17 2 18 1 19 3 20 4 21 73 22 74 23
REMARK SMILES IDX 77 24 75 25 76 26 18 27 19 28 20 29 21 30 22 31 23 32 24 33
REMARK SMILES IDX 70 34 25 35 69 36 26 37 27 38 28 39 63 40 29 41 68 42 62 43
REMARK SMILES IDX 64 44 30 45 67 46 61 47 60 48 31 50 53 51 38 52 52 53 39 54
REMARK SMILES IDX 42 55 51 56 65 57 40 58 41 59 50 61 66 62 43 63 32 64 33 65
REMARK SMILES IDX 37 66 34 67 36 68 35 69 54 70 55 71 59 72 56 73 58 74 57 75
REMARK SMILES IDX 44 76 45 77 49 78 46 79 48 80 47 81
REMARK H PARENT 64 49 42 60
REMARK Flexibility Score: inf
ROOT
ATOM      1  O   UNL     1       3.846  -8.661   6.104  1.00  0.00    -0.374 OA
ENDROOT
BRANCH   1   2
ATOM      2  C   UNL     1       4.022  -8.787   7.520  1.00  0.00     0.202 C 
BRANCH   2   3
ATOM      3  C   UNL     1       4.675  -7.556   8.148  1.00  0.00     0.261 C 
BRANCH   3   4
ATOM      4  O   UNL     1       3.707  -6.496   8.157  1.00  0.00    -0.459 OA
BRANCH   4   5
ATOM      5  C   UNL     1       4.185  -5.277   7.849  1.00  0.00     0.354 C 
ATOM      6  O   UNL     1       5.341  -4.905   7.838  1.00  0.00    -0.245 OA
BRANCH   5   7
ATOM      7  C   UNL     1       3.030  -4.430   7.384  1.00  0.00     0.148 C 
ATOM      8  N   UNL     1       1.868  -3.076   6.267  1.00  0.00    -0.256 N 
ATOM      9  N   UNL     1       3.073  -3.705   6.307  1.00  0.00    -0.169 NA
ATOM     10  C   UNL     1       1.110  -3.188   7.518  1.00  0.00     0.154 C 
ATOM     11  C   UNL     1       1.706  -4.481   8.088  1.00  0.00     0.099 C 
BRANCH   8  12
ATOM     12  C   UNL     1       1.537  -2.252   5.209  1.00  0.00     0.060 A 
ATOM     13  C   UNL     1       0.809  -0.601   3.062  1.00  0.00     0.067 A 
ATOM     14  C   UNL     1       0.522  -1.966   3.011  1.00  0.00     0.022 A 
ATOM     15  C   UNL     1       1.456  -0.051   4.169  1.00  0.00     0.022 A 
ATOM     16  C   UNL     1       0.897  -2.784   4.081  1.00  0.00     0.029 A 
ATOM     17  C   UNL     1       1.821  -0.881   5.233  1.00  0.00     0.029 A 
BRANCH  13  18
ATOM     18  S   UNL     1       0.305   0.442   1.716  1.00  0.00     0.175 S 
ATOM     19  C   UNL     1       1.232  -0.154   0.328  1.00  0.00     0.163 C 
ATOM     20  O   UNL     1       0.764   1.789   2.002  1.00  0.00    -0.224 OA
ATOM     21  O   UNL     1      -1.100   0.169   1.478  1.00  0.00    -0.224 OA
ENDBRANCH  13  18
ENDBRANCH   8  12
BRANCH  10  22
ATOM     22  C   UNL     1       1.206  -1.996   8.458  1.00  0.00     0.030 A 
ATOM     23  C   UNL     1       0.387  -0.879   8.468  1.00  0.00     0.017 A 
ATOM     24  S   UNL     1       2.431  -1.855   9.658  1.00  0.00    -0.147 S 
ATOM     25  C   UNL     1       0.749   0.064   9.473  1.00  0.00     0.012 A 
ATOM     26  C   UNL     1       1.830  -0.359  10.210  1.00  0.00     0.065 A 
ENDBRANCH  10  22
ENDBRANCH   5   7
ENDBRANCH   4   5
ENDBRANCH   3   4
ENDBRANCH   2   3
ENDBRANCH   1   2
BRANCH   1  27
ATOM     27  C   UNL     1       2.683  -7.952   5.672  1.00  0.00     0.202 C 
BRANCH  27  28
ATOM     28  C   UNL     1       1.457  -8.847   5.475  1.00  0.00     0.261 C 
BRANCH  28  29
ATOM     29  O   UNL     1       1.007  -9.374   6.737  1.00  0.00    -0.460 OA
BRANCH  29  30
ATOM     30  C   UNL     1       1.249 -10.696   6.913  1.00  0.00     0.338 C 
ATOM     31  O   UNL     1       1.681 -11.481   6.086  1.00  0.00    -0.246 OA
BRANCH  30  32
ATOM     32  C   UNL     1       1.038 -11.079   8.326  1.00  0.00     0.060 A 
ATOM     33  C   UNL     1       1.922 -12.022   8.865  1.00  0.00     0.016 A 
ATOM     34  C   UNL     1      -0.029 -10.597   9.092  1.00  0.00     0.016 A 
ATOM     35  C   UNL     1       1.702 -12.540  10.138  1.00  0.00     0.010 A 
ATOM     36  C   UNL     1      -0.252 -11.121  10.373  1.00  0.00     0.010 A 
ATOM     37  C   UNL     1       0.587 -12.128  10.880  1.00  0.00    -0.014 A 
BRANCH  37  38
ATOM     38  C   UNL     1       0.225 -12.900  12.092  1.00  0.00     0.031 A 
ATOM     39  C   UNL     1      -0.734 -14.052  11.958  1.00  0.00     0.074 A 
ATOM     40  C   UNL     1       0.801 -12.642  13.279  1.00  0.00     0.049 A 
ATOM     41  N   UNL     1      -1.081 -14.948  12.847  1.00  0.00    -0.248 NA
ATOM     42  C   UNL     1      -1.384 -14.218  10.648  1.00  0.00     0.031 C 
ATOM     43  C   UNL     1       1.753 -11.566  13.547  1.00  0.00     0.029 A 
ATOM     44  N   UNL     1       0.674 -13.289  14.483  1.00  0.00    -0.354 N 
ATOM     45  C   UNL     1      -1.977 -15.790  12.201  1.00  0.00     0.074 A 
ATOM     46  C   UNL     1      -2.148 -15.280  10.858  1.00  0.00     0.031 C 
ATOM     47  C   UNL     1       2.128 -11.629  14.838  1.00  0.00     0.029 A 
ATOM     48  C   UNL     1       1.446 -12.751  15.481  1.00  0.00     0.049 A 
ATOM     49  H   UNL     1       0.084 -14.066  14.617  1.00  0.00     0.167 HD
ATOM     50  C   UNL     1      -2.595 -16.897  12.675  1.00  0.00     0.031 A 
ATOM     51  C   UNL     1       1.595 -13.128  16.765  1.00  0.00     0.031 A 
ATOM     52  C   UNL     1      -2.443 -17.411  14.007  1.00  0.00     0.049 A 
ATOM     53  C   UNL     1       0.881 -14.350  17.274  1.00  0.00     0.074 A 
ATOM     54  C   UNL     1      -3.015 -18.539  14.568  1.00  0.00     0.029 A 
ATOM     55  N   UNL     1      -1.664 -16.824  14.990  1.00  0.00    -0.354 N 
ATOM     56  N   UNL     1       0.086 -15.170  16.633  1.00  0.00    -0.248 NA
ATOM     57  C   UNL     1       1.106 -14.707  18.684  1.00  0.00     0.031 C 
ATOM     58  C   UNL     1      -2.606 -18.618  15.904  1.00  0.00     0.029 A 
ATOM     59  C   UNL     1      -1.755 -17.555  16.161  1.00  0.00     0.049 A 
ATOM     60  H   UNL     1      -1.126 -16.008  14.873  1.00  0.00     0.167 HD
ATOM     61  C   UNL     1      -0.265 -16.152  17.552  1.00  0.00     0.074 A 
ATOM     62  C   UNL     1       0.411 -15.831  18.791  1.00  0.00     0.031 C 
ATOM     63  C   UNL     1      -1.074 -17.225  17.383  1.00  0.00     0.031 A 
BRANCH  50  64
ATOM     64  C   UNL     1      -3.511 -17.620  11.734  1.00  0.00    -0.014 A 
ATOM     65  C   UNL     1      -2.998 -18.457  10.732  1.00  0.00     0.009 A 
ATOM     66  C   UNL     1      -4.901 -17.481  11.866  1.00  0.00     0.009 A 
ATOM     67  C   UNL     1      -3.861 -19.125   9.862  1.00  0.00     0.001 A 
ATOM     68  C   UNL     1      -5.761 -18.162  11.005  1.00  0.00     0.001 A 
ATOM     69  C   UNL     1      -5.242 -18.978  10.000  1.00  0.00     0.000 A 
ENDBRANCH  50  64
BRANCH  51  70
ATOM     70  C   UNL     1       2.472 -12.346  17.671  1.00  0.00    -0.014 A 
ATOM     71  C   UNL     1       3.729 -12.837  18.052  1.00  0.00     0.009 A 
ATOM     72  C   UNL     1       2.034 -11.115  18.184  1.00  0.00     0.009 A 
ATOM     73  C   UNL     1       4.521 -12.121  18.952  1.00  0.00     0.001 A 
ATOM     74  C   UNL     1       2.837 -10.394  19.069  1.00  0.00     0.001 A 
ATOM     75  C   UNL     1       4.076 -10.901  19.458  1.00  0.00     0.000 A 
ENDBRANCH  51  70
BRANCH  63  76
ATOM     76  C   UNL     1      -1.252 -18.141  18.558  1.00  0.00    -0.014 A 
ATOM     77  C   UNL     1      -2.089 -17.790  19.627  1.00  0.00     0.009 A 
ATOM     78  C   UNL     1      -0.601 -19.384  18.577  1.00  0.00     0.009 A 
ATOM     79  C   UNL     1      -2.249 -18.658  20.709  1.00  0.00     0.001 A 
ATOM     80  C   UNL     1      -0.778 -20.257  19.651  1.00  0.00     0.001 A 
ATOM     81  C   UNL     1      -1.596 -19.890  20.719  1.00  0.00     0.000 A 
ENDBRANCH  63  76
ENDBRANCH  37  38
ENDBRANCH  30  32
ENDBRANCH  29  30
ENDBRANCH  28  29
ENDBRANCH  27  28
ENDBRANCH   1  27
TORSDOF 17
