REMARK SMILES C[C@@H](C(=O)OCCOCCOC(=O)c1ccc(-c2c3nc(c(-c4ccccc4)c4ccc([nH]4)c(-c4ccccc4)c4nc(c(-c5ccccc5)c5ccc2[nH]5)C=C4)C=C3)cc1)c1ccc(-c2cccc(OC(=O)Nc3ccccc3)c2)c(F)c1
REMARK SMILES IDX 6 1 5 2 3 3 4 4 2 5 1 6 62 7 63 8 84 9 64 10 82 11 65 12
REMARK SMILES IDX 83 13 66 14 67 15 81 16 68 17 70 18 69 19 71 20 72 21 73 22
REMARK SMILES IDX 74 23 75 25 76 26 80 27 77 28 79 29 78 30 7 31 8 32 9 33
REMARK SMILES IDX 10 34 11 35 12 36 13 37 14 38 15 39 61 40 16 41 60 42 17 43
REMARK SMILES IDX 18 44 19 45 54 46 20 47 59 48 53 49 55 50 21 51 58 52 52 53
REMARK SMILES IDX 51 54 22 56 44 57 29 58 43 59 30 60 33 61 42 62 56 63 31 64
REMARK SMILES IDX 32 65 41 67 57 68 34 69 23 70 24 71 28 72 25 73 27 74 26 75
REMARK SMILES IDX 45 76 46 77 50 78 47 79 49 80 48 81 35 82 36 83 40 84 37 85
REMARK SMILES IDX 39 86 38 87
REMARK H PARENT 74 24 55 55 33 66
REMARK Flexibility Score: inf
ROOT
ATOM      1  C   UNL     1       2.300  -3.038   2.634  1.00  0.00     0.261 C 
ENDROOT
BRANCH   1   2
ATOM      2  O   UNL     1       1.983  -2.191   1.518  1.00  0.00    -0.463 OA
BRANCH   2   3
ATOM      3  C   UNL     1       1.183  -2.749   0.567  1.00  0.00     0.313 C 
ATOM      4  O   UNL     1       0.918  -3.946   0.514  1.00  0.00    -0.252 OA
BRANCH   3   5
ATOM      5  C   UNL     1       0.603  -1.715  -0.413  1.00  0.00     0.126 C 
ATOM      6  C   UNL     1       1.399  -0.403  -0.421  1.00  0.00     0.025 C 
BRANCH   5   7
ATOM      7  C   UNL     1      -0.914  -1.555  -0.255  1.00  0.00    -0.031 A 
ATOM      8  C   UNL     1      -1.556  -0.322  -0.051  1.00  0.00     0.005 A 
ATOM      9  C   UNL     1      -1.731  -2.694  -0.345  1.00  0.00     0.044 A 
ATOM     10  C   UNL     1      -2.954  -0.241   0.092  1.00  0.00     0.012 A 
ATOM     11  C   UNL     1      -3.114  -2.610  -0.189  1.00  0.00     0.131 A 
ATOM     12  C   UNL     1      -3.757  -1.389   0.042  1.00  0.00     0.018 A 
ATOM     13  F   UNL     1      -3.827  -3.744  -0.266  1.00  0.00    -0.206 F 
BRANCH  12  14
ATOM     14  C   UNL     1      -5.210  -1.333   0.262  1.00  0.00    -0.012 A 
ATOM     15  C   UNL     1      -6.059  -0.610  -0.591  1.00  0.00     0.009 A 
ATOM     16  C   UNL     1      -5.783  -2.034   1.339  1.00  0.00     0.056 A 
ATOM     17  C   UNL     1      -7.443  -0.601  -0.383  1.00  0.00     0.004 A 
ATOM     18  C   UNL     1      -7.158  -2.009   1.555  1.00  0.00     0.133 A 
ATOM     19  C   UNL     1      -7.993  -1.301   0.689  1.00  0.00     0.047 A 
BRANCH  18  20
ATOM     20  O   UNL     1      -7.816  -2.664   2.626  1.00  0.00    -0.410 OA
BRANCH  20  21
ATOM     21  C   UNL     1      -7.204  -3.212   3.753  1.00  0.00     0.417 C 
ATOM     22  O   UNL     1      -5.993  -3.299   3.938  1.00  0.00    -0.224 OA
ATOM     23  N   UNL     1      -8.061  -3.571   4.761  1.00  0.00    -0.291 N 
ATOM     24  H   UNL     1      -7.619  -3.824   5.603  1.00  0.00     0.173 HD
BRANCH  23  25
ATOM     25  C   UNL     1      -9.461  -3.639   4.796  1.00  0.00     0.044 A 
ATOM     26  C   UNL     1     -10.065  -3.605   6.059  1.00  0.00     0.026 A 
ATOM     27  C   UNL     1     -10.266  -3.773   3.663  1.00  0.00     0.026 A 
ATOM     28  C   UNL     1     -11.454  -3.654   6.186  1.00  0.00     0.002 A 
ATOM     29  C   UNL     1     -11.657  -3.845   3.792  1.00  0.00     0.002 A 
ATOM     30  C   UNL     1     -12.251  -3.774   5.051  1.00  0.00     0.000 A 
ENDBRANCH  23  25
ENDBRANCH  20  21
ENDBRANCH  18  20
ENDBRANCH  12  14
ENDBRANCH   5   7
ENDBRANCH   3   5
ENDBRANCH   2   3
ENDBRANCH   1   2
BRANCH   1  31
ATOM     31  C   UNL     1       2.075  -2.314   3.965  1.00  0.00     0.202 C 
BRANCH  31  32
ATOM     32  O   UNL     1       0.773  -1.783   4.198  1.00  0.00    -0.374 OA
BRANCH  32  33
ATOM     33  C   UNL     1       0.372  -0.638   3.445  1.00  0.00     0.202 C 
BRANCH  33  34
ATOM     34  C   UNL     1       1.067   0.692   3.770  1.00  0.00     0.261 C 
BRANCH  34  35
ATOM     35  O   UNL     1       2.477   0.678   3.469  1.00  0.00    -0.460 OA
BRANCH  35  36
ATOM     36  C   UNL     1       3.285   0.862   4.543  1.00  0.00     0.338 C 
ATOM     37  O   UNL     1       2.951   1.107   5.690  1.00  0.00    -0.246 OA
BRANCH  36  38
ATOM     38  C   UNL     1       4.684   0.550   4.193  1.00  0.00     0.060 A 
ATOM     39  C   UNL     1       5.326  -0.457   4.925  1.00  0.00     0.016 A 
ATOM     40  C   UNL     1       5.388   1.300   3.250  1.00  0.00     0.016 A 
ATOM     41  C   UNL     1       6.688  -0.690   4.749  1.00  0.00     0.010 A 
ATOM     42  C   UNL     1       6.759   1.072   3.082  1.00  0.00     0.010 A 
ATOM     43  C   UNL     1       7.422   0.101   3.855  1.00  0.00    -0.014 A 
BRANCH  43  44
ATOM     44  C   UNL     1       8.902   0.007   3.845  1.00  0.00     0.031 A 
ATOM     45  C   UNL     1       9.708   1.033   4.596  1.00  0.00     0.074 A 
ATOM     46  C   UNL     1       9.525  -1.002   3.210  1.00  0.00     0.049 A 
ATOM     47  N   UNL     1      11.007   1.148   4.707  1.00  0.00    -0.248 NA
ATOM     48  C   UNL     1       8.947   2.065   5.318  1.00  0.00     0.031 C 
ATOM     49  C   UNL     1       8.861  -2.086   2.489  1.00  0.00     0.029 A 
ATOM     50  N   UNL     1      10.863  -1.274   3.072  1.00  0.00    -0.354 N 
ATOM     51  C   UNL     1      11.219   2.265   5.506  1.00  0.00     0.074 A 
ATOM     52  C   UNL     1       9.917   2.810   5.825  1.00  0.00     0.031 C 
ATOM     53  C   UNL     1       9.796  -2.905   1.978  1.00  0.00     0.029 A 
ATOM     54  C   UNL     1      11.121  -2.385   2.308  1.00  0.00     0.049 A 
ATOM     55  H   UNL     1      11.570  -0.725   3.482  1.00  0.00     0.167 HD
ATOM     56  C   UNL     1      12.390   2.788   5.941  1.00  0.00     0.031 A 
ATOM     57  C   UNL     1      12.294  -2.910   1.903  1.00  0.00     0.031 A 
ATOM     58  C   UNL     1      13.687   2.258   5.613  1.00  0.00     0.049 A 
ATOM     59  C   UNL     1      13.584  -2.264   2.331  1.00  0.00     0.074 A 
ATOM     60  C   UNL     1      14.932   2.714   6.012  1.00  0.00     0.029 A 
ATOM     61  N   UNL     1      13.906   1.158   4.799  1.00  0.00    -0.354 N 
ATOM     62  N   UNL     1      13.770  -1.219   3.101  1.00  0.00    -0.248 NA
ATOM     63  C   UNL     1      14.826  -2.876   1.837  1.00  0.00     0.031 C 
ATOM     64  C   UNL     1      15.906   1.922   5.395  1.00  0.00     0.029 A 
ATOM     65  C   UNL     1      15.266   0.936   4.661  1.00  0.00     0.049 A 
ATOM     66  H   UNL     1      13.200   0.614   4.381  1.00  0.00     0.167 HD
ATOM     67  C   UNL     1      15.147  -1.066   3.207  1.00  0.00     0.074 A 
ATOM     68  C   UNL     1      15.749  -2.133   2.433  1.00  0.00     0.031 C 
ATOM     69  C   UNL     1      15.851  -0.127   3.885  1.00  0.00     0.031 A 
BRANCH  56  70
ATOM     70  C   UNL     1      12.319   4.022   6.796  1.00  0.00    -0.014 A 
ATOM     71  C   UNL     1      11.855   3.967   8.120  1.00  0.00     0.009 A 
ATOM     72  C   UNL     1      12.750   5.253   6.278  1.00  0.00     0.009 A 
ATOM     73  C   UNL     1      11.792   5.127   8.896  1.00  0.00     0.001 A 
ATOM     74  C   UNL     1      12.711   6.406   7.064  1.00  0.00     0.001 A 
ATOM     75  C   UNL     1      12.224   6.344   8.369  1.00  0.00     0.000 A 
ENDBRANCH  56  70
BRANCH  57  76
ATOM     76  C   UNL     1      12.305  -4.106   1.020  1.00  0.00    -0.014 A 
ATOM     77  C   UNL     1      12.759  -5.346   1.493  1.00  0.00     0.009 A 
ATOM     78  C   UNL     1      11.874  -4.005  -0.313  1.00  0.00     0.009 A 
ATOM     79  C   UNL     1      12.803  -6.454   0.643  1.00  0.00     0.001 A 
ATOM     80  C   UNL     1      11.892  -5.121  -1.152  1.00  0.00     0.001 A 
ATOM     81  C   UNL     1      12.365  -6.342  -0.675  1.00  0.00     0.000 A 
ENDBRANCH  57  76
BRANCH  69  82
ATOM     82  C   UNL     1      17.351  -0.230   3.852  1.00  0.00    -0.014 A 
ATOM     83  C   UNL     1      18.079   0.088   2.696  1.00  0.00     0.009 A 
ATOM     84  C   UNL     1      18.046  -0.611   5.011  1.00  0.00     0.009 A 
ATOM     85  C   UNL     1      19.473  -0.005   2.691  1.00  0.00     0.001 A 
ATOM     86  C   UNL     1      19.441  -0.675   5.012  1.00  0.00     0.001 A 
ATOM     87  C   UNL     1      20.152  -0.382   3.850  1.00  0.00     0.000 A 
ENDBRANCH  69  82
ENDBRANCH  43  44
ENDBRANCH  36  38
ENDBRANCH  35  36
ENDBRANCH  34  35
ENDBRANCH  33  34
ENDBRANCH  32  33
ENDBRANCH  31  32
ENDBRANCH   1  31
TORSDOF 19
