REMARK SMILES O=C(OCCOCCOC(=O)[C@H]1[C@H]2CC[C@H](C2)[C@@H]1C(=O)Nc1sc2c(c1C(=O)NC1CCCCC1)CCCC2)c1ccc(-c2c3nc(c(-c4ccccc4)c4ccc([nH]4)c(-c4ccccc4)c4nc(c(-c5ccccc5)c5ccc2[nH]5)C=C4)C=C3)cc1
REMARK SMILES IDX 7 1 6 2 5 3 4 4 3 5 2 6 1 7 40 8 41 9 87 10 42 11 86 12
REMARK SMILES IDX 43 13 44 14 45 15 80 16 46 17 85 18 79 19 81 20 47 21 84 22
REMARK SMILES IDX 78 23 77 24 48 26 70 27 55 28 69 29 56 30 59 31 68 32 82 33
REMARK SMILES IDX 57 34 58 35 67 37 83 38 60 39 49 40 50 41 54 42 51 43 53 44
REMARK SMILES IDX 52 45 71 46 72 47 76 48 73 49 75 50 74 51 61 52 62 53 66 54
REMARK SMILES IDX 63 55 65 56 64 57 8 58 9 59 10 60 11 61 12 62 13 63 18 64
REMARK SMILES IDX 14 65 17 66 16 67 15 68 19 69 20 70 21 71 22 73 23 74 26 75
REMARK SMILES IDX 24 76 25 77 39 78 36 79 38 80 37 81 27 82 28 83 29 84 30 86
REMARK SMILES IDX 31 87 35 88 32 89 34 90 33 91
REMARK H PARENT 81 25 59 36 21 72 29 85
REMARK Flexibility Score: inf
ROOT
ATOM      1  C   UNL     1       8.185   2.277  -2.154  1.00  0.00     0.202 C 
ENDROOT
BRANCH   1   2
ATOM      2  O   UNL     1       8.205   3.690  -2.227  1.00  0.00    -0.374 OA
BRANCH   2   3
ATOM      3  C   UNL     1       7.326   4.293  -3.158  1.00  0.00     0.202 C 
BRANCH   3   4
ATOM      4  C   UNL     1       7.881   4.589  -4.551  1.00  0.00     0.261 C 
BRANCH   4   5
ATOM      5  O   UNL     1       8.782   3.557  -4.992  1.00  0.00    -0.460 OA
BRANCH   5   6
ATOM      6  C   UNL     1      10.138   3.670  -5.010  1.00  0.00     0.338 C 
ATOM      7  O   UNL     1      10.838   2.822  -5.549  1.00  0.00    -0.246 OA
BRANCH   6   8
ATOM      8  C   UNL     1      10.770   4.879  -4.429  1.00  0.00     0.060 A 
ATOM      9  C   UNL     1      10.356   5.369  -3.203  1.00  0.00     0.016 A 
ATOM     10  C   UNL     1      11.799   5.545  -5.090  1.00  0.00     0.016 A 
ATOM     11  C   UNL     1      10.697   6.619  -2.765  1.00  0.00     0.010 A 
ATOM     12  C   UNL     1      12.346   6.700  -4.516  1.00  0.00     0.010 A 
ATOM     13  C   UNL     1      11.775   7.253  -3.356  1.00  0.00    -0.014 A 
BRANCH  13  14
ATOM     14  C   UNL     1      12.253   8.479  -2.693  1.00  0.00     0.031 A 
ATOM     15  C   UNL     1      12.238   9.761  -3.454  1.00  0.00     0.074 A 
ATOM     16  C   UNL     1      12.560   8.435  -1.378  1.00  0.00     0.049 A 
ATOM     17  N   UNL     1      12.732  10.919  -3.114  1.00  0.00    -0.248 NA
ATOM     18  C   UNL     1      11.587   9.742  -4.776  1.00  0.00     0.031 C 
ATOM     19  C   UNL     1      12.476   7.243  -0.516  1.00  0.00     0.029 A 
ATOM     20  N   UNL     1      12.948   9.423  -0.513  1.00  0.00    -0.354 N 
ATOM     21  C   UNL     1      12.510  11.748  -4.203  1.00  0.00     0.074 A 
ATOM     22  C   UNL     1      11.835  10.966  -5.214  1.00  0.00     0.031 C 
ATOM     23  C   UNL     1      12.719   7.590   0.754  1.00  0.00     0.029 A 
ATOM     24  C   UNL     1      13.123   8.983   0.778  1.00  0.00     0.049 A 
ATOM     25  H   UNL     1      13.088  10.357  -0.790  1.00  0.00     0.167 HD
ATOM     26  C   UNL     1      12.862  13.046  -4.338  1.00  0.00     0.031 A 
ATOM     27  C   UNL     1      13.623   9.622   1.850  1.00  0.00     0.031 A 
ATOM     28  C   UNL     1      13.530  13.783  -3.301  1.00  0.00     0.049 A 
ATOM     29  C   UNL     1      14.087  11.032   1.644  1.00  0.00     0.074 A 
ATOM     30  C   UNL     1      14.033  15.069  -3.333  1.00  0.00     0.029 A 
ATOM     31  N   UNL     1      13.770  13.285  -2.025  1.00  0.00    -0.354 N 
ATOM     32  N   UNL     1      13.999  11.778   0.567  1.00  0.00    -0.248 NA
ATOM     33  C   UNL     1      14.745  11.680   2.782  1.00  0.00     0.031 C 
ATOM     34  C   UNL     1      14.609  15.336  -2.085  1.00  0.00     0.029 A 
ATOM     35  C   UNL     1      14.415  14.237  -1.259  1.00  0.00     0.049 A 
ATOM     36  H   UNL     1      13.517  12.386  -1.713  1.00  0.00     0.167 HD
ATOM     37  C   UNL     1      14.587  12.988   0.896  1.00  0.00     0.074 A 
ATOM     38  C   UNL     1      14.992  12.884   2.287  1.00  0.00     0.031 C 
ATOM     39  C   UNL     1      14.792  14.082   0.123  1.00  0.00     0.031 A 
BRANCH  26  40
ATOM     40  C   UNL     1      12.601  13.683  -5.670  1.00  0.00    -0.014 A 
ATOM     41  C   UNL     1      11.299  13.998  -6.093  1.00  0.00     0.009 A 
ATOM     42  C   UNL     1      13.674  13.921  -6.543  1.00  0.00     0.009 A 
ATOM     43  C   UNL     1      11.076  14.498  -7.379  1.00  0.00     0.001 A 
ATOM     44  C   UNL     1      13.450  14.446  -7.817  1.00  0.00     0.001 A 
ATOM     45  C   UNL     1      12.151  14.723  -8.238  1.00  0.00     0.000 A 
ENDBRANCH  26  40
BRANCH  27  46
ATOM     46  C   UNL     1      13.813   8.911   3.145  1.00  0.00    -0.014 A 
ATOM     47  C   UNL     1      13.144   9.325   4.306  1.00  0.00     0.009 A 
ATOM     48  C   UNL     1      14.687   7.812   3.232  1.00  0.00     0.009 A 
ATOM     49  C   UNL     1      13.369   8.677   5.525  1.00  0.00     0.001 A 
ATOM     50  C   UNL     1      14.880   7.141   4.442  1.00  0.00     0.001 A 
ATOM     51  C   UNL     1      14.232   7.584   5.591  1.00  0.00     0.000 A 
ENDBRANCH  27  46
BRANCH  39  52
ATOM     52  C   UNL     1      15.447  15.250   0.795  1.00  0.00    -0.014 A 
ATOM     53  C   UNL     1      16.812  15.233   1.115  1.00  0.00     0.009 A 
ATOM     54  C   UNL     1      14.682  16.389   1.091  1.00  0.00     0.009 A 
ATOM     55  C   UNL     1      17.393  16.327   1.756  1.00  0.00     0.001 A 
ATOM     56  C   UNL     1      15.274  17.492   1.702  1.00  0.00     0.001 A 
ATOM     57  C   UNL     1      16.626  17.455   2.043  1.00  0.00     0.000 A 
ENDBRANCH  39  52
ENDBRANCH  13  14
ENDBRANCH   6   8
ENDBRANCH   5   6
ENDBRANCH   4   5
ENDBRANCH   3   4
ENDBRANCH   2   3
ENDBRANCH   1   2
BRANCH   1  58
ATOM     58  C   UNL     1       7.368   1.863  -0.935  1.00  0.00     0.261 C 
BRANCH  58  59
ATOM     59  O   UNL     1       5.983   2.186  -1.162  1.00  0.00    -0.463 OA
BRANCH  59  60
ATOM     60  C   UNL     1       5.564   3.430  -0.813  1.00  0.00     0.310 C 
ATOM     61  O   UNL     1       6.189   4.231  -0.126  1.00  0.00    -0.252 OA
BRANCH  60  62
ATOM     62  C   UNL     1       4.167   3.690  -1.323  1.00  0.00     0.115 C 
ATOM     63  C   UNL     1       3.853   5.164  -1.753  1.00  0.00     0.004 C 
ATOM     64  C   UNL     1       3.692   2.865  -2.540  1.00  0.00     0.096 C 
ATOM     65  C   UNL     1       4.365   5.707  -3.100  1.00  0.00     0.005 C 
ATOM     66  C   UNL     1       2.429   4.925  -2.220  1.00  0.00     0.009 C 
ATOM     67  C   UNL     1       2.830   3.894  -3.298  1.00  0.00     0.003 C 
ATOM     68  C   UNL     1       3.773   4.764  -4.151  1.00  0.00     0.005 C 
BRANCH  64  69
ATOM     69  C   UNL     1       3.136   1.466  -2.197  1.00  0.00     0.229 C 
ATOM     70  O   UNL     1       3.794   0.480  -2.561  1.00  0.00    -0.274 OA
ATOM     71  N   UNL     1       2.070   1.222  -1.386  1.00  0.00    -0.317 N 
ATOM     72  H   UNL     1       2.009   0.306  -1.030  1.00  0.00     0.170 HD
BRANCH  71  73
ATOM     73  C   UNL     1       1.070   2.076  -0.996  1.00  0.00     0.108 A 
ATOM     74  S   UNL     1       0.056   2.667  -2.225  1.00  0.00    -0.122 S 
ATOM     75  C   UNL     1       0.585   2.345   0.289  1.00  0.00     0.078 A 
ATOM     76  C   UNL     1      -0.500   3.860  -1.165  1.00  0.00     0.011 A 
ATOM     77  C   UNL     1      -0.366   3.465   0.162  1.00  0.00    -0.019 A 
ATOM     78  C   UNL     1      -1.041   5.171  -1.659  1.00  0.00     0.047 C 
ATOM     79  C   UNL     1      -1.075   4.284   1.201  1.00  0.00     0.037 C 
ATOM     80  C   UNL     1      -1.165   6.146  -0.482  1.00  0.00     0.006 C 
ATOM     81  C   UNL     1      -1.914   5.446   0.649  1.00  0.00     0.005 C 
BRANCH  75  82
ATOM     82  C   UNL     1       1.170   1.551   1.401  1.00  0.00     0.254 C 
ATOM     83  O   UNL     1       1.651   0.434   1.166  1.00  0.00    -0.269 OA
ATOM     84  N   UNL     1       1.305   1.944   2.708  1.00  0.00    -0.349 N 
ATOM     85  H   UNL     1       1.769   1.283   3.272  1.00  0.00     0.164 HD
BRANCH  84  86
ATOM     86  C   UNL     1       0.904   3.128   3.421  1.00  0.00     0.082 C 
ATOM     87  C   UNL     1       0.670   2.891   4.913  1.00  0.00     0.025 C 
ATOM     88  C   UNL     1       1.879   4.293   3.228  1.00  0.00     0.025 C 
ATOM     89  C   UNL     1       0.001   4.137   5.497  1.00  0.00     0.002 C 
ATOM     90  C   UNL     1       1.357   5.579   3.876  1.00  0.00     0.002 C 
ATOM     91  C   UNL     1       0.867   5.382   5.311  1.00  0.00     0.000 C 
ENDBRANCH  84  86
ENDBRANCH  75  82
ENDBRANCH  71  73
ENDBRANCH  64  69
ENDBRANCH  60  62
ENDBRANCH  59  60
ENDBRANCH  58  59
ENDBRANCH   1  58
TORSDOF 18
