REMARK SMILES Cc1ccc(NC(=O)[C@H]2CC=CC[C@H]2C(=O)OCCOCCOC(=O)c2ccc(-c3c4nc(c(-c5ccccc5)c5ccc([nH]5)c(-c5ccccc5)c5nc(c(-c6ccccc6)c6ccc3[nH]6)C=C5)C=C4)cc2)cc1F
REMARK SMILES IDX 20 1 19 2 18 3 17 4 15 5 16 6 14 7 9 8 10 9 11 10 13 11
REMARK SMILES IDX 12 12 7 13 6 14 8 16 5 17 1 18 2 19 3 20 75 21 4 22 74 23
REMARK SMILES IDX 76 24 21 25 22 26 23 27 24 28 25 29 26 30 27 31 73 32 28 33
REMARK SMILES IDX 72 34 29 35 30 36 31 37 66 38 32 39 71 40 65 41 67 42 33 43
REMARK SMILES IDX 70 44 64 45 63 46 34 48 56 49 41 50 55 51 42 52 45 53 54 54
REMARK SMILES IDX 68 55 43 56 44 57 53 59 69 60 46 61 35 62 36 63 40 64 37 65
REMARK SMILES IDX 39 66 38 67 57 68 58 69 62 70 59 71 61 72 60 73 47 74 48 75
REMARK SMILES IDX 52 76 49 77 51 78 50 79
REMARK H PARENT 6 15 67 47 45 58
REMARK Flexibility Score: inf
ROOT
ATOM      1  O   UNL     1      -1.066   0.654  -2.202  1.00  0.00    -0.374 OA
ENDROOT
BRANCH   1   2
ATOM      2  C   UNL     1      -2.272   0.197  -2.863  1.00  0.00     0.202 C 
BRANCH   2   3
ATOM      3  C   UNL     1      -2.361  -1.135  -3.606  1.00  0.00     0.261 C 
BRANCH   3   4
ATOM      4  O   UNL     1      -2.302  -2.289  -2.756  1.00  0.00    -0.463 OA
BRANCH   4   5
ATOM      5  C   UNL     1      -1.094  -2.889  -2.681  1.00  0.00     0.310 C 
ATOM      6  O   UNL     1      -0.099  -2.506  -3.286  1.00  0.00    -0.252 OA
BRANCH   5   7
ATOM      7  C   UNL     1      -1.085  -4.156  -1.849  1.00  0.00     0.116 C 
ATOM      8  C   UNL     1      -1.686  -4.184  -0.432  1.00  0.00     0.097 C 
ATOM      9  C   UNL     1      -1.629  -5.585   0.217  1.00  0.00     0.041 C 
ATOM     10  C   UNL     1      -1.559  -6.741  -0.730  1.00  0.00    -0.030 C 
ATOM     11  C   UNL     1      -1.637  -5.271  -2.734  1.00  0.00     0.043 C 
ATOM     12  C   UNL     1      -1.576  -6.605  -2.061  1.00  0.00    -0.030 C 
BRANCH   8  13
ATOM     13  C   UNL     1      -2.982  -3.413  -0.228  1.00  0.00     0.228 C 
ATOM     14  N   UNL     1      -2.965  -2.040  -0.129  1.00  0.00    -0.326 N 
ATOM     15  H   UNL     1      -3.857  -1.626  -0.169  1.00  0.00     0.169 HD
ATOM     16  O   UNL     1      -4.072  -3.987  -0.199  1.00  0.00    -0.274 OA
BRANCH  14  17
ATOM     17  C   UNL     1      -1.910  -1.113   0.019  1.00  0.00     0.044 A 
ATOM     18  C   UNL     1       1.887   2.264   0.426  1.00  0.00     0.047 C 
ATOM     19  C   UNL     1       0.682   1.370   0.459  1.00  0.00    -0.015 A 
ATOM     20  C   UNL     1      -0.935   1.906  -0.070  1.00  0.00     0.008 A 
ATOM     21  C   UNL     1       1.005  -0.339   0.743  1.00  0.00     0.128 A 
ATOM     22  C   UNL     1      -2.258   0.675  -0.262  1.00  0.00     0.026 A 
ATOM     23  C   UNL     1      -0.250  -1.568   0.560  1.00  0.00     0.065 A 
ATOM     24  F   UNL     1       2.251  -0.737   1.034  1.00  0.00    -0.207 F 
ENDBRANCH  14  17
ENDBRANCH   8  13
ENDBRANCH   5   7
ENDBRANCH   4   5
ENDBRANCH   3   4
ENDBRANCH   2   3
ENDBRANCH   1   2
BRANCH   1  25
ATOM     25  C   UNL     1      -0.443   0.026  -0.844  1.00  0.00     0.202 C 
BRANCH  25  26
ATOM     26  C   UNL     1      -1.019   0.283   1.251  1.00  0.00     0.261 C 
BRANCH  26  27
ATOM     27  O   UNL     1      -2.589  -0.080   1.884  1.00  0.00    -0.460 OA
BRANCH  27  28
ATOM     28  C   UNL     1      -3.573   0.864   2.045  1.00  0.00     0.338 C 
ATOM     29  O   UNL     1      -3.362   2.046   2.274  1.00  0.00    -0.246 OA
BRANCH  28  30
ATOM     30  C   UNL     1      -4.933   0.416   1.521  1.00  0.00     0.060 A 
ATOM     31  C   UNL     1      -5.501   1.139   0.445  1.00  0.00     0.016 A 
ATOM     32  C   UNL     1      -5.712  -0.586   2.099  1.00  0.00     0.016 A 
ATOM     33  C   UNL     1      -6.806   0.908  -0.022  1.00  0.00     0.010 A 
ATOM     34  C   UNL     1      -7.056  -0.776   1.673  1.00  0.00     0.010 A 
ATOM     35  C   UNL     1      -7.632   0.004   0.645  1.00  0.00    -0.014 A 
BRANCH  35  36
ATOM     36  C   UNL     1      -9.120   0.099   0.461  1.00  0.00     0.031 A 
ATOM     37  C   UNL     1      -9.921   0.842   1.510  1.00  0.00     0.074 A 
ATOM     38  C   UNL     1      -9.767  -0.372  -0.625  1.00  0.00     0.049 A 
ATOM     39  N   UNL     1     -11.218   0.985   1.637  1.00  0.00    -0.248 NA
ATOM     40  C   UNL     1      -9.142   1.519   2.561  1.00  0.00     0.031 C 
ATOM     41  C   UNL     1      -9.139  -1.008  -1.780  1.00  0.00     0.029 A 
ATOM     42  N   UNL     1     -11.113  -0.393  -0.927  1.00  0.00    -0.354 N 
ATOM     43  C   UNL     1     -11.407   1.730   2.800  1.00  0.00     0.074 A 
ATOM     44  C   UNL     1     -10.095   1.997   3.345  1.00  0.00     0.031 C 
ATOM     45  C   UNL     1     -10.096  -1.378  -2.652  1.00  0.00     0.029 A 
ATOM     46  C   UNL     1     -11.410  -1.050  -2.099  1.00  0.00     0.049 A 
ATOM     47  H   UNL     1     -11.799   0.025  -0.356  1.00  0.00     0.167 HD
ATOM     48  C   UNL     1     -12.564   2.150   3.370  1.00  0.00     0.031 A 
ATOM     49  C   UNL     1     -12.598  -1.387  -2.646  1.00  0.00     0.031 A 
ATOM     50  C   UNL     1     -13.874   1.885   2.833  1.00  0.00     0.049 A 
ATOM     51  C   UNL     1     -13.878  -1.006  -1.943  1.00  0.00     0.074 A 
ATOM     52  C   UNL     1     -15.106   2.270   3.334  1.00  0.00     0.029 A 
ATOM     53  N   UNL     1     -14.122   1.164   1.675  1.00  0.00    -0.354 N 
ATOM     54  N   UNL     1     -14.043  -0.322  -0.836  1.00  0.00    -0.248 NA
ATOM     55  C   UNL     1     -15.138  -1.443  -2.567  1.00  0.00     0.031 C 
ATOM     56  C   UNL     1     -16.101   1.717   2.523  1.00  0.00     0.029 A 
ATOM     57  C   UNL     1     -15.488   1.062   1.467  1.00  0.00     0.049 A 
ATOM     58  H   UNL     1     -13.431   0.781   1.089  1.00  0.00     0.167 HD
ATOM     59  C   UNL     1     -15.418  -0.217  -0.652  1.00  0.00     0.074 A 
ATOM     60  C   UNL     1     -16.043  -0.893  -1.770  1.00  0.00     0.031 C 
ATOM     61  C   UNL     1     -16.102   0.388   0.351  1.00  0.00     0.031 A 
BRANCH  48  62
ATOM     62  C   UNL     1     -12.471   2.889   4.681  1.00  0.00    -0.014 A 
ATOM     63  C   UNL     1     -11.928   4.181   4.769  1.00  0.00     0.009 A 
ATOM     64  C   UNL     1     -12.971   2.289   5.849  1.00  0.00     0.009 A 
ATOM     65  C   UNL     1     -11.850   4.836   6.002  1.00  0.00     0.001 A 
ATOM     66  C   UNL     1     -12.925   2.959   7.073  1.00  0.00     0.001 A 
ATOM     67  C   UNL     1     -12.353   4.227   7.151  1.00  0.00     0.000 A 
ENDBRANCH  48  62
BRANCH  49  68
ATOM     68  C   UNL     1     -12.648  -2.174  -3.914  1.00  0.00    -0.014 A 
ATOM     69  C   UNL     1     -13.187  -1.622  -5.088  1.00  0.00     0.009 A 
ATOM     70  C   UNL     1     -12.183  -3.499  -3.949  1.00  0.00     0.009 A 
ATOM     71  C   UNL     1     -13.276  -2.384  -6.258  1.00  0.00     0.001 A 
ATOM     72  C   UNL     1     -12.239  -4.246  -5.129  1.00  0.00     0.001 A 
ATOM     73  C   UNL     1     -12.794  -3.691  -6.280  1.00  0.00     0.000 A 
ENDBRANCH  49  68
BRANCH  61  74
ATOM     74  C   UNL     1     -17.605   0.397   0.264  1.00  0.00    -0.014 A 
ATOM     75  C   UNL     1     -18.362  -0.775   0.426  1.00  0.00     0.009 A 
ATOM     76  C   UNL     1     -18.278   1.612   0.057  1.00  0.00     0.009 A 
ATOM     77  C   UNL     1     -19.756  -0.734   0.339  1.00  0.00     0.001 A 
ATOM     78  C   UNL     1     -19.672   1.656   0.008  1.00  0.00     0.001 A 
ATOM     79  C   UNL     1     -20.410   0.481   0.137  1.00  0.00     0.000 A 
ENDBRANCH  61  74
ENDBRANCH  35  36
ENDBRANCH  28  30
ENDBRANCH  27  28
ENDBRANCH  26  27
ENDBRANCH  25  26
ENDBRANCH   1  25
TORSDOF 16
