REMARK SMILES Cc1c(Cl)cccc1NC(=O)NCc1cn([C@@H]2C[NH2+][C@H](C(=O)OCCOCCOC(=O)c3ccc(-c4c5nc(c(-c6ccccc6)c6ccc([nH]6)c(-c6ccccc6)c6nc(c(-c7ccccc7)c7ccc4[nH]7)C=C6)C=C5)cc3)C2)nn1
REMARK SMILES IDX 25 1 24 2 23 3 21 4 22 5 20 6 17 7 18 8 80 9 19 10 16 13
REMARK SMILES IDX 14 14 15 15 82 16 81 17 13 18 12 19 9 20 10 21 11 23 8 25
REMARK SMILES IDX 1 26 2 27 3 28 4 29 5 30 7 31 6 32 26 33 27 34 28 35 29 36
REMARK SMILES IDX 30 37 31 38 32 39 33 40 79 41 34 42 78 43 35 44 36 45 37 46
REMARK SMILES IDX 72 47 38 48 77 49 71 50 73 51 39 52 76 53 70 54 69 55 40 57
REMARK SMILES IDX 62 58 47 59 61 60 48 61 51 62 60 63 74 64 49 65 50 66 59 68
REMARK SMILES IDX 75 69 52 70 41 71 42 72 46 73 43 74 45 75 44 76 63 77 64 78
REMARK SMILES IDX 68 79 65 80 67 81 66 82 53 83 54 84 58 85 55 86 57 87 56 88
REMARK H PARENT 19 11 19 12 9 22 12 24 73 56 51 67
REMARK Flexibility Score: inf
ROOT
ATOM      1  C   UNL     1      -3.738  -8.855  -0.474  1.00  0.00     0.202 C 
ENDROOT
BRANCH   1   2
ATOM      2  C   UNL     1      -3.631  -7.330  -0.461  1.00  0.00     0.261 C 
BRANCH   2   3
ATOM      3  O   UNL     1      -3.616  -6.807   0.877  1.00  0.00    -0.459 OA
BRANCH   3   4
ATOM      4  C   UNL     1      -4.639  -5.960   1.185  1.00  0.00     0.365 C 
ATOM      5  O   UNL     1      -5.455  -5.535   0.374  1.00  0.00    -0.245 OA
BRANCH   4   6
ATOM      6  C   UNL     1      -4.759  -5.731   2.705  1.00  0.00     0.295 C 
ATOM      7  C   UNL     1      -4.656  -3.449   3.549  1.00  0.00     0.170 C 
ATOM      8  C   UNL     1      -3.265  -4.047   3.335  1.00  0.00     0.289 C 
ATOM      9  C   UNL     1      -5.622  -4.513   3.027  1.00  0.00     0.110 C 
ATOM     10  N   UNL     1      -3.449  -5.503   3.363  1.00  0.00    -0.333 N 
ATOM     11  H   UNL     1      -3.465  -5.845   4.324  1.00  0.00     0.347 HD
ATOM     12  H   UNL     1      -2.691  -5.996   2.892  1.00  0.00     0.347 HD
BRANCH   7  13
ATOM     13  N   UNL     1      -4.812  -2.179   2.882  1.00  0.00    -0.243 N 
ATOM     14  C   UNL     1      -4.878  -0.590   1.423  1.00  0.00     0.102 A 
ATOM     15  C   UNL     1      -4.650  -1.940   1.557  1.00  0.00     0.137 A 
ATOM     16  N   UNL     1      -5.222  -0.075   2.646  1.00  0.00    -0.134 NA
ATOM     17  N   UNL     1      -5.176  -1.065   3.537  1.00  0.00    -0.067 NA
BRANCH  14  18
ATOM     18  C   UNL     1      -4.827   0.144   0.146  1.00  0.00     0.178 C 
BRANCH  18  19
ATOM     19  N   UNL     1      -4.533   1.543   0.250  1.00  0.00    -0.332 N 
ATOM     20  N   UNL     1      -2.276   2.048  -0.430  1.00  0.00    -0.308 N 
ATOM     21  C   UNL     1      -3.552   2.349  -0.144  1.00  0.00     0.319 C 
ATOM     22  H   UNL     1      -1.788   2.853  -0.722  1.00  0.00     0.171 HD
ATOM     23  O   UNL     1      -3.830   3.557  -0.164  1.00  0.00    -0.248 OA
ATOM     24  H   UNL     1      -5.236   2.030   0.737  1.00  0.00     0.165 HD
BRANCH  20  25
ATOM     25  C   UNL     1      -1.425   0.926  -0.438  1.00  0.00     0.047 A 
ATOM     26  C   UNL     1       0.584   2.404   0.196  1.00  0.00     0.048 C 
ATOM     27  C   UNL     1      -0.077   1.063  -0.020  1.00  0.00    -0.009 A 
ATOM     28  C   UNL     1       0.708  -0.106   0.127  1.00  0.00     0.046 A 
ATOM     29  Cl  UNL     1       2.360  -0.046   0.645  1.00  0.00    -0.084 Cl
ATOM     30  C   UNL     1       0.192  -1.368  -0.165  1.00  0.00     0.021 A 
ATOM     31  C   UNL     1      -1.825  -0.315  -0.928  1.00  0.00     0.026 A 
ATOM     32  C   UNL     1      -1.064  -1.468  -0.738  1.00  0.00     0.004 A 
ENDBRANCH  20  25
ENDBRANCH  18  19
ENDBRANCH  14  18
ENDBRANCH   7  13
ENDBRANCH   4   6
ENDBRANCH   3   4
ENDBRANCH   2   3
ENDBRANCH   1   2
BRANCH   1  33
ATOM     33  O   UNL     1      -4.881  -9.477   0.114  1.00  0.00    -0.374 OA
BRANCH  33  34
ATOM     34  C   UNL     1      -5.189  -9.296   1.491  1.00  0.00     0.202 C 
BRANCH  34  35
ATOM     35  C   UNL     1      -4.284  -9.922   2.545  1.00  0.00     0.261 C 
BRANCH  35  36
ATOM     36  O   UNL     1      -2.932  -9.537   2.378  1.00  0.00    -0.460 OA
BRANCH  36  37
ATOM     37  C   UNL     1      -2.196 -10.438   1.696  1.00  0.00     0.338 C 
ATOM     38  O   UNL     1      -2.602 -11.443   1.121  1.00  0.00    -0.246 OA
BRANCH  37  39
ATOM     39  C   UNL     1      -0.776 -10.119   1.864  1.00  0.00     0.060 A 
ATOM     40  C   UNL     1       0.087 -11.125   1.429  1.00  0.00     0.016 A 
ATOM     41  C   UNL     1      -0.422  -9.192   2.854  1.00  0.00     0.016 A 
ATOM     42  C   UNL     1       1.137 -11.444   2.248  1.00  0.00     0.010 A 
ATOM     43  C   UNL     1       0.611  -9.527   3.687  1.00  0.00     0.010 A 
ATOM     44  C   UNL     1       1.295 -10.712   3.429  1.00  0.00    -0.014 A 
BRANCH  44  45
ATOM     45  C   UNL     1       2.272 -11.182   4.375  1.00  0.00     0.031 A 
ATOM     46  C   UNL     1       3.645 -10.859   3.950  1.00  0.00     0.074 A 
ATOM     47  C   UNL     1       1.928 -11.772   5.532  1.00  0.00     0.049 A 
ATOM     48  N   UNL     1       4.553 -11.686   3.561  1.00  0.00    -0.248 NA
ATOM     49  C   UNL     1       3.972  -9.441   3.729  1.00  0.00     0.031 C 
ATOM     50  C   UNL     1       0.603 -11.902   6.142  1.00  0.00     0.029 A 
ATOM     51  N   UNL     1       2.751 -12.279   6.482  1.00  0.00    -0.354 N 
ATOM     52  C   UNL     1       5.641 -10.898   3.216  1.00  0.00     0.074 A 
ATOM     53  C   UNL     1       5.161  -9.543   3.140  1.00  0.00     0.031 C 
ATOM     54  C   UNL     1       0.752 -12.205   7.454  1.00  0.00     0.029 A 
ATOM     55  C   UNL     1       2.167 -12.402   7.733  1.00  0.00     0.049 A 
ATOM     56  H   UNL     1       3.683 -12.538   6.300  1.00  0.00     0.167 HD
ATOM     57  C   UNL     1       6.909 -11.380   3.285  1.00  0.00     0.031 A 
ATOM     58  C   UNL     1       2.830 -12.554   8.907  1.00  0.00     0.031 A 
ATOM     59  C   UNL     1       6.925 -12.816   3.382  1.00  0.00     0.049 A 
ATOM     60  C   UNL     1       4.209 -13.006   8.585  1.00  0.00     0.074 A 
ATOM     61  C   UNL     1       6.499 -13.844   2.566  1.00  0.00     0.029 A 
ATOM     62  N   UNL     1       7.062 -13.354   4.642  1.00  0.00    -0.354 N 
ATOM     63  N   UNL     1       4.473 -14.183   8.092  1.00  0.00    -0.248 NA
ATOM     64  C   UNL     1       5.228 -11.991   8.342  1.00  0.00     0.031 C 
ATOM     65  C   UNL     1       5.961 -14.819   3.453  1.00  0.00     0.029 A 
ATOM     66  C   UNL     1       6.150 -14.370   4.762  1.00  0.00     0.049 A 
ATOM     67  H   UNL     1       7.701 -13.062   5.332  1.00  0.00     0.167 HD
ATOM     68  C   UNL     1       5.433 -13.952   7.116  1.00  0.00     0.074 A 
ATOM     69  C   UNL     1       5.934 -12.604   7.384  1.00  0.00     0.031 C 
ATOM     70  C   UNL     1       5.513 -14.745   6.006  1.00  0.00     0.031 A 
BRANCH  57  71
ATOM     71  C   UNL     1       8.079 -10.534   3.706  1.00  0.00    -0.014 A 
ATOM     72  C   UNL     1       9.354 -11.121   3.722  1.00  0.00     0.009 A 
ATOM     73  C   UNL     1       7.943  -9.291   4.355  1.00  0.00     0.009 A 
ATOM     74  C   UNL     1      10.412 -10.533   4.422  1.00  0.00     0.001 A 
ATOM     75  C   UNL     1       9.007  -8.680   5.018  1.00  0.00     0.001 A 
ATOM     76  C   UNL     1      10.235  -9.318   5.078  1.00  0.00     0.000 A 
ENDBRANCH  57  71
BRANCH  58  77
ATOM     77  C   UNL     1       2.450 -12.046  10.245  1.00  0.00    -0.014 A 
ATOM     78  C   UNL     1       3.083 -12.517  11.406  1.00  0.00     0.009 A 
ATOM     79  C   UNL     1       1.633 -10.905  10.368  1.00  0.00     0.009 A 
ATOM     80  C   UNL     1       2.928 -11.854  12.633  1.00  0.00     0.001 A 
ATOM     81  C   UNL     1       1.474 -10.246  11.591  1.00  0.00     0.001 A 
ATOM     82  C   UNL     1       2.134 -10.712  12.722  1.00  0.00     0.000 A 
ENDBRANCH  58  77
BRANCH  70  83
ATOM     83  C   UNL     1       4.659 -15.989   5.964  1.00  0.00    -0.014 A 
ATOM     84  C   UNL     1       3.253 -15.954   5.999  1.00  0.00     0.009 A 
ATOM     85  C   UNL     1       5.286 -17.215   5.700  1.00  0.00     0.009 A 
ATOM     86  C   UNL     1       2.501 -17.116   5.800  1.00  0.00     0.001 A 
ATOM     87  C   UNL     1       4.535 -18.371   5.479  1.00  0.00     0.001 A 
ATOM     88  C   UNL     1       3.143 -18.323   5.534  1.00  0.00     0.000 A 
ENDBRANCH  70  83
ENDBRANCH  44  45
ENDBRANCH  37  39
ENDBRANCH  36  37
ENDBRANCH  35  36
ENDBRANCH  34  35
ENDBRANCH  33  34
ENDBRANCH   1  33
TORSDOF 18
