REMARK SMILES COc1ccc(N2C(=O)/C(=C/c3c(C(=O)OCCOCCOC(=O)c4ccc(-c5c6nc(c(-c7ccccc7)c7ccc([nH]7)c(-c7ccccc7)c7nc(c(-c8ccccc8)c8ccc5[nH]8)C=C7)C=C6)cc4)[nH]c4cc(OC)ccc34)SC2=S)cc1
REMARK SMILES IDX 18 1 17 2 16 3 14 4 15 5 13 6 12 7 81 8 73 9 74 10 80 11
REMARK SMILES IDX 75 13 79 14 76 15 11 16 7 17 8 18 83 19 9 20 10 21 82 22
REMARK SMILES IDX 84 23 6 24 3 25 4 26 86 27 5 28 85 29 2 30 1 31 77 32 78 33
REMARK SMILES IDX 19 34 20 35 21 36 22 37 23 38 24 39 25 40 26 41 72 42 27 43
REMARK SMILES IDX 71 44 28 45 29 46 30 47 65 48 31 49 70 50 64 51 66 52 32 53
REMARK SMILES IDX 69 54 63 55 62 56 33 58 55 59 40 60 54 61 41 62 44 63 53 64
REMARK SMILES IDX 67 65 42 66 43 67 52 69 68 70 45 71 34 72 35 73 39 74 36 75
REMARK SMILES IDX 38 76 37 77 56 78 57 79 61 80 58 81 60 82 59 83 46 84 47 85
REMARK SMILES IDX 51 86 48 87 50 88 49 89
REMARK H PARENT 73 12 66 57 44 68
REMARK Flexibility Score: inf
ROOT
ATOM      1  C   UNL     1       4.135   7.788   5.334  1.00  0.00     0.202 C 
ENDROOT
BRANCH   1   2
ATOM      2  C   UNL     1       4.743   6.427   5.694  1.00  0.00     0.261 C 
BRANCH   2   3
ATOM      3  O   UNL     1       4.269   5.923   6.949  1.00  0.00    -0.459 OA
BRANCH   3   4
ATOM      4  C   UNL     1       5.154   6.069   7.982  1.00  0.00     0.355 C 
ATOM      5  O   UNL     1       6.290   6.484   7.885  1.00  0.00    -0.244 OA
BRANCH   4   6
ATOM      6  C   UNL     1       4.504   5.825   9.253  1.00  0.00     0.133 A 
ATOM      7  C   UNL     1       3.459   5.016   9.697  1.00  0.00     0.016 A 
ATOM      8  C   UNL     1       3.251   5.307  11.095  1.00  0.00     0.008 A 
ATOM      9  N   UNL     1       4.920   6.566  10.331  1.00  0.00    -0.348 N 
ATOM     10  C   UNL     1       4.116   6.355  11.414  1.00  0.00     0.050 A 
ATOM     11  C   UNL     1       2.405   4.843  12.131  1.00  0.00     0.015 A 
ATOM     12  H   UNL     1       5.697   7.171  10.324  1.00  0.00     0.167 HD
ATOM     13  C   UNL     1       4.108   7.031  12.636  1.00  0.00     0.073 A 
ATOM     14  C   UNL     1       2.426   5.474  13.397  1.00  0.00     0.047 A 
ATOM     15  C   UNL     1       3.249   6.574  13.630  1.00  0.00     0.120 A 
BRANCH   7  16
ATOM     16  C   UNL     1       2.676   4.182   8.819  1.00  0.00     0.032 C 
ATOM     17  N   UNL     1       3.308   2.456   5.717  1.00  0.00    -0.261 N 
ATOM     18  C   UNL     1       2.406   2.902   6.695  1.00  0.00     0.270 C 
ATOM     19  C   UNL     1       4.642   2.410   6.110  1.00  0.00     0.152 C 
ATOM     20  O   UNL     1       1.190   3.021   6.601  1.00  0.00    -0.268 OA
ATOM     21  C   UNL     1       3.158   3.294   7.929  1.00  0.00     0.081 C 
ATOM     22  S   UNL     1       4.762   2.686   7.842  1.00  0.00    -0.054 SA
ATOM     23  S   UNL     1       6.038   2.288   5.192  1.00  0.00    -0.051 S 
BRANCH  17  24
ATOM     24  C   UNL     1       2.875   2.166   4.380  1.00  0.00     0.051 A 
ATOM     25  C   UNL     1       2.100   1.645   1.705  1.00  0.00     0.119 A 
ATOM     26  C   UNL     1       1.601   2.746   2.391  1.00  0.00     0.048 A 
ATOM     27  C   UNL     1       3.007   0.809   2.341  1.00  0.00     0.048 A 
ATOM     28  C   UNL     1       1.960   2.994   3.724  1.00  0.00     0.030 A 
ATOM     29  C   UNL     1       3.385   1.067   3.668  1.00  0.00     0.030 A 
BRANCH  25  30
ATOM     30  O   UNL     1       1.665   1.501   0.418  1.00  0.00    -0.497 OA
ATOM     31  C   UNL     1       1.491   0.152  -0.000  1.00  0.00     0.278 C 
ENDBRANCH  25  30
ENDBRANCH  17  24
ENDBRANCH   7  16
BRANCH  15  32
ATOM     32  O   UNL     1       3.226   7.342  14.762  1.00  0.00    -0.497 OA
ATOM     33  C   UNL     1       3.304   6.612  15.979  1.00  0.00     0.278 C 
ENDBRANCH  15  32
ENDBRANCH   4   6
ENDBRANCH   3   4
ENDBRANCH   2   3
ENDBRANCH   1   2
BRANCH   1  34
ATOM     34  O   UNL     1       4.246   8.819   6.310  1.00  0.00    -0.374 OA
BRANCH  34  35
ATOM     35  C   UNL     1       3.333   8.815   7.408  1.00  0.00     0.202 C 
BRANCH  35  36
ATOM     36  C   UNL     1       1.858   9.097   7.111  1.00  0.00     0.261 C 
BRANCH  36  37
ATOM     37  O   UNL     1       1.187   7.981   6.490  1.00  0.00    -0.460 OA
BRANCH  37  38
ATOM     38  C   UNL     1       0.724   8.222   5.240  1.00  0.00     0.338 C 
ATOM     39  O   UNL     1       0.889   9.236   4.581  1.00  0.00    -0.246 OA
BRANCH  38  40
ATOM     40  C   UNL     1       0.053   7.033   4.679  1.00  0.00     0.060 A 
ATOM     41  C   UNL     1       0.336   6.700   3.351  1.00  0.00     0.016 A 
ATOM     42  C   UNL     1      -0.939   6.342   5.382  1.00  0.00     0.016 A 
ATOM     43  C   UNL     1      -0.403   5.705   2.713  1.00  0.00     0.010 A 
ATOM     44  C   UNL     1      -1.690   5.351   4.732  1.00  0.00     0.010 A 
ATOM     45  C   UNL     1      -1.442   5.041   3.387  1.00  0.00    -0.014 A 
BRANCH  45  46
ATOM     46  C   UNL     1      -2.324   4.122   2.616  1.00  0.00     0.031 A 
ATOM     47  C   UNL     1      -3.271   4.709   1.605  1.00  0.00     0.074 A 
ATOM     48  C   UNL     1      -2.228   2.785   2.742  1.00  0.00     0.049 A 
ATOM     49  N   UNL     1      -4.047   4.100   0.745  1.00  0.00    -0.248 NA
ATOM     50  C   UNL     1      -3.362   6.178   1.565  1.00  0.00     0.031 C 
ATOM     51  C   UNL     1      -1.338   2.088   3.665  1.00  0.00     0.029 A 
ATOM     52  N   UNL     1      -2.826   1.771   2.030  1.00  0.00    -0.354 N 
ATOM     53  C   UNL     1      -4.746   5.108   0.092  1.00  0.00     0.074 A 
ATOM     54  C   UNL     1      -4.265   6.368   0.616  1.00  0.00     0.031 C 
ATOM     55  C   UNL     1      -1.329   0.779   3.360  1.00  0.00     0.029 A 
ATOM     56  C   UNL     1      -2.282   0.531   2.283  1.00  0.00     0.049 A 
ATOM     57  H   UNL     1      -3.570   1.918   1.402  1.00  0.00     0.167 HD
ATOM     58  C   UNL     1      -5.743   4.995  -0.816  1.00  0.00     0.031 A 
ATOM     59  C   UNL     1      -2.519  -0.661   1.696  1.00  0.00     0.031 A 
ATOM     60  C   UNL     1      -6.275   3.746  -1.285  1.00  0.00     0.049 A 
ATOM     61  C   UNL     1      -3.619  -0.758   0.671  1.00  0.00     0.074 A 
ATOM     62  C   UNL     1      -7.371   3.523  -2.099  1.00  0.00     0.029 A 
ATOM     63  N   UNL     1      -5.745   2.505  -0.973  1.00  0.00    -0.354 N 
ATOM     64  N   UNL     1      -4.307   0.199   0.098  1.00  0.00    -0.248 NA
ATOM     65  C   UNL     1      -4.005  -2.113   0.246  1.00  0.00     0.031 C 
ATOM     66  C   UNL     1      -7.528   2.140  -2.249  1.00  0.00     0.029 A 
ATOM     67  C   UNL     1      -6.499   1.509  -1.569  1.00  0.00     0.049 A 
ATOM     68  H   UNL     1      -4.952   2.353  -0.411  1.00  0.00     0.167 HD
ATOM     69  C   UNL     1      -5.221  -0.438  -0.732  1.00  0.00     0.074 A 
ATOM     70  C   UNL     1      -4.957  -1.859  -0.641  1.00  0.00     0.031 C 
ATOM     71  C   UNL     1      -6.218   0.102  -1.472  1.00  0.00     0.031 A 
BRANCH  58  72
ATOM     72  C   UNL     1      -6.401   6.270  -1.254  1.00  0.00    -0.014 A 
ATOM     73  C   UNL     1      -5.795   7.129  -2.182  1.00  0.00     0.009 A 
ATOM     74  C   UNL     1      -7.641   6.625  -0.700  1.00  0.00     0.009 A 
ATOM     75  C   UNL     1      -6.407   8.338  -2.522  1.00  0.00     0.001 A 
ATOM     76  C   UNL     1      -8.259   7.822  -1.057  1.00  0.00     0.001 A 
ATOM     77  C   UNL     1      -7.638   8.682  -1.960  1.00  0.00     0.000 A 
ENDBRANCH  58  72
BRANCH  59  78
ATOM     78  C   UNL     1      -1.723  -1.874   2.041  1.00  0.00    -0.014 A 
ATOM     79  C   UNL     1      -0.956  -2.511   1.049  1.00  0.00     0.009 A 
ATOM     80  C   UNL     1      -1.758  -2.439   3.324  1.00  0.00     0.009 A 
ATOM     81  C   UNL     1      -0.254  -3.686   1.329  1.00  0.00     0.001 A 
ATOM     82  C   UNL     1      -1.032  -3.599   3.610  1.00  0.00     0.001 A 
ATOM     83  C   UNL     1      -0.288  -4.226   2.611  1.00  0.00     0.000 A 
ENDBRANCH  59  78
BRANCH  71  84
ATOM     84  C   UNL     1      -7.106  -0.843  -2.229  1.00  0.00    -0.014 A 
ATOM     85  C   UNL     1      -8.065  -1.619  -1.559  1.00  0.00     0.009 A 
ATOM     86  C   UNL     1      -7.029  -0.910  -3.628  1.00  0.00     0.009 A 
ATOM     87  C   UNL     1      -8.915  -2.463  -2.275  1.00  0.00     0.001 A 
ATOM     88  C   UNL     1      -7.896  -1.739  -4.343  1.00  0.00     0.001 A 
ATOM     89  C   UNL     1      -8.833  -2.519  -3.666  1.00  0.00     0.000 A 
ENDBRANCH  71  84
ENDBRANCH  45  46
ENDBRANCH  38  40
ENDBRANCH  37  38
ENDBRANCH  36  37
ENDBRANCH  35  36
ENDBRANCH  34  35
ENDBRANCH   1  34
TORSDOF 18
