REMARK SMILES O=C(OCCOCCOC(=O)[C@@H]1CCC[N@@H+](Cc2nccn2C(F)F)C1)c1ccc(-c2c3nc(c(-c4ccccc4)c4ccc([nH]4)c(-c4ccccc4)c4nc(c(-c5ccccc5)c5ccc2[nH]5)C=C4)C=C3)cc1
REMARK SMILES IDX 7 1 6 2 5 3 4 4 3 5 2 6 1 7 27 8 28 9 74 10 29 11 73 12
REMARK SMILES IDX 30 13 31 14 32 15 67 16 33 17 72 18 66 19 68 20 34 21 71 22
REMARK SMILES IDX 65 23 64 24 35 26 57 27 42 28 56 29 43 30 46 31 55 32 69 33
REMARK SMILES IDX 44 34 45 35 54 37 70 38 47 39 36 40 37 41 41 42 38 43 40 44
REMARK SMILES IDX 39 45 58 46 59 47 63 48 60 49 62 50 61 51 48 52 49 53 53 54
REMARK SMILES IDX 50 55 52 56 51 57 8 58 9 59 10 60 11 61 12 62 13 63 26 64
REMARK SMILES IDX 14 65 16 66 15 67 17 69 18 70 19 71 22 72 20 73 21 74 23 75
REMARK SMILES IDX 24 76 25 77
REMARK H PARENT 68 25 46 36 16 68
REMARK Flexibility Score: inf
ROOT
ATOM      1  C   UNL     1       2.677  -0.285   1.897  1.00  0.00     0.202 C 
ENDROOT
BRANCH   1   2
ATOM      2  O   UNL     1       3.893  -0.357   1.143  1.00  0.00    -0.374 OA
BRANCH   2   3
ATOM      3  C   UNL     1       4.335   0.847   0.522  1.00  0.00     0.202 C 
BRANCH   3   4
ATOM      4  C   UNL     1       4.558   0.766  -0.982  1.00  0.00     0.261 C 
BRANCH   4   5
ATOM      5  O   UNL     1       3.367   0.826  -1.792  1.00  0.00    -0.460 OA
BRANCH   5   6
ATOM      6  C   UNL     1       2.204   0.373  -1.264  1.00  0.00     0.338 C 
ATOM      7  O   UNL     1       1.347   1.095  -0.794  1.00  0.00    -0.246 OA
BRANCH   6   8
ATOM      8  C   UNL     1       2.001  -1.074  -1.528  1.00  0.00     0.060 A 
ATOM      9  C   UNL     1       3.057  -1.889  -1.938  1.00  0.00     0.016 A 
ATOM     10  C   UNL     1       0.707  -1.603  -1.425  1.00  0.00     0.016 A 
ATOM     11  C   UNL     1       2.815  -3.174  -2.363  1.00  0.00     0.010 A 
ATOM     12  C   UNL     1       0.459  -2.905  -1.851  1.00  0.00     0.010 A 
ATOM     13  C   UNL     1       1.507  -3.656  -2.384  1.00  0.00    -0.014 A 
BRANCH  13  14
ATOM     14  C   UNL     1       1.338  -4.917  -3.092  1.00  0.00     0.031 A 
ATOM     15  C   UNL     1       2.112  -6.085  -2.593  1.00  0.00     0.074 A 
ATOM     16  C   UNL     1       0.597  -5.015  -4.209  1.00  0.00     0.049 A 
ATOM     17  N   UNL     1       3.037  -6.753  -3.207  1.00  0.00    -0.248 NA
ATOM     18  C   UNL     1       1.860  -6.521  -1.215  1.00  0.00     0.031 C 
ATOM     19  C   UNL     1      -0.393  -4.070  -4.730  1.00  0.00     0.029 A 
ATOM     20  N   UNL     1       0.523  -6.063  -5.075  1.00  0.00    -0.354 N 
ATOM     21  C   UNL     1       3.394  -7.789  -2.348  1.00  0.00     0.074 A 
ATOM     22  C   UNL     1       2.695  -7.554  -1.108  1.00  0.00     0.031 C 
ATOM     23  C   UNL     1      -1.137  -4.692  -5.670  1.00  0.00     0.029 A 
ATOM     24  C   UNL     1      -0.574  -6.010  -5.912  1.00  0.00     0.049 A 
ATOM     25  H   UNL     1       1.189  -6.788  -5.103  1.00  0.00     0.167 HD
ATOM     26  C   UNL     1       4.121  -8.867  -2.751  1.00  0.00     0.031 A 
ATOM     27  C   UNL     1      -1.041  -7.014  -6.686  1.00  0.00     0.031 A 
ATOM     28  C   UNL     1       4.833  -8.640  -3.976  1.00  0.00     0.049 A 
ATOM     29  C   UNL     1       0.053  -7.983  -6.908  1.00  0.00     0.074 A 
ATOM     30  C   UNL     1       5.849  -7.799  -4.379  1.00  0.00     0.029 A 
ATOM     31  N   UNL     1       4.324  -9.190  -5.125  1.00  0.00    -0.354 N 
ATOM     32  N   UNL     1       1.102  -7.738  -7.640  1.00  0.00    -0.248 NA
ATOM     33  C   UNL     1       0.173  -9.125  -6.015  1.00  0.00     0.031 C 
ATOM     34  C   UNL     1       5.594  -7.538  -5.756  1.00  0.00     0.029 A 
ATOM     35  C   UNL     1       4.439  -8.240  -6.105  1.00  0.00     0.049 A 
ATOM     36  H   UNL     1       3.948 -10.094  -5.226  1.00  0.00     0.167 HD
ATOM     37  C   UNL     1       2.138  -8.424  -7.024  1.00  0.00     0.074 A 
ATOM     38  C   UNL     1       1.484  -9.357  -6.114  1.00  0.00     0.031 C 
ATOM     39  C   UNL     1       3.428  -7.981  -7.107  1.00  0.00     0.031 A 
BRANCH  26  40
ATOM     40  C   UNL     1       3.930 -10.250  -2.189  1.00  0.00    -0.014 A 
ATOM     41  C   UNL     1       4.824 -11.273  -2.553  1.00  0.00     0.009 A 
ATOM     42  C   UNL     1       2.744 -10.641  -1.538  1.00  0.00     0.009 A 
ATOM     43  C   UNL     1       4.522 -12.620  -2.318  1.00  0.00     0.001 A 
ATOM     44  C   UNL     1       2.460 -11.982  -1.265  1.00  0.00     0.001 A 
ATOM     45  C   UNL     1       3.338 -12.973  -1.677  1.00  0.00     0.000 A 
ENDBRANCH  26  40
BRANCH  27  46
ATOM     46  C   UNL     1      -2.456  -7.303  -6.982  1.00  0.00    -0.014 A 
ATOM     47  C   UNL     1      -2.817  -8.122  -8.059  1.00  0.00     0.009 A 
ATOM     48  C   UNL     1      -3.456  -6.957  -6.051  1.00  0.00     0.009 A 
ATOM     49  C   UNL     1      -4.130  -8.591  -8.188  1.00  0.00     0.001 A 
ATOM     50  C   UNL     1      -4.767  -7.417  -6.184  1.00  0.00     0.001 A 
ATOM     51  C   UNL     1      -5.101  -8.246  -7.248  1.00  0.00     0.000 A 
ENDBRANCH  27  46
BRANCH  39  52
ATOM     52  C   UNL     1       3.739  -6.889  -8.098  1.00  0.00    -0.014 A 
ATOM     53  C   UNL     1       3.167  -5.609  -8.003  1.00  0.00     0.009 A 
ATOM     54  C   UNL     1       4.759  -7.097  -9.038  1.00  0.00     0.009 A 
ATOM     55  C   UNL     1       3.583  -4.574  -8.846  1.00  0.00     0.001 A 
ATOM     56  C   UNL     1       5.189  -6.057  -9.867  1.00  0.00     0.001 A 
ATOM     57  C   UNL     1       4.598  -4.798  -9.773  1.00  0.00     0.000 A 
ENDBRANCH  39  52
ENDBRANCH  13  14
ENDBRANCH   6   8
ENDBRANCH   5   6
ENDBRANCH   4   5
ENDBRANCH   3   4
ENDBRANCH   2   3
ENDBRANCH   1   2
BRANCH   1  58
ATOM     58  C   UNL     1       2.516   0.734   3.044  1.00  0.00     0.261 C 
BRANCH  58  59
ATOM     59  O   UNL     1       3.137   2.005   2.808  1.00  0.00    -0.463 OA
BRANCH  59  60
ATOM     60  C   UNL     1       4.391   2.114   3.323  1.00  0.00     0.314 C 
ATOM     61  O   UNL     1       4.902   1.268   4.050  1.00  0.00    -0.252 OA
BRANCH  60  62
ATOM     62  C   UNL     1       5.168   3.286   2.730  1.00  0.00     0.154 C 
ATOM     63  C   UNL     1       6.438   3.515   3.546  1.00  0.00     0.027 C 
ATOM     64  C   UNL     1       4.398   4.597   2.554  1.00  0.00     0.278 C 
ATOM     65  C   UNL     1       6.055   4.111   4.892  1.00  0.00     0.062 C 
ATOM     66  N   UNL     1       4.170   5.367   3.789  1.00  0.00    -0.328 N 
ATOM     67  C   UNL     1       5.339   5.439   4.678  1.00  0.00     0.262 C 
ATOM     68  H   UNL     1       3.475   4.857   4.334  1.00  0.00     0.348 HD
BRANCH  66  69
ATOM     69  C   UNL     1       3.626   6.710   3.454  1.00  0.00     0.339 C 
BRANCH  69  70
ATOM     70  C   UNL     1       4.671   7.725   3.048  1.00  0.00     0.168 A 
ATOM     71  N   UNL     1       5.268   7.775   1.868  1.00  0.00    -0.236 NA
ATOM     72  N   UNL     1       5.239   8.648   3.903  1.00  0.00    -0.273 N 
ATOM     73  C   UNL     1       6.285   8.684   1.988  1.00  0.00     0.131 A 
ATOM     74  C   UNL     1       6.294   9.232   3.245  1.00  0.00     0.113 A 
BRANCH  72  75
ATOM     75  C   UNL     1       4.904   8.899   5.289  1.00  0.00     0.450 C 
ATOM     76  F   UNL     1       5.923   8.521   6.106  1.00  0.00    -0.185 F 
ATOM     77  F   UNL     1       4.702  10.225   5.505  1.00  0.00    -0.185 F 
ENDBRANCH  72  75
ENDBRANCH  69  70
ENDBRANCH  66  69
ENDBRANCH  60  62
ENDBRANCH  59  60
ENDBRANCH  58  59
ENDBRANCH   1  58
TORSDOF 17
