REMARK SMILES O=C(COCCNC(=O)c1ccn[nH]1)OCCOCCOC(=O)c1ccc(-c2c3nc(c(-c4ccccc4)c4ccc([nH]4)c(-c4ccccc4)c4nc(c(-c5ccccc5)c5ccc2[nH]5)C=C4)C=C3)cc1
REMARK SMILES IDX 16 1 15 2 2 3 1 4 3 5 4 6 5 7 6 8 7 9 8 10 9 12 10 13 11 14
REMARK SMILES IDX 14 15 12 16 13 17 17 19 18 20 19 21 20 22 21 23 22 24 23 25
REMARK SMILES IDX 24 26 25 27 71 28 26 29 70 30 27 31 28 32 29 33 64 34 30 35
REMARK SMILES IDX 69 36 63 37 65 38 31 39 68 40 62 41 61 42 32 44 54 45 39 46
REMARK SMILES IDX 53 47 40 48 43 49 52 50 66 51 41 52 42 53 51 55 67 56 44 57
REMARK SMILES IDX 33 58 34 59 38 60 35 61 37 62 36 63 55 64 56 65 60 66 57 67
REMARK SMILES IDX 59 68 58 69 45 70 46 71 50 72 47 73 49 74 48 75
REMARK H PARENT 7 11 14 18 65 43 43 54
REMARK Flexibility Score: inf
ROOT
ATOM      1  C   UNL     1       4.680   0.280   0.885  1.00  0.00     0.261 C 
ENDROOT
BRANCH   1   2
ATOM      2  O   UNL     1       3.302   0.664   1.033  1.00  0.00    -0.462 OA
BRANCH   2   3
ATOM      3  C   UNL     1       2.518   0.930  -0.036  1.00  0.00     0.332 C 
ATOM      4  O   UNL     1       1.295   0.958   0.088  1.00  0.00    -0.250 OA
BRANCH   3   5
ATOM      5  C   UNL     1       3.193   1.269  -1.363  1.00  0.00     0.282 C 
BRANCH   5   6
ATOM      6  O   UNL     1       3.521   2.636  -1.532  1.00  0.00    -0.368 OA
BRANCH   6   7
ATOM      7  C   UNL     1       2.389   3.511  -1.586  1.00  0.00     0.182 C 
BRANCH   7   8
ATOM      8  C   UNL     1       1.640   3.417  -2.924  1.00  0.00     0.144 C 
BRANCH   8   9
ATOM      9  N   UNL     1       0.672   2.327  -2.982  1.00  0.00    -0.348 N 
ATOM     10  C   UNL     1      -0.573   2.233  -2.417  1.00  0.00     0.269 C 
ATOM     11  H   UNL     1       0.955   1.543  -3.505  1.00  0.00     0.163 HD
ATOM     12  O   UNL     1      -1.087   1.121  -2.323  1.00  0.00    -0.268 OA
BRANCH  10  13
ATOM     13  C   UNL     1      -1.231   3.423  -1.966  1.00  0.00     0.122 A 
ATOM     14  C   UNL     1      -1.351   4.685  -2.514  1.00  0.00     0.055 A 
ATOM     15  N   UNL     1      -2.024   3.445  -0.850  1.00  0.00    -0.273 N 
ATOM     16  C   UNL     1      -2.170   5.399  -1.624  1.00  0.00     0.135 A 
ATOM     17  N   UNL     1      -2.566   4.652  -0.593  1.00  0.00    -0.183 NA
ATOM     18  H   UNL     1      -2.184   2.653  -0.287  1.00  0.00     0.190 HD
ENDBRANCH  10  13
ENDBRANCH   8   9
ENDBRANCH   7   8
ENDBRANCH   6   7
ENDBRANCH   5   6
ENDBRANCH   3   5
ENDBRANCH   2   3
ENDBRANCH   1   2
BRANCH   1  19
ATOM     19  C   UNL     1       4.780  -1.209   0.552  1.00  0.00     0.202 C 
BRANCH  19  20
ATOM     20  O   UNL     1       4.275  -1.557  -0.741  1.00  0.00    -0.374 OA
BRANCH  20  21
ATOM     21  C   UNL     1       2.981  -2.179  -0.754  1.00  0.00     0.202 C 
BRANCH  21  22
ATOM     22  C   UNL     1       2.983  -3.692  -0.505  1.00  0.00     0.261 C 
BRANCH  22  23
ATOM     23  O   UNL     1       3.326  -3.974   0.861  1.00  0.00    -0.460 OA
BRANCH  23  24
ATOM     24  C   UNL     1       4.611  -4.342   1.065  1.00  0.00     0.338 C 
ATOM     25  O   UNL     1       5.443  -4.630   0.218  1.00  0.00    -0.246 OA
BRANCH  24  26
ATOM     26  C   UNL     1       4.952  -4.107   2.482  1.00  0.00     0.060 A 
ATOM     27  C   UNL     1       6.195  -3.516   2.753  1.00  0.00     0.016 A 
ATOM     28  C   UNL     1       4.076  -4.426   3.523  1.00  0.00     0.016 A 
ATOM     29  C   UNL     1       6.589  -3.291   4.067  1.00  0.00     0.010 A 
ATOM     30  C   UNL     1       4.479  -4.218   4.843  1.00  0.00     0.010 A 
ATOM     31  C   UNL     1       5.753  -3.691   5.115  1.00  0.00    -0.014 A 
BRANCH  31  32
ATOM     32  C   UNL     1       6.316  -3.783   6.479  1.00  0.00     0.031 A 
ATOM     33  C   UNL     1       6.860  -5.113   6.922  1.00  0.00     0.074 A 
ATOM     34  C   UNL     1       6.388  -2.707   7.279  1.00  0.00     0.049 A 
ATOM     35  N   UNL     1       7.393  -5.453   8.066  1.00  0.00    -0.248 NA
ATOM     36  C   UNL     1       6.794  -6.208   5.938  1.00  0.00     0.031 C 
ATOM     37  C   UNL     1       5.942  -1.359   6.932  1.00  0.00     0.029 A 
ATOM     38  N   UNL     1       6.868  -2.587   8.557  1.00  0.00    -0.354 N 
ATOM     39  C   UNL     1       7.722  -6.797   7.939  1.00  0.00     0.074 A 
ATOM     40  C   UNL     1       7.299  -7.220   6.623  1.00  0.00     0.031 C 
ATOM     41  C   UNL     1       6.163  -0.545   7.981  1.00  0.00     0.029 A 
ATOM     42  C   UNL     1       6.738  -1.323   9.076  1.00  0.00     0.049 A 
ATOM     43  H   UNL     1       7.269  -3.336   9.056  1.00  0.00     0.167 HD
ATOM     44  C   UNL     1       8.331  -7.606   8.835  1.00  0.00     0.031 A 
ATOM     45  C   UNL     1       7.033  -0.860  10.306  1.00  0.00     0.031 A 
ATOM     46  C   UNL     1       8.727  -7.186  10.151  1.00  0.00     0.049 A 
ATOM     47  C   UNL     1       7.629  -1.803  11.318  1.00  0.00     0.074 A 
ATOM     48  C   UNL     1       9.341  -7.925  11.145  1.00  0.00     0.029 A 
ATOM     49  N   UNL     1       8.538  -5.909  10.655  1.00  0.00    -0.354 N 
ATOM     50  N   UNL     1       7.950  -3.068  11.183  1.00  0.00    -0.248 NA
ATOM     51  C   UNL     1       7.912  -1.249  12.650  1.00  0.00     0.031 C 
ATOM     52  C   UNL     1       9.479  -7.106  12.271  1.00  0.00     0.029 A 
ATOM     53  C   UNL     1       9.005  -5.842  11.955  1.00  0.00     0.049 A 
ATOM     54  H   UNL     1       8.132  -5.160  10.161  1.00  0.00     0.167 HD
ATOM     55  C   UNL     1       8.499  -3.453  12.401  1.00  0.00     0.074 A 
ATOM     56  C   UNL     1       8.482  -2.282  13.255  1.00  0.00     0.031 C 
ATOM     57  C   UNL     1       8.977  -4.663  12.781  1.00  0.00     0.031 A 
BRANCH  44  58
ATOM     58  C   UNL     1       8.568  -9.031   8.425  1.00  0.00    -0.014 A 
ATOM     59  C   UNL     1       9.531  -9.361   7.457  1.00  0.00     0.009 A 
ATOM     60  C   UNL     1       7.822 -10.061   9.019  1.00  0.00     0.009 A 
ATOM     61  C   UNL     1       9.719 -10.689   7.070  1.00  0.00     0.001 A 
ATOM     62  C   UNL     1       8.031 -11.391   8.649  1.00  0.00     0.001 A 
ATOM     63  C   UNL     1       8.972 -11.703   7.669  1.00  0.00     0.000 A 
ENDBRANCH  44  58
BRANCH  45  64
ATOM     64  C   UNL     1       6.754   0.557  10.661  1.00  0.00    -0.014 A 
ATOM     65  C   UNL     1       7.803   1.457  10.902  1.00  0.00     0.009 A 
ATOM     66  C   UNL     1       5.431   1.009  10.789  1.00  0.00     0.009 A 
ATOM     67  C   UNL     1       7.533   2.772  11.292  1.00  0.00     0.001 A 
ATOM     68  C   UNL     1       5.164   2.331  11.149  1.00  0.00     0.001 A 
ATOM     69  C   UNL     1       6.214   3.208  11.411  1.00  0.00     0.000 A 
ENDBRANCH  45  64
BRANCH  57  70
ATOM     70  C   UNL     1       9.557  -4.767  14.164  1.00  0.00    -0.014 A 
ATOM     71  C   UNL     1       8.738  -4.749  15.303  1.00  0.00     0.009 A 
ATOM     72  C   UNL     1      10.943  -4.926  14.322  1.00  0.00     0.009 A 
ATOM     73  C   UNL     1       9.301  -4.850  16.576  1.00  0.00     0.001 A 
ATOM     74  C   UNL     1      11.499  -5.058  15.595  1.00  0.00     0.001 A 
ATOM     75  C   UNL     1      10.679  -5.008  16.721  1.00  0.00     0.000 A 
ENDBRANCH  57  70
ENDBRANCH  31  32
ENDBRANCH  24  26
ENDBRANCH  23  24
ENDBRANCH  22  23
ENDBRANCH  21  22
ENDBRANCH  20  21
ENDBRANCH  19  20
ENDBRANCH   1  19
TORSDOF 19
