REMARK SMILES Nc1cc(C(=O)OCCOCCOC(=O)c2ccc(-c3c4nc(c(-c5ccccc5)c5ccc([nH]5)c(-c5ccccc5)c5nc(c(-c6ccccc6)c6ccc3[nH]6)C=C5)C=C4)cc2)ccc1N1CC2(CCOCC2)C1
REMARK SMILES IDX 11 1 10 2 9 3 8 4 7 5 5 6 6 7 4 8 2 9 3 10 66 11 65 12 64 13
REMARK SMILES IDX 1 14 67 17 68 18 75 19 69 20 70 21 74 22 71 23 73 24 72 25
REMARK SMILES IDX 12 26 13 27 14 28 15 29 16 30 17 31 63 32 18 33 62 34 19 35
REMARK SMILES IDX 20 36 21 37 56 38 22 39 61 40 55 41 57 42 23 43 60 44 54 45
REMARK SMILES IDX 53 46 24 48 46 49 31 50 45 51 32 52 35 53 44 54 58 55 33 56
REMARK SMILES IDX 34 57 43 59 59 60 36 61 25 62 26 63 30 64 27 65 29 66 28 67
REMARK SMILES IDX 47 68 48 69 52 70 49 71 51 72 50 73 37 74 38 75 42 76 39 77
REMARK SMILES IDX 41 78 40 79
REMARK H PARENT 1 15 1 16 57 47 35 58
REMARK Flexibility Score: inf
ROOT
ATOM      1  C   UNL     1      -1.603  -3.614  -1.892  1.00  0.00     0.202 C 
ENDROOT
BRANCH   1   2
ATOM      2  O   UNL     1      -2.174  -4.720  -1.190  1.00  0.00    -0.374 OA
BRANCH   2   3
ATOM      3  C   UNL     1      -3.432  -4.500  -0.551  1.00  0.00     0.202 C 
BRANCH   3   4
ATOM      4  C   UNL     1      -3.374  -3.823   0.822  1.00  0.00     0.261 C 
BRANCH   4   5
ATOM      5  O   UNL     1      -2.866  -2.482   0.717  1.00  0.00    -0.460 OA
BRANCH   5   6
ATOM      6  C   UNL     1      -1.660  -2.290   1.302  1.00  0.00     0.338 C 
ATOM      7  O   UNL     1      -1.059  -3.075   2.020  1.00  0.00    -0.246 OA
BRANCH   6   8
ATOM      8  C   UNL     1      -1.051  -1.034   0.822  1.00  0.00     0.062 A 
ATOM      9  C   UNL     1       1.019   0.089   0.167  1.00  0.00     0.056 A 
ATOM     10  C   UNL     1       0.317  -1.067   0.535  1.00  0.00     0.043 A 
ATOM     11  C   UNL     1       0.314   1.306   0.051  1.00  0.00     0.060 A 
ATOM     12  C   UNL     1      -1.079   1.308   0.300  1.00  0.00     0.029 A 
ATOM     13  C   UNL     1      -1.766   0.149   0.672  1.00  0.00     0.018 A 
BRANCH   9  14
ATOM     14  N   UNL     1       2.372  -0.058  -0.119  1.00  0.00    -0.397 N 
ATOM     15  H   UNL     1       2.805  -0.936  -0.017  1.00  0.00     0.156 HD
ATOM     16  H   UNL     1       2.898   0.717  -0.423  1.00  0.00     0.156 HD
ENDBRANCH   9  14
BRANCH  11  17
ATOM     17  N   UNL     1       0.907   2.560  -0.219  1.00  0.00    -0.369 N 
ATOM     18  C   UNL     1       2.031   2.984  -0.987  1.00  0.00     0.125 C 
ATOM     19  C   UNL     1       1.037   3.614   0.751  1.00  0.00     0.125 C 
ATOM     20  C   UNL     1       2.459   3.868   0.211  1.00  0.00     0.010 C 
ATOM     21  C   UNL     1       2.768   5.332  -0.106  1.00  0.00     0.039 C 
ATOM     22  C   UNL     1       3.566   3.292   1.108  1.00  0.00     0.039 C 
ATOM     23  C   UNL     1       4.160   5.423  -0.722  1.00  0.00     0.161 C 
ATOM     24  C   UNL     1       4.910   3.484   0.417  1.00  0.00     0.161 C 
ATOM     25  O   UNL     1       5.138   4.872   0.165  1.00  0.00    -0.381 OA
ENDBRANCH  11  17
ENDBRANCH   6   8
ENDBRANCH   5   6
ENDBRANCH   4   5
ENDBRANCH   3   4
ENDBRANCH   2   3
ENDBRANCH   1   2
BRANCH   1  26
ATOM     26  C   UNL     1      -2.160  -3.350  -3.296  1.00  0.00     0.261 C 
BRANCH  26  27
ATOM     27  O   UNL     1      -3.528  -2.903  -3.252  1.00  0.00    -0.460 OA
BRANCH  27  28
ATOM     28  C   UNL     1      -4.435  -3.792  -3.718  1.00  0.00     0.338 C 
ATOM     29  O   UNL     1      -4.212  -4.871  -4.249  1.00  0.00    -0.246 OA
BRANCH  28  30
ATOM     30  C   UNL     1      -5.796  -3.365  -3.344  1.00  0.00     0.060 A 
ATOM     31  C   UNL     1      -6.621  -4.310  -2.719  1.00  0.00     0.016 A 
ATOM     32  C   UNL     1      -6.283  -2.093  -3.651  1.00  0.00     0.016 A 
ATOM     33  C   UNL     1      -7.952  -4.004  -2.446  1.00  0.00     0.010 A 
ATOM     34  C   UNL     1      -7.623  -1.790  -3.383  1.00  0.00     0.010 A 
ATOM     35  C   UNL     1      -8.471  -2.755  -2.811  1.00  0.00    -0.014 A 
BRANCH  35  36
ATOM     36  C   UNL     1      -9.932  -2.514  -2.720  1.00  0.00     0.031 A 
ATOM     37  C   UNL     1     -10.773  -2.646  -3.960  1.00  0.00     0.074 A 
ATOM     38  C   UNL     1     -10.508  -2.209  -1.544  1.00  0.00     0.049 A 
ATOM     39  N   UNL     1     -12.060  -2.461  -4.112  1.00  0.00    -0.248 NA
ATOM     40  C   UNL     1     -10.071  -3.040  -5.193  1.00  0.00     0.031 C 
ATOM     41  C   UNL     1      -9.812  -2.095  -0.263  1.00  0.00     0.029 A 
ATOM     42  N   UNL     1     -11.819  -1.937  -1.242  1.00  0.00    -0.354 N 
ATOM     43  C   UNL     1     -12.320  -2.706  -5.455  1.00  0.00     0.074 A 
ATOM     44  C   UNL     1     -11.056  -3.030  -6.080  1.00  0.00     0.031 C 
ATOM     45  C   UNL     1     -10.705  -1.770   0.689  1.00  0.00     0.029 A 
ATOM     46  C   UNL     1     -12.025  -1.624   0.079  1.00  0.00     0.049 A 
ATOM     47  H   UNL     1     -12.543  -1.963  -1.909  1.00  0.00     0.167 HD
ATOM     48  C   UNL     1     -13.505  -2.671  -6.109  1.00  0.00     0.031 A 
ATOM     49  C   UNL     1     -13.148  -1.245   0.719  1.00  0.00     0.031 A 
ATOM     50  C   UNL     1     -14.763  -2.344  -5.493  1.00  0.00     0.049 A 
ATOM     51  C   UNL     1     -14.439  -1.139  -0.049  1.00  0.00     0.074 A 
ATOM     52  C   UNL     1     -16.020  -2.302  -6.071  1.00  0.00     0.029 A 
ATOM     53  N   UNL     1     -14.921  -1.994  -4.162  1.00  0.00    -0.354 N 
ATOM     54  N   UNL     1     -14.675  -1.403  -1.311  1.00  0.00    -0.248 NA
ATOM     55  C   UNL     1     -15.620  -0.688   0.703  1.00  0.00     0.031 C 
ATOM     56  C   UNL     1     -16.932  -1.876  -5.101  1.00  0.00     0.029 A 
ATOM     57  C   UNL     1     -16.251  -1.707  -3.906  1.00  0.00     0.049 A 
ATOM     58  H   UNL     1     -14.196  -1.956  -3.497  1.00  0.00     0.167 HD
ATOM     59  C   UNL     1     -16.035  -1.180  -1.496  1.00  0.00     0.074 A 
ATOM     60  C   UNL     1     -16.572  -0.771  -0.216  1.00  0.00     0.031 C 
ATOM     61  C   UNL     1     -16.772  -1.305  -2.626  1.00  0.00     0.031 A 
BRANCH  48  62
ATOM     62  C   UNL     1     -13.492  -2.966  -7.582  1.00  0.00    -0.014 A 
ATOM     63  C   UNL     1     -13.303  -4.271  -8.063  1.00  0.00     0.009 A 
ATOM     64  C   UNL     1     -13.719  -1.928  -8.499  1.00  0.00     0.009 A 
ATOM     65  C   UNL     1     -13.314  -4.525  -9.436  1.00  0.00     0.001 A 
ATOM     66  C   UNL     1     -13.753  -2.189  -9.870  1.00  0.00     0.001 A 
ATOM     67  C   UNL     1     -13.544  -3.486 -10.338  1.00  0.00     0.000 A 
ENDBRANCH  48  62
BRANCH  49  68
ATOM     68  C   UNL     1     -13.107  -0.913   2.167  1.00  0.00    -0.014 A 
ATOM     69  C   UNL     1     -13.740  -1.739   3.109  1.00  0.00     0.009 A 
ATOM     70  C   UNL     1     -12.463   0.252   2.610  1.00  0.00     0.009 A 
ATOM     71  C   UNL     1     -13.752  -1.389   4.461  1.00  0.00     0.001 A 
ATOM     72  C   UNL     1     -12.453   0.585   3.966  1.00  0.00     0.001 A 
ATOM     73  C   UNL     1     -13.106  -0.230   4.889  1.00  0.00     0.000 A 
ENDBRANCH  49  68
BRANCH  61  74
ATOM     74  C   UNL     1     -18.247  -1.036  -2.521  1.00  0.00    -0.014 A 
ATOM     75  C   UNL     1     -18.744   0.268  -2.379  1.00  0.00     0.009 A 
ATOM     76  C   UNL     1     -19.154  -2.104  -2.609  1.00  0.00     0.009 A 
ATOM     77  C   UNL     1     -20.119   0.494  -2.295  1.00  0.00     0.001 A 
ATOM     78  C   UNL     1     -20.529  -1.873  -2.553  1.00  0.00     0.001 A 
ATOM     79  C   UNL     1     -21.010  -0.575  -2.387  1.00  0.00     0.000 A 
ENDBRANCH  61  74
ENDBRANCH  35  36
ENDBRANCH  28  30
ENDBRANCH  27  28
ENDBRANCH  26  27
ENDBRANCH   1  26
TORSDOF 16
