REMARK SMILES O=C(CN1C(=O)c2ccccc2[C@@H]1O)OCCOCCOC(=O)c1ccc(-c2c3nc(c(-c4ccccc4)c4ccc([nH]4)c(-c4ccccc4)c4nc(c(-c5ccccc5)c5ccc2[nH]5)C=C4)C=C3)cc1
REMARK SMILES IDX 18 1 17 2 16 3 15 4 2 5 1 6 3 7 4 8 5 9 13 10 6 11 7 12
REMARK SMILES IDX 12 13 8 14 11 15 9 16 10 17 14 18 19 20 20 21 21 22 22 23
REMARK SMILES IDX 23 24 24 25 25 26 71 27 26 28 70 29 27 30 28 31 29 32 64 33
REMARK SMILES IDX 30 34 69 35 63 36 65 37 31 38 68 39 62 40 61 41 32 43 54 44
REMARK SMILES IDX 39 45 53 46 40 47 43 48 52 49 66 50 41 51 42 52 51 54 67 55
REMARK SMILES IDX 44 56 33 57 34 58 38 59 35 60 37 61 36 62 55 63 56 64 60 65
REMARK SMILES IDX 57 66 59 67 58 68 45 69 46 70 50 71 47 72 49 73 48 74
REMARK H PARENT 14 19 65 42 43 53
REMARK Flexibility Score: inf
ROOT
ATOM      1  O   UNL     1       4.123  -1.163   1.560  1.00  0.00    -0.374 OA
ENDROOT
BRANCH   1   2
ATOM      2  C   UNL     1       4.834  -0.039   1.067  1.00  0.00     0.202 C 
BRANCH   2   3
ATOM      3  C   UNL     1       4.272   0.709  -0.142  1.00  0.00     0.261 C 
BRANCH   3   4
ATOM      4  O   UNL     1       2.848   0.831  -0.195  1.00  0.00    -0.462 OA
BRANCH   4   5
ATOM      5  C   UNL     1       1.972  -0.089  -0.661  1.00  0.00     0.325 C 
ATOM      6  O   UNL     1       0.770   0.074  -0.431  1.00  0.00    -0.250 OA
BRANCH   5   7
ATOM      7  C   UNL     1       2.440  -1.422  -1.247  1.00  0.00     0.245 C 
BRANCH   7   8
ATOM      8  N   UNL     1       3.594  -1.467  -2.117  1.00  0.00    -0.298 N 
ATOM      9  C   UNL     1       3.802  -0.549  -3.131  1.00  0.00     0.257 C 
ATOM     10  C   UNL     1       4.425  -2.639  -2.253  1.00  0.00     0.247 C 
ATOM     11  O   UNL     1       3.189   0.470  -3.352  1.00  0.00    -0.269 OA
ATOM     12  C   UNL     1       4.965  -1.017  -3.882  1.00  0.00     0.047 A 
ATOM     13  C   UNL     1       5.294  -2.290  -3.418  1.00  0.00     0.014 A 
ATOM     14  C   UNL     1       5.659  -0.366  -4.881  1.00  0.00     0.014 A 
ATOM     15  C   UNL     1       6.305  -3.002  -4.036  1.00  0.00     0.009 A 
ATOM     16  C   UNL     1       6.705  -1.064  -5.479  1.00  0.00     0.001 A 
ATOM     17  C   UNL     1       7.007  -2.380  -5.078  1.00  0.00     0.001 A 
BRANCH  10  18
ATOM     18  O   UNL     1       3.602  -3.740  -2.546  1.00  0.00    -0.369 OA
ATOM     19  H   UNL     1       3.071  -3.546  -3.334  1.00  0.00     0.213 HD
ENDBRANCH  10  18
ENDBRANCH   7   8
ENDBRANCH   5   7
ENDBRANCH   4   5
ENDBRANCH   3   4
ENDBRANCH   2   3
ENDBRANCH   1   2
BRANCH   1  20
ATOM     20  C   UNL     1       2.935  -0.933   2.325  1.00  0.00     0.202 C 
BRANCH  20  21
ATOM     21  C   UNL     1       3.027  -0.191   3.664  1.00  0.00     0.261 C 
BRANCH  21  22
ATOM     22  O   UNL     1       3.379   1.193   3.504  1.00  0.00    -0.460 OA
BRANCH  22  23
ATOM     23  C   UNL     1       4.596   1.532   3.992  1.00  0.00     0.338 C 
ATOM     24  O   UNL     1       5.398   0.810   4.559  1.00  0.00    -0.246 OA
BRANCH  23  25
ATOM     25  C   UNL     1       4.934   2.892   3.540  1.00  0.00     0.060 A 
ATOM     26  C   UNL     1       6.129   3.071   2.830  1.00  0.00     0.016 A 
ATOM     27  C   UNL     1       4.128   3.980   3.875  1.00  0.00     0.016 A 
ATOM     28  C   UNL     1       6.555   4.353   2.500  1.00  0.00     0.010 A 
ATOM     29  C   UNL     1       4.562   5.266   3.554  1.00  0.00     0.010 A 
ATOM     30  C   UNL     1       5.795   5.457   2.904  1.00  0.00    -0.014 A 
BRANCH  30  31
ATOM     31  C   UNL     1       6.371   6.816   2.808  1.00  0.00     0.031 A 
ATOM     32  C   UNL     1       6.942   7.443   4.048  1.00  0.00     0.074 A 
ATOM     33  C   UNL     1       6.395   7.470   1.635  1.00  0.00     0.049 A 
ATOM     34  N   UNL     1       7.439   8.641   4.219  1.00  0.00    -0.248 NA
ATOM     35  C   UNL     1       6.949   6.608   5.262  1.00  0.00     0.031 C 
ATOM     36  C   UNL     1       5.914   6.939   0.360  1.00  0.00     0.029 A 
ATOM     37  N   UNL     1       6.837   8.731   1.333  1.00  0.00    -0.354 N 
ATOM     38  C   UNL     1       7.799   8.709   5.559  1.00  0.00     0.074 A 
ATOM     39  C   UNL     1       7.438   7.446   6.163  1.00  0.00     0.031 C 
ATOM     40  C   UNL     1       6.080   7.876  -0.589  1.00  0.00     0.029 A 
ATOM     41  C   UNL     1       6.637   9.081   0.021  1.00  0.00     0.049 A 
ATOM     42  H   UNL     1       7.256   9.329   1.993  1.00  0.00     0.167 HD
ATOM     43  C   UNL     1       8.382   9.733   6.226  1.00  0.00     0.031 A 
ATOM     44  C   UNL     1       6.854  10.252  -0.606  1.00  0.00     0.031 A 
ATOM     45  C   UNL     1       8.721  10.993   5.620  1.00  0.00     0.049 A 
ATOM     46  C   UNL     1       7.424  11.406   0.177  1.00  0.00     0.074 A 
ATOM     47  C   UNL     1       9.330  12.092   6.198  1.00  0.00     0.029 A 
ATOM     48  N   UNL     1       8.469  11.323   4.296  1.00  0.00    -0.354 N 
ATOM     49  N   UNL     1       7.788  11.453   1.437  1.00  0.00    -0.248 NA
ATOM     50  C   UNL     1       7.619  12.666  -0.553  1.00  0.00     0.031 C 
ATOM     51  C   UNL     1       9.384  13.112   5.243  1.00  0.00     0.029 A 
ATOM     52  C   UNL     1       8.879  12.622   4.048  1.00  0.00     0.049 A 
ATOM     53  H   UNL     1       8.060  10.723   3.632  1.00  0.00     0.167 HD
ATOM     54  C   UNL     1       8.282  12.736   1.642  1.00  0.00     0.074 A 
ATOM     55  C   UNL     1       8.188  13.427   0.372  1.00  0.00     0.031 C 
ATOM     56  C   UNL     1       8.772  13.293   2.777  1.00  0.00     0.031 A 
BRANCH  43  57
ATOM     57  C   UNL     1       8.645   9.545   7.695  1.00  0.00    -0.014 A 
ATOM     58  C   UNL     1       9.617   8.644   8.158  1.00  0.00     0.009 A 
ATOM     59  C   UNL     1       7.922  10.301   8.631  1.00  0.00     0.009 A 
ATOM     60  C   UNL     1       9.831   8.476   9.529  1.00  0.00     0.001 A 
ATOM     61  C   UNL     1       8.161  10.156   9.999  1.00  0.00     0.001 A 
ATOM     62  C   UNL     1       9.107   9.236  10.447  1.00  0.00     0.000 A 
ENDBRANCH  43  57
BRANCH  44  63
ATOM     63  C   UNL     1       6.513  10.403  -2.045  1.00  0.00    -0.014 A 
ATOM     64  C   UNL     1       7.520  10.583  -3.005  1.00  0.00     0.009 A 
ATOM     65  C   UNL     1       5.173  10.380  -2.465  1.00  0.00     0.009 A 
ATOM     66  C   UNL     1       7.191  10.764  -4.351  1.00  0.00     0.001 A 
ATOM     67  C   UNL     1       4.849  10.528  -3.815  1.00  0.00     0.001 A 
ATOM     68  C   UNL     1       5.857  10.731  -4.755  1.00  0.00     0.000 A 
ENDBRANCH  44  63
BRANCH  56  69
ATOM     69  C   UNL     1       9.281  14.706   2.687  1.00  0.00    -0.014 A 
ATOM     70  C   UNL     1       8.409  15.791   2.514  1.00  0.00     0.009 A 
ATOM     71  C   UNL     1      10.657  14.955   2.821  1.00  0.00     0.009 A 
ATOM     72  C   UNL     1       8.908  17.093   2.438  1.00  0.00     0.001 A 
ATOM     73  C   UNL     1      11.149  16.260   2.781  1.00  0.00     0.001 A 
ATOM     74  C   UNL     1      10.275  17.327   2.578  1.00  0.00     0.000 A 
ENDBRANCH  56  69
ENDBRANCH  30  31
ENDBRANCH  23  25
ENDBRANCH  22  23
ENDBRANCH  21  22
ENDBRANCH  20  21
ENDBRANCH   1  20
TORSDOF 16
