REMARK SMILES N#C[C@H]1CN(C(=O)[C@H]([NH3+])CC(=O)OCCOCCOC(=O)c2ccc(-c3c4nc(c(-c5ccccc5)c5ccc([nH]5)c(-c5ccccc5)c5nc(c(-c6ccccc6)c6ccc3[nH]6)C=C5)C=C4)cc2)CCO1
REMARK SMILES IDX 15 1 14 2 13 3 11 4 12 5 10 6 8 7 6 8 7 9 5 10 3 11 4 12
REMARK SMILES IDX 72 13 71 14 70 15 2 16 1 17 9 18 16 22 17 23 18 24 19 25
REMARK SMILES IDX 20 26 21 27 22 28 23 29 69 30 24 31 68 32 25 33 26 34 27 35
REMARK SMILES IDX 62 36 28 37 67 38 61 39 63 40 29 41 66 42 60 43 59 44 30 46
REMARK SMILES IDX 52 47 37 48 51 49 38 50 41 51 50 52 64 53 39 54 40 55 49 57
REMARK SMILES IDX 65 58 42 59 31 60 32 61 36 62 33 63 35 64 34 65 53 66 54 67
REMARK SMILES IDX 58 68 55 69 57 70 56 71 43 72 44 73 48 74 45 75 47 76 46 77
REMARK H PARENT 9 19 9 20 9 21 63 45 41 56
REMARK Flexibility Score: inf
ROOT
ATOM      1  C   UNL     1       5.827   3.774  -6.269  1.00  0.00     0.202 C 
ENDROOT
BRANCH   1   2
ATOM      2  C   UNL     1       6.504   3.371  -4.957  1.00  0.00     0.261 C 
BRANCH   2   3
ATOM      3  O   UNL     1       5.538   3.063  -3.943  1.00  0.00    -0.463 OA
BRANCH   3   4
ATOM      4  C   UNL     1       5.356   4.029  -3.015  1.00  0.00     0.312 C 
ATOM      5  O   UNL     1       6.086   5.000  -2.858  1.00  0.00    -0.252 OA
BRANCH   4   6
ATOM      6  C   UNL     1       4.162   3.800  -2.130  1.00  0.00     0.198 C 
BRANCH   6   7
ATOM      7  C   UNL     1       3.042   2.825  -2.531  1.00  0.00     0.282 C 
BRANCH   7   8
ATOM      8  C   UNL     1       2.083   2.663  -1.324  1.00  0.00     0.281 C 
ATOM      9  O   UNL     1       0.961   3.173  -1.377  1.00  0.00    -0.268 OA
BRANCH   8  10
ATOM     10  N   UNL     1       2.512   1.986  -0.192  1.00  0.00    -0.332 N 
ATOM     11  C   UNL     1       4.501   2.242   1.233  1.00  0.00     0.240 C 
ATOM     12  C   UNL     1       3.854   1.446   0.079  1.00  0.00     0.167 C 
ATOM     13  O   UNL     1       3.662   2.153   2.407  1.00  0.00    -0.360 OA
ATOM     14  C   UNL     1       2.353   2.703   2.146  1.00  0.00     0.183 C 
ATOM     15  C   UNL     1       1.653   1.961   0.997  1.00  0.00     0.148 C 
BRANCH  11  16
ATOM     16  C   UNL     1       5.855   1.728   1.488  1.00  0.00     0.096 C 
ATOM     17  N   UNL     1       6.941   1.331   1.614  1.00  0.00    -0.195 NA
ENDBRANCH  11  16
ENDBRANCH   8  10
ENDBRANCH   7   8
BRANCH   7  18
ATOM     18  N   UNL     1       3.377   1.509  -3.090  1.00  0.00    -0.347 N 
ATOM     19  H   UNL     1       3.813   0.934  -2.369  1.00  0.00     0.345 HD
ATOM     20  H   UNL     1       4.024   1.625  -3.870  1.00  0.00     0.345 HD
ATOM     21  H   UNL     1       2.526   1.053  -3.420  1.00  0.00     0.345 HD
ENDBRANCH   7  18
ENDBRANCH   6   7
ENDBRANCH   4   6
ENDBRANCH   3   4
ENDBRANCH   2   3
ENDBRANCH   1   2
BRANCH   1  22
ATOM     22  O   UNL     1       4.953   4.899  -6.262  1.00  0.00    -0.374 OA
BRANCH  22  23
ATOM     23  C   UNL     1       3.644   4.738  -5.719  1.00  0.00     0.202 C 
BRANCH  23  24
ATOM     24  C   UNL     1       2.613   3.897  -6.487  1.00  0.00     0.261 C 
BRANCH  24  25
ATOM     25  O   UNL     1       3.009   2.527  -6.663  1.00  0.00    -0.460 OA
BRANCH  25  26
ATOM     26  C   UNL     1       3.372   2.207  -7.929  1.00  0.00     0.338 C 
ATOM     27  O   UNL     1       3.344   2.929  -8.911  1.00  0.00    -0.246 OA
BRANCH  26  28
ATOM     28  C   UNL     1       4.028   0.886  -7.949  1.00  0.00     0.060 A 
ATOM     29  C   UNL     1       5.336   0.826  -8.447  1.00  0.00     0.016 A 
ATOM     30  C   UNL     1       3.358  -0.277  -7.572  1.00  0.00     0.016 A 
ATOM     31  C   UNL     1       5.968  -0.403  -8.607  1.00  0.00     0.010 A 
ATOM     32  C   UNL     1       3.991  -1.514  -7.743  1.00  0.00     0.010 A 
ATOM     33  C   UNL     1       5.287  -1.585  -8.287  1.00  0.00    -0.014 A 
BRANCH  33  34
ATOM     34  C   UNL     1       5.906  -2.895  -8.602  1.00  0.00     0.031 A 
ATOM     35  C   UNL     1       5.410  -3.692  -9.777  1.00  0.00     0.074 A 
ATOM     36  C   UNL     1       6.925  -3.359  -7.856  1.00  0.00     0.049 A 
ATOM     37  N   UNL     1       5.790  -4.873 -10.195  1.00  0.00    -0.248 NA
ATOM     38  C   UNL     1       4.347  -3.078 -10.588  1.00  0.00     0.031 C 
ATOM     39  C   UNL     1       7.530  -2.658  -6.724  1.00  0.00     0.029 A 
ATOM     40  N   UNL     1       7.629  -4.534  -7.941  1.00  0.00    -0.354 N 
ATOM     41  C   UNL     1       5.005  -5.150 -11.308  1.00  0.00     0.074 A 
ATOM     42  C   UNL     1       4.108  -4.027 -11.482  1.00  0.00     0.031 C 
ATOM     43  C   UNL     1       8.514  -3.418  -6.217  1.00  0.00     0.029 A 
ATOM     44  C   UNL     1       8.576  -4.677  -6.956  1.00  0.00     0.049 A 
ATOM     45  H   UNL     1       7.471  -5.209  -8.639  1.00  0.00     0.167 HD
ATOM     46  C   UNL     1       5.030  -6.240 -12.112  1.00  0.00     0.031 A 
ATOM     47  C   UNL     1       9.381  -5.716  -6.664  1.00  0.00     0.031 A 
ATOM     48  C   UNL     1       5.911  -7.365 -11.925  1.00  0.00     0.049 A 
ATOM     49  C   UNL     1       9.321  -6.956  -7.516  1.00  0.00     0.074 A 
ATOM     50  C   UNL     1       6.025  -8.508 -12.697  1.00  0.00     0.029 A 
ATOM     51  N   UNL     1       6.819  -7.495 -10.885  1.00  0.00    -0.354 N 
ATOM     52  N   UNL     1       8.596  -7.194  -8.582  1.00  0.00    -0.248 NA
ATOM     53  C   UNL     1      10.197  -8.069  -7.124  1.00  0.00     0.031 C 
ATOM     54  C   UNL     1       6.943  -9.364 -12.081  1.00  0.00     0.029 A 
ATOM     55  C   UNL     1       7.465  -8.718 -10.971  1.00  0.00     0.049 A 
ATOM     56  H   UNL     1       6.981  -6.819 -10.188  1.00  0.00     0.167 HD
ATOM     57  C   UNL     1       8.950  -8.470  -9.005  1.00  0.00     0.074 A 
ATOM     58  C   UNL     1       9.971  -8.944  -8.093  1.00  0.00     0.031 C 
ATOM     59  C   UNL     1       8.474  -9.185 -10.054  1.00  0.00     0.031 A 
BRANCH  46  60
ATOM     60  C   UNL     1       4.043  -6.295 -13.248  1.00  0.00    -0.014 A 
ATOM     61  C   UNL     1       4.145  -5.437 -14.355  1.00  0.00     0.009 A 
ATOM     62  C   UNL     1       3.019  -7.256 -13.230  1.00  0.00     0.009 A 
ATOM     63  C   UNL     1       3.222  -5.518 -15.401  1.00  0.00     0.001 A 
ATOM     64  C   UNL     1       2.119  -7.357 -14.293  1.00  0.00     0.001 A 
ATOM     65  C   UNL     1       2.214  -6.482 -15.372  1.00  0.00     0.000 A 
ENDBRANCH  46  60
BRANCH  47  66
ATOM     66  C   UNL     1      10.293  -5.646  -5.491  1.00  0.00    -0.014 A 
ATOM     67  C   UNL     1      11.685  -5.647  -5.661  1.00  0.00     0.009 A 
ATOM     68  C   UNL     1       9.771  -5.601  -4.188  1.00  0.00     0.009 A 
ATOM     69  C   UNL     1      12.534  -5.636  -4.552  1.00  0.00     0.001 A 
ATOM     70  C   UNL     1      10.621  -5.552  -3.082  1.00  0.00     0.001 A 
ATOM     71  C   UNL     1      12.002  -5.582  -3.265  1.00  0.00     0.000 A 
ENDBRANCH  47  66
BRANCH  59  72
ATOM     72  C   UNL     1       9.077 -10.543 -10.296  1.00  0.00    -0.014 A 
ATOM     73  C   UNL     1       8.855 -11.614  -9.416  1.00  0.00     0.009 A 
ATOM     74  C   UNL     1       9.854 -10.763 -11.445  1.00  0.00     0.009 A 
ATOM     75  C   UNL     1       9.434 -12.862  -9.659  1.00  0.00     0.001 A 
ATOM     76  C   UNL     1      10.399 -12.021 -11.706  1.00  0.00     0.001 A 
ATOM     77  C   UNL     1      10.199 -13.066 -10.806  1.00  0.00     0.000 A 
ENDBRANCH  59  72
ENDBRANCH  33  34
ENDBRANCH  26  28
ENDBRANCH  25  26
ENDBRANCH  24  25
ENDBRANCH  23  24
ENDBRANCH  22  23
ENDBRANCH   1  22
TORSDOF 19
