REMARK SMILES NS(=O)(=O)c1ccc(-n2nc(C(=O)OCCOCCOC(=O)c3ccc(-c4c5nc(c(-c6ccccc6)c6ccc([nH]6)c(-c6ccccc6)c6nc(c(-c7ccccc7)c7ccc4[nH]7)C=C6)C=C5)cc3)cc2-c2cc3ccccc3s2)cc1
REMARK SMILES IDX 16 1 15 2 14 3 12 4 13 5 11 6 9 7 10 8 72 9 71 10 8 11 5 12
REMARK SMILES IDX 6 13 83 14 7 15 82 16 2 17 3 18 4 19 1 20 73 23 74 24 81 25
REMARK SMILES IDX 75 26 80 27 76 28 79 29 77 30 78 31 17 32 18 33 19 34 20 35
REMARK SMILES IDX 21 36 22 37 23 38 24 39 70 40 25 41 69 42 26 43 27 44 28 45
REMARK SMILES IDX 63 46 29 47 68 48 62 49 64 50 30 51 67 52 61 53 60 54 31 56
REMARK SMILES IDX 53 57 38 58 52 59 39 60 42 61 51 62 65 63 40 64 41 65 50 67
REMARK SMILES IDX 66 68 43 69 32 70 33 71 37 72 34 73 36 74 35 75 54 76 55 77
REMARK SMILES IDX 59 78 56 79 58 80 57 81 44 82 45 83 49 84 46 85 48 86 47 87
REMARK H PARENT 1 21 1 22 64 55 42 66
REMARK Flexibility Score: inf
ROOT
ATOM      1  C   UNL     1       0.473  12.628   1.546  1.00  0.00     0.202 C 
ENDROOT
BRANCH   1   2
ATOM      2  C   UNL     1       1.317  11.794   2.508  1.00  0.00     0.261 C 
BRANCH   2   3
ATOM      3  O   UNL     1       1.945  10.702   1.831  1.00  0.00    -0.458 OA
BRANCH   3   4
ATOM      4  C   UNL     1       1.371   9.480   2.051  1.00  0.00     0.358 C 
ATOM      5  O   UNL     1       0.518   9.255   2.900  1.00  0.00    -0.244 OA
BRANCH   4   6
ATOM      6  C   UNL     1       1.865   8.485   1.096  1.00  0.00     0.171 A 
ATOM      7  N   UNL     1       2.184   6.548   0.276  1.00  0.00    -0.231 N 
ATOM      8  N   UNL     1       1.219   7.344   0.801  1.00  0.00    -0.160 NA
ATOM      9  C   UNL     1       3.392   7.207   0.214  1.00  0.00     0.085 A 
ATOM     10  C   UNL     1       3.072   8.546   0.377  1.00  0.00     0.068 A 
BRANCH   7  11
ATOM     11  C   UNL     1       1.855   5.236  -0.098  1.00  0.00     0.065 A 
ATOM     12  C   UNL     1       1.112   2.672  -0.829  1.00  0.00     0.082 A 
ATOM     13  C   UNL     1       2.129   2.858   0.116  1.00  0.00     0.024 A 
ATOM     14  C   UNL     1       0.443   3.764  -1.392  1.00  0.00     0.024 A 
ATOM     15  C   UNL     1       2.522   4.150   0.468  1.00  0.00     0.030 A 
ATOM     16  C   UNL     1       0.800   5.053  -1.006  1.00  0.00     0.030 A 
BRANCH  12  17
ATOM     17  S   UNL     1       0.629   1.052  -1.340  1.00  0.00     0.238 S 
ATOM     18  O   UNL     1       1.367   0.727  -2.542  1.00  0.00    -0.207 OA
ATOM     19  O   UNL     1      -0.804   0.943  -1.248  1.00  0.00    -0.207 OA
BRANCH  17  20
ATOM     20  N   UNL     1       1.233   0.037  -0.145  1.00  0.00    -0.225 NA
ATOM     21  H   UNL     1       0.995  -0.930  -0.367  1.00  0.00     0.137 HD
ATOM     22  H   UNL     1       0.825   0.290   0.755  1.00  0.00     0.137 HD
ENDBRANCH  17  20
ENDBRANCH  12  17
ENDBRANCH   7  11
BRANCH   9  23
ATOM     23  C   UNL     1       4.739   6.696   0.275  1.00  0.00     0.054 A 
ATOM     24  C   UNL     1       5.786   7.004  -0.588  1.00  0.00     0.031 A 
ATOM     25  S   UNL     1       5.472   6.784   1.869  1.00  0.00    -0.134 S 
ATOM     26  C   UNL     1       6.453   8.174  -0.025  1.00  0.00    -0.007 A 
ATOM     27  C   UNL     1       6.169   8.289   1.344  1.00  0.00     0.035 A 
ATOM     28  C   UNL     1       7.152   9.230  -0.648  1.00  0.00     0.009 A 
ATOM     29  C   UNL     1       6.398   9.469   2.066  1.00  0.00     0.019 A 
ATOM     30  C   UNL     1       7.362  10.422   0.056  1.00  0.00     0.001 A 
ATOM     31  C   UNL     1       6.947  10.553   1.379  1.00  0.00     0.001 A 
ENDBRANCH   9  23
ENDBRANCH   4   6
ENDBRANCH   3   4
ENDBRANCH   2   3
ENDBRANCH   1   2
BRANCH   1  32
ATOM     32  O   UNL     1      -0.667  12.029   0.932  1.00  0.00    -0.374 OA
BRANCH  32  33
ATOM     33  C   UNL     1      -0.540  10.981  -0.023  1.00  0.00     0.202 C 
BRANCH  33  34
ATOM     34  C   UNL     1       0.061  11.277  -1.388  1.00  0.00     0.261 C 
BRANCH  34  35
ATOM     35  O   UNL     1       1.322  11.915  -1.297  1.00  0.00    -0.460 OA
BRANCH  35  36
ATOM     36  C   UNL     1       1.245  13.260  -1.427  1.00  0.00     0.338 C 
ATOM     37  O   UNL     1       0.242  13.952  -1.390  1.00  0.00    -0.246 OA
BRANCH  36  38
ATOM     38  C   UNL     1       2.567  13.768  -1.800  1.00  0.00     0.060 A 
ATOM     39  C   UNL     1       2.601  15.117  -2.156  1.00  0.00     0.016 A 
ATOM     40  C   UNL     1       3.562  12.858  -2.185  1.00  0.00     0.016 A 
ATOM     41  C   UNL     1       3.455  15.485  -3.164  1.00  0.00     0.010 A 
ATOM     42  C   UNL     1       4.402  13.223  -3.203  1.00  0.00     0.010 A 
ATOM     43  C   UNL     1       4.249  14.494  -3.748  1.00  0.00    -0.014 A 
BRANCH  43  44
ATOM     44  C   UNL     1       4.993  14.843  -4.930  1.00  0.00     0.031 A 
ATOM     45  C   UNL     1       6.195  15.630  -4.605  1.00  0.00     0.074 A 
ATOM     46  C   UNL     1       4.655  14.395  -6.151  1.00  0.00     0.049 A 
ATOM     47  N   UNL     1       6.382  16.888  -4.813  1.00  0.00    -0.248 NA
ATOM     48  C   UNL     1       7.208  14.996  -3.743  1.00  0.00     0.031 C 
ATOM     49  C   UNL     1       3.658  13.388  -6.522  1.00  0.00     0.029 A 
ATOM     50  N   UNL     1       5.247  14.678  -7.335  1.00  0.00    -0.354 N 
ATOM     51  C   UNL     1       7.640  17.156  -4.294  1.00  0.00     0.074 A 
ATOM     52  C   UNL     1       7.979  16.041  -3.449  1.00  0.00     0.031 C 
ATOM     53  C   UNL     1       3.917  12.958  -7.781  1.00  0.00     0.029 A 
ATOM     54  C   UNL     1       5.010  13.745  -8.331  1.00  0.00     0.049 A 
ATOM     55  H   UNL     1       5.799  15.481  -7.477  1.00  0.00     0.167 HD
ATOM     56  C   UNL     1       8.437  18.108  -4.847  1.00  0.00     0.031 A 
ATOM     57  C   UNL     1       5.754  13.582  -9.457  1.00  0.00     0.031 A 
ATOM     58  C   UNL     1       7.691  19.000  -5.698  1.00  0.00     0.049 A 
ATOM     59  C   UNL     1       6.541  14.833  -9.648  1.00  0.00     0.074 A 
ATOM     60  C   UNL     1       6.607  19.835  -5.505  1.00  0.00     0.029 A 
ATOM     61  N   UNL     1       7.766  18.785  -7.055  1.00  0.00    -0.354 N 
ATOM     62  N   UNL     1       5.991  15.982  -9.930  1.00  0.00    -0.248 NA
ATOM     63  C   UNL     1       7.851  14.912  -9.013  1.00  0.00     0.031 C 
ATOM     64  C   UNL     1       5.808  19.670  -6.674  1.00  0.00     0.029 A 
ATOM     65  C   UNL     1       6.486  18.817  -7.547  1.00  0.00     0.049 A 
ATOM     66  H   UNL     1       8.587  18.635  -7.577  1.00  0.00     0.167 HD
ATOM     67  C   UNL     1       6.655  16.903  -9.129  1.00  0.00     0.074 A 
ATOM     68  C   UNL     1       7.841  16.197  -8.641  1.00  0.00     0.031 C 
ATOM     69  C   UNL     1       6.037  18.037  -8.680  1.00  0.00     0.031 A 
BRANCH  56  70
ATOM     70  C   UNL     1       9.927  17.929  -4.975  1.00  0.00    -0.014 A 
ATOM     71  C   UNL     1      10.683  18.979  -5.516  1.00  0.00     0.009 A 
ATOM     72  C   UNL     1      10.573  16.681  -4.852  1.00  0.00     0.009 A 
ATOM     73  C   UNL     1      11.987  18.768  -5.978  1.00  0.00     0.001 A 
ATOM     74  C   UNL     1      11.887  16.477  -5.269  1.00  0.00     0.001 A 
ATOM     75  C   UNL     1      12.585  17.516  -5.861  1.00  0.00     0.000 A 
ENDBRANCH  56  70
BRANCH  57  76
ATOM     76  C   UNL     1       6.109  12.297 -10.111  1.00  0.00    -0.014 A 
ATOM     77  C   UNL     1       6.694  12.261 -11.386  1.00  0.00     0.009 A 
ATOM     78  C   UNL     1       6.097  11.096  -9.373  1.00  0.00     0.009 A 
ATOM     79  C   UNL     1       7.261  11.078 -11.890  1.00  0.00     0.001 A 
ATOM     80  C   UNL     1       6.657   9.916  -9.875  1.00  0.00     0.001 A 
ATOM     81  C   UNL     1       7.250   9.909 -11.130  1.00  0.00     0.000 A 
ENDBRANCH  57  76
BRANCH  69  82
ATOM     82  C   UNL     1       4.665  18.373  -9.216  1.00  0.00    -0.014 A 
ATOM     83  C   UNL     1       3.545  17.537  -9.052  1.00  0.00     0.009 A 
ATOM     84  C   UNL     1       4.459  19.659  -9.736  1.00  0.00     0.009 A 
ATOM     85  C   UNL     1       2.265  17.971  -9.417  1.00  0.00     0.001 A 
ATOM     86  C   UNL     1       3.180  20.099 -10.082  1.00  0.00     0.001 A 
ATOM     87  C   UNL     1       2.083  19.255  -9.927  1.00  0.00     0.000 A 
ENDBRANCH  69  82
ENDBRANCH  43  44
ENDBRANCH  36  38
ENDBRANCH  35  36
ENDBRANCH  34  35
ENDBRANCH  33  34
ENDBRANCH  32  33
ENDBRANCH   1  32
TORSDOF 18
