REMARK SMILES O=C(Cc1cn2ccsc2n1)N[C@@H]1C=C[C@H](C(=O)OCCOCCOC(=O)c2ccc(-c3c4nc(c(-c5ccccc5)c5ccc([nH]5)c(-c5ccccc5)c5nc(c(-c6ccccc6)c6ccc3[nH]6)C=C5)C=C4)cc2)C1
REMARK SMILES IDX 21 1 20 2 19 3 17 4 18 5 16 6 13 7 14 8 76 9 15 10 12 11
REMARK SMILES IDX 1 12 2 13 3 15 4 16 5 17 11 18 6 19 10 20 7 21 9 22 8 23
REMARK SMILES IDX 22 24 23 25 24 26 25 27 26 28 27 29 28 30 29 31 75 32 30 33
REMARK SMILES IDX 74 34 31 35 32 36 33 37 68 38 34 39 73 40 67 41 69 42 35 43
REMARK SMILES IDX 72 44 66 45 65 46 36 48 58 49 43 50 57 51 44 52 47 53 56 54
REMARK SMILES IDX 70 55 45 56 46 57 55 59 71 60 48 61 37 62 38 63 42 64 39 65
REMARK SMILES IDX 41 66 40 67 59 68 60 69 64 70 61 71 63 72 62 73 49 74 50 75
REMARK SMILES IDX 54 76 51 77 53 78 52 79
REMARK H PARENT 12 14 69 47 47 58
REMARK Flexibility Score: inf
ROOT
ATOM      1  C   UNL     1      -1.256   7.163  -0.295  1.00  0.00     0.202 C 
ENDROOT
BRANCH   1   2
ATOM      2  C   UNL     1      -0.557   6.811   1.025  1.00  0.00     0.261 C 
BRANCH   2   3
ATOM      3  O   UNL     1       0.776   6.305   0.829  1.00  0.00    -0.463 OA
BRANCH   3   4
ATOM      4  C   UNL     1       1.231   5.590   1.900  1.00  0.00     0.312 C 
ATOM      5  O   UNL     1       0.740   5.677   3.023  1.00  0.00    -0.252 OA
BRANCH   4   6
ATOM      6  C   UNL     1       2.506   4.798   1.577  1.00  0.00     0.124 C 
ATOM      7  C   UNL     1       2.324   2.451   0.781  1.00  0.00     0.106 C 
ATOM      8  C   UNL     1       2.564   2.525   2.248  1.00  0.00    -0.006 C 
ATOM      9  C   UNL     1       2.532   3.903   0.322  1.00  0.00     0.048 C 
ATOM     10  C   UNL     1       2.731   3.785   2.668  1.00  0.00    -0.014 C 
BRANCH   7  11
ATOM     11  N   UNL     1       1.056   1.825   0.468  1.00  0.00    -0.350 N 
ATOM     12  O   UNL     1      -0.395   3.536   0.924  1.00  0.00    -0.275 OA
ATOM     13  C   UNL     1      -0.194   2.387   0.542  1.00  0.00     0.226 C 
ATOM     14  H   UNL     1       1.095   0.888   0.169  1.00  0.00     0.164 HD
BRANCH  13  15
ATOM     15  C   UNL     1      -1.360   1.468   0.213  1.00  0.00     0.157 C 
BRANCH  15  16
ATOM     16  C   UNL     1      -1.299   0.782  -1.113  1.00  0.00     0.070 A 
ATOM     17  C   UNL     1      -2.378   0.354  -1.886  1.00  0.00     0.118 A 
ATOM     18  N   UNL     1      -0.095   0.397  -1.695  1.00  0.00    -0.223 NA
ATOM     19  N   UNL     1      -1.815  -0.288  -2.945  1.00  0.00    -0.297 N 
ATOM     20  C   UNL     1      -0.465  -0.207  -2.791  1.00  0.00     0.193 A 
ATOM     21  C   UNL     1      -2.252  -0.978  -4.052  1.00  0.00     0.104 A 
ATOM     22  S   UNL     1       0.358  -1.008  -4.094  1.00  0.00    -0.105 S 
ATOM     23  C   UNL     1      -1.221  -1.438  -4.783  1.00  0.00     0.087 A 
ENDBRANCH  15  16
ENDBRANCH  13  15
ENDBRANCH   7  11
ENDBRANCH   4   6
ENDBRANCH   3   4
ENDBRANCH   2   3
ENDBRANCH   1   2
BRANCH   1  24
ATOM     24  O   UNL     1      -1.490   6.132  -1.257  1.00  0.00    -0.374 OA
BRANCH  24  25
ATOM     25  C   UNL     1      -0.350   5.438  -1.746  1.00  0.00     0.202 C 
BRANCH  25  26
ATOM     26  C   UNL     1       0.520   6.128  -2.806  1.00  0.00     0.261 C 
BRANCH  26  27
ATOM     27  O   UNL     1       0.831   7.496  -2.510  1.00  0.00    -0.460 OA
BRANCH  27  28
ATOM     28  C   UNL     1       0.026   8.389  -3.131  1.00  0.00     0.338 C 
ATOM     29  O   UNL     1      -0.862   8.159  -3.944  1.00  0.00    -0.246 OA
BRANCH  28  30
ATOM     30  C   UNL     1       0.256   9.732  -2.579  1.00  0.00     0.060 A 
ATOM     31  C   UNL     1      -0.843  10.409  -2.033  1.00  0.00     0.016 A 
ATOM     32  C   UNL     1       1.508  10.345  -2.657  1.00  0.00     0.016 A 
ATOM     33  C   UNL     1      -0.703  11.723  -1.599  1.00  0.00     0.010 A 
ATOM     34  C   UNL     1       1.643  11.669  -2.234  1.00  0.00     0.010 A 
ATOM     35  C   UNL     1       0.530  12.372  -1.737  1.00  0.00    -0.014 A 
BRANCH  35  36
ATOM     36  C   UNL     1       0.609  13.833  -1.514  1.00  0.00     0.031 A 
ATOM     37  C   UNL     1       0.570  14.748  -2.706  1.00  0.00     0.074 A 
ATOM     38  C   UNL     1       0.683  14.334  -0.270  1.00  0.00     0.049 A 
ATOM     39  N   UNL     1       0.653  16.052  -2.753  1.00  0.00    -0.248 NA
ATOM     40  C   UNL     1       0.418  14.105  -4.022  1.00  0.00     0.031 C 
ATOM     41  C   UNL     1       0.677  13.545   0.962  1.00  0.00     0.029 A 
ATOM     42  N   UNL     1       0.779  15.632   0.160  1.00  0.00    -0.354 N 
ATOM     43  C   UNL     1       0.574  16.385  -4.099  1.00  0.00     0.074 A 
ATOM     44  C   UNL     1       0.467  15.147  -4.839  1.00  0.00     0.031 C 
ATOM     45  C   UNL     1       0.772  14.379   2.011  1.00  0.00     0.029 A 
ATOM     46  C   UNL     1       0.881  15.752   1.523  1.00  0.00     0.049 A 
ATOM     47  H   UNL     1       0.775  16.404  -0.451  1.00  0.00     0.167 HD
ATOM     48  C   UNL     1       0.585  17.613  -4.668  1.00  0.00     0.031 A 
ATOM     49  C   UNL     1       1.064  16.846   2.286  1.00  0.00     0.031 A 
ATOM     50  C   UNL     1       0.707  18.841  -3.928  1.00  0.00     0.049 A 
ATOM     51  C   UNL     1       1.156  18.195   1.623  1.00  0.00     0.074 A 
ATOM     52  C   UNL     1       0.717  20.139  -4.406  1.00  0.00     0.029 A 
ATOM     53  N   UNL     1       0.851  18.918  -2.551  1.00  0.00    -0.354 N 
ATOM     54  N   UNL     1       1.056  18.501   0.352  1.00  0.00    -0.248 NA
ATOM     55  C   UNL     1       1.378  19.350   2.504  1.00  0.00     0.031 C 
ATOM     56  C   UNL     1       0.927  20.999  -3.324  1.00  0.00     0.029 A 
ATOM     57  C   UNL     1       0.980  20.241  -2.164  1.00  0.00     0.049 A 
ATOM     58  H   UNL     1       0.859  18.147  -1.939  1.00  0.00     0.167 HD
ATOM     59  C   UNL     1       1.171  19.884   0.283  1.00  0.00     0.074 A 
ATOM     60  C   UNL     1       1.334  20.357   1.643  1.00  0.00     0.031 C 
ATOM     61  C   UNL     1       1.142  20.691  -0.806  1.00  0.00     0.031 A 
BRANCH  48  62
ATOM     62  C   UNL     1       0.503  17.683  -6.168  1.00  0.00    -0.014 A 
ATOM     63  C   UNL     1      -0.679  17.361  -6.853  1.00  0.00     0.009 A 
ATOM     64  C   UNL     1       1.620  18.105  -6.905  1.00  0.00     0.009 A 
ATOM     65  C   UNL     1      -0.729  17.427  -8.248  1.00  0.00     0.001 A 
ATOM     66  C   UNL     1       1.559  18.198  -8.297  1.00  0.00     0.001 A 
ATOM     67  C   UNL     1       0.388  17.850  -8.967  1.00  0.00     0.000 A 
ENDBRANCH  48  62
BRANCH  49  68
ATOM     68  C   UNL     1       1.194  16.714   3.761  1.00  0.00    -0.014 A 
ATOM     69  C   UNL     1       0.203  17.216   4.618  1.00  0.00     0.009 A 
ATOM     70  C   UNL     1       2.325  16.098   4.322  1.00  0.00     0.009 A 
ATOM     71  C   UNL     1       0.353  17.127   6.004  1.00  0.00     0.001 A 
ATOM     72  C   UNL     1       2.458  15.982   5.707  1.00  0.00     0.001 A 
ATOM     73  C   UNL     1       1.477  16.506   6.547  1.00  0.00     0.000 A 
ENDBRANCH  49  68
BRANCH  61  74
ATOM     74  C   UNL     1       1.248  22.172  -0.568  1.00  0.00    -0.014 A 
ATOM     75  C   UNL     1       2.455  22.765  -0.164  1.00  0.00     0.009 A 
ATOM     76  C   UNL     1       0.131  22.991  -0.794  1.00  0.00     0.009 A 
ATOM     77  C   UNL     1       2.528  24.144   0.043  1.00  0.00     0.001 A 
ATOM     78  C   UNL     1       0.216  24.373  -0.619  1.00  0.00     0.001 A 
ATOM     79  C   UNL     1       1.411  24.947  -0.190  1.00  0.00     0.000 A 
ENDBRANCH  61  74
ENDBRANCH  35  36
ENDBRANCH  28  30
ENDBRANCH  27  28
ENDBRANCH  26  27
ENDBRANCH  25  26
ENDBRANCH  24  25
ENDBRANCH   1  24
TORSDOF 17
