REMARK SMILES CC(C)[C@H](C)CNC(=O)N1CC(n2cc(C(=O)OCCOCCOC(=O)c3ccc(-c4c5nc(c(-c6ccccc6)c6ccc([nH]6)c(-c6ccccc6)c6nc(c(-c7ccccc7)c7ccc4[nH]7)C=C6)C=C5)cc3)nn2)C1
REMARK SMILES IDX 20 1 19 2 18 3 16 4 17 5 15 6 13 7 14 8 76 9 75 10 12 11
REMARK SMILES IDX 7 12 8 13 9 15 10 16 11 17 77 18 6 19 4 20 5 21 2 22 1 23
REMARK SMILES IDX 3 24 21 25 22 26 23 27 24 28 25 29 26 30 27 31 28 32 74 33
REMARK SMILES IDX 29 34 73 35 30 36 31 37 32 38 67 39 33 40 72 41 66 42 68 43
REMARK SMILES IDX 34 44 71 45 65 46 64 47 35 49 57 50 42 51 56 52 43 53 46 54
REMARK SMILES IDX 55 55 69 56 44 57 45 58 54 60 70 61 47 62 36 63 37 64 41 65
REMARK SMILES IDX 38 66 40 67 39 68 58 69 59 70 63 71 60 72 62 73 61 74 48 75
REMARK SMILES IDX 49 76 53 77 50 78 52 79 51 80
REMARK H PARENT 7 14 68 48 46 59
REMARK Flexibility Score: inf
ROOT
ATOM      1  C   UNL     1     -12.273   4.995  -2.511  1.00  0.00     0.202 C 
ENDROOT
BRANCH   1   2
ATOM      2  C   UNL     1     -11.068   4.944  -1.569  1.00  0.00     0.261 C 
BRANCH   2   3
ATOM      3  O   UNL     1      -9.900   4.389  -2.198  1.00  0.00    -0.458 OA
BRANCH   3   4
ATOM      4  C   UNL     1      -9.571   3.130  -1.770  1.00  0.00     0.360 C 
ATOM      5  O   UNL     1     -10.138   2.541  -0.863  1.00  0.00    -0.244 OA
BRANCH   4   6
ATOM      6  C   UNL     1      -8.530   2.513  -2.576  1.00  0.00     0.190 A 
ATOM      7  N   UNL     1      -6.791   2.020  -3.765  1.00  0.00    -0.245 N 
ATOM      8  C   UNL     1      -7.545   3.089  -3.358  1.00  0.00     0.147 A 
ATOM      9  N   UNL     1      -7.346   0.861  -3.387  1.00  0.00    -0.066 NA
ATOM     10  N   UNL     1      -8.403   1.146  -2.646  1.00  0.00    -0.123 NA
BRANCH   7  11
ATOM     11  C   UNL     1      -5.505   2.123  -4.383  1.00  0.00     0.148 C 
ATOM     12  N   UNL     1      -1.396   1.937  -3.417  1.00  0.00    -0.338 N 
ATOM     13  C   UNL     1      -2.308   1.327  -4.213  1.00  0.00     0.317 C 
ATOM     14  H   UNL     1      -0.526   2.105  -3.846  1.00  0.00     0.165 HD
ATOM     15  O   UNL     1      -1.901   0.697  -5.189  1.00  0.00    -0.249 OA
ATOM     16  N   UNL     1      -3.626   1.431  -3.929  1.00  0.00    -0.320 N 
ATOM     17  C   UNL     1      -4.755   0.804  -4.612  1.00  0.00     0.150 C 
ATOM     18  C   UNL     1      -4.432   2.475  -3.333  1.00  0.00     0.150 C 
BRANCH  12  19
ATOM     19  C   UNL     1      -1.486   2.389  -2.031  1.00  0.00     0.121 C 
BRANCH  19  20
ATOM     20  C   UNL     1      -1.101   1.266  -1.039  1.00  0.00     0.008 C 
ATOM     21  C   UNL     1       0.392   0.903  -1.168  1.00  0.00     0.010 C 
BRANCH  20  22
ATOM     22  C   UNL     1      -1.513   1.546   0.442  1.00  0.00    -0.013 C 
ATOM     23  C   UNL     1      -0.672   2.614   1.152  1.00  0.00     0.008 C 
ATOM     24  C   UNL     1      -2.996   1.913   0.578  1.00  0.00     0.008 C 
ENDBRANCH  20  22
ENDBRANCH  19  20
ENDBRANCH  12  19
ENDBRANCH   7  11
ENDBRANCH   4   6
ENDBRANCH   3   4
ENDBRANCH   2   3
ENDBRANCH   1   2
BRANCH   1  25
ATOM     25  O   UNL     1     -12.822   3.760  -2.963  1.00  0.00    -0.374 OA
BRANCH  25  26
ATOM     26  C   UNL     1     -12.111   2.956  -3.898  1.00  0.00     0.202 C 
BRANCH  26  27
ATOM     27  C   UNL     1     -11.996   3.455  -5.330  1.00  0.00     0.261 C 
BRANCH  27  28
ATOM     28  O   UNL     1     -11.308   4.695  -5.411  1.00  0.00    -0.460 OA
BRANCH  28  29
ATOM     29  C   UNL     1     -12.118   5.758  -5.620  1.00  0.00     0.338 C 
ATOM     30  O   UNL     1     -13.326   5.808  -5.485  1.00  0.00    -0.246 OA
BRANCH  29  31
ATOM     31  C   UNL     1     -11.318   6.837  -6.207  1.00  0.00     0.060 A 
ATOM     32  C   UNL     1     -12.019   7.975  -6.607  1.00  0.00     0.016 A 
ATOM     33  C   UNL     1     -10.002   6.583  -6.627  1.00  0.00     0.016 A 
ATOM     34  C   UNL     1     -11.491   8.734  -7.624  1.00  0.00     0.010 A 
ATOM     35  C   UNL     1      -9.481   7.334  -7.649  1.00  0.00     0.010 A 
ATOM     36  C   UNL     1     -10.277   8.335  -8.195  1.00  0.00    -0.014 A 
BRANCH  36  37
ATOM     37  C   UNL     1      -9.821   9.051  -9.361  1.00  0.00     0.031 A 
ATOM     38  C   UNL     1      -9.336  10.408  -9.044  1.00  0.00     0.074 A 
ATOM     39  C   UNL     1      -9.776   8.495 -10.584  1.00  0.00     0.049 A 
ATOM     40  N   UNL     1      -9.889  11.529  -9.356  1.00  0.00    -0.248 NA
ATOM     41  C   UNL     1      -8.200  10.522  -8.116  1.00  0.00     0.031 C 
ATOM     42  C   UNL     1      -9.956   7.091 -10.964  1.00  0.00     0.029 A 
ATOM     43  N   UNL     1      -9.439   9.087 -11.756  1.00  0.00    -0.354 N 
ATOM     44  C   UNL     1      -9.065  12.509  -8.821  1.00  0.00     0.074 A 
ATOM     45  C   UNL     1      -8.160  11.839  -7.922  1.00  0.00     0.031 C 
ATOM     46  C   UNL     1      -9.480   6.910 -12.219  1.00  0.00     0.029 A 
ATOM     47  C   UNL     1      -9.099   8.202 -12.768  1.00  0.00     0.049 A 
ATOM     48  H   UNL     1      -9.435  10.064 -11.879  1.00  0.00     0.167 HD
ATOM     49  C   UNL     1      -9.012  13.756  -9.360  1.00  0.00     0.031 A 
ATOM     50  C   UNL     1      -8.473   8.524 -13.928  1.00  0.00     0.031 A 
ATOM     51  C   UNL     1     -10.149  14.024 -10.202  1.00  0.00     0.049 A 
ATOM     52  C   UNL     1      -8.636   9.986 -14.132  1.00  0.00     0.074 A 
ATOM     53  C   UNL     1     -11.514  14.066  -9.998  1.00  0.00     0.029 A 
ATOM     54  N   UNL     1      -9.974  13.893 -11.560  1.00  0.00    -0.354 N 
ATOM     55  N   UNL     1      -9.784  10.548 -14.385  1.00  0.00    -0.248 NA
ATOM     56  C   UNL     1      -7.619  10.870 -13.578  1.00  0.00     0.031 C 
ATOM     57  C   UNL     1     -12.078  13.473 -11.166  1.00  0.00     0.029 A 
ATOM     58  C   UNL     1     -11.035  13.171 -12.044  1.00  0.00     0.049 A 
ATOM     59  H   UNL     1      -9.225  14.252 -12.088  1.00  0.00     0.167 HD
ATOM     60  C   UNL     1      -9.784  11.713 -13.629  1.00  0.00     0.074 A 
ATOM     61  C   UNL     1      -8.391  11.902 -13.224  1.00  0.00     0.031 C 
ATOM     62  C   UNL     1     -10.948  12.251 -13.157  1.00  0.00     0.031 A 
BRANCH  49  63
ATOM     63  C   UNL     1      -7.729  14.536  -9.458  1.00  0.00    -0.014 A 
ATOM     64  C   UNL     1      -7.768  15.835  -9.989  1.00  0.00     0.009 A 
ATOM     65  C   UNL     1      -6.456  13.946  -9.316  1.00  0.00     0.009 A 
ATOM     66  C   UNL     1      -6.600  16.477 -10.418  1.00  0.00     0.001 A 
ATOM     67  C   UNL     1      -5.286  14.600  -9.702  1.00  0.00     0.001 A 
ATOM     68  C   UNL     1      -5.362  15.856 -10.281  1.00  0.00     0.000 A 
ENDBRANCH  49  63
BRANCH  50  69
ATOM     69  C   UNL     1      -7.467   7.732 -14.670  1.00  0.00    -0.014 A 
ATOM     70  C   UNL     1      -7.117   8.063 -15.988  1.00  0.00     0.009 A 
ATOM     71  C   UNL     1      -6.646   6.814 -13.988  1.00  0.00     0.009 A 
ATOM     72  C   UNL     1      -5.970   7.521 -16.587  1.00  0.00     0.001 A 
ATOM     73  C   UNL     1      -5.504   6.271 -14.586  1.00  0.00     0.001 A 
ATOM     74  C   UNL     1      -5.157   6.636 -15.881  1.00  0.00     0.000 A 
ENDBRANCH  50  69
BRANCH  62  75
ATOM     75  C   UNL     1     -12.251  11.667 -13.649  1.00  0.00    -0.014 A 
ATOM     76  C   UNL     1     -12.620  10.324 -13.446  1.00  0.00     0.009 A 
ATOM     77  C   UNL     1     -13.205  12.540 -14.194  1.00  0.00     0.009 A 
ATOM     78  C   UNL     1     -13.894   9.867 -13.805  1.00  0.00     0.001 A 
ATOM     79  C   UNL     1     -14.482  12.088 -14.532  1.00  0.00     0.001 A 
ATOM     80  C   UNL     1     -14.825  10.752 -14.343  1.00  0.00     0.000 A 
ENDBRANCH  62  75
ENDBRANCH  36  37
ENDBRANCH  29  31
ENDBRANCH  28  29
ENDBRANCH  27  28
ENDBRANCH  26  27
ENDBRANCH  25  26
ENDBRANCH   1  25
TORSDOF 18
