REMARK SMILES O=C(OCCOCCOC(=O)c1ccc2c(c1)[C@@H]1C=CC[C@@H]1[C@H](c1ccncc1)N2)c1ccc(-c2c3nc(c(-c4ccccc4)c4ccc([nH]4)c(-c4ccccc4)c4nc(c(-c5ccccc5)c5ccc2[nH]5)C=C4)C=C3)cc1
REMARK SMILES IDX 5 1 4 2 3 3 2 4 1 5 31 6 32 7 78 8 33 9 77 10 34 11 35 12
REMARK SMILES IDX 36 13 71 14 37 15 76 16 70 17 72 18 38 19 75 20 69 21 68 22
REMARK SMILES IDX 39 24 61 25 46 26 60 27 47 28 50 29 59 30 73 31 48 32 49 33
REMARK SMILES IDX 58 35 74 36 51 37 40 38 41 39 45 40 42 41 44 42 43 43 62 44
REMARK SMILES IDX 63 45 67 46 64 47 66 48 65 49 52 50 53 51 57 52 54 53 56 54
REMARK SMILES IDX 55 55 6 56 7 57 8 58 9 59 10 60 11 61 12 62 13 63 17 64
REMARK SMILES IDX 14 65 16 66 15 67 18 68 30 69 19 70 22 71 23 72 20 74 21 75
REMARK SMILES IDX 24 76 25 77 29 78 26 79 28 80 27 81
REMARK H PARENT 72 23 50 34 30 73
REMARK Flexibility Score: inf
ROOT
ATOM      1  C   UNL     1       4.278  -0.711   1.605  1.00  0.00     0.202 C 
ENDROOT
BRANCH   1   2
ATOM      2  C   UNL     1       3.971   0.732   1.197  1.00  0.00     0.261 C 
BRANCH   2   3
ATOM      3  O   UNL     1       2.599   0.850   0.785  1.00  0.00    -0.460 OA
BRANCH   3   4
ATOM      4  C   UNL     1       2.102   0.974  -0.466  1.00  0.00     0.338 C 
ATOM      5  O   UNL     1       0.890   1.135  -0.603  1.00  0.00    -0.246 OA
BRANCH   4   6
ATOM      6  C   UNL     1       2.938   0.928  -1.705  1.00  0.00     0.060 A 
ATOM      7  C   UNL     1       4.143   0.237  -1.835  1.00  0.00     0.016 A 
ATOM      8  C   UNL     1       2.407   1.544  -2.852  1.00  0.00     0.016 A 
ATOM      9  C   UNL     1       4.833   0.197  -3.038  1.00  0.00     0.010 A 
ATOM     10  C   UNL     1       3.073   1.477  -4.079  1.00  0.00     0.010 A 
ATOM     11  C   UNL     1       4.298   0.809  -4.167  1.00  0.00    -0.014 A 
BRANCH  11  12
ATOM     12  C   UNL     1       5.094   0.791  -5.404  1.00  0.00     0.031 A 
ATOM     13  C   UNL     1       5.850   2.023  -5.786  1.00  0.00     0.074 A 
ATOM     14  C   UNL     1       5.226  -0.359  -6.087  1.00  0.00     0.049 A 
ATOM     15  N   UNL     1       6.605   2.239  -6.828  1.00  0.00    -0.248 NA
ATOM     16  C   UNL     1       5.755   3.163  -4.857  1.00  0.00     0.031 C 
ATOM     17  C   UNL     1       4.618  -1.639  -5.710  1.00  0.00     0.029 A 
ATOM     18  N   UNL     1       5.939  -0.649  -7.218  1.00  0.00    -0.354 N 
ATOM     19  C   UNL     1       7.055   3.545  -6.696  1.00  0.00     0.074 A 
ATOM     20  C   UNL     1       6.489   4.075  -5.475  1.00  0.00     0.031 C 
ATOM     21  C   UNL     1       5.007  -2.582  -6.582  1.00  0.00     0.029 A 
ATOM     22  C   UNL     1       5.834  -1.961  -7.610  1.00  0.00     0.049 A 
ATOM     23  H   UNL     1       6.476   0.018  -7.703  1.00  0.00     0.167 HD
ATOM     24  C   UNL     1       7.859   4.240  -7.532  1.00  0.00     0.031 A 
ATOM     25  C   UNL     1       6.329  -2.576  -8.700  1.00  0.00     0.031 A 
ATOM     26  C   UNL     1       8.387   3.694  -8.752  1.00  0.00     0.049 A 
ATOM     27  C   UNL     1       7.138  -1.754  -9.665  1.00  0.00     0.074 A 
ATOM     28  C   UNL     1       9.152   4.314  -9.721  1.00  0.00     0.029 A 
ATOM     29  N   UNL     1       8.194   2.382  -9.165  1.00  0.00    -0.354 N 
ATOM     30  N   UNL     1       7.509  -0.499  -9.569  1.00  0.00    -0.248 NA
ATOM     31  C   UNL     1       7.584  -2.425 -10.892  1.00  0.00     0.031 C 
ATOM     32  C   UNL     1       9.382   3.387 -10.745  1.00  0.00     0.029 A 
ATOM     33  C   UNL     1       8.806   2.177 -10.387  1.00  0.00     0.049 A 
ATOM     34  H   UNL     1       7.694   1.699  -8.662  1.00  0.00     0.167 HD
ATOM     35  C   UNL     1       8.238  -0.229 -10.717  1.00  0.00     0.074 A 
ATOM     36  C   UNL     1       8.278  -1.461 -11.482  1.00  0.00     0.031 C 
ATOM     37  C   UNL     1       8.817   0.932 -11.113  1.00  0.00     0.031 A 
BRANCH  24  38
ATOM     38  C   UNL     1       8.118   5.676  -7.183  1.00  0.00    -0.014 A 
ATOM     39  C   UNL     1       8.955   6.036  -6.114  1.00  0.00     0.009 A 
ATOM     40  C   UNL     1       7.466   6.688  -7.905  1.00  0.00     0.009 A 
ATOM     41  C   UNL     1       9.098   7.378  -5.750  1.00  0.00     0.001 A 
ATOM     42  C   UNL     1       7.629   8.029  -7.554  1.00  0.00     0.001 A 
ATOM     43  C   UNL     1       8.434   8.372  -6.469  1.00  0.00     0.000 A 
ENDBRANCH  24  38
BRANCH  25  44
ATOM     44  C   UNL     1       6.019  -4.007  -8.961  1.00  0.00    -0.014 A 
ATOM     45  C   UNL     1       7.027  -4.982  -8.946  1.00  0.00     0.009 A 
ATOM     46  C   UNL     1       4.699  -4.407  -9.232  1.00  0.00     0.009 A 
ATOM     47  C   UNL     1       6.723  -6.321  -9.214  1.00  0.00     0.001 A 
ATOM     48  C   UNL     1       4.393  -5.749  -9.469  1.00  0.00     0.001 A 
ATOM     49  C   UNL     1       5.407  -6.703  -9.469  1.00  0.00     0.000 A 
ENDBRANCH  25  44
BRANCH  37  50
ATOM     50  C   UNL     1       9.556   0.904 -12.418  1.00  0.00    -0.014 A 
ATOM     51  C   UNL     1       8.866   0.883 -13.640  1.00  0.00     0.009 A 
ATOM     52  C   UNL     1      10.958   0.950 -12.421  1.00  0.00     0.009 A 
ATOM     53  C   UNL     1       9.572   0.881 -14.843  1.00  0.00     0.001 A 
ATOM     54  C   UNL     1      11.659   0.976 -13.626  1.00  0.00     0.001 A 
ATOM     55  C   UNL     1      10.966   0.933 -14.835  1.00  0.00     0.000 A 
ENDBRANCH  37  50
ENDBRANCH  11  12
ENDBRANCH   4   6
ENDBRANCH   3   4
ENDBRANCH   2   3
ENDBRANCH   1   2
BRANCH   1  56
ATOM     56  O   UNL     1       4.078  -1.661   0.560  1.00  0.00    -0.374 OA
BRANCH  56  57
ATOM     57  C   UNL     1       2.761  -2.214   0.457  1.00  0.00     0.202 C 
BRANCH  57  58
ATOM     58  C   UNL     1       2.874  -3.723   0.210  1.00  0.00     0.261 C 
BRANCH  58  59
ATOM     59  O   UNL     1       3.478  -4.320   1.367  1.00  0.00    -0.460 OA
BRANCH  59  60
ATOM     60  C   UNL     1       4.835  -4.270   1.388  1.00  0.00     0.338 C 
ATOM     61  O   UNL     1       5.590  -4.199   0.433  1.00  0.00    -0.246 OA
BRANCH  60  62
ATOM     62  C   UNL     1       5.251  -4.085   2.796  1.00  0.00     0.060 A 
ATOM     63  C   UNL     1       6.327  -3.241   3.077  1.00  0.00     0.018 A 
ATOM     64  C   UNL     1       4.531  -4.667   3.839  1.00  0.00     0.022 A 
ATOM     65  C   UNL     1       6.678  -2.982   4.404  1.00  0.00     0.027 A 
ATOM     66  C   UNL     1       4.886  -4.418   5.172  1.00  0.00    -0.017 A 
ATOM     67  C   UNL     1       5.995  -3.601   5.458  1.00  0.00     0.038 A 
ATOM     68  C   UNL     1       4.091  -5.076   6.274  1.00  0.00     0.049 C 
ATOM     69  N   UNL     1       6.409  -3.383   6.772  1.00  0.00    -0.378 N 
ATOM     70  C   UNL     1       2.654  -4.629   6.327  1.00  0.00    -0.023 C 
ATOM     71  C   UNL     1       4.570  -4.735   7.695  1.00  0.00     0.031 C 
ATOM     72  C   UNL     1       6.068  -4.424   7.732  1.00  0.00     0.114 C 
ATOM     73  H   UNL     1       6.903  -2.572   7.035  1.00  0.00     0.161 HD
ATOM     74  C   UNL     1       2.407  -3.844   7.382  1.00  0.00    -0.030 C 
ATOM     75  C   UNL     1       3.639  -3.619   8.197  1.00  0.00     0.034 C 
BRANCH  72  76
ATOM     76  C   UNL     1       6.551  -4.125   9.139  1.00  0.00    -0.022 A 
ATOM     77  C   UNL     1       6.629  -5.183  10.058  1.00  0.00     0.026 A 
ATOM     78  C   UNL     1       6.898  -2.847   9.588  1.00  0.00     0.026 A 
ATOM     79  C   UNL     1       7.043  -4.925  11.353  1.00  0.00     0.111 A 
ATOM     80  C   UNL     1       7.315  -2.692  10.902  1.00  0.00     0.111 A 
ATOM     81  N   UNL     1       7.395  -3.702  11.794  1.00  0.00    -0.265 NA
ENDBRANCH  72  76
ENDBRANCH  60  62
ENDBRANCH  59  60
ENDBRANCH  58  59
ENDBRANCH  57  58
ENDBRANCH  56  57
ENDBRANCH   1  56
TORSDOF 15
