REMARK SMILES COc1ccccc1[C@@H]1C[N@@H+](Cc2cn3cc(C)ccc3n2)C[C@H]1C(=O)OCCOCCOC(=O)c1ccc(-c2c3nc(c(-c4ccccc4)c4ccc([nH]4)c(-c4ccccc4)c4nc(c(-c5ccccc5)c5ccc2[nH]5)C=C4)C=C3)cc1
REMARK SMILES IDX 30 1 29 2 28 3 27 4 25 5 26 6 24 7 9 8 10 9 11 10 23 11 8 13
REMARK SMILES IDX 3 14 4 15 5 16 7 17 6 18 2 19 1 20 12 21 13 22 14 23 22 24
REMARK SMILES IDX 15 25 21 26 16 27 20 28 17 29 19 30 18 31 31 32 32 33 33 34
REMARK SMILES IDX 34 35 35 36 36 37 37 38 83 39 38 40 82 41 39 42 40 43 41 44
REMARK SMILES IDX 76 45 42 46 81 47 75 48 77 49 43 50 80 51 74 52 73 53 44 55
REMARK SMILES IDX 66 56 51 57 65 58 52 59 55 60 64 61 78 62 53 63 54 64 63 66
REMARK SMILES IDX 79 67 56 68 45 69 46 70 50 71 47 72 49 73 48 74 67 75 68 76
REMARK SMILES IDX 72 77 69 78 71 79 70 80 57 81 58 82 62 83 59 84 61 85 60 86
REMARK H PARENT 11 12 77 54 55 65
REMARK Flexibility Score: inf
ROOT
ATOM      1  O   UNL     1       2.423   4.319   3.515  1.00  0.00    -0.374 OA
ENDROOT
BRANCH   1   2
ATOM      2  C   UNL     1       3.753   3.893   3.801  1.00  0.00     0.202 C 
BRANCH   2   3
ATOM      3  C   UNL     1       3.950   2.375   3.720  1.00  0.00     0.261 C 
BRANCH   3   4
ATOM      4  O   UNL     1       3.755   1.850   2.385  1.00  0.00    -0.463 OA
BRANCH   4   5
ATOM      5  C   UNL     1       2.647   1.090   2.202  1.00  0.00     0.315 C 
ATOM      6  O   UNL     1       1.793   0.907   3.065  1.00  0.00    -0.252 OA
BRANCH   5   7
ATOM      7  C   UNL     1       2.577   0.357   0.875  1.00  0.00     0.167 C 
ATOM      8  C   UNL     1       2.848   1.051  -0.460  1.00  0.00     0.098 C 
ATOM      9  C   UNL     1       3.346  -0.095  -1.359  1.00  0.00     0.272 C 
ATOM     10  N   UNL     1       3.952  -1.113  -0.483  1.00  0.00    -0.329 N 
ATOM     11  C   UNL     1       3.538  -0.833   0.899  1.00  0.00     0.278 C 
ATOM     12  H   UNL     1       3.592  -2.015  -0.791  1.00  0.00     0.348 HD
BRANCH   8  13
ATOM     13  C   UNL     1       1.805   1.942  -1.137  1.00  0.00     0.004 A 
ATOM     14  C   UNL     1       0.478   1.629  -1.460  1.00  0.00     0.122 A 
ATOM     15  C   UNL     1      -0.373   2.601  -2.029  1.00  0.00     0.047 A 
ATOM     16  C   UNL     1       0.099   3.864  -2.384  1.00  0.00     0.004 A 
ATOM     17  C   UNL     1       2.263   3.197  -1.603  1.00  0.00     0.008 A 
ATOM     18  C   UNL     1       1.442   4.144  -2.217  1.00  0.00     0.001 A 
BRANCH  14  19
ATOM     19  O   UNL     1       0.030   0.343  -1.611  1.00  0.00    -0.496 OA
ATOM     20  C   UNL     1      -0.371  -0.324  -0.429  1.00  0.00     0.278 C 
ENDBRANCH  14  19
ENDBRANCH   8  13
BRANCH  10  21
ATOM     21  C   UNL     1       5.409  -1.347  -0.629  1.00  0.00     0.321 C 
BRANCH  21  22
ATOM     22  C   UNL     1       6.208  -0.077  -0.625  1.00  0.00     0.114 A 
ATOM     23  C   UNL     1       6.909   0.489  -1.678  1.00  0.00     0.122 A 
ATOM     24  N   UNL     1       6.076   0.828   0.399  1.00  0.00    -0.228 NA
ATOM     25  N   UNL     1       6.744   1.838  -1.476  1.00  0.00    -0.306 N 
ATOM     26  C   UNL     1       6.254   1.988  -0.186  1.00  0.00     0.137 A 
ATOM     27  C   UNL     1       6.747   2.855  -2.426  1.00  0.00     0.096 A 
ATOM     28  C   UNL     1       5.695   3.243   0.152  1.00  0.00     0.048 A 
ATOM     29  C   UNL     1       6.100   3.999  -2.143  1.00  0.00    -0.034 A 
ATOM     30  C   UNL     1       5.528   4.160  -0.813  1.00  0.00     0.009 A 
ATOM     31  C   UNL     1       5.870   5.093  -3.122  1.00  0.00     0.046 C 
ENDBRANCH  21  22
ENDBRANCH  10  21
ENDBRANCH   5   7
ENDBRANCH   4   5
ENDBRANCH   3   4
ENDBRANCH   2   3
ENDBRANCH   1   2
BRANCH   1  32
ATOM     32  C   UNL     1       2.131   4.511   2.133  1.00  0.00     0.202 C 
BRANCH  32  33
ATOM     33  C   UNL     1       2.522   5.896   1.617  1.00  0.00     0.261 C 
BRANCH  33  34
ATOM     34  O   UNL     1       3.946   6.087   1.631  1.00  0.00    -0.460 OA
BRANCH  34  35
ATOM     35  C   UNL     1       4.453   7.137   2.335  1.00  0.00     0.338 C 
ATOM     36  O   UNL     1       3.862   7.864   3.117  1.00  0.00    -0.246 OA
BRANCH  35  37
ATOM     37  C   UNL     1       5.772   7.434   1.726  1.00  0.00     0.060 A 
ATOM     38  C   UNL     1       6.031   8.742   1.320  1.00  0.00     0.016 A 
ATOM     39  C   UNL     1       6.526   6.392   1.209  1.00  0.00     0.016 A 
ATOM     40  C   UNL     1       6.761   8.954   0.149  1.00  0.00     0.010 A 
ATOM     41  C   UNL     1       7.221   6.606   0.030  1.00  0.00     0.010 A 
ATOM     42  C   UNL     1       7.206   7.858  -0.589  1.00  0.00    -0.014 A 
BRANCH  42  43
ATOM     43  C   UNL     1       7.750   7.984  -1.945  1.00  0.00     0.031 A 
ATOM     44  C   UNL     1       9.174   7.604  -2.057  1.00  0.00     0.074 A 
ATOM     45  C   UNL     1       7.096   8.267  -3.097  1.00  0.00     0.049 A 
ATOM     46  N   UNL     1      10.160   8.408  -1.852  1.00  0.00    -0.248 NA
ATOM     47  C   UNL     1       9.569   6.204  -2.263  1.00  0.00     0.031 C 
ATOM     48  C   UNL     1       5.659   8.374  -3.367  1.00  0.00     0.029 A 
ATOM     49  N   UNL     1       7.640   8.416  -4.346  1.00  0.00    -0.354 N 
ATOM     50  C   UNL     1      11.300   7.678  -2.127  1.00  0.00     0.074 A 
ATOM     51  C   UNL     1      10.895   6.294  -2.117  1.00  0.00     0.031 C 
ATOM     52  C   UNL     1       5.445   8.359  -4.710  1.00  0.00     0.029 A 
ATOM     53  C   UNL     1       6.726   8.438  -5.396  1.00  0.00     0.049 A 
ATOM     54  H   UNL     1       8.610   8.503  -4.491  1.00  0.00     0.167 HD
ATOM     55  C   UNL     1      12.415   8.281  -2.621  1.00  0.00     0.031 A 
ATOM     56  C   UNL     1       7.017   8.541  -6.721  1.00  0.00     0.031 A 
ATOM     57  C   UNL     1      12.258   9.719  -2.679  1.00  0.00     0.049 A 
ATOM     58  C   UNL     1       8.330   9.222  -6.818  1.00  0.00     0.074 A 
ATOM     59  C   UNL     1      11.919  10.702  -1.768  1.00  0.00     0.029 A 
ATOM     60  N   UNL     1      12.020  10.265  -3.921  1.00  0.00    -0.354 N 
ATOM     61  N   UNL     1       8.504  10.470  -6.496  1.00  0.00    -0.248 NA
ATOM     62  C   UNL     1       9.544   8.427  -6.904  1.00  0.00     0.031 C 
ATOM     63  C   UNL     1      11.040  11.574  -2.479  1.00  0.00     0.029 A 
ATOM     64  C   UNL     1      10.962  11.130  -3.799  1.00  0.00     0.049 A 
ATOM     65  H   UNL     1      12.520  10.071  -4.747  1.00  0.00     0.167 HD
ATOM     66  C   UNL     1       9.735  10.491  -5.862  1.00  0.00     0.074 A 
ATOM     67  C   UNL     1      10.389   9.251  -6.276  1.00  0.00     0.031 C 
ATOM     68  C   UNL     1       9.974  11.356  -4.832  1.00  0.00     0.031 A 
BRANCH  55  69
ATOM     69  C   UNL     1      13.475   7.583  -3.426  1.00  0.00    -0.014 A 
ATOM     70  C   UNL     1      14.651   8.292  -3.727  1.00  0.00     0.009 A 
ATOM     71  C   UNL     1      13.279   6.362  -4.096  1.00  0.00     0.009 A 
ATOM     72  C   UNL     1      15.551   7.832  -4.692  1.00  0.00     0.001 A 
ATOM     73  C   UNL     1      14.200   5.876  -5.027  1.00  0.00     0.001 A 
ATOM     74  C   UNL     1      15.323   6.625  -5.344  1.00  0.00     0.000 A 
ENDBRANCH  55  69
BRANCH  56  75
ATOM     75  C   UNL     1       6.328   8.070  -7.944  1.00  0.00    -0.014 A 
ATOM     76  C   UNL     1       6.655   8.606  -9.206  1.00  0.00     0.009 A 
ATOM     77  C   UNL     1       5.583   6.880  -7.920  1.00  0.00     0.009 A 
ATOM     78  C   UNL     1       6.305   7.945 -10.392  1.00  0.00     0.001 A 
ATOM     79  C   UNL     1       5.230   6.221  -9.107  1.00  0.00     0.001 A 
ATOM     80  C   UNL     1       5.609   6.742 -10.341  1.00  0.00     0.000 A 
ENDBRANCH  56  75
BRANCH  68  81
ATOM     81  C   UNL     1       8.973  12.466  -4.586  1.00  0.00    -0.014 A 
ATOM     82  C   UNL     1       7.602  12.240  -4.361  1.00  0.00     0.009 A 
ATOM     83  C   UNL     1       9.453  13.776  -4.439  1.00  0.00     0.009 A 
ATOM     84  C   UNL     1       6.737  13.291  -4.037  1.00  0.00     0.001 A 
ATOM     85  C   UNL     1       8.596  14.823  -4.087  1.00  0.00     0.001 A 
ATOM     86  C   UNL     1       7.237  14.582  -3.894  1.00  0.00     0.000 A 
ENDBRANCH  68  81
ENDBRANCH  42  43
ENDBRANCH  35  37
ENDBRANCH  34  35
ENDBRANCH  33  34
ENDBRANCH  32  33
ENDBRANCH   1  32
TORSDOF 18
