REMARK SMILES CC(C)[NH2+][C@@]1(C(=O)OCCOCCOC(=O)c2ccc(-c3c4nc(c(-c5ccccc5)c5ccc([nH]5)c(-c5ccccc5)c5nc(c(-c6ccccc6)c6ccc3[nH]6)C=C5)C=C4)cc2)CC[C@@H](Sc2cccs2)C1
REMARK SMILES IDX 11 1 10 2 9 3 8 4 6 5 7 6 5 7 65 8 74 9 66 10 67 11 4 12
REMARK SMILES IDX 2 15 1 16 3 17 68 18 69 19 70 20 73 21 71 22 72 23 12 24
REMARK SMILES IDX 13 25 14 26 15 27 16 28 17 29 18 30 64 31 19 32 63 33 20 34
REMARK SMILES IDX 21 35 22 36 57 37 23 38 62 39 56 40 58 41 24 42 61 43 55 44
REMARK SMILES IDX 54 45 25 47 47 48 32 49 46 50 33 51 36 52 45 53 59 54 34 55
REMARK SMILES IDX 35 56 44 58 60 59 37 60 26 61 27 62 31 63 28 64 30 65 29 66
REMARK SMILES IDX 48 67 49 68 53 69 50 70 52 71 51 72 38 73 39 74 43 75 40 76
REMARK SMILES IDX 42 77 41 78
REMARK H PARENT 4 13 4 14 58 46 36 57
REMARK Flexibility Score: inf
ROOT
ATOM      1  O   UNL     1      -4.731  -0.426  -2.936  1.00  0.00    -0.374 OA
ENDROOT
BRANCH   1   2
ATOM      2  C   UNL     1      -5.369   0.787  -3.328  1.00  0.00     0.202 C 
BRANCH   2   3
ATOM      3  C   UNL     1      -4.951   2.062  -2.590  1.00  0.00     0.261 C 
BRANCH   3   4
ATOM      4  O   UNL     1      -3.545   2.322  -2.735  1.00  0.00    -0.459 OA
BRANCH   4   5
ATOM      5  C   UNL     1      -2.833   2.291  -1.574  1.00  0.00     0.368 C 
ATOM      6  O   UNL     1      -3.343   2.220  -0.459  1.00  0.00    -0.245 OA
BRANCH   5   7
ATOM      7  C   UNL     1      -1.279   2.283  -1.808  1.00  0.00     0.195 C 
ATOM      8  C   UNL     1      -0.780   3.636  -1.272  1.00  0.00     0.082 C 
ATOM      9  C   UNL     1      -0.842   2.330  -3.287  1.00  0.00     0.096 C 
ATOM     10  C   UNL     1      -1.094   4.608  -2.412  1.00  0.00     0.022 C 
ATOM     11  C   UNL     1      -0.849   3.813  -3.696  1.00  0.00     0.059 C 
BRANCH   7  12
ATOM     12  N   UNL     1      -0.794   1.113  -1.046  1.00  0.00    -0.330 N 
ATOM     13  H   UNL     1      -1.038   1.287  -0.070  1.00  0.00     0.347 HD
ATOM     14  H   UNL     1      -1.239   0.338  -1.538  1.00  0.00     0.347 HD
BRANCH  12  15
ATOM     15  C   UNL     1       0.604   0.713  -1.050  1.00  0.00     0.176 C 
ATOM     16  C   UNL     1       0.883   0.079   0.319  1.00  0.00     0.075 C 
ATOM     17  C   UNL     1       0.924  -0.334  -2.124  1.00  0.00     0.075 C 
ENDBRANCH  12  15
ENDBRANCH   7  12
BRANCH  11  18
ATOM     18  S   UNL     1       0.647   4.299  -4.643  1.00  0.00    -0.112 SA
BRANCH  18  19
ATOM     19  C   UNL     1       1.917   4.346  -3.427  1.00  0.00     0.060 A 
ATOM     20  C   UNL     1       2.648   3.276  -2.956  1.00  0.00     0.027 A 
ATOM     21  S   UNL     1       2.445   5.817  -2.729  1.00  0.00    -0.137 S 
ATOM     22  C   UNL     1       3.567   3.654  -1.931  1.00  0.00     0.013 A 
ATOM     23  C   UNL     1       3.553   5.012  -1.706  1.00  0.00     0.066 A 
ENDBRANCH  18  19
ENDBRANCH  11  18
ENDBRANCH   5   7
ENDBRANCH   4   5
ENDBRANCH   3   4
ENDBRANCH   2   3
ENDBRANCH   1   2
BRANCH   1  24
ATOM     24  C   UNL     1      -3.392  -0.650  -3.375  1.00  0.00     0.202 C 
BRANCH  24  25
ATOM     25  C   UNL     1      -3.180  -0.949  -4.865  1.00  0.00     0.261 C 
BRANCH  25  26
ATOM     26  O   UNL     1      -3.499   0.177  -5.704  1.00  0.00    -0.460 OA
BRANCH  26  27
ATOM     27  C   UNL     1      -4.511  -0.032  -6.582  1.00  0.00     0.338 C 
ATOM     28  O   UNL     1      -5.116  -1.075  -6.783  1.00  0.00    -0.246 OA
BRANCH  27  29
ATOM     29  C   UNL     1      -4.943   1.251  -7.162  1.00  0.00     0.060 A 
ATOM     30  C   UNL     1      -6.267   1.655  -6.944  1.00  0.00     0.016 A 
ATOM     31  C   UNL     1      -4.090   2.016  -7.958  1.00  0.00     0.016 A 
ATOM     32  C   UNL     1      -6.748   2.824  -7.534  1.00  0.00     0.010 A 
ATOM     33  C   UNL     1      -4.580   3.179  -8.563  1.00  0.00     0.010 A 
ATOM     34  C   UNL     1      -5.914   3.580  -8.367  1.00  0.00    -0.014 A 
BRANCH  34  35
ATOM     35  C   UNL     1      -6.454   4.755  -9.093  1.00  0.00     0.031 A 
ATOM     36  C   UNL     1      -6.863   4.615 -10.532  1.00  0.00     0.074 A 
ATOM     37  C   UNL     1      -6.571   5.941  -8.470  1.00  0.00     0.049 A 
ATOM     38  N   UNL     1      -7.281   5.534 -11.365  1.00  0.00    -0.248 NA
ATOM     39  C   UNL     1      -6.796   3.262 -11.110  1.00  0.00     0.031 C 
ATOM     40  C   UNL     1      -6.259   6.194  -7.064  1.00  0.00     0.029 A 
ATOM     41  N   UNL     1      -6.974   7.162  -8.950  1.00  0.00    -0.354 N 
ATOM     42  C   UNL     1      -7.513   4.877 -12.567  1.00  0.00     0.074 A 
ATOM     43  C   UNL     1      -7.181   3.484 -12.360  1.00  0.00     0.031 C 
ATOM     44  C   UNL     1      -6.467   7.495  -6.798  1.00  0.00     0.029 A 
ATOM     45  C   UNL     1      -6.884   8.173  -8.024  1.00  0.00     0.049 A 
ATOM     46  H   UNL     1      -7.296   7.301  -9.870  1.00  0.00     0.167 HD
ATOM     47  C   UNL     1      -7.961   5.391 -13.737  1.00  0.00     0.031 A 
ATOM     48  C   UNL     1      -7.081   9.498  -8.159  1.00  0.00     0.031 A 
ATOM     49  C   UNL     1      -8.286   6.776 -13.944  1.00  0.00     0.049 A 
ATOM     50  C   UNL     1      -7.471  10.055  -9.502  1.00  0.00     0.074 A 
ATOM     51  C   UNL     1      -8.789   7.380 -15.084  1.00  0.00     0.029 A 
ATOM     52  N   UNL     1      -8.126   7.775 -12.999  1.00  0.00    -0.354 N 
ATOM     53  N   UNL     1      -7.731   9.418 -10.617  1.00  0.00    -0.248 NA
ATOM     54  C   UNL     1      -7.587  11.518  -9.604  1.00  0.00     0.031 C 
ATOM     55  C   UNL     1      -8.871   8.756 -14.849  1.00  0.00     0.029 A 
ATOM     56  C   UNL     1      -8.472   9.000 -13.545  1.00  0.00     0.049 A 
ATOM     57  H   UNL     1      -7.812   7.636 -12.076  1.00  0.00     0.167 HD
ATOM     58  C   UNL     1      -8.059  10.398 -11.546  1.00  0.00     0.074 A 
ATOM     59  C   UNL     1      -7.986  11.671 -10.859  1.00  0.00     0.031 C 
ATOM     60  C   UNL     1      -8.389  10.258 -12.852  1.00  0.00     0.031 A 
BRANCH  47  61
ATOM     61  C   UNL     1      -8.091   4.459 -14.908  1.00  0.00    -0.014 A 
ATOM     62  C   UNL     1      -9.145   3.537 -14.993  1.00  0.00     0.009 A 
ATOM     63  C   UNL     1      -7.188   4.564 -15.977  1.00  0.00     0.009 A 
ATOM     64  C   UNL     1      -9.280   2.725 -16.122  1.00  0.00     0.001 A 
ATOM     65  C   UNL     1      -7.338   3.767 -17.113  1.00  0.00     0.001 A 
ATOM     66  C   UNL     1      -8.382   2.846 -17.183  1.00  0.00     0.000 A 
ENDBRANCH  47  61
BRANCH  48  67
ATOM     67  C   UNL     1      -6.858  10.413  -7.008  1.00  0.00    -0.014 A 
ATOM     68  C   UNL     1      -7.930  11.107  -6.427  1.00  0.00     0.009 A 
ATOM     69  C   UNL     1      -5.561  10.633  -6.516  1.00  0.00     0.009 A 
ATOM     70  C   UNL     1      -7.704  12.025  -5.398  1.00  0.00     0.001 A 
ATOM     71  C   UNL     1      -5.342  11.528  -5.468  1.00  0.00     0.001 A 
ATOM     72  C   UNL     1      -6.411  12.232  -4.918  1.00  0.00     0.000 A 
ENDBRANCH  48  67
BRANCH  60  73
ATOM     73  C   UNL     1      -8.713  11.507 -13.621  1.00  0.00    -0.014 A 
ATOM     74  C   UNL     1      -7.703  12.400 -14.010  1.00  0.00     0.009 A 
ATOM     75  C   UNL     1     -10.038  11.769 -14.004  1.00  0.00     0.009 A 
ATOM     76  C   UNL     1      -8.018  13.545 -14.745  1.00  0.00     0.001 A 
ATOM     77  C   UNL     1     -10.346  12.899 -14.762  1.00  0.00     0.001 A 
ATOM     78  C   UNL     1      -9.337  13.790 -15.125  1.00  0.00     0.000 A 
ENDBRANCH  60  73
ENDBRANCH  34  35
ENDBRANCH  27  29
ENDBRANCH  26  27
ENDBRANCH  25  26
ENDBRANCH  24  25
ENDBRANCH   1  24
TORSDOF 18
