REMARK SMILES C[C@H]1[C@@H](C(=O)OCCOCCOC(=O)c2ccc(-c3c4nc(c(-c5ccccc5)c5ccc([nH]5)c(-c5ccccc5)c5nc(c(-c6ccccc6)c6ccc3[nH]6)C=C5)C=C4)cc2)CCN1C(=O)c1cc2cc(F)ccc2s1
REMARK SMILES IDX 9 1 8 2 7 3 6 4 4 5 5 6 3 7 1 8 2 9 65 10 63 11 64 12 66 13
REMARK SMILES IDX 67 14 68 15 69 16 77 17 70 18 76 19 71 20 75 21 72 22 74 23
REMARK SMILES IDX 73 24 10 25 11 26 12 27 13 28 14 29 15 30 16 31 62 32 17 33
REMARK SMILES IDX 61 34 18 35 19 36 20 37 55 38 21 39 60 40 54 41 56 42 22 43
REMARK SMILES IDX 59 44 53 45 52 46 23 48 45 49 30 50 44 51 31 52 34 53 43 54
REMARK SMILES IDX 57 55 32 56 33 57 42 59 58 60 35 61 24 62 25 63 29 64 26 65
REMARK SMILES IDX 28 66 27 67 46 68 47 69 51 70 48 71 50 72 49 73 36 74 37 75
REMARK SMILES IDX 41 76 38 77 40 78 39 79
REMARK H PARENT 56 47 34 58
REMARK Flexibility Score: inf
ROOT
ATOM      1  O   UNL     1      -0.057   2.200  -4.062  1.00  0.00    -0.374 OA
ENDROOT
BRANCH   1   2
ATOM      2  C   UNL     1       1.287   2.545  -3.711  1.00  0.00     0.202 C 
BRANCH   2   3
ATOM      3  C   UNL     1       1.439   3.208  -2.341  1.00  0.00     0.261 C 
BRANCH   3   4
ATOM      4  O   UNL     1       1.300   2.208  -1.312  1.00  0.00    -0.463 OA
BRANCH   4   5
ATOM      5  C   UNL     1       0.725   2.619  -0.164  1.00  0.00     0.311 C 
ATOM      6  O   UNL     1       0.437   3.787   0.079  1.00  0.00    -0.252 OA
BRANCH   5   7
ATOM      7  C   UNL     1       0.340   1.498   0.782  1.00  0.00     0.123 C 
ATOM      8  C   UNL     1       2.126  -0.174  -0.197  1.00  0.00     0.032 C 
ATOM      9  C   UNL     1       0.967   0.080   0.754  1.00  0.00     0.096 C 
ATOM     10  N   UNL     1      -0.167  -0.831   0.560  1.00  0.00    -0.334 N 
ATOM     11  C   UNL     1      -1.181   1.285   0.707  1.00  0.00     0.039 C 
ATOM     12  C   UNL     1      -1.371  -0.123   0.199  1.00  0.00     0.121 C 
BRANCH  10  13
ATOM     13  C   UNL     1      -0.299  -2.088   1.128  1.00  0.00     0.264 C 
ATOM     14  O   UNL     1      -1.371  -2.439   1.624  1.00  0.00    -0.268 OA
BRANCH  13  15
ATOM     15  C   UNL     1       0.786  -3.039   1.031  1.00  0.00     0.093 A 
ATOM     16  C   UNL     1       1.277  -3.824   2.059  1.00  0.00     0.034 A 
ATOM     17  S   UNL     1       0.996  -3.860  -0.464  1.00  0.00    -0.130 S 
ATOM     18  C   UNL     1       1.039  -5.209   1.726  1.00  0.00    -0.004 A 
ATOM     19  C   UNL     1       0.789  -5.369   0.357  1.00  0.00     0.035 A 
ATOM     20  C   UNL     1       0.889  -6.333   2.570  1.00  0.00     0.048 A 
ATOM     21  C   UNL     1       0.380  -6.599  -0.190  1.00  0.00     0.022 A 
ATOM     22  C   UNL     1       0.405  -7.526   2.037  1.00  0.00     0.123 A 
ATOM     23  C   UNL     1       0.145  -7.663   0.683  1.00  0.00     0.041 A 
ATOM     24  F   UNL     1       0.143  -8.549   2.862  1.00  0.00    -0.207 F 
ENDBRANCH  13  15
ENDBRANCH  10  13
ENDBRANCH   5   7
ENDBRANCH   4   5
ENDBRANCH   3   4
ENDBRANCH   2   3
ENDBRANCH   1   2
BRANCH   1  25
ATOM     25  C   UNL     1      -0.651   1.114  -3.353  1.00  0.00     0.202 C 
BRANCH  25  26
ATOM     26  C   UNL     1      -0.341  -0.283  -3.902  1.00  0.00     0.261 C 
BRANCH  26  27
ATOM     27  O   UNL     1       1.065  -0.578  -3.867  1.00  0.00    -0.460 OA
BRANCH  27  28
ATOM     28  C   UNL     1       1.669  -0.552  -5.075  1.00  0.00     0.338 C 
ATOM     29  O   UNL     1       1.131  -0.398  -6.168  1.00  0.00    -0.246 OA
BRANCH  28  30
ATOM     30  C   UNL     1       3.135  -0.593  -4.931  1.00  0.00     0.060 A 
ATOM     31  C   UNL     1       3.873   0.294  -5.724  1.00  0.00     0.016 A 
ATOM     32  C   UNL     1       3.785  -1.529  -4.122  1.00  0.00     0.016 A 
ATOM     33  C   UNL     1       5.258   0.193  -5.778  1.00  0.00     0.010 A 
ATOM     34  C   UNL     1       5.181  -1.632  -4.180  1.00  0.00     0.010 A 
ATOM     35  C   UNL     1       5.916  -0.806  -5.049  1.00  0.00    -0.014 A 
BRANCH  35  36
ATOM     36  C   UNL     1       7.339  -1.080  -5.364  1.00  0.00     0.031 A 
ATOM     37  C   UNL     1       7.668  -2.180  -6.339  1.00  0.00     0.074 A 
ATOM     38  C   UNL     1       8.318  -0.299  -4.875  1.00  0.00     0.049 A 
ATOM     39  N   UNL     1       8.824  -2.509  -6.858  1.00  0.00    -0.248 NA
ATOM     40  C   UNL     1       6.543  -3.013  -6.795  1.00  0.00     0.031 C 
ATOM     41  C   UNL     1       8.129   0.819  -3.953  1.00  0.00     0.029 A 
ATOM     42  N   UNL     1       9.670  -0.319  -5.112  1.00  0.00    -0.354 N 
ATOM     43  C   UNL     1       8.564  -3.579  -7.705  1.00  0.00     0.074 A 
ATOM     44  C   UNL     1       7.151  -3.870  -7.602  1.00  0.00     0.031 C 
ATOM     45  C   UNL     1       9.322   1.389  -3.711  1.00  0.00     0.029 A 
ATOM     46  C   UNL     1      10.357   0.669  -4.451  1.00  0.00     0.049 A 
ATOM     47  H   UNL     1      10.105  -0.979  -5.698  1.00  0.00     0.167 HD
ATOM     48  C   UNL     1       9.419  -4.253  -8.510  1.00  0.00     0.031 A 
ATOM     49  C   UNL     1      11.671   0.964  -4.451  1.00  0.00     0.031 A 
ATOM     50  C   UNL     1      10.827  -3.981  -8.609  1.00  0.00     0.049 A 
ATOM     51  C   UNL     1      12.611   0.166  -5.313  1.00  0.00     0.074 A 
ATOM     52  C   UNL     1      11.775  -4.605  -9.401  1.00  0.00     0.029 A 
ATOM     53  N   UNL     1      11.491  -3.004  -7.884  1.00  0.00    -0.354 N 
ATOM     54  N   UNL     1      12.344  -0.818  -6.137  1.00  0.00    -0.248 NA
ATOM     55  C   UNL     1      14.033   0.534  -5.255  1.00  0.00     0.031 C 
ATOM     56  C   UNL     1      13.022  -4.033  -9.123  1.00  0.00     0.029 A 
ATOM     57  C   UNL     1      12.840  -3.021  -8.194  1.00  0.00     0.049 A 
ATOM     58  H   UNL     1      11.066  -2.388  -7.244  1.00  0.00     0.167 HD
ATOM     59  C   UNL     1      13.559  -1.168  -6.715  1.00  0.00     0.074 A 
ATOM     60  C   UNL     1      14.559  -0.281  -6.158  1.00  0.00     0.031 C 
ATOM     61  C   UNL     1      13.822  -2.135  -7.628  1.00  0.00     0.031 A 
BRANCH  48  62
ATOM     62  C   UNL     1       8.848  -5.374  -9.331  1.00  0.00    -0.014 A 
ATOM     63  C   UNL     1       8.041  -5.116 -10.451  1.00  0.00     0.009 A 
ATOM     64  C   UNL     1       9.136  -6.705  -8.991  1.00  0.00     0.009 A 
ATOM     65  C   UNL     1       7.507  -6.171 -11.194  1.00  0.00     0.001 A 
ATOM     66  C   UNL     1       8.619  -7.756  -9.750  1.00  0.00     0.001 A 
ATOM     67  C   UNL     1       7.799  -7.489 -10.845  1.00  0.00     0.000 A 
ENDBRANCH  48  62
BRANCH  49  68
ATOM     68  C   UNL     1      12.181   2.077  -3.611  1.00  0.00    -0.014 A 
ATOM     69  C   UNL     1      12.633   3.270  -4.196  1.00  0.00     0.009 A 
ATOM     70  C   UNL     1      12.237   1.941  -2.215  1.00  0.00     0.009 A 
ATOM     71  C   UNL     1      13.153   4.294  -3.401  1.00  0.00     0.001 A 
ATOM     72  C   UNL     1      12.734   2.977  -1.422  1.00  0.00     0.001 A 
ATOM     73  C   UNL     1      13.200   4.148  -2.016  1.00  0.00     0.000 A 
ENDBRANCH  49  68
BRANCH  61  74
ATOM     74  C   UNL     1      15.243  -2.264  -8.100  1.00  0.00    -0.014 A 
ATOM     75  C   UNL     1      16.237  -2.812  -7.275  1.00  0.00     0.009 A 
ATOM     76  C   UNL     1      15.582  -1.857  -9.399  1.00  0.00     0.009 A 
ATOM     77  C   UNL     1      17.553  -2.916  -7.732  1.00  0.00     0.001 A 
ATOM     78  C   UNL     1      16.893  -1.986  -9.862  1.00  0.00     0.001 A 
ATOM     79  C   UNL     1      17.878  -2.506  -9.024  1.00  0.00     0.000 A 
ENDBRANCH  61  74
ENDBRANCH  35  36
ENDBRANCH  28  30
ENDBRANCH  27  28
ENDBRANCH  26  27
ENDBRANCH  25  26
ENDBRANCH   1  25
TORSDOF 16
