REMARK SMILES O=C(/C=C/[C@@]12C=C(O)C(=O)C=C1C(=O)C1=Cc3cc(O)c(O)cc3O[C@@H](c3ccc(O)c(O)c3)[C@@H]12)OCCOCCOC(=O)c1ccc(-c2c3nc(c(-c4ccccc4)c4ccc([nH]4)c(-c4ccccc4)c4nc(c(-c5ccccc5)c5ccc2[nH]5)C=C4)C=C3)cc1
REMARK SMILES IDX 37 1 36 2 2 3 1 4 3 5 4 6 5 7 6 8 12 9 35 10 7 11 11 12
REMARK SMILES IDX 13 13 15 14 9 16 14 17 16 18 10 19 8 20 17 22 18 23 24 24
REMARK SMILES IDX 19 25 23 26 21 27 25 28 26 29 27 31 28 32 34 33 29 34 32 35
REMARK SMILES IDX 30 36 33 37 31 39 20 41 22 43 38 45 39 46 40 47 41 48 42 49
REMARK SMILES IDX 43 50 44 51 45 52 46 53 92 54 47 55 91 56 48 57 49 58 50 59
REMARK SMILES IDX 85 60 51 61 90 62 84 63 86 64 52 65 89 66 83 67 82 68 53 70
REMARK SMILES IDX 75 71 60 72 74 73 61 74 64 75 73 76 87 77 62 78 63 79 72 81
REMARK SMILES IDX 88 82 65 83 54 84 55 85 59 86 56 87 58 88 57 89 76 90 77 91
REMARK SMILES IDX 81 92 78 93 80 94 79 95 66 96 67 97 71 98 68 99 70 100
REMARK SMILES IDX 69 101
REMARK H PARENT 8 21 33 38 31 40 20 42 22 44 86 69 64 80
REMARK Flexibility Score: 90.00
ROOT
ATOM      1  C   UNL     1       4.173  -1.536  -0.430  1.00  0.00     0.261 C 
ENDROOT
BRANCH   1   2
ATOM      2  O   UNL     1       2.889  -1.513   0.202  1.00  0.00    -0.460 OA
BRANCH   2   3
ATOM      3  C   UNL     1       2.433  -0.637   1.115  1.00  0.00     0.330 C 
ATOM      4  O   UNL     1       1.261  -0.712   1.482  1.00  0.00    -0.247 OA
BRANCH   3   5
ATOM      5  C   UNL     1       3.239   0.468   1.678  1.00  0.00     0.090 C 
ATOM      6  C   UNL     1       4.554   0.762   1.692  1.00  0.00    -0.003 C 
BRANCH   6   7
ATOM      7  C   UNL     1       5.190   2.046   2.274  1.00  0.00     0.051 C 
ATOM      8  C   UNL     1       5.144   3.073   1.177  1.00  0.00     0.040 C 
ATOM      9  C   UNL     1       4.414   2.483   3.490  1.00  0.00     0.018 C 
ATOM     10  C   UNL     1       6.579   1.709   2.918  1.00  0.00     0.087 CG0
ATOM     11  C   UNL     1       4.345   4.148   1.214  1.00  0.00     0.160 C 
ATOM     12  C   UNL     1       3.618   3.551   3.593  1.00  0.00     0.065 C 
ATOM     13  C   UNL     1       4.798   1.564   4.587  1.00  0.00     0.186 C 
ATOM     14  C   UNL     1       6.120   1.012   4.187  1.00  0.00     0.009 C 
ATOM     15  G   UNL     1       7.541   2.845   3.388  1.00  0.00     0.000 G0
ATOM     16  C   UNL     1       3.499   4.443   2.416  1.00  0.00     0.220 C 
ATOM     17  O   UNL     1       4.185   1.353   5.611  1.00  0.00    -0.289 OA
ATOM     18  C   UNL     1       6.856   0.140   4.878  1.00  0.00     0.020 C 
ATOM     19  O   UNL     1       2.780   5.436   2.418  1.00  0.00    -0.286 OA
BRANCH  11  20
ATOM     20  O   UNL     1       4.300   5.034   0.155  1.00  0.00    -0.504 OA
ATOM     21  H   UNL     1       4.817   4.876  -0.610  1.00  0.00     0.293 HD
ENDBRANCH  11  20
BRANCH  18  22
ATOM     22  C   UNL     1       8.267   0.000   4.501  1.00  0.00     0.021 A 
ATOM     23  C   UNL     1       8.848  -1.275   4.425  1.00  0.00     0.062 A 
ATOM     24  C   UNL     1       9.069   1.147   4.288  1.00  0.00     0.131 A 
ATOM     25  C   UNL     1      10.216  -1.388   4.189  1.00  0.00     0.158 A 
ATOM     26  C   UNL     1      10.450   1.016   4.144  1.00  0.00     0.097 A 
ATOM     27  C   UNL     1      11.010  -0.249   4.077  1.00  0.00     0.161 A 
BRANCH  24  28
ATOM     28  O   UNL     1       8.598   2.438   4.311  1.00  0.00    -0.484 OA
BRANCH  28  29
ATOM     29  C   UNL     1       7.541   2.845   3.388  1.00  0.00     0.213 CG0
ATOM     30  G   UNL     1       6.579   1.709   2.918  1.00  0.00     0.000 G0
BRANCH  29  31
ATOM     31  C   UNL     1       8.165   3.643   2.249  1.00  0.00    -0.003 A 
ATOM     32  C   UNL     1       7.577   4.853   1.839  1.00  0.00     0.011 A 
ATOM     33  C   UNL     1       9.304   3.200   1.560  1.00  0.00     0.057 A 
ATOM     34  C   UNL     1       8.020   5.522   0.694  1.00  0.00     0.050 A 
ATOM     35  C   UNL     1       9.798   3.917   0.470  1.00  0.00     0.157 A 
ATOM     36  C   UNL     1       9.123   5.038   0.002  1.00  0.00     0.157 A 
BRANCH  35  37
ATOM     37  O   UNL     1      10.937   3.499  -0.158  1.00  0.00    -0.504 OA
ATOM     38  H   UNL     1      11.271   3.979  -0.890  1.00  0.00     0.293 HD
ENDBRANCH  35  37
BRANCH  36  39
ATOM     39  O   UNL     1       9.549   5.664  -1.132  1.00  0.00    -0.504 OA
ATOM     40  H   UNL     1       9.094   6.420  -1.449  1.00  0.00     0.293 HD
ENDBRANCH  36  39
ENDBRANCH  29  31
ENDBRANCH  28  29
ENDBRANCH  24  28
BRANCH  25  41
ATOM     41  O   UNL     1      10.838  -2.600   4.075  1.00  0.00    -0.504 OA
ATOM     42  H   UNL     1      10.341  -3.391   4.144  1.00  0.00     0.293 HD
ENDBRANCH  25  41
BRANCH  27  43
ATOM     43  O   UNL     1      12.357  -0.367   3.894  1.00  0.00    -0.504 OA
ATOM     44  H   UNL     1      12.751  -1.216   3.846  1.00  0.00     0.293 HD
ENDBRANCH  27  43
ENDBRANCH  18  22
ENDBRANCH   6   7
ENDBRANCH   3   5
ENDBRANCH   2   3
ENDBRANCH   1   2
BRANCH   1  45
ATOM     45  C   UNL     1       4.315  -0.498  -1.539  1.00  0.00     0.202 C 
BRANCH  45  46
ATOM     46  O   UNL     1       4.087   0.848  -1.132  1.00  0.00    -0.374 OA
BRANCH  46  47
ATOM     47  C   UNL     1       2.865   1.424  -1.616  1.00  0.00     0.202 C 
BRANCH  47  48
ATOM     48  C   UNL     1       3.060   2.199  -2.924  1.00  0.00     0.261 C 
BRANCH  48  49
ATOM     49  O   UNL     1       3.394   1.283  -3.977  1.00  0.00    -0.460 OA
BRANCH  49  50
ATOM     50  C   UNL     1       4.715   1.168  -4.262  1.00  0.00     0.338 C 
ATOM     51  O   UNL     1       5.611   1.929  -3.943  1.00  0.00    -0.246 OA
BRANCH  50  52
ATOM     52  C   UNL     1       4.935  -0.201  -4.787  1.00  0.00     0.060 A 
ATOM     53  C   UNL     1       3.940  -0.884  -5.496  1.00  0.00     0.016 A 
ATOM     54  C   UNL     1       6.116  -0.861  -4.416  1.00  0.00     0.016 A 
ATOM     55  C   UNL     1       4.120  -2.228  -5.817  1.00  0.00     0.010 A 
ATOM     56  C   UNL     1       6.290  -2.208  -4.725  1.00  0.00     0.010 A 
ATOM     57  C   UNL     1       5.296  -2.894  -5.436  1.00  0.00    -0.014 A 
BRANCH  57  58
ATOM     58  C   UNL     1       5.578  -4.237  -5.981  1.00  0.00     0.031 A 
ATOM     59  C   UNL     1       5.333  -5.488  -5.203  1.00  0.00     0.074 A 
ATOM     60  C   UNL     1       6.083  -4.286  -7.226  1.00  0.00     0.049 A 
ATOM     61  N   UNL     1       5.451  -6.728  -5.603  1.00  0.00    -0.248 NA
ATOM     62  C   UNL     1       4.909  -5.340  -3.804  1.00  0.00     0.031 C 
ATOM     63  C   UNL     1       6.370  -3.111  -8.052  1.00  0.00     0.029 A 
ATOM     64  N   UNL     1       6.435  -5.348  -8.013  1.00  0.00    -0.354 N 
ATOM     65  C   UNL     1       5.103  -7.513  -4.514  1.00  0.00     0.074 A 
ATOM     66  C   UNL     1       4.804  -6.609  -3.422  1.00  0.00     0.031 C 
ATOM     67  C   UNL     1       6.832  -3.518  -9.241  1.00  0.00     0.029 A 
ATOM     68  C   UNL     1       6.898  -4.975  -9.249  1.00  0.00     0.049 A 
ATOM     69  H   UNL     1       6.363  -6.286  -7.722  1.00  0.00     0.167 HD
ATOM     70  C   UNL     1       5.038  -8.865  -4.447  1.00  0.00     0.031 A 
ATOM     71  C   UNL     1       7.324  -5.721 -10.284  1.00  0.00     0.031 A 
ATOM     72  C   UNL     1       5.363  -9.743  -5.544  1.00  0.00     0.049 A 
ATOM     73  C   UNL     1       7.281  -7.213 -10.171  1.00  0.00     0.074 A 
ATOM     74  C   UNL     1       5.256 -11.122  -5.599  1.00  0.00     0.029 A 
ATOM     75  N   UNL     1       5.879  -9.333  -6.765  1.00  0.00    -0.354 N 
ATOM     76  N   UNL     1       6.857  -7.944  -9.168  1.00  0.00    -0.248 NA
ATOM     77  C   UNL     1       7.758  -7.984 -11.325  1.00  0.00     0.031 C 
ATOM     78  C   UNL     1       5.781 -11.552  -6.819  1.00  0.00     0.029 A 
ATOM     79  C   UNL     1       6.146 -10.437  -7.559  1.00  0.00     0.049 A 
ATOM     80  H   UNL     1       6.033  -8.397  -7.029  1.00  0.00     0.167 HD
ATOM     81  C   UNL     1       7.001  -9.263  -9.573  1.00  0.00     0.074 A 
ATOM     82  C   UNL     1       7.542  -9.230 -10.918  1.00  0.00     0.031 C 
ATOM     83  C   UNL     1       6.705 -10.394  -8.888  1.00  0.00     0.031 A 
BRANCH  70  84
ATOM     84  C   UNL     1       4.610  -9.497  -3.150  1.00  0.00    -0.014 A 
ATOM     85  C   UNL     1       5.520 -10.282  -2.423  1.00  0.00     0.009 A 
ATOM     86  C   UNL     1       3.282  -9.414  -2.703  1.00  0.00     0.009 A 
ATOM     87  C   UNL     1       5.110 -10.978  -1.284  1.00  0.00     0.001 A 
ATOM     88  C   UNL     1       2.880 -10.089  -1.547  1.00  0.00     0.001 A 
ATOM     89  C   UNL     1       3.792 -10.877  -0.844  1.00  0.00     0.000 A 
ENDBRANCH  70  84
BRANCH  71  90
ATOM     90  C   UNL     1       7.770  -5.025 -11.516  1.00  0.00    -0.014 A 
ATOM     91  C   UNL     1       8.960  -4.277 -11.517  1.00  0.00     0.009 A 
ATOM     92  C   UNL     1       6.941  -4.986 -12.645  1.00  0.00     0.009 A 
ATOM     93  C   UNL     1       9.290  -3.473 -12.609  1.00  0.00     0.001 A 
ATOM     94  C   UNL     1       7.287  -4.201 -13.747  1.00  0.00     0.001 A 
ATOM     95  C   UNL     1       8.452  -3.434 -13.722  1.00  0.00     0.000 A 
ENDBRANCH  71  90
BRANCH  83  96
ATOM     96  C   UNL     1       6.964 -11.710  -9.565  1.00  0.00    -0.014 A 
ATOM     97  C   UNL     1       5.885 -12.521  -9.952  1.00  0.00     0.009 A 
ATOM     98  C   UNL     1       8.270 -12.203  -9.704  1.00  0.00     0.009 A 
ATOM     99  C   UNL     1       6.106 -13.809 -10.440  1.00  0.00     0.001 A 
ATOM    100  C   UNL     1       8.489 -13.483 -10.219  1.00  0.00     0.001 A 
ATOM    101  C   UNL     1       7.407 -14.289 -10.573  1.00  0.00     0.000 A 
ENDBRANCH  83  96
ENDBRANCH  57  58
ENDBRANCH  50  52
ENDBRANCH  49  50
ENDBRANCH  48  49
ENDBRANCH  47  48
ENDBRANCH  46  47
ENDBRANCH  45  46
ENDBRANCH   1  45
TORSDOF 21
