REMARK SMILES Cc1ccc(NC(=O)Cn2c(CCC(=O)OCCOCCOC(=O)c3ccc(-c4c5nc(c(-c6ccccc6)c6ccc([nH]6)c(-c6ccccc6)c6nc(c(-c7ccccc7)c7ccc4[nH]7)C=C6)C=C5)cc3)ccc2-c2ccccc2)cc1
REMARK SMILES IDX 17 1 16 2 14 3 15 4 13 5 12 6 11 7 10 8 75 9 73 10 74 11
REMARK SMILES IDX 9 12 7 13 6 14 8 16 5 17 1 18 2 19 3 20 83 21 4 22 82 23
REMARK SMILES IDX 76 24 77 25 81 26 78 27 80 28 79 29 18 30 19 31 20 32 21 33
REMARK SMILES IDX 22 34 23 35 24 36 25 37 26 38 72 39 27 40 71 41 28 42 29 43
REMARK SMILES IDX 30 44 65 45 31 46 70 47 64 48 66 49 32 50 69 51 63 52 62 53
REMARK SMILES IDX 33 55 55 56 40 57 54 58 41 59 44 60 53 61 67 62 42 63 43 64
REMARK SMILES IDX 52 66 68 67 45 68 34 69 35 70 39 71 36 72 38 73 37 74 56 75
REMARK SMILES IDX 57 76 61 77 58 78 60 79 59 80 46 81 47 82 51 83 48 84 50 85
REMARK SMILES IDX 49 86
REMARK H PARENT 6 15 66 54 44 65
REMARK Flexibility Score: inf
ROOT
ATOM      1  C   UNL     1      -6.229  -2.162  -0.893  1.00  0.00     0.261 C 
ENDROOT
BRANCH   1   2
ATOM      2  O   UNL     1      -5.175  -1.803  -1.835  1.00  0.00    -0.463 OA
BRANCH   2   3
ATOM      3  C   UNL     1      -5.319  -0.622  -2.497  1.00  0.00     0.306 C 
ATOM      4  O   UNL     1      -6.303   0.108  -2.403  1.00  0.00    -0.252 OA
BRANCH   3   5
ATOM      5  C   UNL     1      -4.225  -0.320  -3.518  1.00  0.00     0.129 C 
BRANCH   5   6
ATOM      6  C   UNL     1      -2.732  -0.312  -3.175  1.00  0.00     0.066 C 
BRANCH   6   7
ATOM      7  C   UNL     1      -2.054  -1.649  -3.095  1.00  0.00     0.019 A 
ATOM      8  N   UNL     1      -2.073  -2.511  -2.020  1.00  0.00    -0.335 N 
ATOM      9  C   UNL     1      -1.728  -3.785  -2.469  1.00  0.00     0.049 A 
ATOM     10  C   UNL     1      -1.222  -2.247  -4.029  1.00  0.00     0.024 A 
ATOM     11  C   UNL     1      -1.003  -3.585  -3.628  1.00  0.00     0.029 A 
BRANCH   8  12
ATOM     12  C   UNL     1      -2.446  -2.256  -0.633  1.00  0.00     0.222 C 
BRANCH  12  13
ATOM     13  C   UNL     1      -2.698  -0.830  -0.208  1.00  0.00     0.244 C 
ATOM     14  N   UNL     1      -1.779   0.067   0.191  1.00  0.00    -0.325 N 
ATOM     15  H   UNL     1      -2.181   0.902   0.524  1.00  0.00     0.169 HD
ATOM     16  O   UNL     1      -3.828  -0.332  -0.241  1.00  0.00    -0.273 OA
BRANCH  14  17
ATOM     17  C   UNL     1      -0.396   0.080   0.237  1.00  0.00     0.041 A 
ATOM     18  C   UNL     1       3.857   0.497  -0.026  1.00  0.00     0.044 C 
ATOM     19  C   UNL     1       2.375   0.371   0.121  1.00  0.00    -0.051 A 
ATOM     20  C   UNL     1       1.795  -0.899   0.193  1.00  0.00     0.005 A 
ATOM     21  C   UNL     1       1.559   1.502   0.159  1.00  0.00     0.005 A 
ATOM     22  C   UNL     1       0.413  -1.045   0.248  1.00  0.00     0.026 A 
ATOM     23  C   UNL     1       0.181   1.355   0.235  1.00  0.00     0.026 A 
ENDBRANCH  14  17
ENDBRANCH  12  13
ENDBRANCH   8  12
BRANCH   9  24
ATOM     24  C   UNL     1      -2.137  -5.050  -1.849  1.00  0.00    -0.002 A 
ATOM     25  C   UNL     1      -1.200  -6.002  -1.435  1.00  0.00     0.010 A 
ATOM     26  C   UNL     1      -3.503  -5.368  -1.768  1.00  0.00     0.010 A 
ATOM     27  C   UNL     1      -1.623  -7.242  -0.942  1.00  0.00     0.001 A 
ATOM     28  C   UNL     1      -3.925  -6.606  -1.278  1.00  0.00     0.001 A 
ATOM     29  C   UNL     1      -2.983  -7.545  -0.865  1.00  0.00     0.000 A 
ENDBRANCH   9  24
ENDBRANCH   6   7
ENDBRANCH   5   6
ENDBRANCH   3   5
ENDBRANCH   2   3
ENDBRANCH   1   2
BRANCH   1  30
ATOM     30  C   UNL     1      -5.743  -2.379   0.562  1.00  0.00     0.202 C 
BRANCH  30  31
ATOM     31  O   UNL     1      -5.935  -1.265   1.437  1.00  0.00    -0.374 OA
BRANCH  31  32
ATOM     32  C   UNL     1      -4.955  -1.037   2.467  1.00  0.00     0.202 C 
BRANCH  32  33
ATOM     33  C   UNL     1      -4.363  -2.248   3.226  1.00  0.00     0.261 C 
BRANCH  33  34
ATOM     34  O   UNL     1      -5.416  -2.973   3.888  1.00  0.00    -0.460 OA
BRANCH  34  35
ATOM     35  C   UNL     1      -5.680  -4.239   3.451  1.00  0.00     0.338 C 
ATOM     36  O   UNL     1      -4.850  -5.064   3.124  1.00  0.00    -0.246 OA
BRANCH  35  37
ATOM     37  C   UNL     1      -7.157  -4.367   3.206  1.00  0.00     0.060 A 
ATOM     38  C   UNL     1      -7.816  -5.553   2.826  1.00  0.00     0.016 A 
ATOM     39  C   UNL     1      -7.859  -3.191   3.078  1.00  0.00     0.016 A 
ATOM     40  C   UNL     1      -9.159  -5.545   2.290  1.00  0.00     0.010 A 
ATOM     41  C   UNL     1      -9.090  -3.196   2.449  1.00  0.00     0.010 A 
ATOM     42  C   UNL     1      -9.835  -4.343   2.053  1.00  0.00    -0.014 A 
BRANCH  42  43
ATOM     43  C   UNL     1     -11.198  -4.038   1.418  1.00  0.00     0.031 A 
ATOM     44  C   UNL     1     -11.406  -2.595   1.313  1.00  0.00     0.074 A 
ATOM     45  C   UNL     1     -12.228  -4.539   0.666  1.00  0.00     0.049 A 
ATOM     46  N   UNL     1     -11.010  -1.978   0.253  1.00  0.00    -0.248 NA
ATOM     47  C   UNL     1     -11.838  -1.771   2.426  1.00  0.00     0.031 C 
ATOM     48  C   UNL     1     -12.365  -5.875   0.120  1.00  0.00     0.029 A 
ATOM     49  N   UNL     1     -13.329  -3.822   0.064  1.00  0.00    -0.354 N 
ATOM     50  C   UNL     1     -11.280  -0.660   0.457  1.00  0.00     0.074 A 
ATOM     51  C   UNL     1     -11.630  -0.575   1.869  1.00  0.00     0.031 C 
ATOM     52  C   UNL     1     -13.329  -5.864  -0.830  1.00  0.00     0.029 A 
ATOM     53  C   UNL     1     -13.929  -4.518  -0.980  1.00  0.00     0.049 A 
ATOM     54  H   UNL     1     -13.624  -2.932   0.363  1.00  0.00     0.167 HD
ATOM     55  C   UNL     1     -11.309   0.185  -0.607  1.00  0.00     0.031 A 
ATOM     56  C   UNL     1     -14.522  -4.079  -2.141  1.00  0.00     0.031 A 
ATOM     57  C   UNL     1     -10.697  -0.337  -1.857  1.00  0.00     0.049 A 
ATOM     58  C   UNL     1     -13.411  -4.285  -3.106  1.00  0.00     0.074 A 
ATOM     59  C   UNL     1      -9.869   0.189  -2.834  1.00  0.00     0.029 A 
ATOM     60  N   UNL     1     -10.840  -1.674  -2.223  1.00  0.00    -0.354 N 
ATOM     61  N   UNL     1     -12.407  -3.469  -3.081  1.00  0.00    -0.248 NA
ATOM     62  C   UNL     1     -13.358  -5.305  -4.132  1.00  0.00     0.031 C 
ATOM     63  C   UNL     1      -9.532  -0.850  -3.766  1.00  0.00     0.029 A 
ATOM     64  C   UNL     1     -10.137  -2.032  -3.367  1.00  0.00     0.049 A 
ATOM     65  H   UNL     1     -11.391  -2.312  -1.715  1.00  0.00     0.167 HD
ATOM     66  C   UNL     1     -11.482  -3.935  -3.960  1.00  0.00     0.074 A 
ATOM     67  C   UNL     1     -12.142  -5.045  -4.636  1.00  0.00     0.031 C 
ATOM     68  C   UNL     1     -10.228  -3.409  -3.923  1.00  0.00     0.031 A 
BRANCH  55  69
ATOM     69  C   UNL     1     -12.136   1.454  -0.517  1.00  0.00    -0.014 A 
ATOM     70  C   UNL     1     -12.684   1.994  -1.689  1.00  0.00     0.009 A 
ATOM     71  C   UNL     1     -12.555   2.066   0.683  1.00  0.00     0.009 A 
ATOM     72  C   UNL     1     -13.635   3.027  -1.651  1.00  0.00     0.001 A 
ATOM     73  C   UNL     1     -13.540   3.057   0.737  1.00  0.00     0.001 A 
ATOM     74  C   UNL     1     -14.085   3.537  -0.437  1.00  0.00     0.000 A 
ENDBRANCH  55  69
BRANCH  56  75
ATOM     75  C   UNL     1     -15.361  -2.885  -2.593  1.00  0.00    -0.014 A 
ATOM     76  C   UNL     1     -16.758  -2.953  -2.501  1.00  0.00     0.009 A 
ATOM     77  C   UNL     1     -14.852  -1.878  -3.460  1.00  0.00     0.009 A 
ATOM     78  C   UNL     1     -17.588  -2.123  -3.289  1.00  0.00     0.001 A 
ATOM     79  C   UNL     1     -15.673  -1.076  -4.268  1.00  0.00     0.001 A 
ATOM     80  C   UNL     1     -17.048  -1.211  -4.195  1.00  0.00     0.000 A 
ENDBRANCH  56  75
BRANCH  68  81
ATOM     81  C   UNL     1      -9.029  -4.226  -4.370  1.00  0.00    -0.014 A 
ATOM     82  C   UNL     1      -9.087  -5.591  -4.728  1.00  0.00     0.009 A 
ATOM     83  C   UNL     1      -7.737  -3.685  -4.280  1.00  0.00     0.009 A 
ATOM     84  C   UNL     1      -7.954  -6.336  -5.079  1.00  0.00     0.001 A 
ATOM     85  C   UNL     1      -6.591  -4.431  -4.598  1.00  0.00     0.001 A 
ATOM     86  C   UNL     1      -6.701  -5.751  -5.019  1.00  0.00     0.000 A 
ENDBRANCH  68  81
ENDBRANCH  42  43
ENDBRANCH  35  37
ENDBRANCH  34  35
ENDBRANCH  33  34
ENDBRANCH  32  33
ENDBRANCH  31  32
ENDBRANCH  30  31
ENDBRANCH   1  30
TORSDOF 20
