REMARK SMILES NS(=O)(=O)c1ccc(N2N=C(C(=O)OCCOCCOC(=O)c3ccc(-c4c5nc(c(-c6ccccc6)c6ccc([nH]6)c(-c6ccccc6)c6nc(c(-c7ccccc7)c7ccc4[nH]7)C=C6)C=C5)cc3)C[C@H]2c2ccco2)cc1
REMARK SMILES IDX 16 1 15 2 14 3 12 4 13 5 11 6 9 7 10 8 72 9 71 10 8 11 5 12
REMARK SMILES IDX 6 13 79 14 7 15 78 16 2 17 3 18 4 19 1 20 73 23 74 24 77 25
REMARK SMILES IDX 75 26 76 27 17 28 18 29 19 30 20 31 21 32 22 33 23 34 24 35
REMARK SMILES IDX 70 36 25 37 69 38 26 39 27 40 28 41 63 42 29 43 68 44 62 45
REMARK SMILES IDX 64 46 30 47 67 48 61 49 60 50 31 52 53 53 38 54 52 55 39 56
REMARK SMILES IDX 42 57 51 58 65 59 40 60 41 61 50 63 66 64 43 65 32 66 33 67
REMARK SMILES IDX 37 68 34 69 36 70 35 71 54 72 55 73 59 74 56 75 58 76 57 77
REMARK SMILES IDX 44 78 45 79 49 80 46 81 48 82 47 83
REMARK H PARENT 1 21 1 22 64 51 42 62
REMARK Flexibility Score: inf
ROOT
ATOM      1  C   UNL     1       5.949  -2.633  10.489  1.00  0.00     0.202 C 
ENDROOT
BRANCH   1   2
ATOM      2  C   UNL     1       6.089  -1.109  10.455  1.00  0.00     0.261 C 
BRANCH   2   3
ATOM      3  O   UNL     1       4.873  -0.515   9.980  1.00  0.00    -0.459 OA
BRANCH   3   4
ATOM      4  C   UNL     1       5.025   0.344   8.950  1.00  0.00     0.354 C 
ATOM      5  O   UNL     1       6.052   0.848   8.541  1.00  0.00    -0.245 OA
BRANCH   4   6
ATOM      6  C   UNL     1       3.700   0.504   8.252  1.00  0.00     0.148 C 
ATOM      7  N   UNL     1       2.252   0.640   6.714  1.00  0.00    -0.254 N 
ATOM      8  N   UNL     1       3.575   0.414   6.963  1.00  0.00    -0.169 NA
ATOM      9  C   UNL     1       1.555   1.207   7.884  1.00  0.00     0.180 C 
ATOM     10  C   UNL     1       2.429   0.661   9.025  1.00  0.00     0.101 C 
BRANCH   7  11
ATOM     11  C   UNL     1       1.857   0.818   5.397  1.00  0.00     0.060 A 
ATOM     12  C   UNL     1       1.075   1.121   2.715  1.00  0.00     0.082 A 
ATOM     13  C   UNL     1       0.964  -0.127   3.332  1.00  0.00     0.024 A 
ATOM     14  C   UNL     1       1.595   2.211   3.413  1.00  0.00     0.024 A 
ATOM     15  C   UNL     1       1.357  -0.271   4.667  1.00  0.00     0.029 A 
ATOM     16  C   UNL     1       1.995   2.048   4.741  1.00  0.00     0.029 A 
BRANCH  12  17
ATOM     17  S   UNL     1       0.564   1.319   1.036  1.00  0.00     0.238 S 
ATOM     18  O   UNL     1       1.138   2.539   0.504  1.00  0.00    -0.207 OA
ATOM     19  O   UNL     1      -0.841   1.020   0.946  1.00  0.00    -0.207 OA
BRANCH  17  20
ATOM     20  N   UNL     1       1.366   0.077   0.240  1.00  0.00    -0.225 NA
ATOM     21  H   UNL     1       1.135   0.104  -0.753  1.00  0.00     0.137 HD
ATOM     22  H   UNL     1       1.079  -0.820   0.632  1.00  0.00     0.137 HD
ENDBRANCH  17  20
ENDBRANCH  12  17
ENDBRANCH   7  11
BRANCH   9  23
ATOM     23  C   UNL     1       1.425   2.706   7.952  1.00  0.00     0.128 A 
ATOM     24  C   UNL     1       0.559   3.603   7.355  1.00  0.00     0.048 A 
ATOM     25  O   UNL     1       2.306   3.388   8.746  1.00  0.00    -0.467 OA
ATOM     26  C   UNL     1       0.946   4.893   7.792  1.00  0.00     0.042 A 
ATOM     27  C   UNL     1       2.005   4.706   8.647  1.00  0.00     0.195 A 
ENDBRANCH   9  23
ENDBRANCH   4   6
ENDBRANCH   3   4
ENDBRANCH   2   3
ENDBRANCH   1   2
BRANCH   1  28
ATOM     28  O   UNL     1       5.738  -3.262   9.225  1.00  0.00    -0.374 OA
BRANCH  28  29
ATOM     29  C   UNL     1       4.423  -3.208   8.669  1.00  0.00     0.202 C 
BRANCH  29  30
ATOM     30  C   UNL     1       3.397  -4.186   9.256  1.00  0.00     0.261 C 
BRANCH  30  31
ATOM     31  O   UNL     1       3.105  -3.909  10.639  1.00  0.00    -0.460 OA
BRANCH  31  32
ATOM     32  C   UNL     1       3.563  -4.842  11.510  1.00  0.00     0.338 C 
ATOM     33  O   UNL     1       4.118  -5.895  11.245  1.00  0.00    -0.246 OA
BRANCH  32  34
ATOM     34  C   UNL     1       3.454  -4.342  12.894  1.00  0.00     0.060 A 
ATOM     35  C   UNL     1       4.609  -4.378  13.687  1.00  0.00     0.016 A 
ATOM     36  C   UNL     1       2.236  -3.926  13.435  1.00  0.00     0.016 A 
ATOM     37  C   UNL     1       4.540  -4.044  15.038  1.00  0.00     0.010 A 
ATOM     38  C   UNL     1       2.167  -3.597  14.794  1.00  0.00     0.010 A 
ATOM     39  C   UNL     1       3.311  -3.688  15.609  1.00  0.00    -0.014 A 
BRANCH  39  40
ATOM     40  C   UNL     1       3.201  -3.542  17.081  1.00  0.00     0.031 A 
ATOM     41  C   UNL     1       2.639  -4.677  17.892  1.00  0.00     0.074 A 
ATOM     42  C   UNL     1       3.628  -2.424  17.695  1.00  0.00     0.049 A 
ATOM     43  N   UNL     1       2.444  -4.755  19.185  1.00  0.00    -0.248 NA
ATOM     44  C   UNL     1       2.246  -5.885  17.149  1.00  0.00     0.031 C 
ATOM     45  C   UNL     1       4.233  -1.271  17.032  1.00  0.00     0.029 A 
ATOM     46  N   UNL     1       3.615  -2.080  19.024  1.00  0.00    -0.354 N 
ATOM     47  C   UNL     1       1.903  -6.015  19.408  1.00  0.00     0.074 A 
ATOM     48  C   UNL     1       1.771  -6.655  18.117  1.00  0.00     0.031 C 
ATOM     49  C   UNL     1       4.533  -0.344  17.958  1.00  0.00     0.029 A 
ATOM     50  C   UNL     1       4.113  -0.825  19.272  1.00  0.00     0.049 A 
ATOM     51  H   UNL     1       3.280  -2.677  19.732  1.00  0.00     0.167 HD
ATOM     52  C   UNL     1       1.553  -6.593  20.582  1.00  0.00     0.031 A 
ATOM     53  C   UNL     1       4.205  -0.137  20.426  1.00  0.00     0.031 A 
ATOM     54  C   UNL     1       1.669  -5.957  21.867  1.00  0.00     0.049 A 
ATOM     55  C   UNL     1       3.733  -0.769  21.708  1.00  0.00     0.074 A 
ATOM     56  C   UNL     1       1.350  -6.467  23.114  1.00  0.00     0.029 A 
ATOM     57  N   UNL     1       2.135  -4.667  22.070  1.00  0.00    -0.354 N 
ATOM     58  N   UNL     1       3.243  -1.968  21.907  1.00  0.00    -0.248 NA
ATOM     59  C   UNL     1       3.835   0.049  22.925  1.00  0.00     0.031 C 
ATOM     60  C   UNL     1       1.573  -5.466  24.066  1.00  0.00     0.029 A 
ATOM     61  C   UNL     1       2.086  -4.354  23.418  1.00  0.00     0.049 A 
ATOM     62  H   UNL     1       2.453  -4.064  21.360  1.00  0.00     0.167 HD
ATOM     63  C   UNL     1       3.006  -2.059  23.274  1.00  0.00     0.074 A 
ATOM     64  C   UNL     1       3.418  -0.799  23.855  1.00  0.00     0.031 C 
ATOM     65  C   UNL     1       2.497  -3.096  23.984  1.00  0.00     0.031 A 
BRANCH  52  66
ATOM     66  C   UNL     1       0.977  -7.980  20.524  1.00  0.00    -0.014 A 
ATOM     67  C   UNL     1       1.783  -9.092  20.229  1.00  0.00     0.009 A 
ATOM     68  C   UNL     1      -0.384  -8.181  20.800  1.00  0.00     0.009 A 
ATOM     69  C   UNL     1       1.228 -10.373  20.179  1.00  0.00     0.001 A 
ATOM     70  C   UNL     1      -0.930  -9.466  20.775  1.00  0.00     0.001 A 
ATOM     71  C   UNL     1      -0.126 -10.559  20.456  1.00  0.00     0.000 A 
ENDBRANCH  52  66
BRANCH  53  72
ATOM     72  C   UNL     1       4.756   1.244  20.427  1.00  0.00    -0.014 A 
ATOM     73  C   UNL     1       5.998   1.518  21.017  1.00  0.00     0.009 A 
ATOM     74  C   UNL     1       4.027   2.299  19.856  1.00  0.00     0.009 A 
ATOM     75  C   UNL     1       6.489   2.825  21.057  1.00  0.00     0.001 A 
ATOM     76  C   UNL     1       4.534   3.600  19.872  1.00  0.00     0.001 A 
ATOM     77  C   UNL     1       5.759   3.864  20.481  1.00  0.00     0.000 A 
ENDBRANCH  53  72
BRANCH  65  78
ATOM     78  C   UNL     1       2.392  -2.926  25.474  1.00  0.00    -0.014 A 
ATOM     79  C   UNL     1       1.425  -2.086  26.047  1.00  0.00     0.009 A 
ATOM     80  C   UNL     1       3.251  -3.648  26.317  1.00  0.00     0.009 A 
ATOM     81  C   UNL     1       1.343  -1.948  27.434  1.00  0.00     0.001 A 
ATOM     82  C   UNL     1       3.148  -3.531  27.704  1.00  0.00     0.001 A 
ATOM     83  C   UNL     1       2.201  -2.674  28.261  1.00  0.00     0.000 A 
ENDBRANCH  65  78
ENDBRANCH  39  40
ENDBRANCH  32  34
ENDBRANCH  31  32
ENDBRANCH  30  31
ENDBRANCH  29  30
ENDBRANCH  28  29
ENDBRANCH   1  28
TORSDOF 18
