REMARK SMILES NC(=O)c1c(-c2ccc(Cl)cc2)csc1NC(=O)[C@H]1[C@@H](C(=O)OCCOCCOC(=O)c2ccc(-c3c4nc(c(-c5ccccc5)c5ccc([nH]5)c(-c5ccccc5)c5nc(c(-c6ccccc6)c6ccc3[nH]6)C=C5)C=C4)cc2)[C@@H]2CC[C@H]1O2
REMARK SMILES IDX 25 1 24 2 23 3 21 4 22 5 20 6 19 7 83 8 80 9 82 10 84 11
REMARK SMILES IDX 81 12 17 13 16 14 18 16 15 17 4 18 5 19 13 20 14 21 2 22
REMARK SMILES IDX 1 23 3 26 6 27 7 28 12 29 8 30 11 31 9 32 10 33 26 34 27 35
REMARK SMILES IDX 28 36 29 37 30 38 31 39 32 40 33 41 79 42 34 43 78 44 35 45
REMARK SMILES IDX 36 46 37 47 72 48 38 49 77 50 71 51 73 52 39 53 76 54 70 55
REMARK SMILES IDX 69 56 40 58 62 59 47 60 61 61 48 62 51 63 60 64 74 65 49 66
REMARK SMILES IDX 50 67 59 69 75 70 52 71 41 72 42 73 46 74 43 75 45 76 44 77
REMARK SMILES IDX 63 78 64 79 68 80 65 81 67 82 66 83 53 84 54 85 58 86 55 87
REMARK SMILES IDX 57 88 56 89
REMARK H PARENT 16 15 1 24 1 25 73 57 51 68
REMARK Flexibility Score: inf
ROOT
ATOM      1  C   UNL     1      -0.522 -11.624  -0.880  1.00  0.00     0.202 C 
ENDROOT
BRANCH   1   2
ATOM      2  C   UNL     1       0.352 -10.830   0.064  1.00  0.00     0.261 C 
BRANCH   2   3
ATOM      3  O   UNL     1      -0.200  -9.677   0.704  1.00  0.00    -0.463 OA
BRANCH   3   4
ATOM      4  C   UNL     1       0.298  -8.536   0.177  1.00  0.00     0.312 C 
ATOM      5  O   UNL     1       0.725  -8.447  -0.970  1.00  0.00    -0.252 OA
BRANCH   4   6
ATOM      6  C   UNL     1       0.186  -7.339   1.061  1.00  0.00     0.143 C 
ATOM      7  C   UNL     1       1.370  -6.390   0.856  1.00  0.00     0.124 C 
ATOM      8  C   UNL     1       1.512  -5.771   2.234  1.00  0.00     0.132 C 
ATOM      9  C   UNL     1       0.125  -7.423   2.596  1.00  0.00     0.133 C 
ATOM     10  C   UNL     1       0.217  -5.057   2.674  1.00  0.00     0.035 C 
ATOM     11  O   UNL     1       1.423  -6.955   3.042  1.00  0.00    -0.373 OA
ATOM     12  C   UNL     1      -0.662  -6.233   3.145  1.00  0.00     0.036 C 
BRANCH   7  13
ATOM     13  C   UNL     1       2.712  -6.837   0.218  1.00  0.00     0.231 C 
ATOM     14  N   UNL     1       3.339  -8.049   0.242  1.00  0.00    -0.317 N 
ATOM     15  H   UNL     1       3.982  -8.140  -0.498  1.00  0.00     0.170 HD
ATOM     16  O   UNL     1       3.264  -5.982  -0.502  1.00  0.00    -0.274 OA
BRANCH  14  17
ATOM     17  C   UNL     1       3.308  -9.186   1.034  1.00  0.00     0.108 A 
ATOM     18  C   UNL     1       3.550 -10.509   0.639  1.00  0.00     0.082 A 
ATOM     19  C   UNL     1       3.247 -11.429   1.736  1.00  0.00     0.007 A 
ATOM     20  C   UNL     1       3.026 -10.738   2.911  1.00  0.00     0.076 A 
ATOM     21  S   UNL     1       3.201  -9.062   2.710  1.00  0.00    -0.125 S 
BRANCH  18  22
ATOM     22  C   UNL     1       3.893 -10.818  -0.753  1.00  0.00     0.252 C 
ATOM     23  N   UNL     1       3.415 -11.984  -1.278  1.00  0.00    -0.365 N 
ATOM     24  H   UNL     1       3.623 -12.227  -2.209  1.00  0.00     0.159 HD
ATOM     25  H   UNL     1       2.862 -12.582  -0.725  1.00  0.00     0.159 HD
ATOM     26  O   UNL     1       4.534 -10.046  -1.460  1.00  0.00    -0.269 OA
ENDBRANCH  18  22
BRANCH  19  27
ATOM     27  C   UNL     1       3.085 -12.886   1.728  1.00  0.00    -0.017 A 
ATOM     28  C   UNL     1       1.853 -13.454   2.096  1.00  0.00     0.010 A 
ATOM     29  C   UNL     1       4.113 -13.731   1.300  1.00  0.00     0.010 A 
ATOM     30  C   UNL     1       1.633 -14.825   1.959  1.00  0.00     0.021 A 
ATOM     31  C   UNL     1       3.901 -15.114   1.210  1.00  0.00     0.021 A 
ATOM     32  C   UNL     1       2.658 -15.654   1.528  1.00  0.00     0.041 A 
ATOM     33  Cl  UNL     1       2.376 -17.343   1.387  1.00  0.00    -0.084 Cl
ENDBRANCH  19  27
ENDBRANCH  14  17
ENDBRANCH   7  13
ENDBRANCH   4   6
ENDBRANCH   3   4
ENDBRANCH   2   3
ENDBRANCH   1   2
BRANCH   1  34
ATOM     34  O   UNL     1      -0.853 -11.049  -2.133  1.00  0.00    -0.374 OA
BRANCH  34  35
ATOM     35  C   UNL     1      -1.824 -10.008  -2.124  1.00  0.00     0.202 C 
BRANCH  35  36
ATOM     36  C   UNL     1      -3.290 -10.438  -1.955  1.00  0.00     0.261 C 
BRANCH  36  37
ATOM     37  O   UNL     1      -3.484 -11.409  -0.913  1.00  0.00    -0.460 OA
BRANCH  37  38
ATOM     38  C   UNL     1      -3.495 -12.701  -1.349  1.00  0.00     0.338 C 
ATOM     39  O   UNL     1      -3.559 -13.085  -2.496  1.00  0.00    -0.246 OA
BRANCH  38  40
ATOM     40  C   UNL     1      -3.188 -13.610  -0.210  1.00  0.00     0.060 A 
ATOM     41  C   UNL     1      -2.295 -14.664  -0.453  1.00  0.00     0.016 A 
ATOM     42  C   UNL     1      -3.720 -13.427   1.070  1.00  0.00     0.016 A 
ATOM     43  C   UNL     1      -1.996 -15.578   0.559  1.00  0.00     0.010 A 
ATOM     44  C   UNL     1      -3.447 -14.362   2.078  1.00  0.00     0.010 A 
ATOM     45  C   UNL     1      -2.626 -15.470   1.810  1.00  0.00    -0.014 A 
BRANCH  45  46
ATOM     46  C   UNL     1      -2.669 -16.674   2.681  1.00  0.00     0.031 A 
ATOM     47  C   UNL     1      -3.651 -17.754   2.304  1.00  0.00     0.074 A 
ATOM     48  C   UNL     1      -1.854 -16.850   3.736  1.00  0.00     0.049 A 
ATOM     49  N   UNL     1      -3.839 -18.933   2.838  1.00  0.00    -0.248 NA
ATOM     50  C   UNL     1      -4.554 -17.452   1.178  1.00  0.00     0.031 C 
ATOM     51  C   UNL     1      -0.882 -15.882   4.231  1.00  0.00     0.029 A 
ATOM     52  N   UNL     1      -1.690 -17.937   4.561  1.00  0.00    -0.354 N 
ATOM     53  C   UNL     1      -4.880 -19.506   2.120  1.00  0.00     0.074 A 
ATOM     54  C   UNL     1      -5.285 -18.552   1.112  1.00  0.00     0.031 C 
ATOM     55  C   UNL     1      -0.151 -16.453   5.205  1.00  0.00     0.029 A 
ATOM     56  C   UNL     1      -0.660 -17.799   5.463  1.00  0.00     0.049 A 
ATOM     57  H   UNL     1      -2.258 -18.740   4.512  1.00  0.00     0.167 HD
ATOM     58  C   UNL     1      -5.473 -20.709   2.295  1.00  0.00     0.031 A 
ATOM     59  C   UNL     1      -0.195 -18.658   6.393  1.00  0.00     0.031 A 
ATOM     60  C   UNL     1      -5.130 -21.635   3.335  1.00  0.00     0.049 A 
ATOM     61  C   UNL     1      -0.896 -19.982   6.585  1.00  0.00     0.074 A 
ATOM     62  C   UNL     1      -5.717 -22.851   3.635  1.00  0.00     0.029 A 
ATOM     63  N   UNL     1      -4.114 -21.438   4.256  1.00  0.00    -0.354 N 
ATOM     64  N   UNL     1      -1.877 -20.512   5.895  1.00  0.00    -0.248 NA
ATOM     65  C   UNL     1      -0.439 -20.814   7.710  1.00  0.00     0.031 C 
ATOM     66  C   UNL     1      -5.087 -23.369   4.771  1.00  0.00     0.029 A 
ATOM     67  C   UNL     1      -4.068 -22.504   5.137  1.00  0.00     0.049 A 
ATOM     68  H   UNL     1      -3.515 -20.658   4.280  1.00  0.00     0.167 HD
ATOM     69  C   UNL     1      -2.153 -21.732   6.503  1.00  0.00     0.074 A 
ATOM     70  C   UNL     1      -1.205 -21.887   7.585  1.00  0.00     0.031 C 
ATOM     71  C   UNL     1      -3.121 -22.636   6.211  1.00  0.00     0.031 A 
BRANCH  58  72
ATOM     72  C   UNL     1      -6.606 -21.048   1.372  1.00  0.00    -0.014 A 
ATOM     73  C   UNL     1      -6.372 -21.397   0.033  1.00  0.00     0.009 A 
ATOM     74  C   UNL     1      -7.924 -21.019   1.851  1.00  0.00     0.009 A 
ATOM     75  C   UNL     1      -7.442 -21.686  -0.816  1.00  0.00     0.001 A 
ATOM     76  C   UNL     1      -8.989 -21.333   1.007  1.00  0.00     0.001 A 
ATOM     77  C   UNL     1      -8.748 -21.659  -0.327  1.00  0.00     0.000 A 
ENDBRANCH  58  72
BRANCH  59  78
ATOM     78  C   UNL     1       0.959 -18.302   7.269  1.00  0.00    -0.014 A 
ATOM     79  C   UNL     1       2.143 -19.058   7.234  1.00  0.00     0.009 A 
ATOM     80  C   UNL     1       0.854 -17.262   8.206  1.00  0.00     0.009 A 
ATOM     81  C   UNL     1       3.175 -18.809   8.144  1.00  0.00     0.001 A 
ATOM     82  C   UNL     1       1.903 -16.989   9.088  1.00  0.00     0.001 A 
ATOM     83  C   UNL     1       3.055 -17.772   9.068  1.00  0.00     0.000 A 
ENDBRANCH  59  78
BRANCH  71  84
ATOM     84  C   UNL     1      -3.192 -23.871   7.064  1.00  0.00    -0.014 A 
ATOM     85  C   UNL     1      -3.638 -23.811   8.395  1.00  0.00     0.009 A 
ATOM     86  C   UNL     1      -2.848 -25.117   6.518  1.00  0.00     0.009 A 
ATOM     87  C   UNL     1      -3.698 -24.969   9.172  1.00  0.00     0.001 A 
ATOM     88  C   UNL     1      -2.939 -26.277   7.288  1.00  0.00     0.001 A 
ATOM     89  C   UNL     1      -3.353 -26.201   8.617  1.00  0.00     0.000 A 
ENDBRANCH  71  84
ENDBRANCH  45  46
ENDBRANCH  38  40
ENDBRANCH  37  38
ENDBRANCH  36  37
ENDBRANCH  35  36
ENDBRANCH  34  35
ENDBRANCH   1  34
TORSDOF 18
