REMARK SMILES C[C@H](CNS(=O)(=O)c1ccc(C(=O)OCCOCCOC(=O)c2ccc(-c3c4nc(c(-c5ccccc5)c5ccc([nH]5)c(-c5ccccc5)c5nc(c(-c6ccccc6)c6ccc3[nH]6)C=C5)C=C4)cc2)o1)c1ccccc1
REMARK SMILES IDX 15 1 14 2 12 3 13 4 11 5 8 6 9 7 71 8 10 9 5 10 6 11 7 12
REMARK SMILES IDX 4 13 3 15 2 16 1 17 72 18 73 19 77 20 74 21 76 22 75 23
REMARK SMILES IDX 16 24 17 25 18 26 19 27 20 28 21 29 22 30 23 31 24 32 70 33
REMARK SMILES IDX 25 34 69 35 26 36 27 37 28 38 63 39 29 40 68 41 62 42 64 43
REMARK SMILES IDX 30 44 67 45 61 46 60 47 31 49 53 50 38 51 52 52 39 53 42 54
REMARK SMILES IDX 51 55 65 56 40 57 41 58 50 60 66 61 43 62 32 63 33 64 37 65
REMARK SMILES IDX 34 66 36 67 35 68 54 69 55 70 59 71 56 72 58 73 57 74 44 75
REMARK SMILES IDX 45 76 49 77 46 78 48 79 47 80
REMARK H PARENT 4 14 64 48 42 59
REMARK Flexibility Score: inf
ROOT
ATOM      1  C   UNL     1       5.043   2.799   5.380  1.00  0.00     0.261 C 
ENDROOT
BRANCH   1   2
ATOM      2  O   UNL     1       5.079   1.482   4.804  1.00  0.00    -0.457 OA
BRANCH   2   3
ATOM      3  C   UNL     1       3.865   0.944   4.492  1.00  0.00     0.374 C 
ATOM      4  O   UNL     1       2.785   1.402   4.844  1.00  0.00    -0.242 OA
BRANCH   3   5
ATOM      5  C   UNL     1       4.047  -0.175   3.595  1.00  0.00     0.213 A 
ATOM      6  C   UNL     1       3.320  -1.647   2.080  1.00  0.00     0.234 A 
ATOM      7  C   UNL     1       4.689  -1.832   2.225  1.00  0.00     0.065 A 
ATOM      8  O   UNL     1       2.946  -0.627   2.925  1.00  0.00    -0.436 OA
ATOM      9  C   UNL     1       5.152  -0.896   3.184  1.00  0.00     0.060 A 
BRANCH   6  10
ATOM     10  S   UNL     1       2.110  -2.461   1.041  1.00  0.00     0.274 S 
ATOM     11  O   UNL     1       0.923  -2.608   1.850  1.00  0.00    -0.204 OA
ATOM     12  O   UNL     1       2.791  -3.604   0.475  1.00  0.00    -0.204 OA
BRANCH  10  13
ATOM     13  N   UNL     1       1.719  -1.437  -0.253  1.00  0.00    -0.208 NA
ATOM     14  H   UNL     1       2.552  -1.339  -0.834  1.00  0.00     0.141 HD
BRANCH  13  15
ATOM     15  C   UNL     1       1.252  -0.073   0.102  1.00  0.00     0.107 C 
BRANCH  15  16
ATOM     16  C   UNL     1       0.605   0.677  -1.091  1.00  0.00     0.031 C 
ATOM     17  C   UNL     1       1.132   0.267  -2.470  1.00  0.00     0.014 C 
BRANCH  16  18
ATOM     18  C   UNL     1      -0.917   0.639  -1.059  1.00  0.00    -0.044 A 
ATOM     19  C   UNL     1      -1.634   1.848  -1.020  1.00  0.00     0.004 A 
ATOM     20  C   UNL     1      -1.638  -0.563  -1.066  1.00  0.00     0.004 A 
ATOM     21  C   UNL     1      -3.029   1.853  -0.975  1.00  0.00     0.000 A 
ATOM     22  C   UNL     1      -3.035  -0.555  -1.020  1.00  0.00     0.000 A 
ATOM     23  C   UNL     1      -3.729   0.651  -0.972  1.00  0.00     0.000 A 
ENDBRANCH  16  18
ENDBRANCH  15  16
ENDBRANCH  13  15
ENDBRANCH  10  13
ENDBRANCH   6  10
ENDBRANCH   3   5
ENDBRANCH   2   3
ENDBRANCH   1   2
BRANCH   1  24
ATOM     24  C   UNL     1       5.601   3.824   4.388  1.00  0.00     0.202 C 
BRANCH  24  25
ATOM     25  O   UNL     1       4.781   4.035   3.237  1.00  0.00    -0.374 OA
BRANCH  25  26
ATOM     26  C   UNL     1       5.000   3.158   2.130  1.00  0.00     0.202 C 
BRANCH  26  27
ATOM     27  C   UNL     1       6.147   3.568   1.200  1.00  0.00     0.261 C 
BRANCH  27  28
ATOM     28  O   UNL     1       7.422   3.358   1.835  1.00  0.00    -0.460 OA
BRANCH  28  29
ATOM     29  C   UNL     1       8.088   4.490   2.167  1.00  0.00     0.338 C 
ATOM     30  O   UNL     1       7.779   5.637   1.894  1.00  0.00    -0.246 OA
BRANCH  29  31
ATOM     31  C   UNL     1       9.198   4.164   3.084  1.00  0.00     0.060 A 
ATOM     32  C   UNL     1       9.335   4.954   4.233  1.00  0.00     0.016 A 
ATOM     33  C   UNL     1      10.119   3.149   2.810  1.00  0.00     0.016 A 
ATOM     34  C   UNL     1      10.420   4.766   5.086  1.00  0.00     0.010 A 
ATOM     35  C   UNL     1      11.212   2.966   3.664  1.00  0.00     0.010 A 
ATOM     36  C   UNL     1      11.385   3.795   4.787  1.00  0.00    -0.014 A 
BRANCH  36  37
ATOM     37  C   UNL     1      12.641   3.748   5.572  1.00  0.00     0.031 A 
ATOM     38  C   UNL     1      13.870   4.422   5.028  1.00  0.00     0.074 A 
ATOM     39  C   UNL     1      12.682   3.141   6.771  1.00  0.00     0.049 A 
ATOM     40  N   UNL     1      15.071   4.498   5.544  1.00  0.00    -0.248 NA
ATOM     41  C   UNL     1      13.726   5.103   3.731  1.00  0.00     0.031 C 
ATOM     42  C   UNL     1      11.552   2.488   7.430  1.00  0.00     0.029 A 
ATOM     43  N   UNL     1      13.725   2.978   7.648  1.00  0.00    -0.354 N 
ATOM     44  C   UNL     1      15.824   5.231   4.635  1.00  0.00     0.074 A 
ATOM     45  C   UNL     1      14.955   5.551   3.523  1.00  0.00     0.031 C 
ATOM     46  C   UNL     1      11.964   1.991   8.609  1.00  0.00     0.029 A 
ATOM     47  C   UNL     1      13.391   2.266   8.773  1.00  0.00     0.049 A 
ATOM     48  H   UNL     1      14.627   3.337   7.485  1.00  0.00     0.167 HD
ATOM     49  C   UNL     1      17.121   5.610   4.720  1.00  0.00     0.031 A 
ATOM     50  C   UNL     1      14.152   1.869   9.810  1.00  0.00     0.031 A 
ATOM     51  C   UNL     1      17.994   5.282   5.814  1.00  0.00     0.049 A 
ATOM     52  C   UNL     1      15.612   2.233   9.842  1.00  0.00     0.074 A 
ATOM     53  C   UNL     1      19.322   5.632   5.994  1.00  0.00     0.029 A 
ATOM     54  N   UNL     1      17.629   4.520   6.912  1.00  0.00    -0.354 N 
ATOM     55  N   UNL     1      16.305   2.946   8.989  1.00  0.00    -0.248 NA
ATOM     56  C   UNL     1      16.392   1.740  10.988  1.00  0.00     0.031 C 
ATOM     57  C   UNL     1      19.773   5.040   7.178  1.00  0.00     0.029 A 
ATOM     58  C   UNL     1      18.712   4.365   7.760  1.00  0.00     0.049 A 
ATOM     59  H   UNL     1      16.732   4.144   7.066  1.00  0.00     0.167 HD
ATOM     60  C   UNL     1      17.594   3.010   9.506  1.00  0.00     0.074 A 
ATOM     61  C   UNL     1      17.583   2.272  10.752  1.00  0.00     0.031 C 
ATOM     62  C   UNL     1      18.687   3.627   8.995  1.00  0.00     0.031 A 
BRANCH  49  63
ATOM     63  C   UNL     1      17.682   6.400   3.572  1.00  0.00    -0.014 A 
ATOM     64  C   UNL     1      17.331   7.745   3.374  1.00  0.00     0.009 A 
ATOM     65  C   UNL     1      18.594   5.798   2.692  1.00  0.00     0.009 A 
ATOM     66  C   UNL     1      17.858   8.461   2.297  1.00  0.00     0.001 A 
ATOM     67  C   UNL     1      19.138   6.523   1.631  1.00  0.00     0.001 A 
ATOM     68  C   UNL     1      18.763   7.851   1.429  1.00  0.00     0.000 A 
ENDBRANCH  49  63
BRANCH  50  69
ATOM     69  C   UNL     1      13.555   1.062  10.905  1.00  0.00    -0.014 A 
ATOM     70  C   UNL     1      13.363   1.616  12.179  1.00  0.00     0.009 A 
ATOM     71  C   UNL     1      13.190  -0.275  10.682  1.00  0.00     0.009 A 
ATOM     72  C   UNL     1      12.839   0.840  13.215  1.00  0.00     0.001 A 
ATOM     73  C   UNL     1      12.643  -1.041  11.713  1.00  0.00     0.001 A 
ATOM     74  C   UNL     1      12.476  -0.486  12.981  1.00  0.00     0.000 A 
ENDBRANCH  50  69
BRANCH  62  75
ATOM     75  C   UNL     1      19.954   3.559   9.800  1.00  0.00    -0.014 A 
ATOM     76  C   UNL     1      20.710   2.379   9.871  1.00  0.00     0.009 A 
ATOM     77  C   UNL     1      20.419   4.707  10.460  1.00  0.00     0.009 A 
ATOM     78  C   UNL     1      21.892   2.342  10.614  1.00  0.00     0.001 A 
ATOM     79  C   UNL     1      21.614   4.674  11.181  1.00  0.00     0.001 A 
ATOM     80  C   UNL     1      22.345   3.490  11.264  1.00  0.00     0.000 A 
ENDBRANCH  62  75
ENDBRANCH  36  37
ENDBRANCH  29  31
ENDBRANCH  28  29
ENDBRANCH  27  28
ENDBRANCH  26  27
ENDBRANCH  25  26
ENDBRANCH  24  25
ENDBRANCH   1  24
TORSDOF 19
