REMARK SMILES NS(=O)(=O)c1ccc(-n2nc(C(F)(F)F)cc2-c2ccc(CC(=O)OCCOCCOC(=O)c3ccc(-c4c5nc(c(-c6ccccc6)c6ccc([nH]6)c(-c6ccccc6)c6nc(c(-c7ccccc7)c7ccc4[nH]7)C=C6)C=C5)cc3)cc2)cc1
REMARK SMILES IDX 26 1 25 2 23 3 24 4 22 5 21 6 18 7 19 8 83 9 20 10 82 11
REMARK SMILES IDX 17 12 9 13 10 14 11 15 16 16 8 17 5 18 6 19 85 20 7 21 84 22
REMARK SMILES IDX 2 23 3 24 4 25 1 26 12 29 13 30 14 31 15 32 27 33 28 34
REMARK SMILES IDX 29 35 30 36 31 37 32 38 33 39 34 40 35 41 81 42 36 43 80 44
REMARK SMILES IDX 37 45 38 46 39 47 74 48 40 49 79 50 73 51 75 52 41 53 78 54
REMARK SMILES IDX 72 55 71 56 42 58 64 59 49 60 63 61 50 62 53 63 62 64 76 65
REMARK SMILES IDX 51 66 52 67 61 69 77 70 54 71 43 72 44 73 48 74 45 75 47 76
REMARK SMILES IDX 46 77 65 78 66 79 70 80 67 81 69 82 68 83 55 84 56 85 60 86
REMARK SMILES IDX 57 87 59 88 58 89
REMARK H PARENT 1 27 1 28 75 57 53 68
REMARK Flexibility Score: inf
ROOT
ATOM      1  C   UNL     1      -1.227  -5.664  -6.577  1.00  0.00     0.261 C 
ENDROOT
BRANCH   1   2
ATOM      2  O   UNL     1      -0.960  -4.483  -7.361  1.00  0.00    -0.463 OA
BRANCH   2   3
ATOM      3  C   UNL     1      -1.787  -4.322  -8.429  1.00  0.00     0.310 C 
ATOM      4  O   UNL     1      -2.673  -5.118  -8.734  1.00  0.00    -0.252 OA
BRANCH   3   5
ATOM      5  C   UNL     1      -1.547  -3.091  -9.270  1.00  0.00     0.158 C 
BRANCH   5   6
ATOM      6  C   UNL     1      -0.739  -1.920  -8.751  1.00  0.00    -0.037 A 
ATOM      7  C   UNL     1       0.707   0.420  -8.034  1.00  0.00     0.000 A 
ATOM      8  C   UNL     1      -0.646   0.282  -7.705  1.00  0.00     0.010 A 
ATOM      9  C   UNL     1       1.325  -0.617  -8.744  1.00  0.00     0.010 A 
ATOM     10  C   UNL     1      -1.359  -0.872  -8.055  1.00  0.00     0.005 A 
ATOM     11  C   UNL     1       0.613  -1.777  -9.089  1.00  0.00     0.005 A 
BRANCH   7  12
ATOM     12  C   UNL     1       1.457   1.632  -7.670  1.00  0.00     0.075 A 
ATOM     13  N   UNL     1       1.487   2.261  -6.418  1.00  0.00    -0.233 N 
ATOM     14  N   UNL     1       2.162   3.443  -6.462  1.00  0.00    -0.163 NA
ATOM     15  C   UNL     1       2.606   3.553  -7.729  1.00  0.00     0.167 A 
ATOM     16  C   UNL     1       2.153   2.471  -8.517  1.00  0.00     0.064 A 
BRANCH  13  17
ATOM     17  C   UNL     1       0.930   1.800  -5.191  1.00  0.00     0.065 A 
ATOM     18  C   UNL     1      -0.154   0.822  -2.764  1.00  0.00     0.082 A 
ATOM     19  C   UNL     1       0.343  -0.019  -3.740  1.00  0.00     0.024 A 
ATOM     20  C   UNL     1      -0.175   2.189  -3.028  1.00  0.00     0.024 A 
ATOM     21  C   UNL     1       0.883   0.441  -4.937  1.00  0.00     0.030 A 
ATOM     22  C   UNL     1       0.413   2.681  -4.225  1.00  0.00     0.030 A 
BRANCH  18  23
ATOM     23  S   UNL     1      -0.600   0.097  -1.195  1.00  0.00     0.238 S 
ATOM     24  O   UNL     1      -0.461  -1.345  -1.284  1.00  0.00    -0.207 OA
ATOM     25  O   UNL     1      -1.807   0.712  -0.734  1.00  0.00    -0.207 OA
BRANCH  23  26
ATOM     26  N   UNL     1       0.635   0.551  -0.144  1.00  0.00    -0.225 NA
ATOM     27  H   UNL     1       0.450   0.170   0.784  1.00  0.00     0.137 HD
ATOM     28  H   UNL     1       0.681   1.568  -0.091  1.00  0.00     0.137 HD
ENDBRANCH  23  26
ENDBRANCH  18  23
ENDBRANCH  13  17
BRANCH  15  29
ATOM     29  C   UNL     1       3.433   4.708  -8.227  1.00  0.00     0.435 C 
ATOM     30  F   UNL     1       2.999   5.907  -7.763  1.00  0.00    -0.164 F 
ATOM     31  F   UNL     1       4.743   4.591  -7.881  1.00  0.00    -0.164 F 
ATOM     32  F   UNL     1       3.408   4.795  -9.587  1.00  0.00    -0.164 F 
ENDBRANCH  15  29
ENDBRANCH   7  12
ENDBRANCH   5   6
ENDBRANCH   3   5
ENDBRANCH   2   3
ENDBRANCH   1   2
BRANCH   1  33
ATOM     33  C   UNL     1      -1.975  -5.434  -5.257  1.00  0.00     0.202 C 
BRANCH  33  34
ATOM     34  O   UNL     1      -3.052  -4.513  -5.213  1.00  0.00    -0.374 OA
BRANCH  34  35
ATOM     35  C   UNL     1      -2.792  -3.152  -5.509  1.00  0.00     0.202 C 
BRANCH  35  36
ATOM     36  C   UNL     1      -1.696  -2.414  -4.743  1.00  0.00     0.261 C 
BRANCH  36  37
ATOM     37  O   UNL     1      -0.375  -2.998  -4.775  1.00  0.00    -0.460 OA
BRANCH  37  38
ATOM     38  C   UNL     1       0.047  -3.556  -3.596  1.00  0.00     0.338 C 
ATOM     39  O   UNL     1      -0.684  -3.984  -2.717  1.00  0.00    -0.246 OA
BRANCH  38  40
ATOM     40  C   UNL     1       1.500  -3.283  -3.376  1.00  0.00     0.060 A 
ATOM     41  C   UNL     1       1.866  -3.100  -2.039  1.00  0.00     0.016 A 
ATOM     42  C   UNL     1       2.265  -2.687  -4.373  1.00  0.00     0.016 A 
ATOM     43  C   UNL     1       2.675  -2.012  -1.695  1.00  0.00     0.010 A 
ATOM     44  C   UNL     1       3.088  -1.616  -4.013  1.00  0.00     0.010 A 
ATOM     45  C   UNL     1       3.142  -1.137  -2.686  1.00  0.00    -0.014 A 
BRANCH  45  46
ATOM     46  C   UNL     1       4.041   0.014  -2.368  1.00  0.00     0.031 A 
ATOM     47  C   UNL     1       5.372  -0.588  -2.222  1.00  0.00     0.074 A 
ATOM     48  C   UNL     1       3.907   1.359  -2.177  1.00  0.00     0.049 A 
ATOM     49  N   UNL     1       5.766  -1.104  -1.102  1.00  0.00    -0.248 NA
ATOM     50  C   UNL     1       6.111  -1.046  -3.407  1.00  0.00     0.031 C 
ATOM     51  C   UNL     1       2.735   2.204  -2.114  1.00  0.00     0.029 A 
ATOM     52  N   UNL     1       4.890   2.322  -1.995  1.00  0.00    -0.354 N 
ATOM     53  C   UNL     1       6.971  -1.686  -1.419  1.00  0.00     0.074 A 
ATOM     54  C   UNL     1       6.909  -1.951  -2.834  1.00  0.00     0.031 C 
ATOM     55  C   UNL     1       3.022   3.520  -2.254  1.00  0.00     0.029 A 
ATOM     56  C   UNL     1       4.459   3.658  -2.223  1.00  0.00     0.049 A 
ATOM     57  H   UNL     1       5.812   2.099  -1.730  1.00  0.00     0.167 HD
ATOM     58  C   UNL     1       8.053  -1.403  -0.647  1.00  0.00     0.031 A 
ATOM     59  C   UNL     1       5.134   4.844  -2.104  1.00  0.00     0.031 A 
ATOM     60  C   UNL     1       7.652  -0.844   0.630  1.00  0.00     0.049 A 
ATOM     61  C   UNL     1       6.273   4.604  -1.200  1.00  0.00     0.074 A 
ATOM     62  C   UNL     1       6.803  -1.234   1.649  1.00  0.00     0.029 A 
ATOM     63  N   UNL     1       7.824   0.511   0.775  1.00  0.00    -0.354 N 
ATOM     64  N   UNL     1       6.107   4.448   0.081  1.00  0.00    -0.248 NA
ATOM     65  C   UNL     1       7.435   3.962  -1.787  1.00  0.00     0.031 C 
ATOM     66  C   UNL     1       6.173  -0.036   2.099  1.00  0.00     0.029 A 
ATOM     67  C   UNL     1       6.746   1.042   1.429  1.00  0.00     0.049 A 
ATOM     68  H   UNL     1       8.604   1.022   0.457  1.00  0.00     0.167 HD
ATOM     69  C   UNL     1       6.796   3.279   0.351  1.00  0.00     0.074 A 
ATOM     70  C   UNL     1       7.634   3.046  -0.834  1.00  0.00     0.031 C 
ATOM     71  C   UNL     1       6.376   2.435   1.337  1.00  0.00     0.031 A 
BRANCH  58  72
ATOM     72  C   UNL     1       9.396  -1.095  -1.268  1.00  0.00    -0.014 A 
ATOM     73  C   UNL     1      10.478  -0.864  -0.410  1.00  0.00     0.009 A 
ATOM     74  C   UNL     1       9.581  -0.747  -2.624  1.00  0.00     0.009 A 
ATOM     75  C   UNL     1      11.649  -0.258  -0.876  1.00  0.00     0.001 A 
ATOM     76  C   UNL     1      10.758  -0.178  -3.101  1.00  0.00     0.001 A 
ATOM     77  C   UNL     1      11.787   0.089  -2.218  1.00  0.00     0.000 A 
ENDBRANCH  58  72
BRANCH  59  78
ATOM     78  C   UNL     1       5.112   6.049  -2.990  1.00  0.00    -0.014 A 
ATOM     79  C   UNL     1       5.959   7.156  -2.743  1.00  0.00     0.009 A 
ATOM     80  C   UNL     1       4.484   6.003  -4.242  1.00  0.00     0.009 A 
ATOM     81  C   UNL     1       6.235   8.114  -3.736  1.00  0.00     0.001 A 
ATOM     82  C   UNL     1       4.761   6.961  -5.230  1.00  0.00     0.001 A 
ATOM     83  C   UNL     1       5.655   7.999  -4.992  1.00  0.00     0.000 A 
ENDBRANCH  59  78
BRANCH  71  84
ATOM     84  C   UNL     1       5.341   2.930   2.319  1.00  0.00    -0.014 A 
ATOM     85  C   UNL     1       4.030   3.313   1.980  1.00  0.00     0.009 A 
ATOM     86  C   UNL     1       5.686   2.875   3.677  1.00  0.00     0.009 A 
ATOM     87  C   UNL     1       3.108   3.656   2.980  1.00  0.00     0.001 A 
ATOM     88  C   UNL     1       4.764   3.198   4.671  1.00  0.00     0.001 A 
ATOM     89  C   UNL     1       3.477   3.596   4.324  1.00  0.00     0.000 A 
ENDBRANCH  71  84
ENDBRANCH  45  46
ENDBRANCH  38  40
ENDBRANCH  37  38
ENDBRANCH  36  37
ENDBRANCH  35  36
ENDBRANCH  34  35
ENDBRANCH  33  34
ENDBRANCH   1  33
TORSDOF 20
