REMARK SMILES CC(C)[NH2+][C@@H](CSc1cccc(F)c1)C(=O)OCCOCCOC(=O)c1ccc(-c2c3nc(c(-c4ccccc4)c4ccc([nH]4)c(-c4ccccc4)c4nc(c(-c5ccccc5)c5ccc2[nH]5)C=C4)C=C3)cc1
REMARK SMILES IDX 19 1 18 2 17 3 15 4 16 5 5 6 4 7 2 10 1 11 3 12 6 13 7 14
REMARK SMILES IDX 8 15 9 16 14 17 10 18 12 19 11 20 13 21 20 22 21 23 22 24
REMARK SMILES IDX 23 25 24 26 25 27 26 28 27 29 73 30 28 31 72 32 29 33 30 34
REMARK SMILES IDX 31 35 66 36 32 37 71 38 65 39 67 40 33 41 70 42 64 43 63 44
REMARK SMILES IDX 34 46 56 47 41 48 55 49 42 50 45 51 54 52 68 53 43 54 44 55
REMARK SMILES IDX 53 57 69 58 46 59 35 60 36 61 40 62 37 63 39 64 38 65 57 66
REMARK SMILES IDX 58 67 62 68 59 69 61 70 60 71 47 72 48 73 52 74 49 75 51 76
REMARK SMILES IDX 50 77
REMARK H PARENT 4 8 4 9 67 45 45 56
REMARK Flexibility Score: inf
ROOT
ATOM      1  C   UNL     1      -5.502  -2.058  -0.708  1.00  0.00     0.202 C 
ENDROOT
BRANCH   1   2
ATOM      2  C   UNL     1      -4.771  -3.230  -0.055  1.00  0.00     0.261 C 
BRANCH   2   3
ATOM      3  O   UNL     1      -3.397  -2.901   0.208  1.00  0.00    -0.459 OA
BRANCH   3   4
ATOM      4  C   UNL     1      -2.469  -3.800  -0.228  1.00  0.00     0.365 C 
ATOM      5  O   UNL     1      -2.731  -4.854  -0.799  1.00  0.00    -0.245 OA
BRANCH   4   6
ATOM      6  C   UNL     1      -1.032  -3.400   0.144  1.00  0.00     0.304 C 
BRANCH   6   7
ATOM      7  N   UNL     1      -0.761  -1.976  -0.160  1.00  0.00    -0.332 N 
ATOM      8  H   UNL     1      -1.410  -1.686  -0.891  1.00  0.00     0.347 HD
ATOM      9  H   UNL     1      -0.874  -1.486   0.728  1.00  0.00     0.347 HD
BRANCH   7  10
ATOM     10  C   UNL     1       0.597  -1.646  -0.613  1.00  0.00     0.176 C 
ATOM     11  C   UNL     1       0.755  -0.121  -0.603  1.00  0.00     0.075 C 
ATOM     12  C   UNL     1       1.745  -2.267   0.185  1.00  0.00     0.075 C 
ENDBRANCH   7  10
ENDBRANCH   6   7
BRANCH   6  13
ATOM     13  C   UNL     1      -0.763  -3.879   1.590  1.00  0.00     0.152 C 
BRANCH  13  14
ATOM     14  S   UNL     1      -1.782  -3.162   2.952  1.00  0.00    -0.119 SA
BRANCH  14  15
ATOM     15  C   UNL     1      -1.098  -1.528   3.110  1.00  0.00     0.010 A 
ATOM     16  C   UNL     1      -1.881  -0.423   2.748  1.00  0.00     0.015 A 
ATOM     17  C   UNL     1       0.191  -1.323   3.600  1.00  0.00     0.054 A 
ATOM     18  C   UNL     1      -1.359   0.870   2.830  1.00  0.00     0.004 A 
ATOM     19  C   UNL     1       0.695  -0.028   3.688  1.00  0.00     0.124 A 
ATOM     20  C   UNL     1      -0.065   1.069   3.301  1.00  0.00     0.039 A 
ATOM     21  F   UNL     1       1.941   0.164   4.140  1.00  0.00    -0.207 F 
ENDBRANCH  14  15
ENDBRANCH  13  14
ENDBRANCH   6  13
ENDBRANCH   4   6
ENDBRANCH   3   4
ENDBRANCH   2   3
ENDBRANCH   1   2
BRANCH   1  22
ATOM     22  O   UNL     1      -5.101  -1.741  -2.041  1.00  0.00    -0.374 OA
BRANCH  22  23
ATOM     23  C   UNL     1      -3.834  -1.106  -2.205  1.00  0.00     0.202 C 
BRANCH  23  24
ATOM     24  C   UNL     1      -3.797   0.402  -1.926  1.00  0.00     0.261 C 
BRANCH  24  25
ATOM     25  O   UNL     1      -4.151   0.738  -0.571  1.00  0.00    -0.460 OA
BRANCH  25  26
ATOM     26  C   UNL     1      -5.354   1.344  -0.435  1.00  0.00     0.338 C 
ATOM     27  O   UNL     1      -6.125   1.681  -1.325  1.00  0.00    -0.246 OA
BRANCH  26  28
ATOM     28  C   UNL     1      -5.720   1.445   0.989  1.00  0.00     0.060 A 
ATOM     29  C   UNL     1      -6.965   0.940   1.381  1.00  0.00     0.016 A 
ATOM     30  C   UNL     1      -4.908   2.114   1.908  1.00  0.00     0.016 A 
ATOM     31  C   UNL     1      -7.422   1.146   2.681  1.00  0.00     0.010 A 
ATOM     32  C   UNL     1      -5.363   2.310   3.217  1.00  0.00     0.010 A 
ATOM     33  C   UNL     1      -6.642   1.865   3.598  1.00  0.00    -0.014 A 
BRANCH  33  34
ATOM     34  C   UNL     1      -7.244   2.277   4.892  1.00  0.00     0.031 A 
ATOM     35  C   UNL     1      -7.753   3.686   5.052  1.00  0.00     0.074 A 
ATOM     36  C   UNL     1      -7.402   1.391   5.892  1.00  0.00     0.049 A 
ATOM     37  N   UNL     1      -8.364   4.236   6.071  1.00  0.00    -0.248 NA
ATOM     38  C   UNL     1      -7.547   4.594   3.912  1.00  0.00     0.031 C 
ATOM     39  C   UNL     1      -6.978  -0.008   5.860  1.00  0.00     0.029 A 
ATOM     40  N   UNL     1      -7.976   1.541   7.130  1.00  0.00    -0.354 N 
ATOM     41  C   UNL     1      -8.623   5.547   5.692  1.00  0.00     0.074 A 
ATOM     42  C   UNL     1      -8.063   5.725   4.370  1.00  0.00     0.031 C 
ATOM     43  C   UNL     1      -7.313  -0.591   7.024  1.00  0.00     0.029 A 
ATOM     44  C   UNL     1      -7.956   0.397   7.888  1.00  0.00     0.049 A 
ATOM     45  H   UNL     1      -8.365   2.389   7.444  1.00  0.00     0.167 HD
ATOM     46  C   UNL     1      -9.283   6.515   6.372  1.00  0.00     0.031 A 
ATOM     47  C   UNL     1      -8.402   0.172   9.139  1.00  0.00     0.031 A 
ATOM     48  C   UNL     1      -9.832   6.354   7.692  1.00  0.00     0.049 A 
ATOM     49  C   UNL     1      -9.082   1.281   9.897  1.00  0.00     0.074 A 
ATOM     50  C   UNL     1     -10.513   7.281   8.463  1.00  0.00     0.029 A 
ATOM     51  N   UNL     1      -9.760   5.189   8.437  1.00  0.00    -0.354 N 
ATOM     52  N   UNL     1      -9.341   2.507   9.514  1.00  0.00    -0.248 NA
ATOM     53  C   UNL     1      -9.544   0.965  11.257  1.00  0.00     0.031 C 
ATOM     54  C   UNL     1     -10.818   6.687   9.693  1.00  0.00     0.029 A 
ATOM     55  C   UNL     1     -10.370   5.376   9.666  1.00  0.00     0.049 A 
ATOM     56  H   UNL     1      -9.337   4.351   8.137  1.00  0.00     0.167 HD
ATOM     57  C   UNL     1     -10.017   3.100  10.574  1.00  0.00     0.074 A 
ATOM     58  C   UNL     1     -10.145   2.093  11.607  1.00  0.00     0.031 C 
ATOM     59  C   UNL     1     -10.488   4.367  10.684  1.00  0.00     0.031 A 
BRANCH  46  60
ATOM     60  C   UNL     1      -9.435   7.848   5.695  1.00  0.00    -0.014 A 
ATOM     61  C   UNL     1     -10.326   8.017   4.623  1.00  0.00     0.009 A 
ATOM     62  C   UNL     1      -8.705   8.955   6.153  1.00  0.00     0.009 A 
ATOM     63  C   UNL     1     -10.458   9.261   4.003  1.00  0.00     0.001 A 
ATOM     64  C   UNL     1      -8.858  10.204   5.547  1.00  0.00     0.001 A 
ATOM     65  C   UNL     1      -9.728  10.353   4.468  1.00  0.00     0.000 A 
ENDBRANCH  46  60
BRANCH  47  66
ATOM     66  C   UNL     1      -8.215  -1.162   9.768  1.00  0.00    -0.014 A 
ATOM     67  C   UNL     1      -9.311  -2.003  10.014  1.00  0.00     0.009 A 
ATOM     68  C   UNL     1      -6.934  -1.584  10.157  1.00  0.00     0.009 A 
ATOM     69  C   UNL     1      -9.131  -3.227  10.663  1.00  0.00     0.001 A 
ATOM     70  C   UNL     1      -6.754  -2.820  10.780  1.00  0.00     0.001 A 
ATOM     71  C   UNL     1      -7.853  -3.636  11.043  1.00  0.00     0.000 A 
ENDBRANCH  47  66
BRANCH  59  72
ATOM     72  C   UNL     1     -11.212   4.722  11.953  1.00  0.00    -0.014 A 
ATOM     73  C   UNL     1     -10.520   4.893  13.162  1.00  0.00     0.009 A 
ATOM     74  C   UNL     1     -12.602   4.913  11.930  1.00  0.00     0.009 A 
ATOM     75  C   UNL     1     -11.213   5.210  14.332  1.00  0.00     0.001 A 
ATOM     76  C   UNL     1     -13.288   5.258  13.096  1.00  0.00     0.001 A 
ATOM     77  C   UNL     1     -12.595   5.396  14.297  1.00  0.00     0.000 A 
ENDBRANCH  59  72
ENDBRANCH  33  34
ENDBRANCH  26  28
ENDBRANCH  25  26
ENDBRANCH  24  25
ENDBRANCH  23  24
ENDBRANCH  22  23
ENDBRANCH   1  22
TORSDOF 19
