REMARK SMILES Cc1c(CC(=O)OCCOCCOC(=O)c2ccc(-c3c4nc(c(-c5ccccc5)c5ccc([nH]5)c(-c5ccccc5)c5nc(c(-c6ccccc6)c6ccc3[nH]6)C=C5)C=C4)cc2)cc(-c2ccc(S(C)(=O)=O)cc2)n1-c1cccc(F)c1
REMARK SMILES IDX 9 1 8 2 7 3 5 4 6 5 4 6 3 7 1 8 2 9 76 10 64 11 65 12 77 13
REMARK SMILES IDX 78 14 83 15 79 16 81 17 80 18 82 19 66 20 67 21 75 22 68 23
REMARK SMILES IDX 74 24 69 25 70 26 71 27 72 28 73 29 10 30 11 31 12 32 13 33
REMARK SMILES IDX 14 34 15 35 16 36 17 37 63 38 18 39 62 40 19 41 20 42 21 43
REMARK SMILES IDX 56 44 22 45 61 46 55 47 57 48 23 49 60 50 54 51 53 52 24 54
REMARK SMILES IDX 46 55 31 56 45 57 32 58 35 59 44 60 58 61 33 62 34 63 43 65
REMARK SMILES IDX 59 66 36 67 25 68 26 69 30 70 27 71 29 72 28 73 47 74 48 75
REMARK SMILES IDX 52 76 49 77 51 78 50 79 37 80 38 81 42 82 39 83 41 84 40 85
REMARK H PARENT 57 53 35 64
REMARK Flexibility Score: inf
ROOT
ATOM      1  C   UNL     1       5.709  -1.016  -0.988  1.00  0.00     0.202 C 
ENDROOT
BRANCH   1   2
ATOM      2  C   UNL     1       5.063  -2.228  -0.278  1.00  0.00     0.261 C 
BRANCH   2   3
ATOM      3  O   UNL     1       3.647  -2.379  -0.512  1.00  0.00    -0.463 OA
BRANCH   3   4
ATOM      4  C   UNL     1       2.906  -2.751   0.570  1.00  0.00     0.310 C 
ATOM      5  O   UNL     1       3.375  -2.966   1.687  1.00  0.00    -0.252 OA
BRANCH   4   6
ATOM      6  C   UNL     1       1.443  -3.010   0.285  1.00  0.00     0.160 C 
BRANCH   6   7
ATOM      7  C   UNL     1       0.802  -2.303  -0.874  1.00  0.00    -0.015 A 
ATOM      8  C   UNL     1       0.144  -0.045   0.221  1.00  0.00     0.065 C 
ATOM      9  C   UNL     1       0.260  -1.021  -0.905  1.00  0.00     0.024 A 
ATOM     10  N   UNL     1      -0.318  -0.819  -2.155  1.00  0.00    -0.313 N 
ATOM     11  C   UNL     1       0.463  -2.910  -2.113  1.00  0.00     0.033 A 
ATOM     12  C   UNL     1      -0.281  -2.016  -2.862  1.00  0.00     0.053 A 
BRANCH  10  13
ATOM     13  C   UNL     1      -0.853   0.401  -2.642  1.00  0.00     0.049 A 
ATOM     14  C   UNL     1      -2.186   0.472  -3.064  1.00  0.00     0.027 A 
ATOM     15  C   UNL     1      -0.004   1.501  -2.779  1.00  0.00     0.065 A 
ATOM     16  C   UNL     1      -2.668   1.655  -3.631  1.00  0.00     0.005 A 
ATOM     17  C   UNL     1      -0.489   2.653  -3.387  1.00  0.00     0.125 A 
ATOM     18  C   UNL     1      -1.812   2.742  -3.809  1.00  0.00     0.039 A 
ATOM     19  F   UNL     1       0.339   3.686  -3.592  1.00  0.00    -0.207 F 
ENDBRANCH  10  13
BRANCH  12  20
ATOM     20  C   UNL     1      -0.883  -2.239  -4.178  1.00  0.00    -0.001 A 
ATOM     21  C   UNL     1      -0.376  -1.611  -5.323  1.00  0.00     0.011 A 
ATOM     22  C   UNL     1      -1.983  -3.101  -4.295  1.00  0.00     0.011 A 
ATOM     23  C   UNL     1      -0.968  -1.828  -6.569  1.00  0.00     0.021 A 
ATOM     24  C   UNL     1      -2.586  -3.317  -5.537  1.00  0.00     0.021 A 
ATOM     25  C   UNL     1      -2.076  -2.672  -6.667  1.00  0.00     0.067 A 
BRANCH  25  26
ATOM     26  S   UNL     1      -2.824  -2.975  -8.252  1.00  0.00     0.175 S 
ATOM     27  C   UNL     1      -3.454  -1.392  -8.747  1.00  0.00     0.163 C 
ATOM     28  O   UNL     1      -1.724  -3.325  -9.166  1.00  0.00    -0.224 OA
ATOM     29  O   UNL     1      -3.933  -3.853  -8.067  1.00  0.00    -0.224 OA
ENDBRANCH  25  26
ENDBRANCH  12  20
ENDBRANCH   6   7
ENDBRANCH   4   6
ENDBRANCH   3   4
ENDBRANCH   2   3
ENDBRANCH   1   2
BRANCH   1  30
ATOM     30  O   UNL     1       5.079   0.249  -0.817  1.00  0.00    -0.374 OA
BRANCH  30  31
ATOM     31  C   UNL     1       3.954   0.459  -1.663  1.00  0.00     0.202 C 
BRANCH  31  32
ATOM     32  C   UNL     1       4.144   1.150  -3.070  1.00  0.00     0.261 C 
BRANCH  32  33
ATOM     33  O   UNL     1       4.962   0.632  -4.203  1.00  0.00    -0.460 OA
BRANCH  33  34
ATOM     34  C   UNL     1       5.990   1.433  -4.723  1.00  0.00     0.338 C 
ATOM     35  O   UNL     1       6.585   2.246  -4.028  1.00  0.00    -0.246 OA
BRANCH  34  36
ATOM     36  C   UNL     1       6.255   1.387  -6.277  1.00  0.00     0.060 A 
ATOM     37  C   UNL     1       7.459   1.361  -7.050  1.00  0.00     0.016 A 
ATOM     38  C   UNL     1       5.202   1.534  -7.111  1.00  0.00     0.016 A 
ATOM     39  C   UNL     1       7.581   1.377  -8.640  1.00  0.00     0.010 A 
ATOM     40  C   UNL     1       5.405   1.560  -8.574  1.00  0.00     0.010 A 
ATOM     41  C   UNL     1       6.506   1.505  -9.555  1.00  0.00    -0.014 A 
BRANCH  41  42
ATOM     42  C   UNL     1       6.299   0.796 -11.262  1.00  0.00     0.031 A 
ATOM     43  C   UNL     1       5.872  -0.583 -10.848  1.00  0.00     0.074 A 
ATOM     44  C   UNL     1       5.882   1.003 -12.722  1.00  0.00     0.049 A 
ATOM     45  N   UNL     1       5.152  -0.581  -9.752  1.00  0.00    -0.248 NA
ATOM     46  C   UNL     1       5.461  -1.682 -11.691  1.00  0.00     0.031 C 
ATOM     47  C   UNL     1       5.524   2.269 -13.431  1.00  0.00     0.029 A 
ATOM     48  N   UNL     1       5.514   0.080 -13.963  1.00  0.00    -0.354 N 
ATOM     49  C   UNL     1       3.906  -0.635 -10.297  1.00  0.00     0.074 A 
ATOM     50  C   UNL     1       4.199  -1.769 -11.222  1.00  0.00     0.031 C 
ATOM     51  C   UNL     1       4.876   2.091 -14.628  1.00  0.00     0.029 A 
ATOM     52  C   UNL     1       4.726   0.667 -15.097  1.00  0.00     0.049 A 
ATOM     53  H   UNL     1       5.798  -0.863 -13.987  1.00  0.00     0.167 HD
ATOM     54  C   UNL     1       2.975   0.425 -10.394  1.00  0.00     0.031 A 
ATOM     55  C   UNL     1       4.057   0.435 -16.398  1.00  0.00     0.031 A 
ATOM     56  C   UNL     1       1.719   0.051 -10.985  1.00  0.00     0.049 A 
ATOM     57  C   UNL     1       2.658   0.645 -15.881  1.00  0.00     0.074 A 
ATOM     58  C   UNL     1       1.459  -1.010 -11.818  1.00  0.00     0.029 A 
ATOM     59  N   UNL     1       0.937   1.052 -11.568  1.00  0.00    -0.354 N 
ATOM     60  N   UNL     1       1.949   1.731 -15.923  1.00  0.00    -0.248 NA
ATOM     61  C   UNL     1       1.861  -0.597 -15.558  1.00  0.00     0.031 C 
ATOM     62  C   UNL     1       1.961  -0.278 -12.900  1.00  0.00     0.029 A 
ATOM     63  C   UNL     1       1.259   0.936 -12.894  1.00  0.00     0.049 A 
ATOM     64  H   UNL     1       0.314   1.680 -11.136  1.00  0.00     0.167 HD
ATOM     65  C   UNL     1       0.870   1.379 -15.129  1.00  0.00     0.074 A 
ATOM     66  C   UNL     1       0.669  -0.054 -15.293  1.00  0.00     0.031 C 
ATOM     67  C   UNL     1       0.932   1.930 -13.883  1.00  0.00     0.031 A 
BRANCH  54  68
ATOM     68  C   UNL     1       3.065   2.038 -10.101  1.00  0.00    -0.014 A 
ATOM     69  C   UNL     1       4.048   2.964 -10.551  1.00  0.00     0.009 A 
ATOM     70  C   UNL     1       2.122   2.615  -9.245  1.00  0.00     0.009 A 
ATOM     71  C   UNL     1       4.196   4.287 -10.079  1.00  0.00     0.001 A 
ATOM     72  C   UNL     1       2.205   3.962  -8.824  1.00  0.00     0.001 A 
ATOM     73  C   UNL     1       3.263   4.785  -9.199  1.00  0.00     0.000 A 
ENDBRANCH  54  68
BRANCH  55  74
ATOM     74  C   UNL     1       3.500  -0.264 -17.897  1.00  0.00    -0.014 A 
ATOM     75  C   UNL     1       4.183  -0.295 -19.120  1.00  0.00     0.009 A 
ATOM     76  C   UNL     1       2.080  -0.527 -18.201  1.00  0.00     0.009 A 
ATOM     77  C   UNL     1       3.539  -0.687 -20.380  1.00  0.00     0.001 A 
ATOM     78  C   UNL     1       1.450  -1.007 -19.370  1.00  0.00     0.001 A 
ATOM     79  C   UNL     1       2.203  -1.093 -20.495  1.00  0.00     0.000 A 
ENDBRANCH  55  74
BRANCH  67  80
ATOM     80  C   UNL     1       1.251   3.399 -13.934  1.00  0.00    -0.014 A 
ATOM     81  C   UNL     1       0.531   4.231 -14.815  1.00  0.00     0.009 A 
ATOM     82  C   UNL     1       2.381   3.945 -13.328  1.00  0.00     0.009 A 
ATOM     83  C   UNL     1       0.960   5.528 -15.114  1.00  0.00     0.001 A 
ATOM     84  C   UNL     1       2.809   5.251 -13.607  1.00  0.00     0.001 A 
ATOM     85  C   UNL     1       2.104   6.038 -14.512  1.00  0.00     0.000 A 
ENDBRANCH  67  80
ENDBRANCH  41  42
ENDBRANCH  34  36
ENDBRANCH  33  34
ENDBRANCH  32  33
ENDBRANCH  31  32
ENDBRANCH  30  31
ENDBRANCH   1  30
TORSDOF 18
