REMARK SMILES CS(=O)(=O)c1ccc(C2=NN(c3ccc(C(=O)OCCOCCOC(=O)c4ccc(-c5c6nc(c(-c7ccccc7)c7ccc([nH]7)c(-c7ccccc7)c7nc(c(-c8ccccc8)c8ccc5[nH]8)C=C7)C=C6)cc4)cc3)[C@H](c3ccccc3)C2)cc1
REMARK SMILES IDX 20 1 19 2 18 3 16 4 17 5 15 6 12 7 13 8 76 9 14 10 75 11
REMARK SMILES IDX 11 12 9 13 10 14 84 15 77 16 8 17 5 18 6 19 86 20 7 21 85 22
REMARK SMILES IDX 2 23 1 24 3 25 4 26 78 27 79 28 83 29 80 30 82 31 81 32
REMARK SMILES IDX 21 33 22 34 23 35 24 36 25 37 26 38 27 39 28 40 74 41 29 42
REMARK SMILES IDX 73 43 30 44 31 45 32 46 67 47 33 48 72 49 66 50 68 51 34 52
REMARK SMILES IDX 71 53 65 54 64 55 35 57 57 58 42 59 56 60 43 61 46 62 55 63
REMARK SMILES IDX 69 64 44 65 45 66 54 68 70 69 47 70 36 71 37 72 41 73 38 74
REMARK SMILES IDX 40 75 39 76 58 77 59 78 63 79 60 80 62 81 61 82 48 83 49 84
REMARK SMILES IDX 53 85 50 86 52 87 51 88
REMARK H PARENT 68 56 46 67
REMARK Flexibility Score: inf
ROOT
ATOM      1  C   UNL     1       3.548   6.748 -15.022  1.00  0.00     0.202 C 
ENDROOT
BRANCH   1   2
ATOM      2  C   UNL     1       3.570   7.952 -14.077  1.00  0.00     0.261 C 
BRANCH   2   3
ATOM      3  O   UNL     1       3.728   7.529 -12.714  1.00  0.00    -0.460 OA
BRANCH   3   4
ATOM      4  C   UNL     1       2.651   7.731 -11.917  1.00  0.00     0.338 C 
ATOM      5  O   UNL     1       1.645   8.367 -12.200  1.00  0.00    -0.246 OA
BRANCH   4   6
ATOM      6  C   UNL     1       2.796   6.980 -10.646  1.00  0.00     0.060 A 
ATOM      7  C   UNL     1       2.959   5.748  -8.128  1.00  0.00     0.060 A 
ATOM      8  C   UNL     1       1.715   6.093  -8.664  1.00  0.00     0.029 A 
ATOM      9  C   UNL     1       4.106   5.923  -8.916  1.00  0.00     0.029 A 
ATOM     10  C   UNL     1       1.633   6.712  -9.912  1.00  0.00     0.018 A 
ATOM     11  C   UNL     1       4.034   6.543 -10.165  1.00  0.00     0.018 A 
BRANCH   7  12
ATOM     12  N   UNL     1       3.096   5.384  -6.787  1.00  0.00    -0.257 N 
ATOM     13  C   UNL     1       2.280   4.393  -5.085  1.00  0.00     0.071 C 
ATOM     14  N   UNL     1       2.563   4.219  -6.340  1.00  0.00    -0.176 NA
ATOM     15  C   UNL     1       2.451   5.795  -4.567  1.00  0.00     0.091 C 
ATOM     16  C   UNL     1       3.131   6.453  -5.774  1.00  0.00     0.144 C 
BRANCH  13  17
ATOM     17  C   UNL     1       1.813   3.294  -4.218  1.00  0.00    -0.002 A 
ATOM     18  C   UNL     1       0.979   1.147  -2.650  1.00  0.00     0.067 A 
ATOM     19  C   UNL     1       1.909   0.934  -3.669  1.00  0.00     0.021 A 
ATOM     20  C   UNL     1       0.456   2.424  -2.414  1.00  0.00     0.021 A 
ATOM     21  C   UNL     1       2.320   2.010  -4.456  1.00  0.00     0.011 A 
ATOM     22  C   UNL     1       0.886   3.505  -3.192  1.00  0.00     0.011 A 
BRANCH  18  23
ATOM     23  S   UNL     1       0.387  -0.230  -1.690  1.00  0.00     0.175 S 
ATOM     24  C   UNL     1       1.112   0.019  -0.092  1.00  0.00     0.163 C 
ATOM     25  O   UNL     1       0.968  -1.440  -2.251  1.00  0.00    -0.224 OA
ATOM     26  O   UNL     1      -1.046  -0.077  -1.570  1.00  0.00    -0.224 OA
ENDBRANCH  18  23
ENDBRANCH  13  17
BRANCH  16  27
ATOM     27  C   UNL     1       4.558   6.957  -5.610  1.00  0.00    -0.023 A 
ATOM     28  C   UNL     1       5.462   6.439  -4.673  1.00  0.00     0.006 A 
ATOM     29  C   UNL     1       5.032   7.931  -6.514  1.00  0.00     0.006 A 
ATOM     30  C   UNL     1       6.791   6.875  -4.647  1.00  0.00     0.000 A 
ATOM     31  C   UNL     1       6.367   8.336  -6.513  1.00  0.00     0.000 A 
ATOM     32  C   UNL     1       7.247   7.809  -5.575  1.00  0.00     0.000 A 
ENDBRANCH  16  27
ENDBRANCH   7  12
ENDBRANCH   4   6
ENDBRANCH   3   4
ENDBRANCH   2   3
ENDBRANCH   1   2
BRANCH   1  33
ATOM     33  O   UNL     1       2.445   5.853 -14.880  1.00  0.00    -0.374 OA
BRANCH  33  34
ATOM     34  C   UNL     1       2.500   4.907 -13.811  1.00  0.00     0.202 C 
BRANCH  34  35
ATOM     35  C   UNL     1       3.367   3.664 -14.041  1.00  0.00     0.261 C 
BRANCH  35  36
ATOM     36  O   UNL     1       4.764   3.988 -14.161  1.00  0.00    -0.460 OA
BRANCH  36  37
ATOM     37  C   UNL     1       5.272   3.857 -15.408  1.00  0.00     0.338 C 
ATOM     38  O   UNL     1       4.700   3.433 -16.404  1.00  0.00    -0.246 OA
BRANCH  37  39
ATOM     39  C   UNL     1       6.612   4.466 -15.475  1.00  0.00     0.060 A 
ATOM     40  C   UNL     1       6.846   5.407 -16.486  1.00  0.00     0.016 A 
ATOM     41  C   UNL     1       7.643   4.073 -14.618  1.00  0.00     0.016 A 
ATOM     42  C   UNL     1       8.125   5.922 -16.678  1.00  0.00     0.010 A 
ATOM     43  C   UNL     1       8.929   4.585 -14.818  1.00  0.00     0.010 A 
ATOM     44  C   UNL     1       9.183   5.484 -15.870  1.00  0.00    -0.014 A 
BRANCH  44  45
ATOM     45  C   UNL     1      10.574   5.861 -16.217  1.00  0.00     0.031 A 
ATOM     46  C   UNL     1      11.437   4.873 -16.954  1.00  0.00     0.074 A 
ATOM     47  C   UNL     1      11.056   7.078 -15.909  1.00  0.00     0.049 A 
ATOM     48  N   UNL     1      12.688   4.980 -17.324  1.00  0.00    -0.248 NA
ATOM     49  C   UNL     1      10.805   3.596 -17.323  1.00  0.00     0.031 C 
ATOM     50  C   UNL     1      10.309   8.139 -15.236  1.00  0.00     0.029 A 
ATOM     51  N   UNL     1      12.299   7.621 -16.119  1.00  0.00    -0.354 N 
ATOM     52  C   UNL     1      12.992   3.787 -17.969  1.00  0.00     0.074 A 
ATOM     53  C   UNL     1      11.808   2.958 -17.909  1.00  0.00     0.031 C 
ATOM     54  C   UNL     1      11.114   9.204 -15.077  1.00  0.00     0.029 A 
ATOM     55  C   UNL     1      12.438   8.887 -15.606  1.00  0.00     0.049 A 
ATOM     56  H   UNL     1      13.021   7.148 -16.592  1.00  0.00     0.167 HD
ATOM     57  C   UNL     1      14.150   3.417 -18.567  1.00  0.00     0.031 A 
ATOM     58  C   UNL     1      13.519   9.688 -15.548  1.00  0.00     0.031 A 
ATOM     59  C   UNL     1      15.336   4.230 -18.610  1.00  0.00     0.049 A 
ATOM     60  C   UNL     1      14.821   9.221 -16.145  1.00  0.00     0.074 A 
ATOM     61  C   UNL     1      16.561   3.940 -19.186  1.00  0.00     0.029 A 
ATOM     62  N   UNL     1      15.446   5.493 -18.051  1.00  0.00    -0.354 N 
ATOM     63  N   UNL     1      15.091   8.097 -16.764  1.00  0.00    -0.248 NA
ATOM     64  C   UNL     1      15.964  10.139 -16.041  1.00  0.00     0.031 C 
ATOM     65  C   UNL     1      17.427   5.008 -18.932  1.00  0.00     0.029 A 
ATOM     66  C   UNL     1      16.724   5.987 -18.249  1.00  0.00     0.049 A 
ATOM     67  H   UNL     1      14.723   5.969 -17.582  1.00  0.00     0.167 HD
ATOM     68  C   UNL     1      16.424   8.185 -17.147  1.00  0.00     0.074 A 
ATOM     69  C   UNL     1      16.902   9.479 -16.706  1.00  0.00     0.031 C 
ATOM     70  C   UNL     1      17.184   7.277 -17.806  1.00  0.00     0.031 A 
BRANCH  57  71
ATOM     71  C   UNL     1      14.194   2.057 -19.203  1.00  0.00    -0.014 A 
ATOM     72  C   UNL     1      13.502   1.790 -20.395  1.00  0.00     0.009 A 
ATOM     73  C   UNL     1      14.966   1.038 -18.624  1.00  0.00     0.009 A 
ATOM     74  C   UNL     1      13.557   0.522 -20.977  1.00  0.00     0.001 A 
ATOM     75  C   UNL     1      15.042  -0.221 -19.222  1.00  0.00     0.001 A 
ATOM     76  C   UNL     1      14.331  -0.480 -20.393  1.00  0.00     0.000 A 
ENDBRANCH  57  71
BRANCH  58  77
ATOM     77  C   UNL     1      13.433  11.008 -14.870  1.00  0.00    -0.014 A 
ATOM     78  C   UNL     1      13.528  12.202 -15.601  1.00  0.00     0.009 A 
ATOM     79  C   UNL     1      13.286  11.077 -13.476  1.00  0.00     0.009 A 
ATOM     80  C   UNL     1      13.508  13.436 -14.946  1.00  0.00     0.001 A 
ATOM     81  C   UNL     1      13.235  12.312 -12.827  1.00  0.00     0.001 A 
ATOM     82  C   UNL     1      13.358  13.490 -13.561  1.00  0.00     0.000 A 
ENDBRANCH  58  77
BRANCH  70  83
ATOM     83  C   UNL     1      18.601   7.666 -18.126  1.00  0.00    -0.014 A 
ATOM     84  C   UNL     1      19.584   7.731 -17.126  1.00  0.00     0.009 A 
ATOM     85  C   UNL     1      18.965   7.929 -19.456  1.00  0.00     0.009 A 
ATOM     86  C   UNL     1      20.895   8.086 -17.449  1.00  0.00     0.001 A 
ATOM     87  C   UNL     1      20.282   8.255 -19.780  1.00  0.00     0.001 A 
ATOM     88  C   UNL     1      21.244   8.342 -18.775  1.00  0.00     0.000 A 
ENDBRANCH  70  83
ENDBRANCH  44  45
ENDBRANCH  37  39
ENDBRANCH  36  37
ENDBRANCH  35  36
ENDBRANCH  34  35
ENDBRANCH  33  34
ENDBRANCH   1  33
TORSDOF 18
