REMARK SMILES Cc1ccc(-c2cc(C(=O)OCCOCCOC(=O)c3ccc(-c4c5nc(c(-c6ccccc6)c6ccc([nH]6)c(-c6ccccc6)c6nc(c(-c7ccccc7)c7ccc4[nH]7)C=C6)C=C5)cc3)c3c(-c4cccc([N+](=O)[O-])c4)[nH]nc3n2)cc1
REMARK SMILES IDX 14 1 13 2 12 3 11 4 9 5 10 6 8 7 6 8 7 9 82 10 81 11 68 12
REMARK SMILES IDX 80 13 69 14 79 15 5 17 1 18 2 19 3 20 84 21 4 22 83 23 70 24
REMARK SMILES IDX 71 25 78 26 72 27 74 28 73 29 75 30 76 31 77 32 15 33 16 34
REMARK SMILES IDX 17 35 18 36 19 37 20 38 21 39 67 40 22 41 66 42 23 43 24 44
REMARK SMILES IDX 25 45 60 46 26 47 65 48 59 49 61 50 27 51 64 52 58 53 57 54
REMARK SMILES IDX 28 56 50 57 35 58 49 59 36 60 39 61 48 62 62 63 37 64 38 65
REMARK SMILES IDX 47 67 63 68 40 69 29 70 30 71 34 72 31 73 33 74 32 75 51 76
REMARK SMILES IDX 52 77 56 78 53 79 55 80 54 81 41 82 42 83 46 84 43 85 45 86
REMARK SMILES IDX 44 87
REMARK H PARENT 79 16 61 55 39 66
REMARK Flexibility Score: inf
ROOT
ATOM      1  O   UNL     1      -6.147  -0.339  -4.371  1.00  0.00    -0.374 OA
ENDROOT
BRANCH   1   2
ATOM      2  C   UNL     1      -4.846  -0.038  -4.823  1.00  0.00     0.202 C 
BRANCH   2   3
ATOM      3  C   UNL     1      -4.518   1.187  -4.057  1.00  0.00     0.261 C 
BRANCH   3   4
ATOM      4  O   UNL     1      -4.609   0.931  -2.637  1.00  0.00    -0.460 OA
BRANCH   4   5
ATOM      5  C   UNL     1      -5.758   0.799  -1.903  1.00  0.00     0.339 C 
ATOM      6  O   UNL     1      -6.885   1.052  -2.213  1.00  0.00    -0.246 OA
BRANCH   5   7
ATOM      7  C   UNL     1      -5.316   0.267  -0.615  1.00  0.00     0.075 A 
ATOM      8  C   UNL     1      -3.382  -0.393   0.771  1.00  0.00     0.074 A 
ATOM      9  C   UNL     1      -3.950   0.272  -0.322  1.00  0.00     0.045 A 
ATOM     10  N   UNL     1      -4.082  -1.081   1.713  1.00  0.00    -0.226 NA
ATOM     11  C   UNL     1      -5.438  -1.019   1.525  1.00  0.00     0.182 A 
ATOM     12  C   UNL     1      -6.042  -0.363   0.390  1.00  0.00     0.061 A 
ATOM     13  N   UNL     1      -6.372  -1.553   2.313  1.00  0.00    -0.154 NA
ATOM     14  C   UNL     1      -7.412  -0.520   0.539  1.00  0.00     0.076 A 
ATOM     15  N   UNL     1      -7.535  -1.219   1.719  1.00  0.00    -0.275 N 
ATOM     16  H   UNL     1      -8.410  -1.457   2.102  1.00  0.00     0.190 HD
BRANCH   8  17
ATOM     17  C   UNL     1      -1.905  -0.368   0.787  1.00  0.00     0.000 A 
ATOM     18  C   UNL     1       2.350  -0.122  -0.035  1.00  0.00     0.044 C 
ATOM     19  C   UNL     1       0.876  -0.203   0.238  1.00  0.00    -0.051 A 
ATOM     20  C   UNL     1       0.228  -1.444   0.307  1.00  0.00     0.004 A 
ATOM     21  C   UNL     1       0.131   0.958   0.443  1.00  0.00     0.004 A 
ATOM     22  C   UNL     1      -1.147  -1.527   0.577  1.00  0.00     0.010 A 
ATOM     23  C   UNL     1      -1.234   0.874   0.723  1.00  0.00     0.010 A 
ENDBRANCH   8  17
BRANCH  14  24
ATOM     24  C   UNL     1      -8.587  -0.088  -0.220  1.00  0.00     0.007 A 
ATOM     25  C   UNL     1      -9.247   1.108   0.106  1.00  0.00     0.011 A 
ATOM     26  C   UNL     1      -9.036  -0.829  -1.323  1.00  0.00     0.096 A 
ATOM     27  C   UNL     1     -10.313   1.577  -0.672  1.00  0.00     0.008 A 
ATOM     28  C   UNL     1     -10.088  -0.338  -2.115  1.00  0.00     0.270 A 
ATOM     29  C   UNL     1     -10.732   0.863  -1.793  1.00  0.00     0.085 A 
BRANCH  28  30
ATOM     30  N   UNL     1     -10.481  -1.056  -3.335  1.00  0.00     0.062 N 
ATOM     31  O   UNL     1     -11.339  -0.532  -4.062  1.00  0.00    -0.258 OA
ATOM     32  O   UNL     1      -9.926  -2.137  -3.578  1.00  0.00    -0.258 OA
ENDBRANCH  28  30
ENDBRANCH  14  24
ENDBRANCH   5   7
ENDBRANCH   4   5
ENDBRANCH   3   4
ENDBRANCH   2   3
ENDBRANCH   1   2
BRANCH   1  33
ATOM     33  C   UNL     1      -6.510  -1.690  -4.437  1.00  0.00     0.202 C 
BRANCH  33  34
ATOM     34  C   UNL     1      -6.744  -2.060  -5.895  1.00  0.00     0.261 C 
BRANCH  34  35
ATOM     35  O   UNL     1      -7.668  -1.113  -6.496  1.00  0.00    -0.460 OA
BRANCH  35  36
ATOM     36  C   UNL     1      -7.122  -0.045  -7.157  1.00  0.00     0.338 C 
ATOM     37  O   UNL     1      -6.219  -0.115  -7.976  1.00  0.00    -0.246 OA
BRANCH  36  38
ATOM     38  C   UNL     1      -7.561   1.246  -6.522  1.00  0.00     0.060 A 
ATOM     39  C   UNL     1      -6.842   2.443  -6.731  1.00  0.00     0.016 A 
ATOM     40  C   UNL     1      -8.436   1.167  -5.452  1.00  0.00     0.016 A 
ATOM     41  C   UNL     1      -6.848   3.467  -5.757  1.00  0.00     0.010 A 
ATOM     42  C   UNL     1      -8.347   2.119  -4.457  1.00  0.00     0.010 A 
ATOM     43  C   UNL     1      -7.523   3.252  -4.560  1.00  0.00    -0.014 A 
BRANCH  43  44
ATOM     44  C   UNL     1      -7.449   4.041  -3.313  1.00  0.00     0.031 A 
ATOM     45  C   UNL     1      -8.717   4.604  -2.795  1.00  0.00     0.074 A 
ATOM     46  C   UNL     1      -6.376   3.980  -2.477  1.00  0.00     0.049 A 
ATOM     47  N   UNL     1      -8.786   5.365  -1.763  1.00  0.00    -0.248 NA
ATOM     48  C   UNL     1     -10.029   4.393  -3.413  1.00  0.00     0.031 C 
ATOM     49  C   UNL     1      -6.321   4.120  -1.014  1.00  0.00     0.029 A 
ATOM     50  N   UNL     1      -5.047   3.705  -2.781  1.00  0.00    -0.354 N 
ATOM     51  C   UNL     1     -10.101   5.442  -1.383  1.00  0.00     0.074 A 
ATOM     52  C   UNL     1     -10.846   4.941  -2.508  1.00  0.00     0.031 C 
ATOM     53  C   UNL     1      -5.038   4.193  -0.604  1.00  0.00     0.029 A 
ATOM     54  C   UNL     1      -4.204   4.224  -1.794  1.00  0.00     0.049 A 
ATOM     55  H   UNL     1      -4.743   3.214  -3.578  1.00  0.00     0.167 HD
ATOM     56  C   UNL     1     -10.369   5.789  -0.096  1.00  0.00     0.031 A 
ATOM     57  C   UNL     1      -3.238   5.117  -2.135  1.00  0.00     0.031 A 
ATOM     58  C   UNL     1      -9.135   6.174   0.606  1.00  0.00     0.049 A 
ATOM     59  C   UNL     1      -3.656   6.430  -1.536  1.00  0.00     0.074 A 
ATOM     60  C   UNL     1      -8.374   5.578   1.597  1.00  0.00     0.029 A 
ATOM     61  N   UNL     1      -8.335   7.175   0.051  1.00  0.00    -0.354 N 
ATOM     62  N   UNL     1      -4.904   6.698  -1.252  1.00  0.00    -0.248 NA
ATOM     63  C   UNL     1      -2.735   7.457  -1.067  1.00  0.00     0.031 C 
ATOM     64  C   UNL     1      -7.078   6.181   1.570  1.00  0.00     0.029 A 
ATOM     65  C   UNL     1      -7.064   7.168   0.593  1.00  0.00     0.049 A 
ATOM     66  H   UNL     1      -8.638   7.807  -0.640  1.00  0.00     0.167 HD
ATOM     67  C   UNL     1      -4.951   7.785  -0.442  1.00  0.00     0.074 A 
ATOM     68  C   UNL     1      -3.581   8.274  -0.413  1.00  0.00     0.031 C 
ATOM     69  C   UNL     1      -6.087   8.183   0.197  1.00  0.00     0.031 A 
BRANCH  56  70
ATOM     70  C   UNL     1     -11.700   5.600   0.597  1.00  0.00    -0.014 A 
ATOM     71  C   UNL     1     -11.810   5.917   1.964  1.00  0.00     0.009 A 
ATOM     72  C   UNL     1     -12.860   5.066   0.003  1.00  0.00     0.009 A 
ATOM     73  C   UNL     1     -12.994   5.707   2.688  1.00  0.00     0.001 A 
ATOM     74  C   UNL     1     -14.052   4.867   0.715  1.00  0.00     0.001 A 
ATOM     75  C   UNL     1     -14.118   5.185   2.062  1.00  0.00     0.000 A 
ENDBRANCH  56  70
BRANCH  57  76
ATOM     76  C   UNL     1      -2.654   4.830  -3.488  1.00  0.00    -0.014 A 
ATOM     77  C   UNL     1      -1.742   3.752  -3.597  1.00  0.00     0.009 A 
ATOM     78  C   UNL     1      -3.327   5.230  -4.655  1.00  0.00     0.009 A 
ATOM     79  C   UNL     1      -1.600   3.034  -4.797  1.00  0.00     0.001 A 
ATOM     80  C   UNL     1      -3.211   4.484  -5.841  1.00  0.00     0.001 A 
ATOM     81  C   UNL     1      -2.375   3.370  -5.904  1.00  0.00     0.000 A 
ENDBRANCH  57  76
BRANCH  69  82
ATOM     82  C   UNL     1      -6.357   9.623   0.519  1.00  0.00    -0.014 A 
ATOM     83  C   UNL     1      -5.598  10.681  -0.001  1.00  0.00     0.009 A 
ATOM     84  C   UNL     1      -7.539   9.964   1.208  1.00  0.00     0.009 A 
ATOM     85  C   UNL     1      -5.965  12.010   0.211  1.00  0.00     0.001 A 
ATOM     86  C   UNL     1      -7.948  11.286   1.357  1.00  0.00     0.001 A 
ATOM     87  C   UNL     1      -7.147  12.312   0.876  1.00  0.00     0.000 A 
ENDBRANCH  69  82
ENDBRANCH  43  44
ENDBRANCH  36  38
ENDBRANCH  35  36
ENDBRANCH  34  35
ENDBRANCH  33  34
ENDBRANCH   1  33
TORSDOF 17
