REMARK SMILES Cc1cc(C)c2c(OCCCC(=O)OCCOCCOC(=O)c3ccc(-c4c5nc(c(-c6ccccc6)c6ccc([nH]6)c(-c6ccccc6)c6nc(c(-c7ccccc7)c7ccc4[nH]7)C=C6)C=C5)cc3)nsc2n1
REMARK SMILES IDX 16 1 15 2 14 3 12 4 13 5 11 6 10 7 9 8 8 9 7 10 1 11 2 12
REMARK SMILES IDX 3 13 74 14 4 15 73 16 5 17 6 18 72 19 71 20 17 21 18 22
REMARK SMILES IDX 19 23 20 24 21 25 22 26 23 27 24 28 70 29 25 30 69 31 26 32
REMARK SMILES IDX 27 33 28 34 63 35 29 36 68 37 62 38 64 39 30 40 67 41 61 42
REMARK SMILES IDX 60 43 31 45 53 46 38 47 52 48 39 49 42 50 51 51 65 52 40 53
REMARK SMILES IDX 41 54 50 56 66 57 43 58 32 59 33 60 37 61 34 62 36 63 35 64
REMARK SMILES IDX 54 65 55 66 59 67 56 68 58 69 57 70 44 71 45 72 49 73 46 74
REMARK SMILES IDX 48 75 47 76
REMARK H PARENT 64 44 42 55
REMARK Flexibility Score: inf
ROOT
ATOM      1  C   UNL     1       2.583  -4.113   2.579  1.00  0.00     0.202 C 
ENDROOT
BRANCH   1   2
ATOM      2  C   UNL     1       1.977  -2.828   2.040  1.00  0.00     0.261 C 
BRANCH   2   3
ATOM      3  O   UNL     1       0.528  -2.488   2.436  1.00  0.00    -0.463 OA
BRANCH   3   4
ATOM      4  C   UNL     1      -0.786  -2.515   2.074  1.00  0.00     0.305 C 
ATOM      5  O   UNL     1      -1.218  -2.985   1.016  1.00  0.00    -0.252 OA
BRANCH   4   6
ATOM      6  C   UNL     1      -1.792  -1.816   3.099  1.00  0.00     0.126 C 
BRANCH   6   7
ATOM      7  C   UNL     1      -2.204  -2.182   4.567  1.00  0.00     0.053 C 
BRANCH   7   8
ATOM      8  C   UNL     1      -1.703  -1.538   5.908  1.00  0.00     0.232 C 
BRANCH   8   9
ATOM      9  O   UNL     1      -1.759  -0.151   6.208  1.00  0.00    -0.477 OA
BRANCH   9  10
ATOM     10  C   UNL     1      -1.231   0.798   5.403  1.00  0.00     0.235 A 
ATOM     11  C   UNL     1       0.875   0.962   0.284  1.00  0.00     0.067 C 
ATOM     12  C   UNL     1       0.653   1.094   1.776  1.00  0.00     0.039 A 
ATOM     13  C   UNL     1       1.172   0.100   2.594  1.00  0.00     0.027 A 
ATOM     14  N   UNL     1      -0.106   2.078   2.261  1.00  0.00    -0.240 NA
ATOM     15  C   UNL     1       0.715  -0.156   3.913  1.00  0.00    -0.034 A 
ATOM     16  C   UNL     1      -0.480   1.882   3.544  1.00  0.00     0.147 A 
ATOM     17  C   UNL     1       1.058  -1.378   4.729  1.00  0.00     0.045 C 
ATOM     18  C   UNL     1      -0.256   0.761   4.351  1.00  0.00     0.078 A 
ATOM     19  S   UNL     1      -1.347   3.032   4.445  1.00  0.00    -0.012 S 
ATOM     20  N   UNL     1      -1.739   1.999   5.681  1.00  0.00    -0.153 NA
ENDBRANCH   9  10
ENDBRANCH   8   9
ENDBRANCH   7   8
ENDBRANCH   6   7
ENDBRANCH   4   6
ENDBRANCH   3   4
ENDBRANCH   2   3
ENDBRANCH   1   2
BRANCH   1  21
ATOM     21  O   UNL     1       2.029  -5.309   2.069  1.00  0.00    -0.374 OA
BRANCH  21  22
ATOM     22  C   UNL     1       0.643  -5.514   2.293  1.00  0.00     0.202 C 
BRANCH  22  23
ATOM     23  C   UNL     1       0.231  -6.006   3.665  1.00  0.00     0.261 C 
BRANCH  23  24
ATOM     24  O   UNL     1       0.800  -5.198   4.680  1.00  0.00    -0.460 OA
BRANCH  24  25
ATOM     25  C   UNL     1       1.997  -5.633   5.108  1.00  0.00     0.338 C 
ATOM     26  O   UNL     1       2.712  -6.524   4.612  1.00  0.00    -0.246 OA
BRANCH  25  27
ATOM     27  C   UNL     1       2.308  -4.962   6.357  1.00  0.00     0.060 A 
ATOM     28  C   UNL     1       3.540  -5.286   6.926  1.00  0.00     0.016 A 
ATOM     29  C   UNL     1       1.190  -4.755   7.150  1.00  0.00     0.016 A 
ATOM     30  C   UNL     1       3.484  -6.035   8.085  1.00  0.00     0.010 A 
ATOM     31  C   UNL     1       1.277  -5.237   8.415  1.00  0.00     0.010 A 
ATOM     32  C   UNL     1       2.233  -6.212   8.680  1.00  0.00    -0.014 A 
BRANCH  32  33
ATOM     33  C   UNL     1       2.029  -6.963   9.915  1.00  0.00     0.031 A 
ATOM     34  C   UNL     1       2.727  -6.182  11.005  1.00  0.00     0.074 A 
ATOM     35  C   UNL     1       1.240  -8.081  10.008  1.00  0.00     0.049 A 
ATOM     36  N   UNL     1       3.910  -6.446  11.461  1.00  0.00    -0.248 NA
ATOM     37  C   UNL     1       2.312  -4.791  11.348  1.00  0.00     0.031 C 
ATOM     38  C   UNL     1       0.457  -8.838   9.002  1.00  0.00     0.029 A 
ATOM     39  N   UNL     1       0.929  -8.804  11.138  1.00  0.00    -0.354 N 
ATOM     40  C   UNL     1       4.189  -5.437  12.380  1.00  0.00     0.074 A 
ATOM     41  C   UNL     1       3.365  -4.329  12.024  1.00  0.00     0.031 C 
ATOM     42  C   UNL     1      -0.442  -9.668   9.612  1.00  0.00     0.029 A 
ATOM     43  C   UNL     1      -0.210  -9.645  11.042  1.00  0.00     0.049 A 
ATOM     44  H   UNL     1       1.464  -8.742  11.962  1.00  0.00     0.167 HD
ATOM     45  C   UNL     1       4.731  -5.744  13.589  1.00  0.00     0.031 A 
ATOM     46  C   UNL     1      -0.820 -10.309  12.082  1.00  0.00     0.031 A 
ATOM     47  C   UNL     1       5.284  -7.071  13.548  1.00  0.00     0.049 A 
ATOM     48  C   UNL     1       0.187 -10.337  13.181  1.00  0.00     0.074 A 
ATOM     49  C   UNL     1       6.308  -7.662  12.840  1.00  0.00     0.029 A 
ATOM     50  N   UNL     1       4.396  -8.062  13.880  1.00  0.00    -0.354 N 
ATOM     51  N   UNL     1       1.301 -11.007  13.063  1.00  0.00    -0.248 NA
ATOM     52  C   UNL     1       0.225  -9.146  14.025  1.00  0.00     0.031 C 
ATOM     53  C   UNL     1       5.780  -8.915  12.410  1.00  0.00     0.029 A 
ATOM     54  C   UNL     1       4.541  -9.117  13.017  1.00  0.00     0.049 A 
ATOM     55  H   UNL     1       3.753  -8.023  14.625  1.00  0.00     0.167 HD
ATOM     56  C   UNL     1       2.280 -10.086  13.400  1.00  0.00     0.074 A 
ATOM     57  C   UNL     1       1.547  -8.941  13.969  1.00  0.00     0.031 C 
ATOM     58  C   UNL     1       3.535 -10.143  12.862  1.00  0.00     0.031 A 
BRANCH  45  59
ATOM     59  C   UNL     1       4.297  -5.099  14.883  1.00  0.00    -0.014 A 
ATOM     60  C   UNL     1       5.010  -5.406  16.053  1.00  0.00     0.009 A 
ATOM     61  C   UNL     1       3.070  -4.421  15.053  1.00  0.00     0.009 A 
ATOM     62  C   UNL     1       4.519  -5.064  17.320  1.00  0.00     0.001 A 
ATOM     63  C   UNL     1       2.590  -4.053  16.314  1.00  0.00     0.001 A 
ATOM     64  C   UNL     1       3.311  -4.384  17.450  1.00  0.00     0.000 A 
ENDBRANCH  45  59
BRANCH  46  65
ATOM     65  C   UNL     1      -2.282 -10.432  12.416  1.00  0.00    -0.014 A 
ATOM     66  C   UNL     1      -2.783 -11.255  13.456  1.00  0.00     0.009 A 
ATOM     67  C   UNL     1      -3.159  -9.456  11.919  1.00  0.00     0.009 A 
ATOM     68  C   UNL     1      -4.083 -11.073  13.984  1.00  0.00     0.001 A 
ATOM     69  C   UNL     1      -4.441  -9.260  12.457  1.00  0.00     0.001 A 
ATOM     70  C   UNL     1      -4.902 -10.058  13.498  1.00  0.00     0.000 A 
ENDBRANCH  46  65
BRANCH  58  71
ATOM     71  C   UNL     1       3.917 -11.328  12.002  1.00  0.00    -0.014 A 
ATOM     72  C   UNL     1       3.435 -11.610  10.706  1.00  0.00     0.009 A 
ATOM     73  C   UNL     1       4.974 -12.106  12.491  1.00  0.00     0.009 A 
ATOM     74  C   UNL     1       3.980 -12.669   9.957  1.00  0.00     0.001 A 
ATOM     75  C   UNL     1       5.531 -13.137  11.738  1.00  0.00     0.001 A 
ATOM     76  C   UNL     1       5.024 -13.432  10.477  1.00  0.00     0.000 A 
ENDBRANCH  58  71
ENDBRANCH  32  33
ENDBRANCH  25  27
ENDBRANCH  24  25
ENDBRANCH  23  24
ENDBRANCH  22  23
ENDBRANCH  21  22
ENDBRANCH   1  21
TORSDOF 18
