REMARK SMILES CC(C)=CC[C@@]1(C(=O)OCCOCCOC(=O)c2ccc(-c3c4nc(c(-c5ccccc5)c5ccc([nH]5)c(-c5ccccc5)c5nc(c(-c6ccccc6)c6ccc3[nH]6)C=C5)C=C4)cc2)CCC[C@H](C)C1
REMARK SMILES IDX 12 1 11 2 10 3 9 4 7 5 8 6 6 7 66 8 71 9 67 10 69 11 68 12
REMARK SMILES IDX 70 13 5 14 4 15 1 16 2 17 3 18 13 19 14 20 15 21 16 22 17 23
REMARK SMILES IDX 18 24 19 25 65 26 20 27 64 28 21 29 22 30 23 31 58 32 24 33
REMARK SMILES IDX 63 34 57 35 59 36 25 37 62 38 56 39 55 40 26 42 48 43 33 44
REMARK SMILES IDX 47 45 34 46 37 47 46 48 60 49 35 50 36 51 45 53 61 54 38 55
REMARK SMILES IDX 27 56 28 57 32 58 29 59 31 60 30 61 49 62 50 63 54 64 51 65
REMARK SMILES IDX 53 66 52 67 39 68 40 69 44 70 41 71 43 72 42 73
REMARK H PARENT 59 41 37 52
REMARK Flexibility Score: inf
ROOT
ATOM      1  O   UNL     1      -0.577   1.271  -3.267  1.00  0.00    -0.374 OA
ENDROOT
BRANCH   1   2
ATOM      2  C   UNL     1      -1.061   0.213  -2.439  1.00  0.00     0.202 C 
BRANCH   2   3
ATOM      3  C   UNL     1      -0.509  -1.169  -2.786  1.00  0.00     0.261 C 
BRANCH   3   4
ATOM      4  O   UNL     1       0.857  -1.297  -2.349  1.00  0.00    -0.463 OA
BRANCH   4   5
ATOM      5  C   UNL     1       1.797  -1.132  -3.310  1.00  0.00     0.312 C 
ATOM      6  O   UNL     1       1.540  -0.977  -4.500  1.00  0.00    -0.252 OA
BRANCH   5   7
ATOM      7  C   UNL     1       3.235  -1.189  -2.775  1.00  0.00     0.072 C 
ATOM      8  C   UNL     1       4.018  -0.023  -3.432  1.00  0.00     0.019 C 
ATOM      9  C   UNL     1       3.791  -2.547  -3.281  1.00  0.00     0.022 C 
ATOM     10  C   UNL     1       5.533  -0.163  -3.323  1.00  0.00     0.001 C 
ATOM     11  C   UNL     1       5.315  -2.678  -3.142  1.00  0.00    -0.013 C 
ATOM     12  C   UNL     1       6.015  -1.514  -3.849  1.00  0.00     0.003 C 
ATOM     13  C   UNL     1       5.778  -4.037  -3.667  1.00  0.00     0.007 C 
BRANCH   7  14
ATOM     14  C   UNL     1       3.356  -1.192  -1.226  1.00  0.00     0.046 C 
BRANCH  14  15
ATOM     15  C   UNL     1       3.057   0.055  -0.440  1.00  0.00    -0.027 C 
ATOM     16  C   UNL     1       1.252  -0.913   1.058  1.00  0.00     0.039 C 
ATOM     17  C   UNL     1       2.220   0.149   0.611  1.00  0.00    -0.080 C 
ATOM     18  C   UNL     1       2.283   1.366   1.490  1.00  0.00     0.039 C 
ENDBRANCH  14  15
ENDBRANCH   7  14
ENDBRANCH   5   7
ENDBRANCH   4   5
ENDBRANCH   3   4
ENDBRANCH   2   3
ENDBRANCH   1   2
BRANCH   1  19
ATOM     19  C   UNL     1       0.622   1.905  -2.820  1.00  0.00     0.202 C 
BRANCH  19  20
ATOM     20  C   UNL     1       0.401   3.078  -1.859  1.00  0.00     0.261 C 
BRANCH  20  21
ATOM     21  O   UNL     1      -0.114   2.633  -0.593  1.00  0.00    -0.460 OA
BRANCH  21  22
ATOM     22  C   UNL     1      -1.459   2.738  -0.435  1.00  0.00     0.338 C 
ATOM     23  O   UNL     1      -2.260   3.242  -1.193  1.00  0.00    -0.246 OA
BRANCH  22  24
ATOM     24  C   UNL     1      -1.843   1.980   0.775  1.00  0.00     0.060 A 
ATOM     25  C   UNL     1      -2.939   1.115   0.716  1.00  0.00     0.016 A 
ATOM     26  C   UNL     1      -1.135   2.127   1.965  1.00  0.00     0.016 A 
ATOM     27  C   UNL     1      -3.362   0.449   1.869  1.00  0.00     0.010 A 
ATOM     28  C   UNL     1      -1.497   1.385   3.090  1.00  0.00     0.010 A 
ATOM     29  C   UNL     1      -2.669   0.611   3.079  1.00  0.00    -0.014 A 
BRANCH  29  30
ATOM     30  C   UNL     1      -3.285   0.185   4.369  1.00  0.00     0.031 A 
ATOM     31  C   UNL     1      -3.680   1.252   5.369  1.00  0.00     0.074 A 
ATOM     32  C   UNL     1      -3.531  -1.109   4.651  1.00  0.00     0.049 A 
ATOM     33  N   UNL     1      -4.227   1.125   6.553  1.00  0.00    -0.248 NA
ATOM     34  C   UNL     1      -3.389   2.649   5.000  1.00  0.00     0.031 C 
ATOM     35  C   UNL     1      -3.199  -2.249   3.796  1.00  0.00     0.029 A 
ATOM     36  N   UNL     1      -4.135  -1.679   5.746  1.00  0.00    -0.354 N 
ATOM     37  C   UNL     1      -4.307   2.415   7.069  1.00  0.00     0.074 A 
ATOM     38  C   UNL     1      -3.681   3.296   6.114  1.00  0.00     0.031 C 
ATOM     39  C   UNL     1      -3.635  -3.378   4.384  1.00  0.00     0.029 A 
ATOM     40  C   UNL     1      -4.251  -3.047   5.667  1.00  0.00     0.049 A 
ATOM     41  H   UNL     1      -4.455  -1.156   6.517  1.00  0.00     0.167 HD
ATOM     42  C   UNL     1      -4.886   2.849   8.213  1.00  0.00     0.031 A 
ATOM     43  C   UNL     1      -4.799  -3.928   6.527  1.00  0.00     0.031 A 
ATOM     44  C   UNL     1      -5.553   1.992   9.151  1.00  0.00     0.049 A 
ATOM     45  C   UNL     1      -5.438  -3.428   7.798  1.00  0.00     0.074 A 
ATOM     46  C   UNL     1      -6.217   2.337  10.314  1.00  0.00     0.029 A 
ATOM     47  N   UNL     1      -5.650   0.616   9.024  1.00  0.00    -0.354 N 
ATOM     48  N   UNL     1      -5.551  -2.199   8.244  1.00  0.00    -0.248 NA
ATOM     49  C   UNL     1      -6.048  -4.440   8.673  1.00  0.00     0.031 C 
ATOM     50  C   UNL     1      -6.671   1.161  10.920  1.00  0.00     0.029 A 
ATOM     51  C   UNL     1      -6.351   0.094  10.096  1.00  0.00     0.049 A 
ATOM     52  H   UNL     1      -5.275   0.088   8.282  1.00  0.00     0.167 HD
ATOM     53  C   UNL     1      -6.283  -2.288   9.424  1.00  0.00     0.074 A 
ATOM     54  C   UNL     1      -6.596  -3.688   9.617  1.00  0.00     0.031 C 
ATOM     55  C   UNL     1      -6.667  -1.300  10.269  1.00  0.00     0.031 A 
BRANCH  42  56
ATOM     56  C   UNL     1      -4.817   4.325   8.505  1.00  0.00    -0.014 A 
ATOM     57  C   UNL     1      -5.504   5.262   7.714  1.00  0.00     0.009 A 
ATOM     58  C   UNL     1      -4.056   4.785   9.590  1.00  0.00     0.009 A 
ATOM     59  C   UNL     1      -5.386   6.629   7.971  1.00  0.00     0.001 A 
ATOM     60  C   UNL     1      -3.972   6.150   9.869  1.00  0.00     0.001 A 
ATOM     61  C   UNL     1      -4.625   7.072   9.052  1.00  0.00     0.000 A 
ENDBRANCH  42  56
BRANCH  43  62
ATOM     62  C   UNL     1      -4.804  -5.384   6.211  1.00  0.00    -0.014 A 
ATOM     63  C   UNL     1      -6.007  -6.051   5.926  1.00  0.00     0.009 A 
ATOM     64  C   UNL     1      -3.611  -6.122   6.228  1.00  0.00     0.009 A 
ATOM     65  C   UNL     1      -6.019  -7.431   5.703  1.00  0.00     0.001 A 
ATOM     66  C   UNL     1      -3.622  -7.496   5.972  1.00  0.00     0.001 A 
ATOM     67  C   UNL     1      -4.826  -8.151   5.722  1.00  0.00     0.000 A 
ENDBRANCH  43  62
BRANCH  55  68
ATOM     68  C   UNL     1      -7.529  -1.683  11.441  1.00  0.00    -0.014 A 
ATOM     69  C   UNL     1      -7.027  -2.434  12.515  1.00  0.00     0.009 A 
ATOM     70  C   UNL     1      -8.864  -1.249  11.483  1.00  0.00     0.009 A 
ATOM     71  C   UNL     1      -7.859  -2.784  13.582  1.00  0.00     0.001 A 
ATOM     72  C   UNL     1      -9.682  -1.568  12.566  1.00  0.00     0.001 A 
ATOM     73  C   UNL     1      -9.184  -2.347  13.608  1.00  0.00     0.000 A 
ENDBRANCH  55  68
ENDBRANCH  29  30
ENDBRANCH  22  24
ENDBRANCH  21  22
ENDBRANCH  20  21
ENDBRANCH  19  20
ENDBRANCH   1  19
TORSDOF 16
