REMARK SMILES Cc1ccc(S(=O)(=O)n2cc(C(=O)C(=O)NCC(=O)OCCOCCOC(=O)c3ccc(-c4c5nc(c(-c6ccccc6)c6ccc([nH]6)c(-c6ccccc6)c6nc(c(-c7ccccc7)c7ccc4[nH]7)C=C6)C=C5)cc3)c3ccccc32)cc1
REMARK SMILES IDX 21 1 20 2 18 3 19 4 17 5 16 6 14 7 15 8 12 10 13 11 11 12
REMARK SMILES IDX 9 13 10 14 82 15 77 16 81 17 78 18 80 19 79 20 6 21 7 22
REMARK SMILES IDX 8 23 5 24 1 25 2 26 3 27 84 28 4 29 83 30 22 31 23 32 24 33
REMARK SMILES IDX 25 34 26 35 27 36 28 37 29 38 30 39 76 40 31 41 75 42 32 43
REMARK SMILES IDX 33 44 34 45 69 46 35 47 74 48 68 49 70 50 36 51 73 52 67 53
REMARK SMILES IDX 66 54 37 56 59 57 44 58 58 59 45 60 48 61 57 62 71 63 46 64
REMARK SMILES IDX 47 65 56 67 72 68 49 69 38 70 39 71 43 72 40 73 42 74 41 75
REMARK SMILES IDX 60 76 61 77 65 78 62 79 64 80 63 81 50 82 51 83 55 84 52 85
REMARK SMILES IDX 54 86 53 87
REMARK H PARENT 16 9 70 55 48 66
REMARK Flexibility Score: inf
ROOT
ATOM      1  C   UNL     1      -9.726   4.882   2.021  1.00  0.00     0.261 C 
ENDROOT
BRANCH   1   2
ATOM      2  O   UNL     1      -8.386   5.392   2.021  1.00  0.00    -0.462 OA
BRANCH   2   3
ATOM      3  C   UNL     1      -8.110   6.560   2.682  1.00  0.00     0.325 C 
ATOM      4  O   UNL     1      -8.816   7.557   2.708  1.00  0.00    -0.250 OA
BRANCH   3   5
ATOM      5  C   UNL     1      -6.750   6.468   3.372  1.00  0.00     0.239 C 
BRANCH   5   6
ATOM      6  N   UNL     1      -6.451   5.075   3.700  1.00  0.00    -0.338 N 
ATOM      7  C   UNL     1      -6.120   4.067   2.818  1.00  0.00     0.292 C 
ATOM      8  O   UNL     1      -6.236   2.905   3.193  1.00  0.00    -0.265 OA
ATOM      9  H   UNL     1      -6.490   4.830   4.653  1.00  0.00     0.164 HD
BRANCH   7  10
ATOM     10  C   UNL     1      -5.661   4.414   1.374  1.00  0.00     0.252 C 
ATOM     11  O   UNL     1      -5.816   5.560   0.963  1.00  0.00    -0.283 OA
BRANCH  10  12
ATOM     12  C   UNL     1      -5.013   3.416   0.522  1.00  0.00     0.054 A 
ATOM     13  N   UNL     1      -4.120   1.524  -0.240  1.00  0.00    -0.240 N 
ATOM     14  C   UNL     1      -4.807   2.080   0.805  1.00  0.00     0.117 A 
ATOM     15  C   UNL     1      -3.863   2.455  -1.224  1.00  0.00     0.065 A 
ATOM     16  C   UNL     1      -4.425   3.656  -0.769  1.00  0.00     0.012 A 
ATOM     17  C   UNL     1      -3.163   2.382  -2.441  1.00  0.00     0.028 A 
ATOM     18  C   UNL     1      -4.293   4.810  -1.573  1.00  0.00     0.011 A 
ATOM     19  C   UNL     1      -3.022   3.550  -3.196  1.00  0.00     0.002 A 
ATOM     20  C   UNL     1      -3.583   4.748  -2.773  1.00  0.00     0.001 A 
BRANCH  13  21
ATOM     21  S   UNL     1      -3.529  -0.070  -0.209  1.00  0.00     0.268 S 
ATOM     22  O   UNL     1      -3.823  -0.607  -1.530  1.00  0.00    -0.201 OA
ATOM     23  O   UNL     1      -4.055  -0.669   0.996  1.00  0.00    -0.201 OA
BRANCH  21  24
ATOM     24  C   UNL     1      -1.767   0.011  -0.037  1.00  0.00     0.088 A 
ATOM     25  C   UNL     1       2.530  -0.044   0.030  1.00  0.00     0.044 C 
ATOM     26  C   UNL     1       1.030  -0.019   0.040  1.00  0.00    -0.051 A 
ATOM     27  C   UNL     1       0.314  -1.219  -0.044  1.00  0.00     0.005 A 
ATOM     28  C   UNL     1       0.332   1.191   0.127  1.00  0.00     0.005 A 
ATOM     29  C   UNL     1      -1.079  -1.206  -0.088  1.00  0.00     0.022 A 
ATOM     30  C   UNL     1      -1.065   1.210   0.103  1.00  0.00     0.022 A 
ENDBRANCH  21  24
ENDBRANCH  13  21
ENDBRANCH  10  12
ENDBRANCH   7  10
ENDBRANCH   5   6
ENDBRANCH   3   5
ENDBRANCH   2   3
ENDBRANCH   1   2
BRANCH   1  31
ATOM     31  C   UNL     1     -10.058   4.288   3.361  1.00  0.00     0.202 C 
BRANCH  31  32
ATOM     32  O   UNL     1     -10.155   5.391   4.254  1.00  0.00    -0.374 OA
BRANCH  32  33
ATOM     33  C   UNL     1     -10.352   5.075   5.618  1.00  0.00     0.202 C 
BRANCH  33  34
ATOM     34  C   UNL     1     -11.566   4.173   5.886  1.00  0.00     0.261 C 
BRANCH  34  35
ATOM     35  O   UNL     1     -12.788   4.865   5.550  1.00  0.00    -0.460 OA
BRANCH  35  36
ATOM     36  C   UNL     1     -13.368   4.523   4.366  1.00  0.00     0.338 C 
ATOM     37  O   UNL     1     -13.647   3.388   4.019  1.00  0.00    -0.246 OA
BRANCH  36  38
ATOM     38  C   UNL     1     -13.340   5.694   3.442  1.00  0.00     0.060 A 
ATOM     39  C   UNL     1     -13.624   5.528   2.072  1.00  0.00     0.016 A 
ATOM     40  C   UNL     1     -12.693   6.843   3.880  1.00  0.00     0.016 A 
ATOM     41  C   UNL     1     -13.106   6.433   1.132  1.00  0.00     0.010 A 
ATOM     42  C   UNL     1     -12.062   7.632   2.947  1.00  0.00     0.010 A 
ATOM     43  C   UNL     1     -12.245   7.433   1.569  1.00  0.00    -0.014 A 
BRANCH  43  44
ATOM     44  C   UNL     1     -11.435   8.334   0.742  1.00  0.00     0.031 A 
ATOM     45  C   UNL     1     -11.681   9.788   0.910  1.00  0.00     0.074 A 
ATOM     46  C   UNL     1     -10.300   7.911   0.126  1.00  0.00     0.049 A 
ATOM     47  N   UNL     1     -11.102  10.696   0.212  1.00  0.00    -0.248 NA
ATOM     48  C   UNL     1     -12.619  10.357   1.882  1.00  0.00     0.031 C 
ATOM     49  C   UNL     1      -9.111   8.701  -0.216  1.00  0.00     0.029 A 
ATOM     50  N   UNL     1      -9.950   6.640  -0.349  1.00  0.00    -0.354 N 
ATOM     51  C   UNL     1     -11.289  11.899   0.847  1.00  0.00     0.074 A 
ATOM     52  C   UNL     1     -12.314  11.656   1.826  1.00  0.00     0.031 C 
ATOM     53  C   UNL     1      -8.348   8.017  -1.088  1.00  0.00     0.029 A 
ATOM     54  C   UNL     1      -9.089   6.823  -1.446  1.00  0.00     0.049 A 
ATOM     55  H   UNL     1     -10.251   5.777   0.018  1.00  0.00     0.167 HD
ATOM     56  C   UNL     1     -10.448  12.921   0.531  1.00  0.00     0.031 A 
ATOM     57  C   UNL     1      -9.436   6.404  -2.693  1.00  0.00     0.031 A 
ATOM     58  C   UNL     1      -9.546  12.530  -0.557  1.00  0.00     0.049 A 
ATOM     59  C   UNL     1      -9.518   7.601  -3.598  1.00  0.00     0.074 A 
ATOM     60  C   UNL     1      -8.209  12.174  -0.611  1.00  0.00     0.029 A 
ATOM     61  N   UNL     1     -10.109  12.121  -1.763  1.00  0.00    -0.354 N 
ATOM     62  N   UNL     1      -9.729   8.807  -3.145  1.00  0.00    -0.248 NA
ATOM     63  C   UNL     1      -9.272   7.579  -5.034  1.00  0.00     0.031 C 
ATOM     64  C   UNL     1      -7.987  11.508  -1.853  1.00  0.00     0.029 A 
ATOM     65  C   UNL     1      -9.179  11.489  -2.561  1.00  0.00     0.049 A 
ATOM     66  H   UNL     1     -11.050  12.264  -2.013  1.00  0.00     0.167 HD
ATOM     67  C   UNL     1      -9.535   9.711  -4.144  1.00  0.00     0.074 A 
ATOM     68  C   UNL     1      -9.309   8.894  -5.324  1.00  0.00     0.031 C 
ATOM     69  C   UNL     1      -9.545  11.054  -3.907  1.00  0.00     0.031 A 
BRANCH  56  70
ATOM     70  C   UNL     1     -10.300  14.207   1.306  1.00  0.00    -0.014 A 
ATOM     71  C   UNL     1      -9.184  15.029   1.058  1.00  0.00     0.009 A 
ATOM     72  C   UNL     1     -11.187  14.665   2.295  1.00  0.00     0.009 A 
ATOM     73  C   UNL     1      -8.954  16.213   1.770  1.00  0.00     0.001 A 
ATOM     74  C   UNL     1     -10.960  15.845   3.021  1.00  0.00     0.001 A 
ATOM     75  C   UNL     1      -9.840  16.619   2.758  1.00  0.00     0.000 A 
ENDBRANCH  56  70
BRANCH  57  76
ATOM     76  C   UNL     1     -10.311   5.192  -2.644  1.00  0.00    -0.014 A 
ATOM     77  C   UNL     1      -9.708   3.989  -2.203  1.00  0.00     0.009 A 
ATOM     78  C   UNL     1     -11.700   5.322  -2.501  1.00  0.00     0.009 A 
ATOM     79  C   UNL     1     -10.441   3.034  -1.486  1.00  0.00     0.001 A 
ATOM     80  C   UNL     1     -12.431   4.354  -1.793  1.00  0.00     0.001 A 
ATOM     81  C   UNL     1     -11.795   3.240  -1.243  1.00  0.00     0.000 A 
ENDBRANCH  57  76
BRANCH  69  82
ATOM     82  C   UNL     1      -9.879  12.107  -4.933  1.00  0.00    -0.014 A 
ATOM     83  C   UNL     1     -10.343  11.827  -6.222  1.00  0.00     0.009 A 
ATOM     84  C   UNL     1      -9.902  13.464  -4.537  1.00  0.00     0.009 A 
ATOM     85  C   UNL     1     -10.775  12.846  -7.078  1.00  0.00     0.001 A 
ATOM     86  C   UNL     1     -10.396  14.475  -5.360  1.00  0.00     0.001 A 
ATOM     87  C   UNL     1     -10.820  14.165  -6.641  1.00  0.00     0.000 A 
ENDBRANCH  69  82
ENDBRANCH  43  44
ENDBRANCH  36  38
ENDBRANCH  35  36
ENDBRANCH  34  35
ENDBRANCH  33  34
ENDBRANCH  32  33
ENDBRANCH  31  32
ENDBRANCH   1  31
TORSDOF 19
