REMARK SMILES CC[C@](C)(NC(=O)N1Cc2ccccc2C1)C(=O)OCCOCCOC(=O)c1ccc(-c2c3nc(c(-c4ccccc4)c4ccc([nH]4)c(-c4ccccc4)c4nc(c(-c5ccccc5)c5ccc2[nH]5)C=C4)C=C3)cc1
REMARK SMILES IDX 23 1 22 2 21 3 20 4 19 5 17 6 18 7 3 8 4 9 2 10 1 11 5 12
REMARK SMILES IDX 6 13 7 15 8 16 9 17 16 18 10 19 15 20 11 21 14 22 12 23
REMARK SMILES IDX 13 24 24 25 25 26 26 27 27 28 28 29 29 30 75 31 30 32 74 33
REMARK SMILES IDX 31 34 32 35 33 36 68 37 34 38 73 39 67 40 69 41 35 42 72 43
REMARK SMILES IDX 66 44 65 45 36 47 58 48 43 49 57 50 44 51 47 52 56 53 70 54
REMARK SMILES IDX 45 55 46 56 55 58 71 59 48 60 37 61 38 62 42 63 39 64 41 65
REMARK SMILES IDX 40 66 59 67 60 68 64 69 61 70 63 71 62 72 49 73 50 74 54 75
REMARK SMILES IDX 51 76 53 77 52 78
REMARK H PARENT 5 14 69 46 47 57
REMARK Flexibility Score: inf
ROOT
ATOM      1  C   UNL     1       2.868  -2.095   3.089  1.00  0.00     0.202 C 
ENDROOT
BRANCH   1   2
ATOM      2  O   UNL     1       3.764  -2.260   1.964  1.00  0.00    -0.374 OA
BRANCH   2   3
ATOM      3  C   UNL     1       4.666  -1.263   1.431  1.00  0.00     0.202 C 
BRANCH   3   4
ATOM      4  C   UNL     1       4.285   0.151   0.908  1.00  0.00     0.261 C 
BRANCH   4   5
ATOM      5  O   UNL     1       3.271   0.765   1.672  1.00  0.00    -0.462 OA
BRANCH   5   6
ATOM      6  C   UNL     1       2.032   0.793   1.172  1.00  0.00     0.331 C 
ATOM      7  O   UNL     1       1.761   0.647  -0.021  1.00  0.00    -0.249 OA
BRANCH   6   8
ATOM      8  C   UNL     1       0.998   0.959   2.301  1.00  0.00     0.136 C 
ATOM      9  C   UNL     1       0.050  -0.267   2.126  1.00  0.00     0.047 C 
BRANCH   8  10
ATOM     10  C   UNL     1       0.158   2.249   2.093  1.00  0.00     0.037 C 
ATOM     11  C   UNL     1      -0.758   2.280   0.863  1.00  0.00     0.007 C 
ENDBRANCH   8  10
BRANCH   8  12
ATOM     12  N   UNL     1       1.500   0.951   3.752  1.00  0.00    -0.322 N 
ATOM     13  C   UNL     1       2.610   1.164   4.515  1.00  0.00     0.318 C 
ATOM     14  H   UNL     1       0.753   0.702   4.344  1.00  0.00     0.166 HD
ATOM     15  O   UNL     1       2.412   1.248   5.731  1.00  0.00    -0.249 OA
ATOM     16  N   UNL     1       3.884   1.166   4.002  1.00  0.00    -0.316 N 
ATOM     17  C   UNL     1       4.777   0.068   4.342  1.00  0.00     0.157 C 
ATOM     18  C   UNL     1       4.715   2.365   4.125  1.00  0.00     0.157 C 
ATOM     19  C   UNL     1       6.159   0.492   4.046  1.00  0.00    -0.023 A 
ATOM     20  C   UNL     1       6.132   1.871   3.910  1.00  0.00    -0.023 A 
ATOM     21  C   UNL     1       7.312  -0.284   3.964  1.00  0.00     0.006 A 
ATOM     22  C   UNL     1       7.316   2.527   3.665  1.00  0.00     0.006 A 
ATOM     23  C   UNL     1       8.500   0.373   3.689  1.00  0.00     0.000 A 
ATOM     24  C   UNL     1       8.498   1.770   3.539  1.00  0.00     0.000 A 
ENDBRANCH   8  12
ENDBRANCH   6   8
ENDBRANCH   5   6
ENDBRANCH   4   5
ENDBRANCH   3   4
ENDBRANCH   2   3
ENDBRANCH   1   2
BRANCH   1  25
ATOM     25  C   UNL     1       3.190  -2.676   4.552  1.00  0.00     0.261 C 
BRANCH  25  26
ATOM     26  O   UNL     1       3.235  -1.651   5.644  1.00  0.00    -0.460 OA
BRANCH  26  27
ATOM     27  C   UNL     1       3.929  -1.919   6.811  1.00  0.00     0.338 C 
ATOM     28  O   UNL     1       4.307  -3.041   7.124  1.00  0.00    -0.246 OA
BRANCH  27  29
ATOM     29  C   UNL     1       4.484  -0.688   7.551  1.00  0.00     0.060 A 
ATOM     30  C   UNL     1       5.868  -0.437   7.421  1.00  0.00     0.016 A 
ATOM     31  C   UNL     1       3.759   0.223   8.330  1.00  0.00     0.016 A 
ATOM     32  C   UNL     1       6.496   0.703   7.980  1.00  0.00     0.010 A 
ATOM     33  C   UNL     1       4.411   1.331   8.971  1.00  0.00     0.010 A 
ATOM     34  C   UNL     1       5.794   1.583   8.815  1.00  0.00    -0.014 A 
BRANCH  34  35
ATOM     35  C   UNL     1       6.588   2.466   9.761  1.00  0.00     0.031 A 
ATOM     36  C   UNL     1       7.120   1.796  11.019  1.00  0.00     0.074 A 
ATOM     37  C   UNL     1       6.954   3.754   9.552  1.00  0.00     0.049 A 
ATOM     38  N   UNL     1       7.857   2.276  11.993  1.00  0.00    -0.248 NA
ATOM     39  C   UNL     1       6.783   0.372  11.173  1.00  0.00     0.031 C 
ATOM     40  C   UNL     1       6.659   4.555   8.367  1.00  0.00     0.029 A 
ATOM     41  N   UNL     1       7.688   4.621  10.351  1.00  0.00    -0.354 N 
ATOM     42  C   UNL     1       8.066   1.213  12.868  1.00  0.00     0.074 A 
ATOM     43  C   UNL     1       7.376   0.070  12.315  1.00  0.00     0.031 C 
ATOM     44  C   UNL     1       7.196   5.785   8.517  1.00  0.00     0.029 A 
ATOM     45  C   UNL     1       7.853   5.886   9.824  1.00  0.00     0.049 A 
ATOM     46  H   UNL     1       8.060   4.355  11.223  1.00  0.00     0.167 HD
ATOM     47  C   UNL     1       8.753   1.169  14.036  1.00  0.00     0.031 A 
ATOM     48  C   UNL     1       8.444   6.997  10.328  1.00  0.00     0.031 A 
ATOM     49  C   UNL     1       9.411   2.289  14.649  1.00  0.00     0.049 A 
ATOM     50  C   UNL     1       9.091   6.967  11.701  1.00  0.00     0.074 A 
ATOM     51  C   UNL     1      10.093   2.333  15.854  1.00  0.00     0.029 A 
ATOM     52  N   UNL     1       9.457   3.566  14.117  1.00  0.00    -0.354 N 
ATOM     53  N   UNL     1       9.262   5.955  12.517  1.00  0.00    -0.248 NA
ATOM     54  C   UNL     1       9.632   8.239  12.218  1.00  0.00     0.031 C 
ATOM     55  C   UNL     1      10.494   3.653  16.082  1.00  0.00     0.029 A 
ATOM     56  C   UNL     1      10.132   4.412  14.982  1.00  0.00     0.049 A 
ATOM     57  H   UNL     1       9.068   3.833  13.253  1.00  0.00     0.167 HD
ATOM     58  C   UNL     1       9.960   6.458  13.614  1.00  0.00     0.074 A 
ATOM     59  C   UNL     1      10.194   7.861  13.358  1.00  0.00     0.031 C 
ATOM     60  C   UNL     1      10.376   5.808  14.729  1.00  0.00     0.031 A 
BRANCH  47  61
ATOM     61  C   UNL     1       8.749  -0.143  14.775  1.00  0.00    -0.014 A 
ATOM     62  C   UNL     1       9.464  -1.256  14.305  1.00  0.00     0.009 A 
ATOM     63  C   UNL     1       8.002  -0.264  15.957  1.00  0.00     0.009 A 
ATOM     64  C   UNL     1       9.392  -2.477  14.981  1.00  0.00     0.001 A 
ATOM     65  C   UNL     1       7.959  -1.475  16.648  1.00  0.00     0.001 A 
ATOM     66  C   UNL     1       8.643  -2.584  16.152  1.00  0.00     0.000 A 
ENDBRANCH  47  61
BRANCH  48  67
ATOM     67  C   UNL     1       8.437   8.291   9.571  1.00  0.00    -0.014 A 
ATOM     68  C   UNL     1       9.633   8.889   9.133  1.00  0.00     0.009 A 
ATOM     69  C   UNL     1       7.234   8.989   9.369  1.00  0.00     0.009 A 
ATOM     70  C   UNL     1       9.626  10.156   8.536  1.00  0.00     0.001 A 
ATOM     71  C   UNL     1       7.226  10.240   8.742  1.00  0.00     0.001 A 
ATOM     72  C   UNL     1       8.422  10.828   8.335  1.00  0.00     0.000 A 
ENDBRANCH  48  67
BRANCH  60  73
ATOM     73  C   UNL     1      11.187   6.578  15.740  1.00  0.00    -0.014 A 
ATOM     74  C   UNL     1      10.622   7.588  16.534  1.00  0.00     0.009 A 
ATOM     75  C   UNL     1      12.540   6.250  15.932  1.00  0.00     0.009 A 
ATOM     76  C   UNL     1      11.404   8.281  17.464  1.00  0.00     0.001 A 
ATOM     77  C   UNL     1      13.311   6.919  16.885  1.00  0.00     0.001 A 
ATOM     78  C   UNL     1      12.745   7.943  17.641  1.00  0.00     0.000 A 
ENDBRANCH  60  73
ENDBRANCH  34  35
ENDBRANCH  27  29
ENDBRANCH  26  27
ENDBRANCH  25  26
ENDBRANCH   1  25
TORSDOF 16
