REMARK SMILES CCNC(=O)c1cccc(-c2ccc(Cl)c(C(=O)OCCOCCOC(=O)c3ccc(-c4c5nc(c(-c6ccccc6)c6ccc([nH]6)c(-c6ccccc6)c6nc(c(-c7ccccc7)c7ccc4[nH]7)C=C6)C=C5)cc3)c2)c1
REMARK SMILES IDX 21 1 20 2 19 3 17 4 18 5 16 6 11 7 12 8 76 9 13 10 14 11
REMARK SMILES IDX 15 12 10 13 6 14 7 15 77 16 8 17 9 18 4 19 3 20 5 22 2 23
REMARK SMILES IDX 1 24 22 25 23 26 24 27 25 28 26 29 27 30 28 31 29 32 75 33
REMARK SMILES IDX 30 34 74 35 31 36 32 37 33 38 68 39 34 40 73 41 67 42 69 43
REMARK SMILES IDX 35 44 72 45 66 46 65 47 36 49 58 50 43 51 57 52 44 53 47 54
REMARK SMILES IDX 56 55 70 56 45 57 46 58 55 60 71 61 48 62 37 63 38 64 42 65
REMARK SMILES IDX 39 66 41 67 40 68 59 69 60 70 64 71 61 72 63 73 62 74 49 75
REMARK SMILES IDX 50 76 54 77 51 78 53 79 52 80
REMARK H PARENT 3 21 69 48 47 59
REMARK Flexibility Score: inf
ROOT
ATOM      1  C   UNL     1      -3.897   8.250  -4.689  1.00  0.00     0.202 C 
ENDROOT
BRANCH   1   2
ATOM      2  C   UNL     1      -2.858   7.869  -3.632  1.00  0.00     0.261 C 
BRANCH   2   3
ATOM      3  O   UNL     1      -3.088   6.525  -3.181  1.00  0.00    -0.460 OA
BRANCH   3   4
ATOM      4  C   UNL     1      -3.218   6.374  -1.840  1.00  0.00     0.339 C 
ATOM      5  O   UNL     1      -2.916   7.182  -0.981  1.00  0.00    -0.246 OA
BRANCH   4   6
ATOM      6  C   UNL     1      -3.874   5.074  -1.578  1.00  0.00     0.079 A 
ATOM      7  C   UNL     1      -3.964   2.658  -1.998  1.00  0.00    -0.017 A 
ATOM      8  C   UNL     1      -5.023   2.582  -1.077  1.00  0.00     0.010 A 
ATOM      9  C   UNL     1      -3.408   3.926  -2.244  1.00  0.00     0.026 A 
ATOM     10  C   UNL     1      -5.517   3.725  -0.440  1.00  0.00     0.022 A 
ATOM     11  C   UNL     1      -4.947   4.973  -0.689  1.00  0.00     0.055 A 
ATOM     12  Cl  UNL     1      -5.674   6.338   0.077  1.00  0.00    -0.083 Cl
BRANCH   7  13
ATOM     13  C   UNL     1      -3.415   1.440  -2.629  1.00  0.00    -0.018 A 
ATOM     14  C   UNL     1      -1.480   0.090  -3.268  1.00  0.00     0.040 A 
ATOM     15  C   UNL     1      -2.317  -0.946  -3.684  1.00  0.00     0.014 A 
ATOM     16  C   UNL     1      -2.028   1.286  -2.792  1.00  0.00     0.022 A 
ATOM     17  C   UNL     1      -3.697  -0.801  -3.572  1.00  0.00     0.001 A 
ATOM     18  C   UNL     1      -4.238   0.376  -3.041  1.00  0.00     0.009 A 
BRANCH  14  19
ATOM     19  C   UNL     1      -0.015  -0.082  -3.384  1.00  0.00     0.251 C 
ATOM     20  N   UNL     1       0.819   0.293  -2.360  1.00  0.00    -0.352 N 
ATOM     21  H   UNL     1       1.778   0.278  -2.581  1.00  0.00     0.163 HD
ATOM     22  O   UNL     1       0.455  -0.570  -4.408  1.00  0.00    -0.269 OA
BRANCH  20  23
ATOM     23  C   UNL     1       0.512   0.709  -1.000  1.00  0.00     0.112 C 
ATOM     24  C   UNL     1       1.168  -0.208   0.014  1.00  0.00     0.027 C 
ENDBRANCH  20  23
ENDBRANCH  14  19
ENDBRANCH   7  13
ENDBRANCH   4   6
ENDBRANCH   3   4
ENDBRANCH   2   3
ENDBRANCH   1   2
BRANCH   1  25
ATOM     25  O   UNL     1      -5.256   8.285  -4.252  1.00  0.00    -0.374 OA
BRANCH  25  26
ATOM     26  C   UNL     1      -5.930   7.037  -4.087  1.00  0.00     0.202 C 
BRANCH  26  27
ATOM     27  C   UNL     1      -6.436   6.353  -5.363  1.00  0.00     0.261 C 
BRANCH  27  28
ATOM     28  O   UNL     1      -5.369   5.975  -6.250  1.00  0.00    -0.460 OA
BRANCH  28  29
ATOM     29  C   UNL     1      -5.287   6.717  -7.382  1.00  0.00     0.338 C 
ATOM     30  O   UNL     1      -6.044   7.600  -7.747  1.00  0.00    -0.246 OA
BRANCH  29  31
ATOM     31  C   UNL     1      -4.021   6.428  -8.081  1.00  0.00     0.060 A 
ATOM     32  C   UNL     1      -3.186   7.511  -8.380  1.00  0.00     0.016 A 
ATOM     33  C   UNL     1      -3.695   5.139  -8.505  1.00  0.00     0.016 A 
ATOM     34  C   UNL     1      -2.038   7.316  -9.145  1.00  0.00     0.010 A 
ATOM     35  C   UNL     1      -2.547   4.947  -9.281  1.00  0.00     0.010 A 
ATOM     36  C   UNL     1      -1.732   6.039  -9.632  1.00  0.00    -0.014 A 
BRANCH  36  37
ATOM     37  C   UNL     1      -0.634   5.870 -10.613  1.00  0.00     0.031 A 
ATOM     38  C   UNL     1      -0.969   5.750 -12.075  1.00  0.00     0.074 A 
ATOM     39  C   UNL     1       0.649   5.845 -10.211  1.00  0.00     0.049 A 
ATOM     40  N   UNL     1      -0.171   5.562 -13.095  1.00  0.00    -0.248 NA
ATOM     41  C   UNL     1      -2.393   5.856 -12.433  1.00  0.00     0.031 C 
ATOM     42  C   UNL     1       1.106   5.995  -8.831  1.00  0.00     0.029 A 
ATOM     43  N   UNL     1       1.803   5.677 -10.934  1.00  0.00    -0.354 N 
ATOM     44  C   UNL     1      -0.995   5.518 -14.213  1.00  0.00     0.074 A 
ATOM     45  C   UNL     1      -2.355   5.671 -13.744  1.00  0.00     0.031 C 
ATOM     46  C   UNL     1       2.447   5.905  -8.805  1.00  0.00     0.029 A 
ATOM     47  C   UNL     1       2.937   5.656 -10.159  1.00  0.00     0.049 A 
ATOM     48  H   UNL     1       1.817   5.581 -11.913  1.00  0.00     0.167 HD
ATOM     49  C   UNL     1      -0.650   5.367 -15.514  1.00  0.00     0.031 A 
ATOM     50  C   UNL     1       4.221   5.436 -10.501  1.00  0.00     0.031 A 
ATOM     51  C   UNL     1       0.701   5.200 -15.980  1.00  0.00     0.049 A 
ATOM     52  C   UNL     1       4.570   5.188 -11.944  1.00  0.00     0.074 A 
ATOM     53  C   UNL     1       1.153   5.057 -17.281  1.00  0.00     0.029 A 
ATOM     54  N   UNL     1       1.817   5.143 -15.160  1.00  0.00    -0.354 N 
ATOM     55  N   UNL     1       3.786   5.177 -12.996  1.00  0.00    -0.248 NA
ATOM     56  C   UNL     1       5.985   4.927 -12.247  1.00  0.00     0.031 C 
ATOM     57  C   UNL     1       2.537   4.856 -17.242  1.00  0.00     0.029 A 
ATOM     58  C   UNL     1       2.953   4.936 -15.923  1.00  0.00     0.049 A 
ATOM     59  H   UNL     1       1.803   5.235 -14.180  1.00  0.00     0.167 HD
ATOM     60  C   UNL     1       4.615   4.937 -14.085  1.00  0.00     0.074 A 
ATOM     61  C   UNL     1       5.963   4.824 -13.569  1.00  0.00     0.031 C 
ATOM     62  C   UNL     1       4.289   4.824 -15.396  1.00  0.00     0.031 A 
BRANCH  49  63
ATOM     63  C   UNL     1      -1.761   5.339 -16.526  1.00  0.00    -0.014 A 
ATOM     64  C   UNL     1      -2.481   6.499 -16.854  1.00  0.00     0.009 A 
ATOM     65  C   UNL     1      -2.071   4.139 -17.184  1.00  0.00     0.009 A 
ATOM     66  C   UNL     1      -3.510   6.449 -17.797  1.00  0.00     0.001 A 
ATOM     67  C   UNL     1      -3.081   4.098 -18.147  1.00  0.00     0.001 A 
ATOM     68  C   UNL     1      -3.805   5.250 -18.446  1.00  0.00     0.000 A 
ENDBRANCH  49  63
BRANCH  50  69
ATOM     69  C   UNL     1       5.277   5.418  -9.456  1.00  0.00    -0.014 A 
ATOM     70  C   UNL     1       6.243   6.434  -9.396  1.00  0.00     0.009 A 
ATOM     71  C   UNL     1       5.334   4.371  -8.522  1.00  0.00     0.009 A 
ATOM     72  C   UNL     1       7.259   6.387  -8.438  1.00  0.00     0.001 A 
ATOM     73  C   UNL     1       6.333   4.343  -7.548  1.00  0.00     0.001 A 
ATOM     74  C   UNL     1       7.301   5.345  -7.512  1.00  0.00     0.000 A 
ENDBRANCH  50  69
BRANCH  62  75
ATOM     75  C   UNL     1       5.412   4.603 -16.370  1.00  0.00    -0.014 A 
ATOM     76  C   UNL     1       6.080   3.372 -16.449  1.00  0.00     0.009 A 
ATOM     77  C   UNL     1       5.776   5.632 -17.254  1.00  0.00     0.009 A 
ATOM     78  C   UNL     1       7.112   3.187 -17.372  1.00  0.00     0.001 A 
ATOM     79  C   UNL     1       6.788   5.434 -18.195  1.00  0.00     0.001 A 
ATOM     80  C   UNL     1       7.461   4.215 -18.247  1.00  0.00     0.000 A 
ENDBRANCH  62  75
ENDBRANCH  36  37
ENDBRANCH  29  31
ENDBRANCH  28  29
ENDBRANCH  27  28
ENDBRANCH  26  27
ENDBRANCH  25  26
ENDBRANCH   1  25
TORSDOF 17
