REMARK SMILES Cc1nc2nc(CNC(=O)OC(C)(C)C)nn2c(C)c1CCC(=O)OCCOCCOC(=O)c1ccc(-c2c3nc(c(-c4ccccc4)c4ccc([nH]4)c(-c4ccccc4)c4nc(c(-c5ccccc5)c5ccc2[nH]5)C=C4)C=C3)cc1
REMARK SMILES IDX 26 1 25 2 23 3 24 4 22 5 21 6 20 7 1 8 2 9 3 10 4 11 18 12
REMARK SMILES IDX 5 13 17 14 19 15 6 16 16 17 7 18 8 19 9 20 10 22 11 23 12 24
REMARK SMILES IDX 13 25 14 26 15 27 27 28 28 29 29 30 30 31 31 32 32 33 33 34
REMARK SMILES IDX 34 35 35 36 81 37 36 38 80 39 37 40 38 41 39 42 74 43 40 44
REMARK SMILES IDX 79 45 73 46 75 47 41 48 78 49 72 50 71 51 42 53 64 54 49 55
REMARK SMILES IDX 63 56 50 57 53 58 62 59 76 60 51 61 52 62 61 64 77 65 54 66
REMARK SMILES IDX 43 67 44 68 48 69 45 70 47 71 46 72 65 73 66 74 70 75 67 76
REMARK SMILES IDX 69 77 68 78 55 79 56 80 60 81 57 82 59 83 58 84
REMARK H PARENT 8 21 75 52 53 63
REMARK Flexibility Score: inf
ROOT
ATOM      1  C   UNL     1       3.192  -5.702   3.444  1.00  0.00     0.261 C 
ENDROOT
BRANCH   1   2
ATOM      2  O   UNL     1       3.083  -4.425   2.752  1.00  0.00    -0.463 OA
BRANCH   2   3
ATOM      3  C   UNL     1       3.514  -4.295   1.476  1.00  0.00     0.306 C 
ATOM      4  O   UNL     1       4.040  -5.192   0.832  1.00  0.00    -0.252 OA
BRANCH   3   5
ATOM      5  C   UNL     1       3.300  -2.883   0.926  1.00  0.00     0.127 C 
BRANCH   5   6
ATOM      6  C   UNL     1       1.856  -2.396   0.646  1.00  0.00     0.051 C 
BRANCH   6   7
ATOM      7  C   UNL     1       1.161  -1.627   1.760  1.00  0.00    -0.005 A 
ATOM      8  C   UNL     1       1.060   0.591   0.390  1.00  0.00     0.067 C 
ATOM      9  C   UNL     1       0.794  -0.141   1.688  1.00  0.00     0.046 A 
ATOM     10  N   UNL     1       0.191   0.548   2.625  1.00  0.00    -0.216 NA
ATOM     11  C   UNL     1      -0.155  -0.115   3.768  1.00  0.00     0.252 A 
ATOM     12  C   UNL     1       0.676  -2.207   2.872  1.00  0.00     0.048 A 
ATOM     13  N   UNL     1      -0.853   0.254   4.831  1.00  0.00    -0.192 NA
ATOM     14  N   UNL     1       0.121  -1.461   3.888  1.00  0.00    -0.201 N 
ATOM     15  C   UNL     1       0.589  -3.651   3.149  1.00  0.00     0.067 C 
ATOM     16  C   UNL     1      -0.916  -0.894   5.590  1.00  0.00     0.172 A 
ATOM     17  N   UNL     1      -0.270  -1.931   5.080  1.00  0.00    -0.148 NA
BRANCH  16  18
ATOM     18  C   UNL     1      -1.632  -1.074   6.873  1.00  0.00     0.199 C 
BRANCH  18  19
ATOM     19  N   UNL     1      -0.723  -0.853   7.973  1.00  0.00    -0.314 N 
ATOM     20  C   UNL     1      -1.133  -0.452   9.201  1.00  0.00     0.408 C 
ATOM     21  H   UNL     1       0.239  -0.999   7.824  1.00  0.00     0.167 HD
ATOM     22  O   UNL     1      -0.350  -0.166  10.091  1.00  0.00    -0.225 OA
BRANCH  20  23
ATOM     23  O   UNL     1      -2.480  -0.385   9.257  1.00  0.00    -0.444 OA
BRANCH  23  24
ATOM     24  C   UNL     1      -3.158   0.337  10.304  1.00  0.00     0.106 C 
ATOM     25  C   UNL     1      -2.901  -0.276  11.681  1.00  0.00     0.056 C 
ATOM     26  C   UNL     1      -2.772   1.817  10.234  1.00  0.00     0.056 C 
ATOM     27  C   UNL     1      -4.646   0.189   9.955  1.00  0.00     0.056 C 
ENDBRANCH  23  24
ENDBRANCH  20  23
ENDBRANCH  18  19
ENDBRANCH  16  18
ENDBRANCH   6   7
ENDBRANCH   5   6
ENDBRANCH   3   5
ENDBRANCH   2   3
ENDBRANCH   1   2
BRANCH   1  28
ATOM     28  C   UNL     1       1.917  -6.582   3.427  1.00  0.00     0.202 C 
BRANCH  28  29
ATOM     29  O   UNL     1       1.802  -7.441   2.294  1.00  0.00    -0.374 OA
BRANCH  29  30
ATOM     30  C   UNL     1       1.323  -6.854   1.090  1.00  0.00     0.202 C 
BRANCH  30  31
ATOM     31  C   UNL     1      -0.180  -6.991   0.879  1.00  0.00     0.261 C 
BRANCH  31  32
ATOM     32  O   UNL     1      -0.897  -5.990   1.604  1.00  0.00    -0.460 OA
BRANCH  32  33
ATOM     33  C   UNL     1      -1.568  -6.383   2.715  1.00  0.00     0.338 C 
ATOM     34  O   UNL     1      -1.475  -7.433   3.299  1.00  0.00    -0.246 OA
BRANCH  33  35
ATOM     35  C   UNL     1      -2.532  -5.306   3.048  1.00  0.00     0.060 A 
ATOM     36  C   UNL     1      -3.385  -5.487   4.141  1.00  0.00     0.016 A 
ATOM     37  C   UNL     1      -2.647  -4.171   2.221  1.00  0.00     0.016 A 
ATOM     38  C   UNL     1      -4.450  -4.617   4.306  1.00  0.00     0.010 A 
ATOM     39  C   UNL     1      -3.678  -3.285   2.409  1.00  0.00     0.010 A 
ATOM     40  C   UNL     1      -4.621  -3.578   3.386  1.00  0.00    -0.014 A 
BRANCH  40  41
ATOM     41  C   UNL     1      -5.875  -2.860   3.352  1.00  0.00     0.031 A 
ATOM     42  C   UNL     1      -6.043  -1.779   4.344  1.00  0.00     0.074 A 
ATOM     43  C   UNL     1      -6.760  -3.095   2.364  1.00  0.00     0.049 A 
ATOM     44  N   UNL     1      -6.894  -1.738   5.313  1.00  0.00    -0.248 NA
ATOM     45  C   UNL     1      -5.103  -0.651   4.315  1.00  0.00     0.031 C 
ATOM     46  C   UNL     1      -6.583  -3.909   1.154  1.00  0.00     0.029 A 
ATOM     47  N   UNL     1      -7.986  -2.544   2.183  1.00  0.00    -0.354 N 
ATOM     48  C   UNL     1      -6.713  -0.506   5.933  1.00  0.00     0.074 A 
ATOM     49  C   UNL     1      -5.511   0.058   5.369  1.00  0.00     0.031 C 
ATOM     50  C   UNL     1      -7.561  -3.608   0.269  1.00  0.00     0.029 A 
ATOM     51  C   UNL     1      -8.502  -2.703   0.906  1.00  0.00     0.049 A 
ATOM     52  H   UNL     1      -8.469  -2.071   2.898  1.00  0.00     0.167 HD
ATOM     53  C   UNL     1      -7.678   0.046   6.718  1.00  0.00     0.031 A 
ATOM     54  C   UNL     1      -9.593  -2.078   0.401  1.00  0.00     0.031 A 
ATOM     55  C   UNL     1      -8.695  -0.909   7.069  1.00  0.00     0.049 A 
ATOM     56  C   UNL     1     -10.400  -1.599   1.550  1.00  0.00     0.074 A 
ATOM     57  C   UNL     1      -8.705  -2.096   7.775  1.00  0.00     0.029 A 
ATOM     58  N   UNL     1      -9.859  -0.896   6.335  1.00  0.00    -0.354 N 
ATOM     59  N   UNL     1     -11.007  -2.402   2.377  1.00  0.00    -0.248 NA
ATOM     60  C   UNL     1     -10.139  -0.261   2.062  1.00  0.00     0.031 C 
ATOM     61  C   UNL     1      -9.607  -2.937   7.061  1.00  0.00     0.029 A 
ATOM     62  C   UNL     1     -10.143  -2.197   6.005  1.00  0.00     0.049 A 
ATOM     63  H   UNL     1     -10.388  -0.103   6.092  1.00  0.00     0.167 HD
ATOM     64  C   UNL     1     -10.814  -1.836   3.631  1.00  0.00     0.074 A 
ATOM     65  C   UNL     1     -10.363  -0.471   3.364  1.00  0.00     0.031 C 
ATOM     66  C   UNL     1     -10.753  -2.607   4.757  1.00  0.00     0.031 A 
BRANCH  53  67
ATOM     67  C   UNL     1      -7.890   1.526   6.880  1.00  0.00    -0.014 A 
ATOM     68  C   UNL     1      -8.854   1.977   7.799  1.00  0.00     0.009 A 
ATOM     69  C   UNL     1      -7.372   2.480   5.984  1.00  0.00     0.009 A 
ATOM     70  C   UNL     1      -9.317   3.298   7.779  1.00  0.00     0.001 A 
ATOM     71  C   UNL     1      -7.802   3.809   5.988  1.00  0.00     0.001 A 
ATOM     72  C   UNL     1      -8.794   4.212   6.870  1.00  0.00     0.000 A 
ENDBRANCH  53  67
BRANCH  54  73
ATOM     73  C   UNL     1      -9.818  -1.628  -0.989  1.00  0.00    -0.014 A 
ATOM     74  C   UNL     1     -11.103  -1.308  -1.451  1.00  0.00     0.009 A 
ATOM     75  C   UNL     1      -8.724  -1.268  -1.799  1.00  0.00     0.009 A 
ATOM     76  C   UNL     1     -11.282  -0.628  -2.664  1.00  0.00     0.001 A 
ATOM     77  C   UNL     1      -8.902  -0.591  -3.010  1.00  0.00     0.001 A 
ATOM     78  C   UNL     1     -10.182  -0.259  -3.436  1.00  0.00     0.000 A 
ENDBRANCH  54  73
BRANCH  66  79
ATOM     79  C   UNL     1     -11.073  -4.080   4.630  1.00  0.00    -0.014 A 
ATOM     80  C   UNL     1     -10.314  -4.955   3.831  1.00  0.00     0.009 A 
ATOM     81  C   UNL     1     -12.035  -4.633   5.488  1.00  0.00     0.009 A 
ATOM     82  C   UNL     1     -10.524  -6.338   3.878  1.00  0.00     0.001 A 
ATOM     83  C   UNL     1     -12.230  -6.016   5.550  1.00  0.00     0.001 A 
ATOM     84  C   UNL     1     -11.476  -6.867   4.745  1.00  0.00     0.000 A 
ENDBRANCH  66  79
ENDBRANCH  40  41
ENDBRANCH  33  35
ENDBRANCH  32  33
ENDBRANCH  31  32
ENDBRANCH  30  31
ENDBRANCH  29  30
ENDBRANCH  28  29
ENDBRANCH   1  28
TORSDOF 20
