REMARK SMILES C[C@H](NC(=O)c1ccc(C(C)(C)C)cc1)C(=O)N[C@@H](C(=O)OCCOCCOC(=O)c1ccc(-c2c3nc(c(-c4ccccc4)c4ccc([nH]4)c(-c4ccccc4)c4nc(c(-c5ccccc5)c5ccc2[nH]5)C=C4)C=C3)cc1)[C@H](C)O
REMARK SMILES IDX 23 1 22 2 20 3 21 4 19 5 18 6 16 7 17 8 2 10 1 11 3 12 4 13
REMARK SMILES IDX 5 15 6 16 7 17 15 18 8 19 14 20 9 21 10 22 11 23 12 24 13 25
REMARK SMILES IDX 79 26 80 27 81 28 24 30 25 31 26 32 27 33 28 34 29 35 30 36
REMARK SMILES IDX 31 37 32 38 78 39 33 40 77 41 34 42 35 43 36 44 71 45 37 46
REMARK SMILES IDX 76 47 70 48 72 49 38 50 75 51 69 52 68 53 39 55 61 56 46 57
REMARK SMILES IDX 60 58 47 59 50 60 59 61 73 62 48 63 49 64 58 66 74 67 51 68
REMARK SMILES IDX 40 69 41 70 45 71 42 72 44 73 43 74 62 75 63 76 67 77 64 78
REMARK SMILES IDX 66 79 65 80 52 81 53 82 57 83 54 84 56 85 55 86
REMARK H PARENT 18 9 3 14 81 29 72 54 50 65
REMARK Flexibility Score: inf
ROOT
ATOM      1  C   UNL     1       2.312  -3.505  -2.840  1.00  0.00     0.261 C 
ENDROOT
BRANCH   1   2
ATOM      2  O   UNL     1       0.883  -3.427  -2.719  1.00  0.00    -0.462 OA
BRANCH   2   3
ATOM      3  C   UNL     1       0.417  -3.679  -1.466  1.00  0.00     0.331 C 
ATOM      4  O   UNL     1       1.139  -3.890  -0.495  1.00  0.00    -0.250 OA
BRANCH   3   5
ATOM      5  C   UNL     1      -1.111  -3.619  -1.346  1.00  0.00     0.221 C 
BRANCH   5   6
ATOM      6  N   UNL     1      -1.796  -3.255  -2.577  1.00  0.00    -0.339 N 
ATOM      7  C   UNL     1      -2.356  -4.053  -3.522  1.00  0.00     0.243 C 
ATOM      8  O   UNL     1      -2.862  -3.474  -4.490  1.00  0.00    -0.273 OA
ATOM      9  H   UNL     1      -1.863  -2.289  -2.751  1.00  0.00     0.164 HD
BRANCH   7  10
ATOM     10  C   UNL     1      -2.533  -5.587  -3.357  1.00  0.00     0.168 C 
ATOM     11  C   UNL     1      -3.773  -5.884  -2.533  1.00  0.00     0.041 C 
BRANCH  10  12
ATOM     12  N   UNL     1      -1.330  -6.426  -3.144  1.00  0.00    -0.341 N 
ATOM     13  C   UNL     1      -0.611  -7.036  -2.147  1.00  0.00     0.251 C 
ATOM     14  H   UNL     1      -0.902  -6.608  -4.011  1.00  0.00     0.164 HD
ATOM     15  O   UNL     1       0.452  -7.570  -2.467  1.00  0.00    -0.269 OA
BRANCH  13  16
ATOM     16  C   UNL     1      -0.964  -6.995  -0.712  1.00  0.00     0.039 A 
ATOM     17  C   UNL     1       0.019  -6.569   0.186  1.00  0.00     0.014 A 
ATOM     18  C   UNL     1      -2.225  -7.290  -0.222  1.00  0.00     0.014 A 
ATOM     19  C   UNL     1      -0.320  -6.226   1.501  1.00  0.00     0.005 A 
ATOM     20  C   UNL     1      -2.565  -6.946   1.096  1.00  0.00     0.005 A 
ATOM     21  C   UNL     1      -1.637  -6.354   1.973  1.00  0.00    -0.043 A 
BRANCH  21  22
ATOM     22  C   UNL     1      -2.034  -5.834   3.372  1.00  0.00    -0.013 C 
ATOM     23  C   UNL     1      -1.018  -6.284   4.444  1.00  0.00     0.016 C 
ATOM     24  C   UNL     1      -2.074  -4.292   3.381  1.00  0.00     0.016 C 
ATOM     25  C   UNL     1      -3.431  -6.312   3.820  1.00  0.00     0.016 C 
ENDBRANCH  21  22
ENDBRANCH  13  16
ENDBRANCH  10  12
ENDBRANCH   7  10
ENDBRANCH   5   6
BRANCH   5  26
ATOM     26  C   UNL     1      -1.581  -2.819  -0.099  1.00  0.00     0.145 C 
ATOM     27  C   UNL     1      -1.719  -1.311  -0.227  1.00  0.00     0.041 C 
BRANCH  26  28
ATOM     28  O   UNL     1      -0.785  -3.036   1.065  1.00  0.00    -0.391 OA
ATOM     29  H   UNL     1       0.092  -2.643   0.934  1.00  0.00     0.211 HD
ENDBRANCH  26  28
ENDBRANCH   5  26
ENDBRANCH   3   5
ENDBRANCH   2   3
ENDBRANCH   1   2
BRANCH   1  30
ATOM     30  C   UNL     1       3.008  -2.141  -2.925  1.00  0.00     0.202 C 
BRANCH  30  31
ATOM     31  O   UNL     1       2.849  -1.185  -1.883  1.00  0.00    -0.374 OA
BRANCH  31  32
ATOM     32  C   UNL     1       1.559  -0.666  -1.594  1.00  0.00     0.202 C 
BRANCH  32  33
ATOM     33  C   UNL     1       0.811   0.177  -2.635  1.00  0.00     0.261 C 
BRANCH  33  34
ATOM     34  O   UNL     1       0.771  -0.417  -3.938  1.00  0.00    -0.460 OA
BRANCH  34  35
ATOM     35  C   UNL     1       1.527   0.245  -4.848  1.00  0.00     0.338 C 
ATOM     36  O   UNL     1       2.132   1.292  -4.689  1.00  0.00    -0.246 OA
BRANCH  35  37
ATOM     37  C   UNL     1       1.699  -0.569  -6.059  1.00  0.00     0.060 A 
ATOM     38  C   UNL     1       3.017  -0.856  -6.440  1.00  0.00     0.016 A 
ATOM     39  C   UNL     1       0.620  -0.931  -6.866  1.00  0.00     0.016 A 
ATOM     40  C   UNL     1       3.268  -1.440  -7.672  1.00  0.00     0.010 A 
ATOM     41  C   UNL     1       0.876  -1.502  -8.116  1.00  0.00     0.010 A 
ATOM     42  C   UNL     1       2.202  -1.703  -8.539  1.00  0.00    -0.014 A 
BRANCH  42  43
ATOM     43  C   UNL     1       2.516  -1.962  -9.960  1.00  0.00     0.031 A 
ATOM     44  C   UNL     1       2.512  -0.799 -10.914  1.00  0.00     0.074 A 
ATOM     45  C   UNL     1       2.892  -3.185 -10.369  1.00  0.00     0.049 A 
ATOM     46  N   UNL     1       2.815  -0.768 -12.186  1.00  0.00    -0.248 NA
ATOM     47  C   UNL     1       2.124   0.508 -10.355  1.00  0.00     0.031 C 
ATOM     48  C   UNL     1       2.992  -4.368  -9.516  1.00  0.00     0.029 A 
ATOM     49  N   UNL     1       3.276  -3.624 -11.608  1.00  0.00    -0.354 N 
ATOM     50  C   UNL     1       2.652   0.556 -12.577  1.00  0.00     0.074 A 
ATOM     51  C   UNL     1       2.196   1.292 -11.420  1.00  0.00     0.031 C 
ATOM     52  C   UNL     1       3.414  -5.404 -10.262  1.00  0.00     0.029 A 
ATOM     53  C   UNL     1       3.589  -4.959 -11.642  1.00  0.00     0.049 A 
ATOM     54  H   UNL     1       3.322  -3.038 -12.398  1.00  0.00     0.167 HD
ATOM     55  C   UNL     1       2.870   1.111 -13.792  1.00  0.00     0.031 A 
ATOM     56  C   UNL     1       3.966  -5.732 -12.678  1.00  0.00     0.031 A 
ATOM     57  C   UNL     1       3.309   0.372 -14.945  1.00  0.00     0.049 A 
ATOM     58  C   UNL     1       4.129  -5.106 -14.036  1.00  0.00     0.074 A 
ATOM     59  C   UNL     1       3.556   0.835 -16.225  1.00  0.00     0.029 A 
ATOM     60  N   UNL     1       3.560  -0.991 -14.953  1.00  0.00    -0.354 N 
ATOM     61  N   UNL     1       3.983  -3.852 -14.393  1.00  0.00    -0.248 NA
ATOM     62  C   UNL     1       4.519  -6.003 -15.133  1.00  0.00     0.031 C 
ATOM     63  C   UNL     1       3.910  -0.260 -17.021  1.00  0.00     0.029 A 
ATOM     64  C   UNL     1       3.937  -1.393 -16.222  1.00  0.00     0.049 A 
ATOM     65  H   UNL     1       3.482  -1.585 -14.171  1.00  0.00     0.167 HD
ATOM     66  C   UNL     1       4.289  -3.804 -15.747  1.00  0.00     0.074 A 
ATOM     67  C   UNL     1       4.644  -5.153 -16.142  1.00  0.00     0.031 C 
ATOM     68  C   UNL     1       4.280  -2.742 -16.590  1.00  0.00     0.031 A 
BRANCH  55  69
ATOM     69  C   UNL     1       2.595   2.581 -13.936  1.00  0.00    -0.014 A 
ATOM     70  C   UNL     1       3.439   3.543 -13.359  1.00  0.00     0.009 A 
ATOM     71  C   UNL     1       1.477   3.009 -14.669  1.00  0.00     0.009 A 
ATOM     72  C   UNL     1       3.150   4.904 -13.485  1.00  0.00     0.001 A 
ATOM     73  C   UNL     1       1.205   4.371 -14.815  1.00  0.00     0.001 A 
ATOM     74  C   UNL     1       2.036   5.316 -14.216  1.00  0.00     0.000 A 
ENDBRANCH  55  69
BRANCH  56  75
ATOM     75  C   UNL     1       4.202  -7.184 -12.475  1.00  0.00    -0.014 A 
ATOM     76  C   UNL     1       5.494  -7.722 -12.558  1.00  0.00     0.009 A 
ATOM     77  C   UNL     1       3.124  -8.044 -12.208  1.00  0.00     0.009 A 
ATOM     78  C   UNL     1       5.700  -9.095 -12.402  1.00  0.00     0.001 A 
ATOM     79  C   UNL     1       3.336  -9.412 -12.026  1.00  0.00     0.001 A 
ATOM     80  C   UNL     1       4.622  -9.938 -12.133  1.00  0.00     0.000 A 
ENDBRANCH  56  75
BRANCH  68  81
ATOM     81  C   UNL     1       4.696  -2.996 -18.011  1.00  0.00    -0.014 A 
ATOM     82  C   UNL     1       3.862  -3.689 -18.902  1.00  0.00     0.009 A 
ATOM     83  C   UNL     1       5.927  -2.505 -18.471  1.00  0.00     0.009 A 
ATOM     84  C   UNL     1       4.272  -3.919 -20.216  1.00  0.00     0.001 A 
ATOM     85  C   UNL     1       6.321  -2.711 -19.794  1.00  0.00     0.001 A 
ATOM     86  C   UNL     1       5.498  -3.426 -20.662  1.00  0.00     0.000 A 
ENDBRANCH  68  81
ENDBRANCH  42  43
ENDBRANCH  35  37
ENDBRANCH  34  35
ENDBRANCH  33  34
ENDBRANCH  32  33
ENDBRANCH  31  32
ENDBRANCH  30  31
ENDBRANCH   1  30
TORSDOF 21
