REMARK SMILES COC(=O)c1ccc(Cl)c(-c2ccc(C(=O)OCCOCCOC(=O)c3ccc(-c4c5nc(c(-c6ccccc6)c6ccc([nH]6)c(-c6ccccc6)c6nc(c(-c7ccccc7)c7ccc4[nH]7)C=C6)C=C5)cc3)c(F)c2)c1
REMARK SMILES IDX 19 1 18 2 17 3 15 4 16 5 14 6 11 7 12 8 76 9 13 10 74 11
REMARK SMILES IDX 75 12 10 13 5 14 6 15 77 16 7 17 8 18 9 19 3 20 4 21 2 22
REMARK SMILES IDX 1 23 20 24 21 25 22 26 23 27 24 28 25 29 26 30 27 31 73 32
REMARK SMILES IDX 28 33 72 34 29 35 30 36 31 37 66 38 32 39 71 40 65 41 67 42
REMARK SMILES IDX 33 43 70 44 64 45 63 46 34 48 56 49 41 50 55 51 42 52 45 53
REMARK SMILES IDX 54 54 68 55 43 56 44 57 53 59 69 60 46 61 35 62 36 63 40 64
REMARK SMILES IDX 37 65 39 66 38 67 57 68 58 69 62 70 59 71 61 72 60 73 47 74
REMARK SMILES IDX 48 75 52 76 49 77 51 78 50 79
REMARK H PARENT 67 47 45 58
REMARK Flexibility Score: inf
ROOT
ATOM      1  C   UNL     1       5.693  12.352   4.112  1.00  0.00     0.202 C 
ENDROOT
BRANCH   1   2
ATOM      2  C   UNL     1       6.202  10.946   4.439  1.00  0.00     0.261 C 
BRANCH   2   3
ATOM      3  O   UNL     1       5.447   9.955   3.725  1.00  0.00    -0.460 OA
BRANCH   3   4
ATOM      4  C   UNL     1       4.752   9.094   4.502  1.00  0.00     0.341 C 
ATOM      5  O   UNL     1       4.818   8.988   5.718  1.00  0.00    -0.246 OA
BRANCH   4   6
ATOM      6  C   UNL     1       3.731   8.383   3.714  1.00  0.00     0.095 A 
ATOM      7  C   UNL     1       1.760   6.861   2.403  1.00  0.00    -0.014 A 
ATOM      8  C   UNL     1       1.515   7.406   3.673  1.00  0.00     0.010 A 
ATOM      9  C   UNL     1       2.985   7.149   1.775  1.00  0.00     0.049 A 
ATOM     10  C   UNL     1       2.492   8.158   4.325  1.00  0.00     0.019 A 
ATOM     11  C   UNL     1       3.961   7.904   2.429  1.00  0.00     0.138 A 
ATOM     12  F   UNL     1       5.134   8.099   1.811  1.00  0.00    -0.206 F 
BRANCH   7  13
ATOM     13  C   UNL     1       0.822   5.884   1.827  1.00  0.00     0.001 A 
ATOM     14  C   UNL     1       0.418   3.533   1.255  1.00  0.00     0.060 A 
ATOM     15  C   UNL     1      -0.892   3.840   0.880  1.00  0.00     0.017 A 
ATOM     16  C   UNL     1       1.257   4.548   1.730  1.00  0.00     0.026 A 
ATOM     17  C   UNL     1      -1.345   5.160   0.969  1.00  0.00     0.022 A 
ATOM     18  C   UNL     1      -0.496   6.176   1.433  1.00  0.00     0.048 A 
ATOM     19  Cl  UNL     1      -1.133   7.783   1.489  1.00  0.00    -0.084 Cl
BRANCH  14  20
ATOM     20  C   UNL     1       0.971   2.160   1.193  1.00  0.00     0.337 C 
ATOM     21  O   UNL     1       1.915   1.787   1.873  1.00  0.00    -0.246 OA
BRANCH  20  22
ATOM     22  O   UNL     1       0.336   1.442   0.237  1.00  0.00    -0.465 OA
ATOM     23  C   UNL     1       0.904   0.149   0.021  1.00  0.00     0.282 C 
ENDBRANCH  20  22
ENDBRANCH  14  20
ENDBRANCH   7  13
ENDBRANCH   4   6
ENDBRANCH   3   4
ENDBRANCH   2   3
ENDBRANCH   1   2
BRANCH   1  24
ATOM     24  O   UNL     1       4.351  12.638   4.508  1.00  0.00    -0.374 OA
BRANCH  24  25
ATOM     25  C   UNL     1       3.305  12.162   3.659  1.00  0.00     0.202 C 
BRANCH  25  26
ATOM     26  C   UNL     1       3.030  12.984   2.394  1.00  0.00     0.261 C 
BRANCH  26  27
ATOM     27  O   UNL     1       4.118  12.910   1.454  1.00  0.00    -0.460 OA
BRANCH  27  28
ATOM     28  C   UNL     1       4.825  14.056   1.310  1.00  0.00     0.338 C 
ATOM     29  O   UNL     1       4.589  15.143   1.817  1.00  0.00    -0.246 OA
BRANCH  28  30
ATOM     30  C   UNL     1       6.070  13.789   0.566  1.00  0.00     0.060 A 
ATOM     31  C   UNL     1       7.272  14.222   1.141  1.00  0.00     0.016 A 
ATOM     32  C   UNL     1       6.062  13.195  -0.698  1.00  0.00     0.016 A 
ATOM     33  C   UNL     1       8.467  14.106   0.433  1.00  0.00     0.010 A 
ATOM     34  C   UNL     1       7.261  13.089  -1.411  1.00  0.00     0.010 A 
ATOM     35  C   UNL     1       8.462  13.574  -0.863  1.00  0.00    -0.014 A 
BRANCH  35  36
ATOM     36  C   UNL     1       9.687  13.660  -1.694  1.00  0.00     0.031 A 
ATOM     37  C   UNL     1       9.805  14.768  -2.707  1.00  0.00     0.074 A 
ATOM     38  C   UNL     1      10.698  12.790  -1.526  1.00  0.00     0.049 A 
ATOM     39  N   UNL     1      10.770  15.014  -3.557  1.00  0.00    -0.248 NA
ATOM     40  C   UNL     1       8.690  15.727  -2.764  1.00  0.00     0.031 C 
ATOM     41  C   UNL     1      10.733  11.709  -0.543  1.00  0.00     0.029 A 
ATOM     42  N   UNL     1      11.897  12.684  -2.186  1.00  0.00    -0.354 N 
ATOM     43  C   UNL     1      10.380  16.157  -4.246  1.00  0.00     0.074 A 
ATOM     44  C   UNL     1       9.078  16.534  -3.741  1.00  0.00     0.031 C 
ATOM     45  C   UNL     1      11.896  11.045  -0.666  1.00  0.00     0.029 A 
ATOM     46  C   UNL     1      12.670  11.632  -1.758  1.00  0.00     0.049 A 
ATOM     47  H   UNL     1      12.177  13.303  -2.899  1.00  0.00     0.167 HD
ATOM     48  C   UNL     1      11.051  16.838  -5.205  1.00  0.00     0.031 A 
ATOM     49  C   UNL     1      13.856  11.184  -2.210  1.00  0.00     0.031 A 
ATOM     50  C   UNL     1      12.335  16.455  -5.726  1.00  0.00     0.049 A 
ATOM     51  C   UNL     1      14.529  11.897  -3.354  1.00  0.00     0.074 A 
ATOM     52  C   UNL     1      13.086  17.072  -6.712  1.00  0.00     0.029 A 
ATOM     53  N   UNL     1      13.059  15.352  -5.302  1.00  0.00    -0.354 N 
ATOM     54  N   UNL     1      14.153  12.978  -3.993  1.00  0.00    -0.248 NA
ATOM     55  C   UNL     1      15.797  11.327  -3.834  1.00  0.00     0.031 C 
ATOM     56  C   UNL     1      14.244  16.315  -6.916  1.00  0.00     0.029 A 
ATOM     57  C   UNL     1      14.239  15.260  -6.019  1.00  0.00     0.049 A 
ATOM     58  H   UNL     1      12.776  14.727  -4.596  1.00  0.00     0.167 HD
ATOM     59  C   UNL     1      15.153  13.236  -4.923  1.00  0.00     0.074 A 
ATOM     60  C   UNL     1      16.157  12.207  -4.757  1.00  0.00     0.031 C 
ATOM     61  C   UNL     1      15.234  14.237  -5.834  1.00  0.00     0.031 A 
BRANCH  48  62
ATOM     62  C   UNL     1      10.391  18.064  -5.770  1.00  0.00    -0.014 A 
ATOM     63  C   UNL     1      10.301  19.248  -5.020  1.00  0.00     0.009 A 
ATOM     64  C   UNL     1       9.890  18.049  -7.081  1.00  0.00     0.009 A 
ATOM     65  C   UNL     1       9.699  20.384  -5.564  1.00  0.00     0.001 A 
ATOM     66  C   UNL     1       9.312  19.195  -7.630  1.00  0.00     0.001 A 
ATOM     67  C   UNL     1       9.211  20.359  -6.869  1.00  0.00     0.000 A 
ENDBRANCH  48  62
BRANCH  49  68
ATOM     68  C   UNL     1      14.487   9.980  -1.608  1.00  0.00    -0.014 A 
ATOM     69  C   UNL     1      15.683  10.086  -0.881  1.00  0.00     0.009 A 
ATOM     70  C   UNL     1      13.923   8.709  -1.802  1.00  0.00     0.009 A 
ATOM     71  C   UNL     1      16.319   8.941  -0.394  1.00  0.00     0.001 A 
ATOM     72  C   UNL     1      14.545   7.570  -1.288  1.00  0.00     0.001 A 
ATOM     73  C   UNL     1      15.749   7.686  -0.595  1.00  0.00     0.000 A 
ENDBRANCH  49  68
BRANCH  61  74
ATOM     74  C   UNL     1      16.472  14.297  -6.684  1.00  0.00    -0.014 A 
ATOM     75  C   UNL     1      16.696  13.374  -7.717  1.00  0.00     0.009 A 
ATOM     76  C   UNL     1      17.410  15.319  -6.468  1.00  0.00     0.009 A 
ATOM     77  C   UNL     1      17.853  13.454  -8.495  1.00  0.00     0.001 A 
ATOM     78  C   UNL     1      18.551  15.414  -7.266  1.00  0.00     0.001 A 
ATOM     79  C   UNL     1      18.776  14.476  -8.272  1.00  0.00     0.000 A 
ENDBRANCH  61  74
ENDBRANCH  35  36
ENDBRANCH  28  30
ENDBRANCH  27  28
ENDBRANCH  26  27
ENDBRANCH  25  26
ENDBRANCH  24  25
ENDBRANCH   1  24
TORSDOF 17
