REMARK SMILES O=C(OCCOCCOC(=O)[C@H]1C[C@H](O)CN1C(=O)CS[C@H]1CCS(=O)(=O)C1)c1ccc(-c2c3nc(c(-c4ccccc4)c4ccc([nH]4)c(-c4ccccc4)c4nc(c(-c5ccccc5)c5ccc2[nH]5)C=C4)C=C3)cc1
REMARK SMILES IDX 7 1 6 2 5 3 4 4 3 5 2 6 1 7 29 8 30 9 76 10 31 11 75 12
REMARK SMILES IDX 32 13 33 14 34 15 69 16 35 17 74 18 68 19 70 20 36 21 73 22
REMARK SMILES IDX 67 23 66 24 37 26 59 27 44 28 58 29 45 30 48 31 57 32 71 33
REMARK SMILES IDX 46 34 47 35 56 37 72 38 49 39 38 40 39 41 43 42 40 43 42 44
REMARK SMILES IDX 41 45 60 46 61 47 65 48 62 49 64 50 63 51 50 52 51 53 55 54
REMARK SMILES IDX 52 55 54 56 53 57 8 58 9 59 10 60 11 61 12 62 13 63 17 64
REMARK SMILES IDX 14 65 16 66 18 67 19 68 20 69 21 70 22 71 23 72 28 73 24 74
REMARK SMILES IDX 25 75 26 76 27 77 15 78
REMARK H PARENT 70 25 48 36 15 79
REMARK Flexibility Score: inf
ROOT
ATOM      1  C   UNL     1       8.418  -8.781  -0.452  1.00  0.00     0.202 C 
ENDROOT
BRANCH   1   2
ATOM      2  O   UNL     1       7.578  -8.338   0.614  1.00  0.00    -0.374 OA
BRANCH   2   3
ATOM      3  C   UNL     1       8.160  -8.239   1.917  1.00  0.00     0.202 C 
BRANCH   3   4
ATOM      4  C   UNL     1       8.207  -9.518   2.756  1.00  0.00     0.261 C 
BRANCH   4   5
ATOM      5  O   UNL     1       8.805 -10.587   2.017  1.00  0.00    -0.460 OA
BRANCH   5   6
ATOM      6  C   UNL     1       8.156 -11.454   1.208  1.00  0.00     0.338 C 
ATOM      7  O   UNL     1       8.814 -12.236   0.525  1.00  0.00    -0.246 OA
BRANCH   6   8
ATOM      8  C   UNL     1       6.667 -11.521   1.104  1.00  0.00     0.060 A 
ATOM      9  C   UNL     1       5.796 -10.436   1.245  1.00  0.00     0.016 A 
ATOM     10  C   UNL     1       6.121 -12.758   0.737  1.00  0.00     0.016 A 
ATOM     11  C   UNL     1       4.445 -10.541   1.018  1.00  0.00     0.010 A 
ATOM     12  C   UNL     1       4.752 -12.886   0.511  1.00  0.00     0.010 A 
ATOM     13  C   UNL     1       3.925 -11.767   0.649  1.00  0.00    -0.014 A 
BRANCH  13  14
ATOM     14  C   UNL     1       2.471 -11.853   0.586  1.00  0.00     0.031 A 
ATOM     15  C   UNL     1       1.776 -12.428   1.768  1.00  0.00     0.074 A 
ATOM     16  C   UNL     1       1.827 -11.286  -0.444  1.00  0.00     0.049 A 
ATOM     17  N   UNL     1       0.521 -12.738   1.912  1.00  0.00    -0.248 NA
ATOM     18  C   UNL     1       2.613 -12.684   2.955  1.00  0.00     0.031 C 
ATOM     19  C   UNL     1       2.463 -10.532  -1.530  1.00  0.00     0.029 A 
ATOM     20  N   UNL     1       0.496 -11.245  -0.738  1.00  0.00    -0.354 N 
ATOM     21  C   UNL     1       0.428 -13.286   3.182  1.00  0.00     0.074 A 
ATOM     22  C   UNL     1       1.744 -13.249   3.775  1.00  0.00     0.031 C 
ATOM     23  C   UNL     1       1.515 -10.121  -2.386  1.00  0.00     0.029 A 
ATOM     24  C   UNL     1       0.233 -10.658  -1.949  1.00  0.00     0.049 A 
ATOM     25  H   UNL     1      -0.203 -11.599  -0.142  1.00  0.00     0.167 HD
ATOM     26  C   UNL     1      -0.672 -13.805   3.769  1.00  0.00     0.031 A 
ATOM     27  C   UNL     1      -0.914 -10.638  -2.649  1.00  0.00     0.031 A 
ATOM     28  C   UNL     1      -1.945 -13.835   3.107  1.00  0.00     0.049 A 
ATOM     29  C   UNL     1      -2.101 -11.325  -2.035  1.00  0.00     0.074 A 
ATOM     30  C   UNL     1      -3.137 -14.381   3.537  1.00  0.00     0.029 A 
ATOM     31  N   UNL     1      -2.177 -13.290   1.847  1.00  0.00    -0.354 N 
ATOM     32  N   UNL     1      -2.189 -11.928  -0.870  1.00  0.00    -0.248 NA
ATOM     33  C   UNL     1      -3.336 -11.346  -2.822  1.00  0.00     0.031 C 
ATOM     34  C   UNL     1      -4.072 -14.222   2.508  1.00  0.00     0.029 A 
ATOM     35  C   UNL     1      -3.485 -13.509   1.469  1.00  0.00     0.049 A 
ATOM     36  H   UNL     1      -1.505 -12.816   1.305  1.00  0.00     0.167 HD
ATOM     37  C   UNL     1      -3.494 -12.383  -0.771  1.00  0.00     0.074 A 
ATOM     38  C   UNL     1      -4.162 -11.977  -1.996  1.00  0.00     0.031 C 
ATOM     39  C   UNL     1      -4.093 -13.070   0.234  1.00  0.00     0.031 A 
BRANCH  26  40
ATOM     40  C   UNL     1      -0.472 -14.480   5.095  1.00  0.00    -0.014 A 
ATOM     41  C   UNL     1      -0.120 -13.767   6.253  1.00  0.00     0.009 A 
ATOM     42  C   UNL     1      -0.541 -15.881   5.159  1.00  0.00     0.009 A 
ATOM     43  C   UNL     1       0.221 -14.447   7.425  1.00  0.00     0.001 A 
ATOM     44  C   UNL     1      -0.234 -16.555   6.341  1.00  0.00     0.001 A 
ATOM     45  C   UNL     1       0.165 -15.839   7.468  1.00  0.00     0.000 A 
ENDBRANCH  26  40
BRANCH  27  46
ATOM     46  C   UNL     1      -0.939 -10.040  -4.008  1.00  0.00    -0.014 A 
ATOM     47  C   UNL     1      -1.661  -8.869  -4.273  1.00  0.00     0.009 A 
ATOM     48  C   UNL     1      -0.186 -10.618  -5.047  1.00  0.00     0.009 A 
ATOM     49  C   UNL     1      -1.637  -8.296  -5.549  1.00  0.00     0.001 A 
ATOM     50  C   UNL     1      -0.139 -10.027  -6.312  1.00  0.00     0.001 A 
ATOM     51  C   UNL     1      -0.871  -8.870  -6.564  1.00  0.00     0.000 A 
ENDBRANCH  27  46
BRANCH  39  52
ATOM     52  C   UNL     1      -5.551 -13.376   0.069  1.00  0.00    -0.014 A 
ATOM     53  C   UNL     1      -5.992 -14.386  -0.796  1.00  0.00     0.009 A 
ATOM     54  C   UNL     1      -6.481 -12.707   0.881  1.00  0.00     0.009 A 
ATOM     55  C   UNL     1      -7.347 -14.713  -0.853  1.00  0.00     0.001 A 
ATOM     56  C   UNL     1      -7.828 -13.059   0.845  1.00  0.00     0.001 A 
ATOM     57  C   UNL     1      -8.260 -14.059  -0.025  1.00  0.00     0.000 A 
ENDBRANCH  39  52
ENDBRANCH  13  14
ENDBRANCH   6   8
ENDBRANCH   5   6
ENDBRANCH   4   5
ENDBRANCH   3   4
ENDBRANCH   2   3
ENDBRANCH   1   2
BRANCH   1  58
ATOM     58  C   UNL     1       8.498  -7.683  -1.509  1.00  0.00     0.261 C 
BRANCH  58  59
ATOM     59  O   UNL     1       9.225  -6.597  -0.922  1.00  0.00    -0.462 OA
BRANCH  59  60
ATOM     60  C   UNL     1       8.458  -5.766  -0.161  1.00  0.00     0.329 C 
ATOM     61  O   UNL     1       7.259  -5.567  -0.308  1.00  0.00    -0.250 OA
BRANCH  60  62
ATOM     62  C   UNL     1       9.333  -5.127   0.924  1.00  0.00     0.197 C 
ATOM     63  C   UNL     1      10.314  -4.167   0.291  1.00  0.00     0.070 C 
ATOM     64  N   UNL     1       8.510  -4.266   1.769  1.00  0.00    -0.325 N 
ATOM     65  C   UNL     1       9.428  -2.957  -0.003  1.00  0.00     0.136 C 
ATOM     66  C   UNL     1       8.376  -2.969   1.122  1.00  0.00     0.152 C 
BRANCH  64  67
ATOM     67  C   UNL     1       8.001  -4.699   2.976  1.00  0.00     0.233 C 
ATOM     68  O   UNL     1       8.395  -5.751   3.487  1.00  0.00    -0.274 OA
BRANCH  67  69
ATOM     69  C   UNL     1       6.987  -3.826   3.714  1.00  0.00     0.169 C 
BRANCH  69  70
ATOM     70  S   UNL     1       7.723  -3.116   5.248  1.00  0.00    -0.148 SA
BRANCH  70  71
ATOM     71  C   UNL     1       9.044  -2.152   4.483  1.00  0.00     0.063 C 
ATOM     72  C   UNL     1       8.544  -0.793   3.976  1.00  0.00     0.031 C 
ATOM     73  C   UNL     1      10.259  -1.830   5.335  1.00  0.00     0.151 C 
ATOM     74  C   UNL     1       9.762  -0.108   3.355  1.00  0.00     0.138 C 
ATOM     75  S   UNL     1      11.187  -0.812   4.181  1.00  0.00     0.151 S 
ATOM     76  O   UNL     1      11.842  -1.693   3.225  1.00  0.00    -0.229 OA
ATOM     77  O   UNL     1      11.894   0.220   4.895  1.00  0.00    -0.229 OA
ENDBRANCH  70  71
ENDBRANCH  69  70
ENDBRANCH  67  69
ENDBRANCH  64  67
BRANCH  65  78
ATOM     78  O   UNL     1      10.190  -1.760  -0.008  1.00  0.00    -0.391 OA
ATOM     79  H   UNL     1      10.634  -1.656   0.848  1.00  0.00     0.211 HD
ENDBRANCH  65  78
ENDBRANCH  60  62
ENDBRANCH  59  60
ENDBRANCH  58  59
ENDBRANCH   1  58
TORSDOF 19
