REMARK SMILES [NH3+][C@]1(C(=O)OCCOCCOC(=O)c2ccc(-c3c4nc(c(-c5ccccc5)c5ccc([nH]5)c(-c5ccccc5)c5nc(c(-c6ccccc6)c6ccc3[nH]6)C=C5)C=C4)cc2)CC[N@H+](Cc2ccccc2O)C1
REMARK SMILES IDX 7 1 6 2 5 3 3 4 4 5 2 6 62 7 73 8 63 9 64 10 1 12 65 16
REMARK SMILES IDX 66 17 67 18 71 19 68 20 70 21 69 22 72 23 8 25 9 26 10 27
REMARK SMILES IDX 11 28 12 29 13 30 14 31 15 32 61 33 16 34 60 35 17 36 18 37
REMARK SMILES IDX 19 38 54 39 20 40 59 41 53 42 55 43 21 44 58 45 52 46 51 47
REMARK SMILES IDX 22 49 44 50 29 51 43 52 30 53 33 54 42 55 56 56 31 57 32 58
REMARK SMILES IDX 41 60 57 61 34 62 23 63 24 64 28 65 25 66 27 67 26 68 45 69
REMARK SMILES IDX 46 70 50 71 47 72 49 73 48 74 35 75 36 76 40 77 37 78 39 79
REMARK SMILES IDX 38 80
REMARK H PARENT 64 11 1 13 1 14 1 15 72 24 55 48 33 59
REMARK Flexibility Score: inf
ROOT
ATOM      1  C   UNL     1       3.563  -1.428   0.856  1.00  0.00     0.202 C 
ENDROOT
BRANCH   1   2
ATOM      2  C   UNL     1       2.722  -1.635  -0.408  1.00  0.00     0.261 C 
BRANCH   2   3
ATOM      3  O   UNL     1       2.069  -0.407  -0.785  1.00  0.00    -0.458 OA
BRANCH   3   4
ATOM      4  C   UNL     1       0.711  -0.399  -0.670  1.00  0.00     0.374 C 
ATOM      5  O   UNL     1       0.034  -1.392  -0.425  1.00  0.00    -0.244 OA
BRANCH   4   6
ATOM      6  C   UNL     1       0.124   1.021  -0.818  1.00  0.00     0.246 C 
ATOM      7  C   UNL     1      -0.816   1.293   0.362  1.00  0.00     0.148 C 
ATOM      8  C   UNL     1       1.145   2.170  -0.652  1.00  0.00     0.344 C 
ATOM      9  C   UNL     1      -0.817   2.803   0.536  1.00  0.00     0.270 C 
ATOM     10  N   UNL     1       0.440   3.299  -0.023  1.00  0.00    -0.325 N 
ATOM     11  H   UNL     1       1.027   3.641   0.738  1.00  0.00     0.348 HD
BRANCH   6  12
ATOM     12  N   UNL     1      -0.612   1.087  -2.102  1.00  0.00    -0.338 N 
ATOM     13  H   UNL     1      -1.008   2.019  -2.219  1.00  0.00     0.345 HD
ATOM     14  H   UNL     1      -1.362   0.396  -2.101  1.00  0.00     0.345 HD
ATOM     15  H   UNL     1       0.029   0.891  -2.871  1.00  0.00     0.345 HD
ENDBRANCH   6  12
BRANCH  10  16
ATOM     16  C   UNL     1       0.352   4.547  -0.793  1.00  0.00     0.303 C 
BRANCH  16  17
ATOM     17  C   UNL     1      -0.216   4.430  -2.195  1.00  0.00     0.048 A 
ATOM     18  C   UNL     1       0.681   4.227  -3.262  1.00  0.00     0.013 A 
ATOM     19  C   UNL     1      -1.587   4.397  -2.485  1.00  0.00     0.124 A 
ATOM     20  C   UNL     1       0.226   3.877  -4.534  1.00  0.00     0.001 A 
ATOM     21  C   UNL     1      -2.044   4.017  -3.746  1.00  0.00     0.046 A 
ATOM     22  C   UNL     1      -1.138   3.737  -4.766  1.00  0.00     0.004 A 
BRANCH  19  23
ATOM     23  O   UNL     1      -2.560   4.690  -1.575  1.00  0.00    -0.507 OA
ATOM     24  H   UNL     1      -2.326   4.952  -0.706  1.00  0.00     0.293 HD
ENDBRANCH  19  23
ENDBRANCH  16  17
ENDBRANCH  10  16
ENDBRANCH   4   6
ENDBRANCH   3   4
ENDBRANCH   2   3
ENDBRANCH   1   2
BRANCH   1  25
ATOM     25  O   UNL     1       2.858  -1.343   2.095  1.00  0.00    -0.374 OA
BRANCH  25  26
ATOM     26  C   UNL     1       2.156  -0.135   2.375  1.00  0.00     0.202 C 
BRANCH  26  27
ATOM     27  C   UNL     1       2.984   1.047   2.892  1.00  0.00     0.261 C 
BRANCH  27  28
ATOM     28  O   UNL     1       3.914   1.527   1.904  1.00  0.00    -0.460 OA
BRANCH  28  29
ATOM     29  C   UNL     1       5.211   1.235   2.154  1.00  0.00     0.338 C 
ATOM     30  O   UNL     1       5.674   0.701   3.151  1.00  0.00    -0.246 OA
BRANCH  29  31
ATOM     31  C   UNL     1       6.010   1.465   0.937  1.00  0.00     0.060 A 
ATOM     32  C   UNL     1       6.768   0.391   0.454  1.00  0.00     0.016 A 
ATOM     33  C   UNL     1       6.053   2.707   0.300  1.00  0.00     0.016 A 
ATOM     34  C   UNL     1       7.598   0.560  -0.650  1.00  0.00     0.010 A 
ATOM     35  C   UNL     1       6.899   2.880  -0.801  1.00  0.00     0.010 A 
ATOM     36  C   UNL     1       7.694   1.815  -1.265  1.00  0.00    -0.014 A 
BRANCH  36  37
ATOM     37  C   UNL     1       8.714   2.030  -2.319  1.00  0.00     0.031 A 
ATOM     38  C   UNL     1      10.009   2.707  -1.964  1.00  0.00     0.074 A 
ATOM     39  C   UNL     1       8.508   1.584  -3.571  1.00  0.00     0.049 A 
ATOM     40  N   UNL     1      11.028   2.997  -2.731  1.00  0.00    -0.248 NA
ATOM     41  C   UNL     1      10.178   3.108  -0.558  1.00  0.00     0.031 C 
ATOM     42  C   UNL     1       7.319   0.867  -4.029  1.00  0.00     0.029 A 
ATOM     43  N   UNL     1       9.300   1.672  -4.688  1.00  0.00    -0.354 N 
ATOM     44  C   UNL     1      11.957   3.619  -1.905  1.00  0.00     0.074 A 
ATOM     45  C   UNL     1      11.368   3.689  -0.585  1.00  0.00     0.031 C 
ATOM     46  C   UNL     1       7.459   0.583  -5.335  1.00  0.00     0.029 A 
ATOM     47  C   UNL     1       8.727   1.130  -5.812  1.00  0.00     0.049 A 
ATOM     48  H   UNL     1      10.194   2.085  -4.684  1.00  0.00     0.167 HD
ATOM     49  C   UNL     1      13.190   4.084  -2.217  1.00  0.00     0.031 A 
ATOM     50  C   UNL     1       9.165   1.100  -7.086  1.00  0.00     0.031 A 
ATOM     51  C   UNL     1      13.770   4.028  -3.533  1.00  0.00     0.049 A 
ATOM     52  C   UNL     1      10.500   1.709  -7.423  1.00  0.00     0.074 A 
ATOM     53  C   UNL     1      15.021   4.456  -3.941  1.00  0.00     0.029 A 
ATOM     54  N   UNL     1      13.134   3.523  -4.656  1.00  0.00    -0.354 N 
ATOM     55  N   UNL     1      11.381   2.266  -6.628  1.00  0.00    -0.248 NA
ATOM     56  C   UNL     1      10.901   1.682  -8.838  1.00  0.00     0.031 C 
ATOM     57  C   UNL     1      15.115   4.274  -5.324  1.00  0.00     0.029 A 
ATOM     58  C   UNL     1      13.950   3.668  -5.765  1.00  0.00     0.049 A 
ATOM     59  H   UNL     1      12.235   3.122  -4.664  1.00  0.00     0.167 HD
ATOM     60  C   UNL     1      12.448   2.632  -7.439  1.00  0.00     0.074 A 
ATOM     61  C   UNL     1      12.113   2.215  -8.785  1.00  0.00     0.031 C 
ATOM     62  C   UNL     1      13.602   3.258  -7.101  1.00  0.00     0.031 A 
BRANCH  49  63
ATOM     63  C   UNL     1      13.984   4.737  -1.120  1.00  0.00    -0.014 A 
ATOM     64  C   UNL     1      14.539   3.988  -0.070  1.00  0.00     0.009 A 
ATOM     65  C   UNL     1      14.222   6.120  -1.166  1.00  0.00     0.009 A 
ATOM     66  C   UNL     1      15.290   4.616   0.926  1.00  0.00     0.001 A 
ATOM     67  C   UNL     1      14.998   6.740  -0.185  1.00  0.00     0.001 A 
ATOM     68  C   UNL     1      15.525   5.989   0.864  1.00  0.00     0.000 A 
ENDBRANCH  49  63
BRANCH  50  69
ATOM     69  C   UNL     1       8.317   0.502  -8.152  1.00  0.00    -0.014 A 
ATOM     70  C   UNL     1       8.710  -0.672  -8.811  1.00  0.00     0.009 A 
ATOM     71  C   UNL     1       7.119   1.126  -8.535  1.00  0.00     0.009 A 
ATOM     72  C   UNL     1       7.934  -1.193  -9.850  1.00  0.00     0.001 A 
ATOM     73  C   UNL     1       6.329   0.585  -9.551  1.00  0.00     0.001 A 
ATOM     74  C   UNL     1       6.743  -0.568 -10.215  1.00  0.00     0.000 A 
ENDBRANCH  50  69
BRANCH  62  75
ATOM     75  C   UNL     1      14.599   3.509  -8.200  1.00  0.00    -0.014 A 
ATOM     76  C   UNL     1      14.361   4.468  -9.197  1.00  0.00     0.009 A 
ATOM     77  C   UNL     1      15.812   2.801  -8.215  1.00  0.00     0.009 A 
ATOM     78  C   UNL     1      15.301   4.686 -10.207  1.00  0.00     0.001 A 
ATOM     79  C   UNL     1      16.764   3.045  -9.206  1.00  0.00     0.001 A 
ATOM     80  C   UNL     1      16.503   3.979 -10.207  1.00  0.00     0.000 A 
ENDBRANCH  62  75
ENDBRANCH  36  37
ENDBRANCH  29  31
ENDBRANCH  28  29
ENDBRANCH  27  28
ENDBRANCH  26  27
ENDBRANCH  25  26
ENDBRANCH   1  25
TORSDOF 18
