REMARK SMILES C[C@@](CC(=O)Nc1ccc(NC(=O)c2ccco2)cc1)(C(=O)OCCOCCOC(=O)c1ccc(-c2c3nc(c(-c4ccccc4)c4ccc([nH]4)c(-c4ccccc4)c4nc(c(-c5ccccc5)c5ccc2[nH]5)C=C4)C=C3)cc1)c1ccccc1
REMARK SMILES IDX 24 1 23 2 21 3 22 4 2 5 1 6 3 7 4 8 5 9 6 10 7 12 8 13 20 14
REMARK SMILES IDX 9 15 19 16 10 17 11 18 12 19 13 21 14 22 15 23 18 24 16 25
REMARK SMILES IDX 17 26 80 27 81 28 85 29 82 30 84 31 83 32 25 33 26 34 27 35
REMARK SMILES IDX 28 36 29 37 30 38 31 39 32 40 33 41 79 42 34 43 78 44 35 45
REMARK SMILES IDX 36 46 37 47 72 48 38 49 77 50 71 51 73 52 39 53 76 54 70 55
REMARK SMILES IDX 69 56 40 58 62 59 47 60 61 61 48 62 51 63 60 64 74 65 49 66
REMARK SMILES IDX 50 67 59 69 75 70 52 71 41 72 42 73 46 74 43 75 45 76 44 77
REMARK SMILES IDX 63 78 64 79 68 80 65 81 67 82 66 83 53 84 54 85 58 86 55 87
REMARK SMILES IDX 57 88 56 89
REMARK H PARENT 6 11 11 20 73 57 51 68
REMARK Flexibility Score: inf
ROOT
ATOM      1  C   UNL     1      -3.143   2.089   0.044  1.00  0.00     0.261 C 
ENDROOT
BRANCH   1   2
ATOM      2  O   UNL     1      -1.754   1.715   0.048  1.00  0.00    -0.463 OA
BRANCH   2   3
ATOM      3  C   UNL     1      -0.908   2.540   0.733  1.00  0.00     0.316 C 
ATOM      4  O   UNL     1      -1.252   3.636   1.155  1.00  0.00    -0.251 OA
BRANCH   3   5
ATOM      5  C   UNL     1       0.512   1.900   0.896  1.00  0.00     0.099 C 
ATOM      6  C   UNL     1       0.366   0.374   1.044  1.00  0.00     0.029 C 
BRANCH   5   7
ATOM      7  C   UNL     1       1.346   2.181  -0.382  1.00  0.00     0.123 C 
BRANCH   7   8
ATOM      8  C   UNL     1       0.643   2.053  -1.751  1.00  0.00     0.225 C 
ATOM      9  O   UNL     1      -0.112   2.950  -2.139  1.00  0.00    -0.275 OA
ATOM     10  N   UNL     1       0.977   1.067  -2.652  1.00  0.00    -0.326 N 
ATOM     11  H   UNL     1       0.797   1.288  -3.595  1.00  0.00     0.169 HD
BRANCH  10  12
ATOM     12  C   UNL     1       1.530  -0.197  -2.436  1.00  0.00     0.041 A 
ATOM     13  C   UNL     1       2.578  -0.649  -3.215  1.00  0.00     0.028 A 
ATOM     14  C   UNL     1       0.980  -1.090  -1.534  1.00  0.00     0.028 A 
ATOM     15  C   UNL     1       3.241  -1.833  -2.859  1.00  0.00     0.028 A 
ATOM     16  C   UNL     1       1.683  -2.220  -1.111  1.00  0.00     0.028 A 
ATOM     17  C   UNL     1       2.891  -2.548  -1.713  1.00  0.00     0.041 A 
BRANCH  17  18
ATOM     18  N   UNL     1       3.669  -3.527  -1.064  1.00  0.00    -0.319 N 
ATOM     19  C   UNL     1       4.928  -4.044  -1.302  1.00  0.00     0.291 C 
ATOM     20  H   UNL     1       3.225  -3.924  -0.281  1.00  0.00     0.170 HD
ATOM     21  O   UNL     1       5.437  -4.733  -0.415  1.00  0.00    -0.265 OA
BRANCH  19  22
ATOM     22  C   UNL     1       5.573  -3.787  -2.558  1.00  0.00     0.191 A 
ATOM     23  C   UNL     1       6.407  -2.771  -2.989  1.00  0.00     0.056 A 
ATOM     24  O   UNL     1       5.293  -4.629  -3.598  1.00  0.00    -0.459 OA
ATOM     25  C   UNL     1       6.574  -2.962  -4.385  1.00  0.00     0.043 A 
ATOM     26  C   UNL     1       5.904  -4.122  -4.698  1.00  0.00     0.196 A 
ENDBRANCH  19  22
ENDBRANCH  17  18
ENDBRANCH  10  12
ENDBRANCH   7   8
ENDBRANCH   5   7
BRANCH   5  27
ATOM     27  C   UNL     1       1.209   2.387   2.219  1.00  0.00    -0.030 A 
ATOM     28  C   UNL     1       1.793   1.480   3.138  1.00  0.00     0.005 A 
ATOM     29  C   UNL     1       1.141   3.727   2.632  1.00  0.00     0.005 A 
ATOM     30  C   UNL     1       2.104   1.848   4.449  1.00  0.00     0.000 A 
ATOM     31  C   UNL     1       1.464   4.101   3.944  1.00  0.00     0.000 A 
ATOM     32  C   UNL     1       1.909   3.155   4.862  1.00  0.00     0.000 A 
ENDBRANCH   5  27
ENDBRANCH   3   5
ENDBRANCH   2   3
ENDBRANCH   1   2
BRANCH   1  33
ATOM     33  C   UNL     1      -4.007   0.853   0.313  1.00  0.00     0.202 C 
BRANCH  33  34
ATOM     34  O   UNL     1      -4.007   0.325   1.643  1.00  0.00    -0.374 OA
BRANCH  34  35
ATOM     35  C   UNL     1      -2.799  -0.261   2.115  1.00  0.00     0.202 C 
BRANCH  35  36
ATOM     36  C   UNL     1      -2.474  -1.689   1.639  1.00  0.00     0.261 C 
BRANCH  36  37
ATOM     37  O   UNL     1      -2.557  -1.862   0.214  1.00  0.00    -0.460 OA
BRANCH  37  38
ATOM     38  C   UNL     1      -3.689  -2.491  -0.192  1.00  0.00     0.338 C 
ATOM     39  O   UNL     1      -4.552  -2.989   0.509  1.00  0.00    -0.246 OA
BRANCH  38  40
ATOM     40  C   UNL     1      -3.853  -2.366  -1.652  1.00  0.00     0.060 A 
ATOM     41  C   UNL     1      -5.012  -1.727  -2.111  1.00  0.00     0.016 A 
ATOM     42  C   UNL     1      -2.962  -2.957  -2.549  1.00  0.00     0.016 A 
ATOM     43  C   UNL     1      -5.312  -1.716  -3.470  1.00  0.00     0.010 A 
ATOM     44  C   UNL     1      -3.272  -2.955  -3.914  1.00  0.00     0.010 A 
ATOM     45  C   UNL     1      -4.466  -2.368  -4.375  1.00  0.00    -0.014 A 
BRANCH  45  46
ATOM     46  C   UNL     1      -4.912  -2.563  -5.776  1.00  0.00     0.031 A 
ATOM     47  C   UNL     1      -5.474  -3.896  -6.187  1.00  0.00     0.074 A 
ATOM     48  C   UNL     1      -4.849  -1.556  -6.665  1.00  0.00     0.049 A 
ATOM     49  N   UNL     1      -5.887  -4.296  -7.363  1.00  0.00    -0.248 NA
ATOM     50  C   UNL     1      -5.585  -4.915  -5.130  1.00  0.00     0.031 C 
ATOM     51  C   UNL     1      -4.374  -0.204  -6.380  1.00  0.00     0.029 A 
ATOM     52  N   UNL     1      -5.183  -1.524  -7.996  1.00  0.00    -0.354 N 
ATOM     53  C   UNL     1      -6.291  -5.614  -7.192  1.00  0.00     0.074 A 
ATOM     54  C   UNL     1      -6.050  -5.955  -5.806  1.00  0.00     0.031 C 
ATOM     55  C   UNL     1      -4.435   0.524  -7.508  1.00  0.00     0.029 A 
ATOM     56  C   UNL     1      -4.916  -0.321  -8.599  1.00  0.00     0.049 A 
ATOM     57  H   UNL     1      -5.577  -2.291  -8.473  1.00  0.00     0.167 HD
ATOM     58  C   UNL     1      -6.816  -6.465  -8.106  1.00  0.00     0.031 A 
ATOM     59  C   UNL     1      -5.019   0.050  -9.890  1.00  0.00     0.031 A 
ATOM     60  C   UNL     1      -7.047  -6.129  -9.485  1.00  0.00     0.049 A 
ATOM     61  C   UNL     1      -5.532  -0.936 -10.905  1.00  0.00     0.074 A 
ATOM     62  C   UNL     1      -7.599  -6.914 -10.483  1.00  0.00     0.029 A 
ATOM     63  N   UNL     1      -6.728  -4.911 -10.064  1.00  0.00    -0.354 N 
ATOM     64  N   UNL     1      -5.936  -2.171 -10.727  1.00  0.00    -0.248 NA
ATOM     65  C   UNL     1      -5.608  -0.475 -12.299  1.00  0.00     0.031 C 
ATOM     66  C   UNL     1      -7.553  -6.193 -11.680  1.00  0.00     0.029 A 
ATOM     67  C   UNL     1      -7.036  -4.935 -11.414  1.00  0.00     0.049 A 
ATOM     68  H   UNL     1      -6.340  -4.142  -9.587  1.00  0.00     0.167 HD
ATOM     69  C   UNL     1      -6.339  -2.624 -11.977  1.00  0.00     0.074 A 
ATOM     70  C   UNL     1      -6.142  -1.528 -12.903  1.00  0.00     0.031 C 
ATOM     71  C   UNL     1      -6.832  -3.838 -12.326  1.00  0.00     0.031 A 
BRANCH  58  72
ATOM     72  C   UNL     1      -7.130  -7.864  -7.649  1.00  0.00    -0.014 A 
ATOM     73  C   UNL     1      -8.194  -8.131  -6.773  1.00  0.00     0.009 A 
ATOM     74  C   UNL     1      -6.359  -8.936  -8.126  1.00  0.00     0.009 A 
ATOM     75  C   UNL     1      -8.453  -9.438  -6.354  1.00  0.00     0.001 A 
ATOM     76  C   UNL     1      -6.640 -10.245  -7.730  1.00  0.00     0.001 A 
ATOM     77  C   UNL     1      -7.680 -10.493  -6.836  1.00  0.00     0.000 A 
ENDBRANCH  58  72
BRANCH  59  78
ATOM     78  C   UNL     1      -4.591   1.413 -10.303  1.00  0.00    -0.014 A 
ATOM     79  C   UNL     1      -5.528   2.365 -10.728  1.00  0.00     0.009 A 
ATOM     80  C   UNL     1      -3.231   1.764 -10.275  1.00  0.00     0.009 A 
ATOM     81  C   UNL     1      -5.110   3.635 -11.134  1.00  0.00     0.001 A 
ATOM     82  C   UNL     1      -2.820   3.043 -10.652  1.00  0.00     0.001 A 
ATOM     83  C   UNL     1      -3.759   3.975 -11.090  1.00  0.00     0.000 A 
ENDBRANCH  59  78
BRANCH  71  84
ATOM     84  C   UNL     1      -7.226  -4.041 -13.763  1.00  0.00    -0.014 A 
ATOM     85  C   UNL     1      -6.263  -4.169 -14.775  1.00  0.00     0.009 A 
ATOM     86  C   UNL     1      -8.584  -4.165 -14.098  1.00  0.00     0.009 A 
ATOM     87  C   UNL     1      -6.654  -4.390 -16.097  1.00  0.00     0.001 A 
ATOM     88  C   UNL     1      -8.970  -4.416 -15.415  1.00  0.00     0.001 A 
ATOM     89  C   UNL     1      -8.005  -4.520 -16.415  1.00  0.00     0.000 A 
ENDBRANCH  71  84
ENDBRANCH  45  46
ENDBRANCH  38  40
ENDBRANCH  37  38
ENDBRANCH  36  37
ENDBRANCH  35  36
ENDBRANCH  34  35
ENDBRANCH  33  34
ENDBRANCH   1  33
TORSDOF 20
