REMARK SMILES CC(C)(C)OCC[C@@H]1CCC[C@]1([NH2+]C1CC1)C(=O)OCCOCCOC(=O)c1ccc(-c2c3nc(c(-c4ccccc4)c4ccc([nH]4)c(-c4ccccc4)c4nc(c(-c5ccccc5)c5ccc2[nH]5)C=C4)C=C3)cc1
REMARK SMILES IDX 21 1 20 2 19 3 17 4 18 5 12 6 8 7 9 8 10 9 11 10 7 11 6 12
REMARK SMILES IDX 5 13 2 14 1 15 3 16 4 17 13 18 14 21 15 22 16 23 22 24 23 25
REMARK SMILES IDX 24 26 25 27 26 28 27 29 28 30 29 31 75 32 30 33 74 34 31 35
REMARK SMILES IDX 32 36 33 37 68 38 34 39 73 40 67 41 69 42 35 43 72 44 66 45
REMARK SMILES IDX 65 46 36 48 58 49 43 50 57 51 44 52 47 53 56 54 70 55 45 56
REMARK SMILES IDX 46 57 55 59 71 60 48 61 37 62 38 63 42 64 39 65 41 66 40 67
REMARK SMILES IDX 59 68 60 69 64 70 61 71 63 72 62 73 49 74 50 75 54 76 51 77
REMARK SMILES IDX 53 78 52 79
REMARK H PARENT 13 19 13 20 69 47 47 58
REMARK Flexibility Score: inf
ROOT
ATOM      1  C   UNL     1       1.542  -2.345  -1.791  1.00  0.00     0.202 C 
ENDROOT
BRANCH   1   2
ATOM      2  C   UNL     1       2.495  -1.436  -0.932  1.00  0.00     0.261 C 
BRANCH   2   3
ATOM      3  O   UNL     1       2.397  -1.616   0.520  1.00  0.00    -0.459 OA
BRANCH   3   4
ATOM      4  C   UNL     1       2.238  -0.516   1.324  1.00  0.00     0.368 C 
ATOM      5  O   UNL     1       2.201   0.625   0.865  1.00  0.00    -0.245 OA
BRANCH   4   6
ATOM      6  C   UNL     1       2.048  -0.831   2.891  1.00  0.00     0.197 C 
ATOM      7  C   UNL     1       1.321  -2.222   3.222  1.00  0.00     0.065 C 
ATOM      8  C   UNL     1       0.120  -1.986   4.176  1.00  0.00     0.011 C 
ATOM      9  C   UNL     1      -0.041  -0.492   4.372  1.00  0.00     0.008 C 
ATOM     10  C   UNL     1       1.187   0.176   3.751  1.00  0.00     0.081 C 
BRANCH   7  11
ATOM     11  C   UNL     1       0.976  -3.273   2.121  1.00  0.00     0.039 C 
BRANCH  11  12
ATOM     12  C   UNL     1      -0.299  -3.232   1.200  1.00  0.00     0.161 C 
BRANCH  12  13
ATOM     13  O   UNL     1      -0.488  -2.210   0.203  1.00  0.00    -0.376 OA
BRANCH  13  14
ATOM     14  C   UNL     1      -1.361  -1.067   0.374  1.00  0.00     0.060 C 
ATOM     15  C   UNL     1      -1.297  -0.019  -0.762  1.00  0.00     0.042 C 
ATOM     16  C   UNL     1      -0.772  -0.310   1.485  1.00  0.00     0.042 C 
ATOM     17  C   UNL     1      -2.810  -1.388   0.720  1.00  0.00     0.042 C 
ENDBRANCH  13  14
ENDBRANCH  12  13
ENDBRANCH  11  12
ENDBRANCH   7  11
BRANCH   6  18
ATOM     18  N   UNL     1       3.429  -0.784   3.498  1.00  0.00    -0.329 N 
ATOM     19  H   UNL     1       3.965  -1.512   3.027  1.00  0.00     0.347 HD
ATOM     20  H   UNL     1       3.210  -0.862   4.491  1.00  0.00     0.347 HD
BRANCH  18  21
ATOM     21  C   UNL     1       4.298   0.434   3.488  1.00  0.00     0.183 C 
ATOM     22  C   UNL     1       4.582   1.382   2.357  1.00  0.00     0.071 C 
ATOM     23  C   UNL     1       3.824   1.863   3.559  1.00  0.00     0.071 C 
ENDBRANCH  18  21
ENDBRANCH   6  18
ENDBRANCH   4   6
ENDBRANCH   3   4
ENDBRANCH   2   3
ENDBRANCH   1   2
BRANCH   1  24
ATOM     24  O   UNL     1       0.406  -1.592  -2.227  1.00  0.00    -0.374 OA
BRANCH  24  25
ATOM     25  C   UNL     1      -0.632  -2.181  -3.020  1.00  0.00     0.202 C 
BRANCH  25  26
ATOM     26  C   UNL     1      -1.624  -3.164  -2.349  1.00  0.00     0.261 C 
BRANCH  26  27
ATOM     27  O   UNL     1      -1.000  -4.413  -2.090  1.00  0.00    -0.460 OA
BRANCH  27  28
ATOM     28  C   UNL     1      -0.720  -5.042  -3.241  1.00  0.00     0.338 C 
ATOM     29  O   UNL     1      -1.235  -4.868  -4.343  1.00  0.00    -0.246 OA
BRANCH  28  30
ATOM     30  C   UNL     1       0.552  -5.710  -3.049  1.00  0.00     0.060 A 
ATOM     31  C   UNL     1       1.552  -5.406  -3.975  1.00  0.00     0.016 A 
ATOM     32  C   UNL     1       0.737  -6.633  -2.018  1.00  0.00     0.016 A 
ATOM     33  C   UNL     1       2.697  -6.165  -3.979  1.00  0.00     0.010 A 
ATOM     34  C   UNL     1       1.899  -7.385  -2.012  1.00  0.00     0.010 A 
ATOM     35  C   UNL     1       2.825  -7.208  -3.051  1.00  0.00    -0.014 A 
BRANCH  35  36
ATOM     36  C   UNL     1       3.809  -8.252  -3.360  1.00  0.00     0.031 A 
ATOM     37  C   UNL     1       3.322  -9.521  -3.999  1.00  0.00     0.074 A 
ATOM     38  C   UNL     1       5.112  -7.980  -3.207  1.00  0.00     0.049 A 
ATOM     39  N   UNL     1       4.014 -10.530  -4.454  1.00  0.00    -0.248 NA
ATOM     40  C   UNL     1       1.863  -9.673  -4.157  1.00  0.00     0.031 C 
ATOM     41  C   UNL     1       5.655  -6.734  -2.663  1.00  0.00     0.029 A 
ATOM     42  N   UNL     1       6.210  -8.722  -3.532  1.00  0.00    -0.354 N 
ATOM     43  C   UNL     1       3.078 -11.436  -4.938  1.00  0.00     0.074 A 
ATOM     44  C   UNL     1       1.769 -10.879  -4.694  1.00  0.00     0.031 C 
ATOM     45  C   UNL     1       6.995  -6.790  -2.714  1.00  0.00     0.029 A 
ATOM     46  C   UNL     1       7.391  -8.089  -3.249  1.00  0.00     0.049 A 
ATOM     47  H   UNL     1       6.159  -9.620  -3.930  1.00  0.00     0.167 HD
ATOM     48  C   UNL     1       3.301 -12.626  -5.540  1.00  0.00     0.031 A 
ATOM     49  C   UNL     1       8.652  -8.530  -3.392  1.00  0.00     0.031 A 
ATOM     50  C   UNL     1       4.616 -13.157  -5.770  1.00  0.00     0.049 A 
ATOM     51  C   UNL     1       8.866  -9.891  -3.989  1.00  0.00     0.074 A 
ATOM     52  C   UNL     1       4.971 -14.346  -6.377  1.00  0.00     0.029 A 
ATOM     53  N   UNL     1       5.793 -12.526  -5.394  1.00  0.00    -0.354 N 
ATOM     54  N   UNL     1       7.979 -10.738  -4.457  1.00  0.00    -0.248 NA
ATOM     55  C   UNL     1      10.254 -10.355  -4.082  1.00  0.00     0.031 C 
ATOM     56  C   UNL     1       6.362 -14.469  -6.301  1.00  0.00     0.029 A 
ATOM     57  C   UNL     1       6.877 -13.322  -5.716  1.00  0.00     0.049 A 
ATOM     58  H   UNL     1       5.849 -11.643  -4.961  1.00  0.00     0.167 HD
ATOM     59  C   UNL     1       8.702 -11.829  -4.917  1.00  0.00     0.074 A 
ATOM     60  C   UNL     1      10.102 -11.521  -4.696  1.00  0.00     0.031 C 
ATOM     61  C   UNL     1       8.256 -12.985  -5.469  1.00  0.00     0.031 A 
BRANCH  48  62
ATOM     62  C   UNL     1       2.106 -13.447  -5.933  1.00  0.00    -0.014 A 
ATOM     63  C   UNL     1       1.260 -13.068  -6.988  1.00  0.00     0.009 A 
ATOM     64  C   UNL     1       1.839 -14.643  -5.248  1.00  0.00     0.009 A 
ATOM     65  C   UNL     1       0.158 -13.858  -7.330  1.00  0.00     0.001 A 
ATOM     66  C   UNL     1       0.756 -15.445  -5.611  1.00  0.00     0.001 A 
ATOM     67  C   UNL     1      -0.088 -15.048  -6.646  1.00  0.00     0.000 A 
ENDBRANCH  48  62
BRANCH  49  68
ATOM     68  C   UNL     1       9.783  -7.692  -2.924  1.00  0.00    -0.014 A 
ATOM     69  C   UNL     1      10.715  -7.161  -3.826  1.00  0.00     0.009 A 
ATOM     70  C   UNL     1       9.930  -7.415  -1.554  1.00  0.00     0.009 A 
ATOM     71  C   UNL     1      11.787  -6.394  -3.362  1.00  0.00     0.001 A 
ATOM     72  C   UNL     1      10.981  -6.621  -1.097  1.00  0.00     0.001 A 
ATOM     73  C   UNL     1      11.916  -6.121  -2.001  1.00  0.00     0.000 A 
ENDBRANCH  49  68
BRANCH  61  74
ATOM     74  C   UNL     1       9.299 -13.983  -5.886  1.00  0.00    -0.014 A 
ATOM     75  C   UNL     1      10.044 -14.697  -4.935  1.00  0.00     0.009 A 
ATOM     76  C   UNL     1       9.509 -14.238  -7.250  1.00  0.00     0.009 A 
ATOM     77  C   UNL     1      11.009 -15.618  -5.344  1.00  0.00     0.001 A 
ATOM     78  C   UNL     1      10.448 -15.185  -7.655  1.00  0.00     0.001 A 
ATOM     79  C   UNL     1      11.206 -15.865  -6.703  1.00  0.00     0.000 A 
ENDBRANCH  61  74
ENDBRANCH  35  36
ENDBRANCH  28  30
ENDBRANCH  27  28
ENDBRANCH  26  27
ENDBRANCH  25  26
ENDBRANCH  24  25
ENDBRANCH   1  24
TORSDOF 20
