REMARK SMILES O=C(CCN1C(=O)S/C(=C\c2ccccc2F)C1=O)Nc1ccc(C(=O)OCCOCCOC(=O)c2ccc(-c3c4nc(c(-c5ccccc5)c5ccc([nH]5)c(-c5ccccc5)c5nc(c(-c6ccccc6)c6ccc3[nH]6)C=C5)C=C4)cc2)c(O)c1
REMARK SMILES IDX 28 1 27 2 25 3 26 4 24 5 21 6 22 7 86 8 23 9 84 10 20 11
REMARK SMILES IDX 1 12 2 13 3 15 4 16 5 17 6 18 18 19 7 20 8 21 9 22 19 23
REMARK SMILES IDX 10 24 11 25 12 26 16 27 13 28 15 29 17 30 14 31 85 32 29 34
REMARK SMILES IDX 30 35 31 36 32 37 33 38 34 39 35 40 36 41 37 42 83 43 38 44
REMARK SMILES IDX 82 45 39 46 40 47 41 48 76 49 42 50 81 51 75 52 77 53 43 54
REMARK SMILES IDX 80 55 74 56 73 57 44 59 66 60 51 61 65 62 52 63 55 64 64 65
REMARK SMILES IDX 78 66 53 67 54 68 63 70 79 71 56 72 45 73 46 74 50 75 47 76
REMARK SMILES IDX 49 77 48 78 67 79 68 80 72 81 69 82 71 83 70 84 57 85 58 86
REMARK SMILES IDX 62 87 59 88 61 89 60 90
REMARK H PARENT 20 14 85 33 77 58 55 69
REMARK Flexibility Score: inf
ROOT
ATOM      1  C   UNL     1       0.102   6.056  -5.929  1.00  0.00     0.261 C 
ENDROOT
BRANCH   1   2
ATOM      2  O   UNL     1       0.851   5.007  -5.290  1.00  0.00    -0.460 OA
BRANCH   2   3
ATOM      3  C   UNL     1       0.978   5.154  -3.944  1.00  0.00     0.341 C 
ATOM      4  O   UNL     1       0.684   6.139  -3.289  1.00  0.00    -0.246 OA
BRANCH   3   5
ATOM      5  C   UNL     1       1.357   3.860  -3.331  1.00  0.00     0.101 A 
ATOM      6  C   UNL     1       1.974   1.469  -1.976  1.00  0.00     0.044 A 
ATOM      7  C   UNL     1       1.064   2.377  -1.430  1.00  0.00     0.027 A 
ATOM      8  C   UNL     1       2.553   1.755  -3.221  1.00  0.00     0.073 A 
ATOM      9  C   UNL     1       0.770   3.569  -2.094  1.00  0.00     0.022 A 
ATOM     10  C   UNL     1       2.220   2.927  -3.909  1.00  0.00     0.132 A 
BRANCH   6  11
ATOM     11  N   UNL     1       2.406   0.313  -1.288  1.00  0.00    -0.326 N 
ATOM     12  O   UNL     1       0.707   0.023   0.250  1.00  0.00    -0.275 OA
ATOM     13  C   UNL     1       1.860  -0.190  -0.124  1.00  0.00     0.226 C 
ATOM     14  H   UNL     1       3.166  -0.179  -1.673  1.00  0.00     0.169 HD
BRANCH  13  15
ATOM     15  C   UNL     1       2.799  -0.971   0.785  1.00  0.00     0.122 C 
BRANCH  15  16
ATOM     16  C   UNL     1       3.953  -1.752   0.168  1.00  0.00     0.140 C 
BRANCH  16  17
ATOM     17  N   UNL     1       4.989  -1.005  -0.537  1.00  0.00    -0.268 N 
ATOM     18  C   UNL     1       5.352   0.281  -0.226  1.00  0.00     0.293 C 
ATOM     19  C   UNL     1       5.837  -1.666  -1.406  1.00  0.00     0.268 C 
ATOM     20  O   UNL     1       4.987   0.956   0.716  1.00  0.00    -0.261 OA
ATOM     21  S   UNL     1       6.459   0.878  -1.437  1.00  0.00    -0.022 SA
ATOM     22  C   UNL     1       6.806  -0.709  -2.005  1.00  0.00     0.083 C 
ATOM     23  O   UNL     1       5.806  -2.860  -1.665  1.00  0.00    -0.268 OA
ATOM     24  C   UNL     1       7.760  -1.086  -2.870  1.00  0.00     0.032 C 
BRANCH  24  25
ATOM     25  C   UNL     1       8.668  -0.167  -3.573  1.00  0.00     0.012 A 
ATOM     26  C   UNL     1       8.717  -0.214  -4.973  1.00  0.00     0.011 A 
ATOM     27  C   UNL     1       9.453   0.786  -2.912  1.00  0.00     0.130 A 
ATOM     28  C   UNL     1       9.467   0.726  -5.686  1.00  0.00     0.001 A 
ATOM     29  C   UNL     1      10.179   1.741  -3.617  1.00  0.00     0.040 A 
ATOM     30  F   UNL     1       9.508   0.812  -1.571  1.00  0.00    -0.206 F 
ATOM     31  C   UNL     1      10.176   1.719  -5.010  1.00  0.00     0.003 A 
ENDBRANCH  24  25
ENDBRANCH  16  17
ENDBRANCH  15  16
ENDBRANCH  13  15
ENDBRANCH   6  11
BRANCH  10  32
ATOM     32  O   UNL     1       2.784   3.082  -5.146  1.00  0.00    -0.507 OA
ATOM     33  H   UNL     1       2.597   3.848  -5.654  1.00  0.00     0.293 HD
ENDBRANCH  10  32
ENDBRANCH   3   5
ENDBRANCH   2   3
ENDBRANCH   1   2
BRANCH   1  34
ATOM     34  C   UNL     1      -1.274   5.573  -6.402  1.00  0.00     0.202 C 
BRANCH  34  35
ATOM     35  O   UNL     1      -2.179   5.081  -5.418  1.00  0.00    -0.374 OA
BRANCH  35  36
ATOM     36  C   UNL     1      -1.966   3.767  -4.904  1.00  0.00     0.202 C 
BRANCH  36  37
ATOM     37  C   UNL     1      -2.328   2.573  -5.798  1.00  0.00     0.261 C 
BRANCH  37  38
ATOM     38  O   UNL     1      -1.556   2.529  -7.010  1.00  0.00    -0.460 OA
BRANCH  38  39
ATOM     39  C   UNL     1      -2.250   2.858  -8.127  1.00  0.00     0.338 C 
ATOM     40  O   UNL     1      -3.435   3.130  -8.213  1.00  0.00    -0.246 OA
BRANCH  39  41
ATOM     41  C   UNL     1      -1.319   3.034  -9.256  1.00  0.00     0.060 A 
ATOM     42  C   UNL     1      -1.344   4.261  -9.932  1.00  0.00     0.016 A 
ATOM     43  C   UNL     1      -0.495   1.997  -9.693  1.00  0.00     0.016 A 
ATOM     44  C   UNL     1      -0.578   4.439 -11.081  1.00  0.00     0.010 A 
ATOM     45  C   UNL     1       0.268   2.175 -10.851  1.00  0.00     0.010 A 
ATOM     46  C   UNL     1       0.203   3.384 -11.569  1.00  0.00    -0.014 A 
BRANCH  46  47
ATOM     47  C   UNL     1       0.846   3.501 -12.900  1.00  0.00     0.031 A 
ATOM     48  C   UNL     1       0.228   2.798 -14.077  1.00  0.00     0.074 A 
ATOM     49  C   UNL     1       1.958   4.240 -13.061  1.00  0.00     0.049 A 
ATOM     50  N   UNL     1       0.648   2.729 -15.315  1.00  0.00    -0.248 NA
ATOM     51  C   UNL     1      -1.027   2.071 -13.826  1.00  0.00     0.031 C 
ATOM     52  C   UNL     1       2.627   5.003 -12.008  1.00  0.00     0.029 A 
ATOM     53  N   UNL     1       2.723   4.463 -14.178  1.00  0.00    -0.354 N 
ATOM     54  C   UNL     1      -0.279   1.941 -15.985  1.00  0.00     0.074 A 
ATOM     55  C   UNL     1      -1.269   1.532 -15.012  1.00  0.00     0.031 C 
ATOM     56  C   UNL     1       3.711   5.604 -12.529  1.00  0.00     0.029 A 
ATOM     57  C   UNL     1       3.832   5.236 -13.938  1.00  0.00     0.049 A 
ATOM     58  H   UNL     1       2.498   4.103 -15.067  1.00  0.00     0.167 HD
ATOM     59  C   UNL     1      -0.306   1.591 -17.293  1.00  0.00     0.031 A 
ATOM     60  C   UNL     1       4.844   5.585 -14.755  1.00  0.00     0.031 A 
ATOM     61  C   UNL     1       0.683   1.994 -18.257  1.00  0.00     0.049 A 
ATOM     62  C   UNL     1       4.828   5.124 -16.189  1.00  0.00     0.074 A 
ATOM     63  C   UNL     1       0.727   1.715 -19.613  1.00  0.00     0.029 A 
ATOM     64  N   UNL     1       1.807   2.751 -17.968  1.00  0.00    -0.354 N 
ATOM     65  N   UNL     1       3.927   4.408 -16.818  1.00  0.00    -0.248 NA
ATOM     66  C   UNL     1       5.967   5.527 -17.026  1.00  0.00     0.031 C 
ATOM     67  C   UNL     1       1.913   2.245 -20.129  1.00  0.00     0.029 A 
ATOM     68  C   UNL     1       2.570   2.919 -19.111  1.00  0.00     0.049 A 
ATOM     69  H   UNL     1       2.030   3.116 -17.081  1.00  0.00     0.167 HD
ATOM     70  C   UNL     1       4.374   4.304 -18.130  1.00  0.00     0.074 A 
ATOM     71  C   UNL     1       5.617   5.043 -18.209  1.00  0.00     0.031 C 
ATOM     72  C   UNL     1       3.805   3.656 -19.177  1.00  0.00     0.031 A 
BRANCH  59  73
ATOM     73  C   UNL     1      -1.421   0.693 -17.753  1.00  0.00    -0.014 A 
ATOM     74  C   UNL     1      -2.745   1.149 -17.841  1.00  0.00     0.009 A 
ATOM     75  C   UNL     1      -1.129  -0.622 -18.152  1.00  0.00     0.009 A 
ATOM     76  C   UNL     1      -3.758   0.298 -18.290  1.00  0.00     0.001 A 
ATOM     77  C   UNL     1      -2.138  -1.460 -18.630  1.00  0.00     0.001 A 
ATOM     78  C   UNL     1      -3.452  -1.002 -18.690  1.00  0.00     0.000 A 
ENDBRANCH  59  73
BRANCH  60  79
ATOM     79  C   UNL     1       5.980   6.392 -14.233  1.00  0.00    -0.014 A 
ATOM     80  C   UNL     1       6.199   7.702 -14.683  1.00  0.00     0.009 A 
ATOM     81  C   UNL     1       6.870   5.839 -13.298  1.00  0.00     0.009 A 
ATOM     82  C   UNL     1       7.303   8.430 -14.232  1.00  0.00     0.001 A 
ATOM     83  C   UNL     1       7.953   6.582 -12.823  1.00  0.00     0.001 A 
ATOM     84  C   UNL     1       8.176   7.872 -13.299  1.00  0.00     0.000 A 
ENDBRANCH  60  79
BRANCH  72  85
ATOM     85  C   UNL     1       4.497   3.753 -20.510  1.00  0.00    -0.014 A 
ATOM     86  C   UNL     1       5.715   3.101 -20.755  1.00  0.00     0.009 A 
ATOM     87  C   UNL     1       3.893   4.476 -21.552  1.00  0.00     0.009 A 
ATOM     88  C   UNL     1       6.332   3.203 -22.004  1.00  0.00     0.001 A 
ATOM     89  C   UNL     1       4.494   4.547 -22.809  1.00  0.00     0.001 A 
ATOM     90  C   UNL     1       5.719   3.920 -23.031  1.00  0.00     0.000 A 
ENDBRANCH  72  85
ENDBRANCH  46  47
ENDBRANCH  39  41
ENDBRANCH  38  39
ENDBRANCH  37  38
ENDBRANCH  36  37
ENDBRANCH  35  36
ENDBRANCH  34  35
ENDBRANCH   1  34
TORSDOF 20
