REMARK SMILES O=C(Cc1c(C(=O)c2cc3c(cn2)CCCC3)[nH]c2cc(Cl)ccc12)OCCOCCOC(=O)c1ccc(-c2c3nc(c(-c4ccccc4)c4ccc([nH]4)c(-c4ccccc4)c4nc(c(-c5ccccc5)c5ccc2[nH]5)C=C4)C=C3)cc1
REMARK SMILES IDX 28 1 27 2 26 3 2 4 1 5 3 6 4 7 5 8 25 9 18 10 19 11 24 12
REMARK SMILES IDX 20 14 23 15 21 16 22 17 6 18 7 19 8 20 9 21 13 22 10 23
REMARK SMILES IDX 12 24 11 25 17 26 14 27 16 28 15 29 29 30 30 31 31 32 32 33
REMARK SMILES IDX 33 34 34 35 35 36 36 37 82 38 37 39 81 40 38 41 39 42 40 43
REMARK SMILES IDX 75 44 41 45 80 46 74 47 76 48 42 49 79 50 73 51 72 52 43 54
REMARK SMILES IDX 65 55 50 56 64 57 51 58 54 59 63 60 77 61 52 62 53 63 62 65
REMARK SMILES IDX 78 66 55 67 44 68 45 69 49 70 46 71 48 72 47 73 66 74 67 75
REMARK SMILES IDX 71 76 68 77 70 78 69 79 56 80 57 81 61 82 58 83 60 84 59 85
REMARK H PARENT 18 13 76 53 54 64
REMARK Flexibility Score: inf
ROOT
ATOM      1  C   UNL     1       4.432  -0.728  -0.899  1.00  0.00     0.202 C 
ENDROOT
BRANCH   1   2
ATOM      2  C   UNL     1       3.401  -1.420   0.014  1.00  0.00     0.261 C 
BRANCH   2   3
ATOM      3  O   UNL     1       2.121  -0.801   0.151  1.00  0.00    -0.463 OA
BRANCH   3   4
ATOM      4  C   UNL     1       2.036   0.254   0.997  1.00  0.00     0.310 C 
ATOM      5  O   UNL     1       1.293   0.234   1.971  1.00  0.00    -0.252 OA
BRANCH   4   6
ATOM      6  C   UNL     1       2.710   1.487   0.478  1.00  0.00     0.161 C 
BRANCH   6   7
ATOM      7  C   UNL     1       3.712   2.147   1.379  1.00  0.00     0.000 A 
ATOM      8  C   UNL     1       3.847   3.533   1.389  1.00  0.00     0.093 A 
ATOM      9  C   UNL     1       4.753   1.636   2.239  1.00  0.00     0.004 A 
ATOM     10  N   UNL     1       4.611   3.845   2.486  1.00  0.00    -0.351 N 
ATOM     11  C   UNL     1       5.247   2.725   2.960  1.00  0.00     0.048 A 
ATOM     12  C   UNL     1       5.359   0.385   2.497  1.00  0.00     0.012 A 
ATOM     13  H   UNL     1       4.692   4.745   2.877  1.00  0.00     0.167 HD
ATOM     14  C   UNL     1       6.225   2.613   3.961  1.00  0.00     0.047 A 
ATOM     15  C   UNL     1       6.375   0.254   3.455  1.00  0.00     0.021 A 
ATOM     16  C   UNL     1       6.779   1.355   4.194  1.00  0.00     0.043 A 
ATOM     17  Cl  UNL     1       7.996   1.170   5.397  1.00  0.00    -0.084 Cl
BRANCH   8  18
ATOM     18  C   UNL     1       3.273   4.471   0.430  1.00  0.00     0.227 C 
ATOM     19  O   UNL     1       2.709   4.138  -0.611  1.00  0.00    -0.285 OA
BRANCH  18  20
ATOM     20  C   UNL     1       3.458   5.910   0.664  1.00  0.00     0.113 A 
ATOM     21  C   UNL     1       4.736   6.442   0.568  1.00  0.00     0.036 A 
ATOM     22  N   UNL     1       2.346   6.605   0.993  1.00  0.00    -0.252 NA
ATOM     23  C   UNL     1       4.895   7.795   0.846  1.00  0.00    -0.041 A 
ATOM     24  C   UNL     1       2.522   7.916   1.226  1.00  0.00     0.115 A 
ATOM     25  C   UNL     1       3.762   8.550   1.193  1.00  0.00    -0.026 A 
ATOM     26  C   UNL     1       6.277   8.390   0.832  1.00  0.00     0.036 C 
ATOM     27  C   UNL     1       3.849  10.025   1.464  1.00  0.00     0.037 C 
ATOM     28  C   UNL     1       6.267   9.916   0.813  1.00  0.00     0.005 C 
ATOM     29  C   UNL     1       5.266  10.462   1.826  1.00  0.00     0.005 C 
ENDBRANCH  18  20
ENDBRANCH   8  18
ENDBRANCH   6   7
ENDBRANCH   4   6
ENDBRANCH   3   4
ENDBRANCH   2   3
ENDBRANCH   1   2
BRANCH   1  30
ATOM     30  O   UNL     1       4.087  -0.255  -2.198  1.00  0.00    -0.374 OA
BRANCH  30  31
ATOM     31  C   UNL     1       2.820  -0.545  -2.764  1.00  0.00     0.202 C 
BRANCH  31  32
ATOM     32  C   UNL     1       2.709  -1.917  -3.432  1.00  0.00     0.261 C 
BRANCH  32  33
ATOM     33  O   UNL     1       3.129  -2.995  -2.585  1.00  0.00    -0.460 OA
BRANCH  33  34
ATOM     34  C   UNL     1       4.431  -3.357  -2.696  1.00  0.00     0.338 C 
ATOM     35  O   UNL     1       5.258  -2.918  -3.478  1.00  0.00    -0.246 OA
BRANCH  34  36
ATOM     36  C   UNL     1       4.771  -4.279  -1.588  1.00  0.00     0.060 A 
ATOM     37  C   UNL     1       3.878  -5.272  -1.181  1.00  0.00     0.016 A 
ATOM     38  C   UNL     1       6.013  -4.141  -0.951  1.00  0.00     0.016 A 
ATOM     39  C   UNL     1       4.253  -6.161  -0.173  1.00  0.00     0.010 A 
ATOM     40  C   UNL     1       6.390  -5.034   0.055  1.00  0.00     0.010 A 
ATOM     41  C   UNL     1       5.527  -6.074   0.421  1.00  0.00    -0.014 A 
BRANCH  41  42
ATOM     42  C   UNL     1       6.015  -7.216   1.229  1.00  0.00     0.031 A 
ATOM     43  C   UNL     1       6.117  -7.170   2.719  1.00  0.00     0.074 A 
ATOM     44  C   UNL     1       6.350  -8.338   0.563  1.00  0.00     0.049 A 
ATOM     45  N   UNL     1       6.335  -8.157   3.550  1.00  0.00    -0.248 NA
ATOM     46  C   UNL     1       5.970  -5.857   3.361  1.00  0.00     0.031 C 
ATOM     47  C   UNL     1       6.346  -8.470  -0.896  1.00  0.00     0.029 A 
ATOM     48  N   UNL     1       6.720  -9.579   1.012  1.00  0.00    -0.354 N 
ATOM     49  C   UNL     1       6.317  -7.596   4.818  1.00  0.00     0.074 A 
ATOM     50  C   UNL     1       6.133  -6.169   4.642  1.00  0.00     0.031 C 
ATOM     51  C   UNL     1       6.634  -9.737  -1.220  1.00  0.00     0.029 A 
ATOM     52  C   UNL     1       6.871 -10.498   0.003  1.00  0.00     0.049 A 
ATOM     53  H   UNL     1       6.863  -9.790   1.963  1.00  0.00     0.167 HD
ATOM     54  C   UNL     1       6.422  -8.224   6.015  1.00  0.00     0.031 A 
ATOM     55  C   UNL     1       7.144 -11.815   0.048  1.00  0.00     0.031 A 
ATOM     56  C   UNL     1       6.649  -9.641   6.168  1.00  0.00     0.049 A 
ATOM     57  C   UNL     1       7.274 -12.486   1.383  1.00  0.00     0.074 A 
ATOM     58  C   UNL     1       6.730 -10.377   7.338  1.00  0.00     0.029 A 
ATOM     59  N   UNL     1       6.849 -10.534   5.124  1.00  0.00    -0.354 N 
ATOM     60  N   UNL     1       7.147 -11.965   2.580  1.00  0.00    -0.248 NA
ATOM     61  C   UNL     1       7.563 -13.925   1.378  1.00  0.00     0.031 C 
ATOM     62  C   UNL     1       7.057 -11.694   7.007  1.00  0.00     0.029 A 
ATOM     63  C   UNL     1       7.096 -11.804   5.626  1.00  0.00     0.049 A 
ATOM     64  H   UNL     1       6.821 -10.301   4.168  1.00  0.00     0.167 HD
ATOM     65  C   UNL     1       7.337 -13.012   3.472  1.00  0.00     0.074 A 
ATOM     66  C   UNL     1       7.549 -14.204   2.675  1.00  0.00     0.031 C 
ATOM     67  C   UNL     1       7.341 -12.982   4.828  1.00  0.00     0.031 A 
BRANCH  54  68
ATOM     68  C   UNL     1       6.280  -7.393   7.263  1.00  0.00    -0.014 A 
ATOM     69  C   UNL     1       7.353  -7.274   8.162  1.00  0.00     0.009 A 
ATOM     70  C   UNL     1       5.048  -6.811   7.605  1.00  0.00     0.009 A 
ATOM     71  C   UNL     1       7.193  -6.605   9.377  1.00  0.00     0.001 A 
ATOM     72  C   UNL     1       4.900  -6.113   8.806  1.00  0.00     0.001 A 
ATOM     73  C   UNL     1       5.968  -6.020   9.696  1.00  0.00     0.000 A 
ENDBRANCH  54  68
BRANCH  55  74
ATOM     74  C   UNL     1       7.243 -12.570  -1.229  1.00  0.00    -0.014 A 
ATOM     75  C   UNL     1       8.287 -12.305  -2.132  1.00  0.00     0.009 A 
ATOM     76  C   UNL     1       6.243 -13.481  -1.600  1.00  0.00     0.009 A 
ATOM     77  C   UNL     1       8.306 -12.903  -3.393  1.00  0.00     0.001 A 
ATOM     78  C   UNL     1       6.284 -14.106  -2.849  1.00  0.00     0.001 A 
ATOM     79  C   UNL     1       7.306 -13.805  -3.749  1.00  0.00     0.000 A 
ENDBRANCH  55  74
BRANCH  67  80
ATOM     80  C   UNL     1       7.616 -14.274   5.552  1.00  0.00    -0.014 A 
ATOM     81  C   UNL     1       6.623 -14.858   6.356  1.00  0.00     0.009 A 
ATOM     82  C   UNL     1       8.885 -14.874   5.506  1.00  0.00     0.009 A 
ATOM     83  C   UNL     1       6.897 -16.002   7.108  1.00  0.00     0.001 A 
ATOM     84  C   UNL     1       9.146 -16.040   6.229  1.00  0.00     0.001 A 
ATOM     85  C   UNL     1       8.156 -16.596   7.038  1.00  0.00     0.000 A 
ENDBRANCH  67  80
ENDBRANCH  41  42
ENDBRANCH  34  36
ENDBRANCH  33  34
ENDBRANCH  32  33
ENDBRANCH  31  32
ENDBRANCH  30  31
ENDBRANCH   1  30
TORSDOF 17
