REMARK SMILES CC[C@](O)(c1ccc(OC)cc1)[C@@H](F)C(=O)OCCOCCOC(=O)c1ccc(-c2c3nc(c(-c4ccccc4)c4ccc([nH]4)c(-c4ccccc4)c4nc(c(-c5ccccc5)c5ccc2[nH]5)C=C4)C=C3)cc1
REMARK SMILES IDX 19 1 18 2 17 3 15 4 16 5 13 6 14 7 3 8 2 9 1 10 5 11 6 12
REMARK SMILES IDX 12 13 7 14 11 15 8 16 9 17 10 18 4 19 20 21 21 22 22 23
REMARK SMILES IDX 23 24 24 25 25 26 26 27 27 28 73 29 28 30 72 31 29 32 30 33
REMARK SMILES IDX 31 34 66 35 32 36 71 37 65 38 67 39 33 40 70 41 64 42 63 43
REMARK SMILES IDX 34 45 56 46 41 47 55 48 42 49 45 50 54 51 68 52 43 53 44 54
REMARK SMILES IDX 53 56 69 57 46 58 35 59 36 60 40 61 37 62 39 63 38 64 57 65
REMARK SMILES IDX 58 66 62 67 59 68 61 69 60 70 47 71 48 72 52 73 49 74 51 75
REMARK SMILES IDX 50 76
REMARK H PARENT 4 20 67 44 45 55
REMARK Flexibility Score: inf
ROOT
ATOM      1  C   UNL     1       3.587  -1.652   1.803  1.00  0.00     0.202 C 
ENDROOT
BRANCH   1   2
ATOM      2  C   UNL     1       3.734  -0.499   0.803  1.00  0.00     0.261 C 
BRANCH   2   3
ATOM      3  O   UNL     1       2.824  -0.564  -0.313  1.00  0.00    -0.461 OA
BRANCH   3   4
ATOM      4  C   UNL     1       3.405  -0.628  -1.541  1.00  0.00     0.344 C 
ATOM      5  O   UNL     1       4.618  -0.754  -1.708  1.00  0.00    -0.249 OA
BRANCH   4   6
ATOM      6  C   UNL     1       2.455  -0.565  -2.736  1.00  0.00     0.311 C 
ATOM      7  F   UNL     1       2.904   0.417  -3.589  1.00  0.00    -0.231 F 
BRANCH   6   8
ATOM      8  C   UNL     1       0.927  -0.363  -2.518  1.00  0.00     0.131 C 
BRANCH   8   9
ATOM      9  C   UNL     1       0.282  -1.562  -1.764  1.00  0.00     0.040 C 
ATOM     10  C   UNL     1      -1.071  -1.279  -1.118  1.00  0.00     0.007 C 
ENDBRANCH   8   9
BRANCH   8  11
ATOM     11  C   UNL     1       0.286  -0.160  -3.916  1.00  0.00    -0.013 A 
ATOM     12  C   UNL     1       0.072   1.132  -4.428  1.00  0.00     0.010 A 
ATOM     13  C   UNL     1       0.022  -1.241  -4.779  1.00  0.00     0.010 A 
ATOM     14  C   UNL     1      -0.424   1.328  -5.722  1.00  0.00     0.047 A 
ATOM     15  C   UNL     1      -0.475  -1.042  -6.077  1.00  0.00     0.047 A 
ATOM     16  C   UNL     1      -0.708   0.245  -6.552  1.00  0.00     0.118 A 
BRANCH  16  17
ATOM     17  O   UNL     1      -1.177   0.576  -7.792  1.00  0.00    -0.497 OA
ATOM     18  C   UNL     1      -1.563  -0.496  -8.643  1.00  0.00     0.278 C 
ENDBRANCH  16  17
ENDBRANCH   8  11
BRANCH   8  19
ATOM     19  O   UNL     1       0.708   0.810  -1.716  1.00  0.00    -0.381 OA
ATOM     20  H   UNL     1       1.099   1.581  -2.157  1.00  0.00     0.212 HD
ENDBRANCH   8  19
ENDBRANCH   6   8
ENDBRANCH   4   6
ENDBRANCH   3   4
ENDBRANCH   2   3
ENDBRANCH   1   2
BRANCH   1  21
ATOM     21  O   UNL     1       3.780  -2.972   1.301  1.00  0.00    -0.374 OA
BRANCH  21  22
ATOM     22  C   UNL     1       2.745  -3.527   0.490  1.00  0.00     0.202 C 
BRANCH  22  23
ATOM     23  C   UNL     1       1.412  -3.800   1.201  1.00  0.00     0.261 C 
BRANCH  23  24
ATOM     24  O   UNL     1       0.787  -2.588   1.666  1.00  0.00    -0.460 OA
BRANCH  24  25
ATOM     25  C   UNL     1       0.124  -2.732   2.834  1.00  0.00     0.338 C 
ATOM     26  O   UNL     1      -0.170  -3.787   3.390  1.00  0.00    -0.246 OA
BRANCH  25  27
ATOM     27  C   UNL     1      -0.068  -1.429   3.492  1.00  0.00     0.060 A 
ATOM     28  C   UNL     1       0.669  -1.180   4.655  1.00  0.00     0.016 A 
ATOM     29  C   UNL     1      -1.056  -0.535   3.075  1.00  0.00     0.016 A 
ATOM     30  C   UNL     1       0.369  -0.070   5.443  1.00  0.00     0.010 A 
ATOM     31  C   UNL     1      -1.350   0.586   3.866  1.00  0.00     0.010 A 
ATOM     32  C   UNL     1      -0.674   0.796   5.081  1.00  0.00    -0.014 A 
BRANCH  32  33
ATOM     33  C   UNL     1      -1.118   1.816   6.068  1.00  0.00     0.031 A 
ATOM     34  C   UNL     1      -2.314   1.537   6.941  1.00  0.00     0.074 A 
ATOM     35  C   UNL     1      -0.401   2.937   6.268  1.00  0.00     0.049 A 
ATOM     36  N   UNL     1      -2.740   2.189   7.996  1.00  0.00    -0.248 NA
ATOM     37  C   UNL     1      -3.135   0.369   6.586  1.00  0.00     0.031 C 
ATOM     38  C   UNL     1       0.776   3.336   5.500  1.00  0.00     0.029 A 
ATOM     39  N   UNL     1      -0.547   3.931   7.205  1.00  0.00    -0.354 N 
ATOM     40  C   UNL     1      -3.864   1.502   8.437  1.00  0.00     0.074 A 
ATOM     41  C   UNL     1      -4.083   0.412   7.511  1.00  0.00     0.031 C 
ATOM     42  C   UNL     1       1.264   4.479   6.014  1.00  0.00     0.029 A 
ATOM     43  C   UNL     1       0.434   4.890   7.145  1.00  0.00     0.049 A 
ATOM     44  H   UNL     1      -1.285   3.954   7.856  1.00  0.00     0.167 HD
ATOM     45  C   UNL     1      -4.638   1.742   9.523  1.00  0.00     0.031 A 
ATOM     46  C   UNL     1       0.656   5.964   7.926  1.00  0.00     0.031 A 
ATOM     47  C   UNL     1      -4.442   2.829  10.444  1.00  0.00     0.049 A 
ATOM     48  C   UNL     1      -0.230   6.224   9.114  1.00  0.00     0.074 A 
ATOM     49  C   UNL     1      -5.162   3.133  11.587  1.00  0.00     0.029 A 
ATOM     50  N   UNL     1      -3.460   3.798  10.322  1.00  0.00    -0.354 N 
ATOM     51  N   UNL     1      -1.244   5.523   9.559  1.00  0.00    -0.248 NA
ATOM     52  C   UNL     1       0.081   7.413   9.923  1.00  0.00     0.031 C 
ATOM     53  C   UNL     1      -4.642   4.312  12.133  1.00  0.00     0.029 A 
ATOM     54  C   UNL     1      -3.569   4.714  11.355  1.00  0.00     0.049 A 
ATOM     55  H   UNL     1      -2.785   3.830   9.606  1.00  0.00     0.167 HD
ATOM     56  C   UNL     1      -1.676   6.171  10.711  1.00  0.00     0.074 A 
ATOM     57  C   UNL     1      -0.803   7.310  10.905  1.00  0.00     0.031 C 
ATOM     58  C   UNL     1      -2.703   5.849  11.535  1.00  0.00     0.031 A 
BRANCH  45  59
ATOM     59  C   UNL     1      -5.787   0.805   9.768  1.00  0.00    -0.014 A 
ATOM     60  C   UNL     1      -5.570  -0.496  10.248  1.00  0.00     0.009 A 
ATOM     61  C   UNL     1      -7.103   1.239   9.549  1.00  0.00     0.009 A 
ATOM     62  C   UNL     1      -6.648  -1.354  10.476  1.00  0.00     0.001 A 
ATOM     63  C   UNL     1      -8.180   0.387   9.799  1.00  0.00     0.001 A 
ATOM     64  C   UNL     1      -7.952  -0.911  10.254  1.00  0.00     0.000 A 
ENDBRANCH  45  59
BRANCH  46  65
ATOM     65  C   UNL     1       1.796   6.870   7.631  1.00  0.00    -0.014 A 
ATOM     66  C   UNL     1       2.932   6.884   8.455  1.00  0.00     0.009 A 
ATOM     67  C   UNL     1       1.744   7.736   6.529  1.00  0.00     0.009 A 
ATOM     68  C   UNL     1       3.983   7.765   8.193  1.00  0.00     0.001 A 
ATOM     69  C   UNL     1       2.807   8.598   6.256  1.00  0.00     0.001 A 
ATOM     70  C   UNL     1       3.922   8.618   7.092  1.00  0.00     0.000 A 
ENDBRANCH  46  65
BRANCH  58  71
ATOM     71  C   UNL     1      -2.924   6.730  12.732  1.00  0.00    -0.014 A 
ATOM     72  C   UNL     1      -3.462   8.019  12.597  1.00  0.00     0.009 A 
ATOM     73  C   UNL     1      -2.608   6.255  14.015  1.00  0.00     0.009 A 
ATOM     74  C   UNL     1      -3.641   8.831  13.720  1.00  0.00     0.001 A 
ATOM     75  C   UNL     1      -2.812   7.059  15.137  1.00  0.00     0.001 A 
ATOM     76  C   UNL     1      -3.318   8.350  14.988  1.00  0.00     0.000 A 
ENDBRANCH  58  71
ENDBRANCH  32  33
ENDBRANCH  25  27
ENDBRANCH  24  25
ENDBRANCH  23  24
ENDBRANCH  22  23
ENDBRANCH  21  22
ENDBRANCH   1  21
TORSDOF 19
