REMARK SMILES O=C(CCc1cccnc1)Nc1ccsc1C(=O)OCCOCCOC(=O)c1ccc(-c2c3nc(c(-c4ccccc4)c4ccc([nH]4)c(-c4ccccc4)c4nc(c(-c5ccccc5)c5ccc2[nH]5)C=C4)C=C3)cc1
REMARK SMILES IDX 21 1 20 2 19 3 17 4 18 5 16 6 12 7 13 8 14 9 15 10 11 11
REMARK SMILES IDX 1 12 2 13 3 15 4 16 5 17 6 18 10 19 7 20 9 21 8 22 22 23
REMARK SMILES IDX 23 24 24 25 25 26 26 27 27 28 28 29 29 30 75 31 30 32 74 33
REMARK SMILES IDX 31 34 32 35 33 36 68 37 34 38 73 39 67 40 69 41 35 42 72 43
REMARK SMILES IDX 66 44 65 45 36 47 58 48 43 49 57 50 44 51 47 52 56 53 70 54
REMARK SMILES IDX 45 55 46 56 55 58 71 59 48 60 37 61 38 62 42 63 39 64 41 65
REMARK SMILES IDX 40 66 59 67 60 68 64 69 61 70 63 71 62 72 49 73 50 74 54 75
REMARK SMILES IDX 51 76 53 77 52 78
REMARK H PARENT 11 14 69 46 47 57
REMARK Flexibility Score: inf
ROOT
ATOM      1  C   UNL     1       5.280  -1.367   4.857  1.00  0.00     0.202 C 
ENDROOT
BRANCH   1   2
ATOM      2  C   UNL     1       5.594  -2.322   3.703  1.00  0.00     0.261 C 
BRANCH   2   3
ATOM      3  O   UNL     1       4.526  -2.338   2.735  1.00  0.00    -0.459 OA
BRANCH   3   4
ATOM      4  C   UNL     1       4.097  -3.591   2.388  1.00  0.00     0.350 C 
ATOM      5  O   UNL     1       4.710  -4.618   2.661  1.00  0.00    -0.245 OA
BRANCH   4   6
ATOM      6  C   UNL     1       2.785  -3.530   1.765  1.00  0.00     0.136 A 
ATOM      7  C   UNL     1       2.130  -2.535   1.044  1.00  0.00     0.066 A 
ATOM      8  C   UNL     1       0.811  -2.957   0.671  1.00  0.00     0.039 A 
ATOM      9  C   UNL     1       0.506  -4.227   1.097  1.00  0.00     0.068 A 
ATOM     10  S   UNL     1       1.796  -4.932   1.945  1.00  0.00    -0.135 S 
BRANCH   7  11
ATOM     11  N   UNL     1       2.729  -1.324   0.689  1.00  0.00    -0.325 N 
ATOM     12  O   UNL     1       0.907  -0.236  -0.251  1.00  0.00    -0.275 OA
ATOM     13  C   UNL     1       2.116  -0.320  -0.037  1.00  0.00     0.224 C 
ATOM     14  H   UNL     1       3.658  -1.173   0.978  1.00  0.00     0.169 HD
BRANCH  13  15
ATOM     15  C   UNL     1       3.046   0.681  -0.710  1.00  0.00     0.105 C 
BRANCH  15  16
ATOM     16  C   UNL     1       4.255   1.140   0.093  1.00  0.00     0.047 C 
BRANCH  16  17
ATOM     17  C   UNL     1       5.465   0.244   0.152  1.00  0.00    -0.029 A 
ATOM     18  C   UNL     1       6.441   0.500   1.121  1.00  0.00     0.007 A 
ATOM     19  C   UNL     1       5.711  -0.818  -0.711  1.00  0.00     0.114 A 
ATOM     20  C   UNL     1       7.588  -0.279   1.196  1.00  0.00     0.020 A 
ATOM     21  N   UNL     1       6.795  -1.621  -0.633  1.00  0.00    -0.264 NA
ATOM     22  C   UNL     1       7.713  -1.331   0.311  1.00  0.00     0.111 A 
ENDBRANCH  16  17
ENDBRANCH  15  16
ENDBRANCH  13  15
ENDBRANCH   7  11
ENDBRANCH   4   6
ENDBRANCH   3   4
ENDBRANCH   2   3
ENDBRANCH   1   2
BRANCH   1  23
ATOM     23  O   UNL     1       4.190  -1.760   5.690  1.00  0.00    -0.374 OA
BRANCH  23  24
ATOM     24  C   UNL     1       2.872  -1.558   5.185  1.00  0.00     0.202 C 
BRANCH  24  25
ATOM     25  C   UNL     1       2.329  -0.127   5.278  1.00  0.00     0.261 C 
BRANCH  25  26
ATOM     26  O   UNL     1       3.045   0.806   4.446  1.00  0.00    -0.460 OA
BRANCH  26  27
ATOM     27  C   UNL     1       3.833   1.686   5.114  1.00  0.00     0.338 C 
ATOM     28  O   UNL     1       4.028   1.745   6.315  1.00  0.00    -0.246 OA
BRANCH  27  29
ATOM     29  C   UNL     1       4.556   2.539   4.149  1.00  0.00     0.060 A 
ATOM     30  C   UNL     1       5.930   2.750   4.337  1.00  0.00     0.016 A 
ATOM     31  C   UNL     1       3.879   3.183   3.112  1.00  0.00     0.016 A 
ATOM     32  C   UNL     1       6.628   3.623   3.497  1.00  0.00     0.010 A 
ATOM     33  C   UNL     1       4.578   4.054   2.272  1.00  0.00     0.010 A 
ATOM     34  C   UNL     1       5.949   4.298   2.474  1.00  0.00    -0.014 A 
BRANCH  34  35
ATOM     35  C   UNL     1       6.588   5.412   1.732  1.00  0.00     0.031 A 
ATOM     36  C   UNL     1       6.320   6.814   2.198  1.00  0.00     0.074 A 
ATOM     37  C   UNL     1       7.334   5.202   0.633  1.00  0.00     0.049 A 
ATOM     38  N   UNL     1       6.656   7.950   1.646  1.00  0.00    -0.248 NA
ATOM     39  C   UNL     1       5.565   6.947   3.454  1.00  0.00     0.031 C 
ATOM     40  C   UNL     1       7.718   3.899   0.102  1.00  0.00     0.029 A 
ATOM     41  N   UNL     1       7.884   6.098  -0.249  1.00  0.00    -0.354 N 
ATOM     42  C   UNL     1       6.147   8.934   2.483  1.00  0.00     0.074 A 
ATOM     43  C   UNL     1       5.452   8.261   3.559  1.00  0.00     0.031 C 
ATOM     44  C   UNL     1       8.418   4.074  -1.032  1.00  0.00     0.029 A 
ATOM     45  C   UNL     1       8.509   5.503  -1.319  1.00  0.00     0.049 A 
ATOM     46  H   UNL     1       7.836   7.074  -0.128  1.00  0.00     0.167 HD
ATOM     47  C   UNL     1       6.252  10.279   2.373  1.00  0.00     0.031 A 
ATOM     48  C   UNL     1       9.072   6.048  -2.414  1.00  0.00     0.031 A 
ATOM     49  C   UNL     1       6.912  10.952   1.290  1.00  0.00     0.049 A 
ATOM     50  C   UNL     1       9.081   7.543  -2.577  1.00  0.00     0.074 A 
ATOM     51  C   UNL     1       7.080  12.311   1.092  1.00  0.00     0.029 A 
ATOM     52  N   UNL     1       7.502  10.312   0.212  1.00  0.00    -0.354 N 
ATOM     53  N   UNL     1       8.623   8.464  -1.764  1.00  0.00    -0.248 NA
ATOM     54  C   UNL     1       9.694   8.074  -3.804  1.00  0.00     0.031 C 
ATOM     55  C   UNL     1       7.732  12.494  -0.132  1.00  0.00     0.029 A 
ATOM     56  C   UNL     1       8.014  11.248  -0.669  1.00  0.00     0.049 A 
ATOM     57  H   UNL     1       7.550   9.336   0.090  1.00  0.00     0.167 HD
ATOM     58  C   UNL     1       8.933   9.682  -2.357  1.00  0.00     0.074 A 
ATOM     59  C   UNL     1       9.607   9.383  -3.604  1.00  0.00     0.031 C 
ATOM     60  C   UNL     1       8.695  10.935  -1.899  1.00  0.00     0.031 A 
BRANCH  47  61
ATOM     61  C   UNL     1       5.591  11.094   3.446  1.00  0.00    -0.014 A 
ATOM     62  C   UNL     1       6.112  11.137   4.750  1.00  0.00     0.009 A 
ATOM     63  C   UNL     1       4.416  11.803   3.157  1.00  0.00     0.009 A 
ATOM     64  C   UNL     1       5.439  11.832   5.755  1.00  0.00     0.001 A 
ATOM     65  C   UNL     1       3.761  12.521   4.159  1.00  0.00     0.001 A 
ATOM     66  C   UNL     1       4.265  12.523   5.459  1.00  0.00     0.000 A 
ENDBRANCH  47  61
BRANCH  48  67
ATOM     67  C   UNL     1       9.688   5.173  -3.445  1.00  0.00    -0.014 A 
ATOM     68  C   UNL     1      11.084   5.103  -3.568  1.00  0.00     0.009 A 
ATOM     69  C   UNL     1       8.889   4.407  -4.308  1.00  0.00     0.009 A 
ATOM     70  C   UNL     1      11.667   4.293  -4.546  1.00  0.00     0.001 A 
ATOM     71  C   UNL     1       9.476   3.583  -5.270  1.00  0.00     0.001 A 
ATOM     72  C   UNL     1      10.864   3.531  -5.392  1.00  0.00     0.000 A 
ENDBRANCH  48  67
BRANCH  60  73
ATOM     73  C   UNL     1       9.221  12.084  -2.710  1.00  0.00    -0.014 A 
ATOM     74  C   UNL     1       8.589  12.496  -3.892  1.00  0.00     0.009 A 
ATOM     75  C   UNL     1      10.326  12.809  -2.237  1.00  0.00     0.009 A 
ATOM     76  C   UNL     1       9.066  13.606  -4.593  1.00  0.00     0.001 A 
ATOM     77  C   UNL     1      10.785  13.931  -2.927  1.00  0.00     0.001 A 
ATOM     78  C   UNL     1      10.158  14.326  -4.107  1.00  0.00     0.000 A 
ENDBRANCH  60  73
ENDBRANCH  34  35
ENDBRANCH  27  29
ENDBRANCH  26  27
ENDBRANCH  25  26
ENDBRANCH  24  25
ENDBRANCH  23  24
ENDBRANCH   1  23
TORSDOF 18
