REMARK SMILES O=C(OCCOCCOC(=O)c1ccc(-c2c3nc(c(-c4ccccc4)c4ccc([nH]4)c(-c4ccccc4)c4nc(c(-c5ccccc5)c5ccc2[nH]5)C=C4)C=C3)cc1)C1=Cc2ccc(Cl)c(Cl)c2O[C@@H]1C(F)(F)F
REMARK SMILES IDX 7 1 6 2 5 3 4 4 3 5 2 6 1 7 60 8 61 9 71 10 62 11 70 12
REMARK SMILES IDX 63 13 69 14 64 15 67 16 65 17 68 18 66 19 72 20 73 21 74 22
REMARK SMILES IDX 75 23 8 24 9 25 10 26 11 27 12 28 13 29 59 30 14 31 58 32
REMARK SMILES IDX 15 33 16 34 17 35 52 36 18 37 57 38 51 39 53 40 19 41 56 42
REMARK SMILES IDX 50 43 49 44 20 46 42 47 27 48 41 49 28 50 31 51 40 52 54 53
REMARK SMILES IDX 29 54 30 55 39 57 55 58 32 59 21 60 22 61 26 62 23 63 25 64
REMARK SMILES IDX 24 65 43 66 44 67 48 68 45 69 47 70 46 71 33 72 34 73 38 74
REMARK SMILES IDX 35 75 37 76 36 77
REMARK H PARENT 53 45 31 56
REMARK Flexibility Score: inf
ROOT
ATOM      1  C   UNL     1       2.908  -1.067   2.908  1.00  0.00     0.202 C 
ENDROOT
BRANCH   1   2
ATOM      2  O   UNL     1       4.122  -0.969   2.143  1.00  0.00    -0.374 OA
BRANCH   2   3
ATOM      3  C   UNL     1       4.327  -1.120   0.571  1.00  0.00     0.202 C 
BRANCH   3   4
ATOM      4  C   UNL     1       3.540   0.074  -1.055  1.00  0.00     0.261 C 
BRANCH   4   5
ATOM      5  O   UNL     1       2.663  -0.434  -2.229  1.00  0.00    -0.460 OA
BRANCH   5   6
ATOM      6  C   UNL     1       2.813  -1.738  -2.470  1.00  0.00     0.338 C 
ATOM      7  O   UNL     1       2.254  -2.461  -3.252  1.00  0.00    -0.246 OA
BRANCH   6   8
ATOM      8  C   UNL     1       3.617  -1.996  -1.304  1.00  0.00     0.087 C 
ATOM      9  C   UNL     1       5.019  -1.530  -1.538  1.00  0.00     0.027 C 
ATOM     10  C   UNL     1       2.407  -1.230   0.010  1.00  0.00     0.316 C 
ATOM     11  C   UNL     1       5.729  -0.043  -0.752  1.00  0.00     0.019 A 
ATOM     12  O   UNL     1       3.120   0.362   0.802  1.00  0.00    -0.474 OA
ATOM     13  C   UNL     1       6.935   0.424  -1.200  1.00  0.00     0.013 A 
ATOM     14  C   UNL     1       4.798   0.925   0.349  1.00  0.00     0.148 A 
ATOM     15  C   UNL     1       7.258   1.717  -0.769  1.00  0.00     0.023 A 
ATOM     16  C   UNL     1       5.131   2.238   0.576  1.00  0.00     0.102 A 
ATOM     17  C   UNL     1       6.393   2.590   0.018  1.00  0.00     0.063 A 
ATOM     18  Cl  UNL     1       3.980   3.378   1.120  1.00  0.00    -0.079 Cl
ATOM     19  Cl  UNL     1       7.015   4.208   0.126  1.00  0.00    -0.083 Cl
BRANCH  10  20
ATOM     20  C   UNL     1       1.830  -2.511   0.719  1.00  0.00     0.430 C 
ATOM     21  F   UNL     1       0.890  -2.261   1.649  1.00  0.00    -0.167 F 
ATOM     22  F   UNL     1       1.215  -3.267  -0.236  1.00  0.00    -0.167 F 
ATOM     23  F   UNL     1       2.763  -3.325   1.258  1.00  0.00    -0.167 F 
ENDBRANCH  10  20
ENDBRANCH   6   8
ENDBRANCH   5   6
ENDBRANCH   4   5
ENDBRANCH   3   4
ENDBRANCH   2   3
ENDBRANCH   1   2
BRANCH   1  24
ATOM     24  C   UNL     1       3.011  -0.365   4.261  1.00  0.00     0.261 C 
BRANCH  24  25
ATOM     25  O   UNL     1       3.513   0.959   4.110  1.00  0.00    -0.460 OA
BRANCH  25  26
ATOM     26  C   UNL     1       4.856   1.062   4.231  1.00  0.00     0.338 C 
ATOM     27  O   UNL     1       5.665   0.167   4.406  1.00  0.00    -0.246 OA
BRANCH  26  28
ATOM     28  C   UNL     1       5.225   2.483   4.122  1.00  0.00     0.060 A 
ATOM     29  C   UNL     1       6.515   2.799   3.683  1.00  0.00     0.016 A 
ATOM     30  C   UNL     1       4.307   3.494   4.442  1.00  0.00     0.016 A 
ATOM     31  C   UNL     1       6.885   4.134   3.556  1.00  0.00     0.010 A 
ATOM     32  C   UNL     1       4.671   4.826   4.301  1.00  0.00     0.010 A 
ATOM     33  C   UNL     1       5.966   5.145   3.873  1.00  0.00    -0.014 A 
BRANCH  33  34
ATOM     34  C   UNL     1       6.436   6.535   3.991  1.00  0.00     0.031 A 
ATOM     35  C   UNL     1       6.951   6.964   5.327  1.00  0.00     0.074 A 
ATOM     36  C   UNL     1       6.408   7.376   2.947  1.00  0.00     0.049 A 
ATOM     37  N   UNL     1       7.471   8.106   5.684  1.00  0.00    -0.248 NA
ATOM     38  C   UNL     1       6.853   5.971   6.412  1.00  0.00     0.031 C 
ATOM     39  C   UNL     1       5.906   7.053   1.617  1.00  0.00     0.029 A 
ATOM     40  N   UNL     1       6.826   8.676   2.841  1.00  0.00    -0.354 N 
ATOM     41  C   UNL     1       7.768   7.966   7.031  1.00  0.00     0.074 A 
ATOM     42  C   UNL     1       7.331   6.651   7.439  1.00  0.00     0.031 C 
ATOM     43  C   UNL     1       6.102   8.105   0.804  1.00  0.00     0.029 A 
ATOM     44  C   UNL     1       6.674   9.199   1.580  1.00  0.00     0.049 A 
ATOM     45  H   UNL     1       7.200   9.186   3.595  1.00  0.00     0.167 HD
ATOM     46  C   UNL     1       8.358   8.860   7.855  1.00  0.00     0.031 A 
ATOM     47  C   UNL     1       6.954  10.433   1.121  1.00  0.00     0.031 A 
ATOM     48  C   UNL     1       8.721  10.188   7.449  1.00  0.00     0.049 A 
ATOM     49  C   UNL     1       7.527  11.440   2.082  1.00  0.00     0.074 A 
ATOM     50  C   UNL     1       9.309  11.188   8.198  1.00  0.00     0.029 A 
ATOM     51  N   UNL     1       8.501  10.706   6.180  1.00  0.00    -0.354 N 
ATOM     52  N   UNL     1       7.857  11.287   3.343  1.00  0.00    -0.248 NA
ATOM     53  C   UNL     1       7.766  12.790   1.556  1.00  0.00     0.031 C 
ATOM     54  C   UNL     1       9.381  12.335   7.402  1.00  0.00     0.029 A 
ATOM     55  C   UNL     1       8.912  12.026   6.133  1.00  0.00     0.049 A 
ATOM     56  H   UNL     1       8.109  10.209   5.426  1.00  0.00     0.167 HD
ATOM     57  C   UNL     1       8.372  12.510   3.753  1.00  0.00     0.074 A 
ATOM     58  C   UNL     1       8.323  13.388   2.600  1.00  0.00     0.031 C 
ATOM     59  C   UNL     1       8.848  12.875   4.969  1.00  0.00     0.031 A 
BRANCH  46  60
ATOM     60  C   UNL     1       8.569   8.425   9.276  1.00  0.00    -0.014 A 
ATOM     61  C   UNL     1       9.478   7.403   9.600  1.00  0.00     0.009 A 
ATOM     62  C   UNL     1       7.812   9.011  10.300  1.00  0.00     0.009 A 
ATOM     63  C   UNL     1       9.584   6.942  10.913  1.00  0.00     0.001 A 
ATOM     64  C   UNL     1       7.946   8.571  11.617  1.00  0.00     0.001 A 
ATOM     65  C   UNL     1       8.820   7.528  11.921  1.00  0.00     0.000 A 
ENDBRANCH  46  60
BRANCH  47  66
ATOM     66  C   UNL     1       6.689  10.788  -0.299  1.00  0.00    -0.014 A 
ATOM     67  C   UNL     1       7.747  11.073  -1.175  1.00  0.00     0.009 A 
ATOM     68  C   UNL     1       5.373  10.859  -0.785  1.00  0.00     0.009 A 
ATOM     69  C   UNL     1       7.493  11.450  -2.497  1.00  0.00     0.001 A 
ATOM     70  C   UNL     1       5.123  11.205  -2.115  1.00  0.00     0.001 A 
ATOM     71  C   UNL     1       6.182  11.511  -2.967  1.00  0.00     0.000 A 
ENDBRANCH  47  66
BRANCH  59  72
ATOM     72  C   UNL     1       9.398  14.268   5.102  1.00  0.00    -0.014 A 
ATOM     73  C   UNL     1       8.563  15.396   5.078  1.00  0.00     0.009 A 
ATOM     74  C   UNL     1      10.775  14.445   5.310  1.00  0.00     0.009 A 
ATOM     75  C   UNL     1       9.103  16.675   5.225  1.00  0.00     0.001 A 
ATOM     76  C   UNL     1      11.307  15.720   5.495  1.00  0.00     0.001 A 
ATOM     77  C   UNL     1      10.472  16.835   5.441  1.00  0.00     0.000 A 
ENDBRANCH  59  72
ENDBRANCH  33  34
ENDBRANCH  26  28
ENDBRANCH  25  26
ENDBRANCH  24  25
ENDBRANCH   1  24
TORSDOF 15
