REMARK SMILES CCC(CC)(CC)NC(=O)NC[C@@H]1CC[C@H](C(=O)OCCOCCOC(=O)c2ccc(-c3c4nc(c(-c5ccccc5)c5ccc([nH]5)c(-c5ccccc5)c5nc(c(-c6ccccc6)c6ccc3[nH]6)C=C5)C=C4)cc2)O1
REMARK SMILES IDX 21 1 20 2 19 3 17 4 18 5 16 6 13 7 14 8 76 9 15 10 12 11
REMARK SMILES IDX 11 12 8 13 9 14 10 16 3 18 2 19 1 20 4 21 5 22 6 23 7 24
REMARK SMILES IDX 22 25 23 26 24 27 25 28 26 29 27 30 28 31 29 32 75 33 30 34
REMARK SMILES IDX 74 35 31 36 32 37 33 38 68 39 34 40 73 41 67 42 69 43 35 44
REMARK SMILES IDX 72 45 66 46 65 47 36 49 58 50 43 51 57 52 44 53 47 54 56 55
REMARK SMILES IDX 70 56 45 57 46 58 55 60 71 61 48 62 37 63 38 64 42 65 39 66
REMARK SMILES IDX 41 67 40 68 59 69 60 70 64 71 61 72 63 73 62 74 49 75 50 76
REMARK SMILES IDX 54 77 51 78 53 79 52 80
REMARK H PARENT 8 15 11 17 69 48 47 59
REMARK Flexibility Score: inf
ROOT
ATOM      1  C   UNL     1       5.651  -0.234  -2.881  1.00  0.00     0.202 C 
ENDROOT
BRANCH   1   2
ATOM      2  C   UNL     1       4.605   0.154  -1.832  1.00  0.00     0.261 C 
BRANCH   2   3
ATOM      3  O   UNL     1       3.436  -0.687  -1.864  1.00  0.00    -0.461 OA
BRANCH   3   4
ATOM      4  C   UNL     1       2.284  -0.081  -2.275  1.00  0.00     0.335 C 
ATOM      5  O   UNL     1       2.207   1.080  -2.663  1.00  0.00    -0.249 OA
BRANCH   4   6
ATOM      6  C   UNL     1       1.069  -1.028  -2.245  1.00  0.00     0.228 C 
ATOM      7  C   UNL     1       0.696  -2.151  -0.228  1.00  0.00     0.138 C 
ATOM      8  C   UNL     1       1.577  -3.041  -1.100  1.00  0.00     0.037 C 
ATOM      9  O   UNL     1       0.356  -1.002  -1.010  1.00  0.00    -0.361 OA
ATOM     10  C   UNL     1       1.368  -2.492  -2.494  1.00  0.00     0.047 C 
BRANCH   7  11
ATOM     11  C   UNL     1       1.308  -1.739   1.127  1.00  0.00     0.149 C 
BRANCH  11  12
ATOM     12  N   UNL     1       2.454  -0.853   1.025  1.00  0.00    -0.336 N 
ATOM     13  N   UNL     1       2.068   1.307   1.990  1.00  0.00    -0.333 N 
ATOM     14  C   UNL     1       2.819   0.331   1.500  1.00  0.00     0.315 C 
ATOM     15  H   UNL     1       2.670   2.005   2.336  1.00  0.00     0.165 HD
ATOM     16  O   UNL     1       4.035   0.565   1.461  1.00  0.00    -0.249 OA
ATOM     17  H   UNL     1       3.152  -1.236   0.445  1.00  0.00     0.165 HD
BRANCH  13  18
ATOM     18  C   UNL     1       0.663   1.759   2.223  1.00  0.00     0.041 C 
BRANCH  18  19
ATOM     19  C   UNL     1      -0.362   1.267   1.175  1.00  0.00     0.025 C 
ATOM     20  C   UNL     1      -0.061   1.726  -0.247  1.00  0.00     0.006 C 
ENDBRANCH  18  19
BRANCH  18  21
ATOM     21  C   UNL     1       0.723   3.340   2.129  1.00  0.00     0.025 C 
ATOM     22  C   UNL     1      -0.616   4.076   2.142  1.00  0.00     0.006 C 
ENDBRANCH  18  21
BRANCH  18  23
ATOM     23  C   UNL     1       0.216   1.428   3.682  1.00  0.00     0.025 C 
ATOM     24  C   UNL     1       0.643   0.092   4.268  1.00  0.00     0.006 C 
ENDBRANCH  18  23
ENDBRANCH  13  18
ENDBRANCH  11  12
ENDBRANCH   7  11
ENDBRANCH   4   6
ENDBRANCH   3   4
ENDBRANCH   2   3
ENDBRANCH   1   2
BRANCH   1  25
ATOM     25  O   UNL     1       5.299  -0.061  -4.251  1.00  0.00    -0.374 OA
BRANCH  25  26
ATOM     26  C   UNL     1       4.292  -0.903  -4.805  1.00  0.00     0.202 C 
BRANCH  26  27
ATOM     27  C   UNL     1       4.633  -2.391  -4.936  1.00  0.00     0.261 C 
BRANCH  27  28
ATOM     28  O   UNL     1       4.877  -3.017  -3.661  1.00  0.00    -0.460 OA
BRANCH  28  29
ATOM     29  C   UNL     1       6.012  -3.756  -3.623  1.00  0.00     0.338 C 
ATOM     30  O   UNL     1       6.743  -4.037  -4.557  1.00  0.00    -0.246 OA
BRANCH  29  31
ATOM     31  C   UNL     1       6.376  -4.099  -2.237  1.00  0.00     0.060 A 
ATOM     32  C   UNL     1       7.579  -3.579  -1.746  1.00  0.00     0.016 A 
ATOM     33  C   UNL     1       5.663  -5.052  -1.506  1.00  0.00     0.016 A 
ATOM     34  C   UNL     1       8.112  -4.066  -0.555  1.00  0.00     0.010 A 
ATOM     35  C   UNL     1       6.202  -5.539  -0.306  1.00  0.00     0.010 A 
ATOM     36  C   UNL     1       7.453  -5.085   0.149  1.00  0.00    -0.014 A 
BRANCH  36  37
ATOM     37  C   UNL     1       8.169  -5.752   1.268  1.00  0.00     0.031 A 
ATOM     38  C   UNL     1       8.856  -7.073   1.029  1.00  0.00     0.074 A 
ATOM     39  C   UNL     1       8.298  -5.141   2.460  1.00  0.00     0.049 A 
ATOM     40  N   UNL     1       9.615  -7.770   1.839  1.00  0.00    -0.248 NA
ATOM     41  C   UNL     1       8.673  -7.685  -0.297  1.00  0.00     0.031 C 
ATOM     42  C   UNL     1       7.719  -3.846   2.814  1.00  0.00     0.029 A 
ATOM     43  N   UNL     1       8.980  -5.526   3.588  1.00  0.00    -0.354 N 
ATOM     44  C   UNL     1      10.012  -8.890   1.117  1.00  0.00     0.074 A 
ATOM     45  C   UNL     1       9.374  -8.804  -0.179  1.00  0.00     0.031 C 
ATOM     46  C   UNL     1       8.080  -3.537   4.072  1.00  0.00     0.029 A 
ATOM     47  C   UNL     1       8.899  -4.619   4.616  1.00  0.00     0.049 A 
ATOM     48  H   UNL     1       9.480  -6.372   3.654  1.00  0.00     0.167 HD
ATOM     49  C   UNL     1      10.845  -9.892   1.487  1.00  0.00     0.031 A 
ATOM     50  C   UNL     1       9.425  -4.654   5.855  1.00  0.00     0.031 A 
ATOM     51  C   UNL     1      11.474  -9.999   2.777  1.00  0.00     0.049 A 
ATOM     52  C   UNL     1      10.293  -5.814   6.264  1.00  0.00     0.074 A 
ATOM     53  C   UNL     1      12.322 -10.988   3.245  1.00  0.00     0.029 A 
ATOM     54  N   UNL     1      11.323  -9.084   3.806  1.00  0.00    -0.354 N 
ATOM     55  N   UNL     1      10.671  -6.854   5.562  1.00  0.00    -0.248 NA
ATOM     56  C   UNL     1      10.819  -5.792   7.638  1.00  0.00     0.031 C 
ATOM     57  C   UNL     1      12.653 -10.693   4.572  1.00  0.00     0.029 A 
ATOM     58  C   UNL     1      12.050  -9.493   4.912  1.00  0.00     0.049 A 
ATOM     59  H   UNL     1      10.781  -8.264   3.758  1.00  0.00     0.167 HD
ATOM     60  C   UNL     1      11.497  -7.595   6.399  1.00  0.00     0.074 A 
ATOM     61  C   UNL     1      11.584  -6.875   7.651  1.00  0.00     0.031 C 
ATOM     62  C   UNL     1      12.126  -8.770   6.153  1.00  0.00     0.031 A 
BRANCH  49  63
ATOM     63  C   UNL     1      11.124 -10.970   0.477  1.00  0.00    -0.014 A 
ATOM     64  C   UNL     1      11.967 -10.729  -0.619  1.00  0.00     0.009 A 
ATOM     65  C   UNL     1      10.585 -12.253   0.653  1.00  0.00     0.009 A 
ATOM     66  C   UNL     1      12.247 -11.749  -1.532  1.00  0.00     0.001 A 
ATOM     67  C   UNL     1      10.885 -13.276  -0.248  1.00  0.00     0.001 A 
ATOM     68  C   UNL     1      11.711 -13.022  -1.343  1.00  0.00     0.000 A 
ENDBRANCH  49  63
BRANCH  50  69
ATOM     69  C   UNL     1       9.137  -3.560   6.820  1.00  0.00    -0.014 A 
ATOM     70  C   UNL     1      10.148  -2.681   7.238  1.00  0.00     0.009 A 
ATOM     71  C   UNL     1       7.851  -3.424   7.365  1.00  0.00     0.009 A 
ATOM     72  C   UNL     1       9.883  -1.710   8.207  1.00  0.00     0.001 A 
ATOM     73  C   UNL     1       7.582  -2.434   8.311  1.00  0.00     0.001 A 
ATOM     74  C   UNL     1       8.601  -1.586   8.741  1.00  0.00     0.000 A 
ENDBRANCH  50  69
BRANCH  62  75
ATOM     75  C   UNL     1      12.984  -9.331   7.252  1.00  0.00    -0.014 A 
ATOM     76  C   UNL     1      12.414  -9.886   8.409  1.00  0.00     0.009 A 
ATOM     77  C   UNL     1      14.381  -9.319   7.121  1.00  0.00     0.009 A 
ATOM     78  C   UNL     1      13.228 -10.378   9.431  1.00  0.00     0.001 A 
ATOM     79  C   UNL     1      15.192  -9.837   8.133  1.00  0.00     0.001 A 
ATOM     80  C   UNL     1      14.616 -10.355   9.291  1.00  0.00     0.000 A 
ENDBRANCH  62  75
ENDBRANCH  36  37
ENDBRANCH  29  31
ENDBRANCH  28  29
ENDBRANCH  27  28
ENDBRANCH  26  27
ENDBRANCH  25  26
ENDBRANCH   1  25
TORSDOF 20
