REMARK SMILES O=C(CC1(CC(=O)OCCOCCOC(=O)c2ccc(-c3c4nc(c(-c5ccccc5)c5ccc([nH]5)c(-c5ccccc5)c5nc(c(-c6ccccc6)c6ccc3[nH]6)C=C5)C=C4)cc2)CCCC1)NNc1ccc([N+](=O)[O-])cc1
REMARK SMILES IDX 9 1 8 2 6 3 7 4 5 5 4 6 65 7 68 8 66 9 67 10 3 11 2 12 1 13
REMARK SMILES IDX 69 14 70 16 71 18 72 19 79 20 73 21 78 22 74 23 75 24 76 25
REMARK SMILES IDX 77 26 10 27 11 28 12 29 13 30 14 31 15 32 16 33 17 34 18 35
REMARK SMILES IDX 64 36 19 37 63 38 20 39 21 40 22 41 57 42 23 43 62 44 56 45
REMARK SMILES IDX 58 46 24 47 61 48 55 49 54 50 25 52 47 53 32 54 46 55 33 56
REMARK SMILES IDX 36 57 45 58 59 59 34 60 35 61 44 63 60 64 37 65 26 66 27 67
REMARK SMILES IDX 31 68 28 69 30 70 29 71 48 72 49 73 53 74 50 75 52 76 51 77
REMARK SMILES IDX 38 78 39 79 43 80 40 81 42 82 41 83
REMARK H PARENT 69 15 70 17 58 51 36 62
REMARK Flexibility Score: inf
ROOT
ATOM      1  C   UNL     1       2.473   2.019   2.518  1.00  0.00     0.261 C 
ENDROOT
BRANCH   1   2
ATOM      2  O   UNL     1       3.294   1.949   1.330  1.00  0.00    -0.463 OA
BRANCH   2   3
ATOM      3  C   UNL     1       4.577   2.369   1.412  1.00  0.00     0.306 C 
ATOM      4  O   UNL     1       5.080   2.870   2.411  1.00  0.00    -0.252 OA
BRANCH   3   5
ATOM      5  C   UNL     1       5.386   2.115   0.134  1.00  0.00     0.130 C 
BRANCH   5   6
ATOM      6  C   UNL     1       4.674   1.528  -1.118  1.00  0.00    -0.010 C 
ATOM      7  C   UNL     1       5.531   1.704  -2.408  1.00  0.00     0.008 C 
ATOM      8  C   UNL     1       3.457   2.383  -1.551  1.00  0.00     0.008 C 
ATOM      9  C   UNL     1       5.365   3.148  -2.858  1.00  0.00     0.001 C 
ATOM     10  C   UNL     1       4.083   3.631  -2.191  1.00  0.00     0.001 C 
BRANCH   6  11
ATOM     11  C   UNL     1       4.485  -0.002  -1.001  1.00  0.00     0.109 C 
BRANCH  11  12
ATOM     12  C   UNL     1       3.769  -0.559   0.194  1.00  0.00     0.238 C 
ATOM     13  O   UNL     1       2.584  -0.854   0.083  1.00  0.00    -0.273 OA
ATOM     14  N   UNL     1       4.509  -0.761   1.350  1.00  0.00    -0.270 N 
ATOM     15  H   UNL     1       5.471  -0.559   1.393  1.00  0.00     0.191 HD
BRANCH  14  16
ATOM     16  N   UNL     1       3.810  -1.267   2.453  1.00  0.00    -0.299 N 
ATOM     17  H   UNL     1       3.079  -1.911   2.306  1.00  0.00     0.188 HD
BRANCH  16  18
ATOM     18  C   UNL     1       4.129  -0.875   3.770  1.00  0.00     0.055 A 
ATOM     19  C   UNL     1       3.329  -1.389   4.812  1.00  0.00     0.034 A 
ATOM     20  C   UNL     1       5.200  -0.047   4.118  1.00  0.00     0.034 A 
ATOM     21  C   UNL     1       3.569  -1.072   6.154  1.00  0.00     0.088 A 
ATOM     22  C   UNL     1       5.440   0.302   5.458  1.00  0.00     0.088 A 
ATOM     23  C   UNL     1       4.630  -0.222   6.473  1.00  0.00     0.269 A 
BRANCH  23  24
ATOM     24  N   UNL     1       4.899   0.114   7.877  1.00  0.00     0.062 N 
ATOM     25  O   UNL     1       4.240  -0.474   8.748  1.00  0.00    -0.258 OA
ATOM     26  O   UNL     1       5.774   0.959   8.112  1.00  0.00    -0.258 OA
ENDBRANCH  23  24
ENDBRANCH  16  18
ENDBRANCH  14  16
ENDBRANCH  11  12
ENDBRANCH   6  11
ENDBRANCH   5   6
ENDBRANCH   3   5
ENDBRANCH   2   3
ENDBRANCH   1   2
BRANCH   1  27
ATOM     27  C   UNL     1       1.157   1.261   2.255  1.00  0.00     0.202 C 
BRANCH  27  28
ATOM     28  O   UNL     1       1.341  -0.155   2.235  1.00  0.00    -0.374 OA
BRANCH  28  29
ATOM     29  C   UNL     1       0.247  -0.976   1.784  1.00  0.00     0.202 C 
BRANCH  29  30
ATOM     30  C   UNL     1      -0.293  -0.794   0.341  1.00  0.00     0.261 C 
BRANCH  30  31
ATOM     31  O   UNL     1      -0.798   0.518   0.085  1.00  0.00    -0.460 OA
BRANCH  31  32
ATOM     32  C   UNL     1      -1.844   0.851   0.863  1.00  0.00     0.338 C 
ATOM     33  O   UNL     1      -2.530   0.107   1.544  1.00  0.00    -0.246 OA
BRANCH  32  34
ATOM     34  C   UNL     1      -1.870   2.313   0.975  1.00  0.00     0.060 A 
ATOM     35  C   UNL     1      -2.040   2.840   2.259  1.00  0.00     0.016 A 
ATOM     36  C   UNL     1      -1.746   3.143  -0.144  1.00  0.00     0.016 A 
ATOM     37  C   UNL     1      -2.220   4.202   2.417  1.00  0.00     0.010 A 
ATOM     38  C   UNL     1      -1.936   4.512   0.013  1.00  0.00     0.010 A 
ATOM     39  C   UNL     1      -2.253   5.022   1.283  1.00  0.00    -0.014 A 
BRANCH  39  40
ATOM     40  C   UNL     1      -2.920   6.330   1.406  1.00  0.00     0.031 A 
ATOM     41  C   UNL     1      -4.373   6.407   1.024  1.00  0.00     0.074 A 
ATOM     42  C   UNL     1      -2.274   7.380   1.932  1.00  0.00     0.049 A 
ATOM     43  N   UNL     1      -5.186   7.429   1.058  1.00  0.00    -0.248 NA
ATOM     44  C   UNL     1      -4.997   5.160   0.543  1.00  0.00     0.031 C 
ATOM     45  C   UNL     1      -0.888   7.377   2.398  1.00  0.00     0.029 A 
ATOM     46  N   UNL     1      -2.713   8.653   2.171  1.00  0.00    -0.354 N 
ATOM     47  C   UNL     1      -6.404   6.951   0.592  1.00  0.00     0.074 A 
ATOM     48  C   UNL     1      -6.224   5.560   0.253  1.00  0.00     0.031 C 
ATOM     49  C   UNL     1      -0.588   8.600   2.867  1.00  0.00     0.029 A 
ATOM     50  C   UNL     1      -1.748   9.471   2.700  1.00  0.00     0.049 A 
ATOM     51  H   UNL     1      -3.632   8.953   1.983  1.00  0.00     0.167 HD
ATOM     52  C   UNL     1      -7.574   7.617   0.464  1.00  0.00     0.031 A 
ATOM     53  C   UNL     1      -1.801  10.784   2.991  1.00  0.00     0.031 A 
ATOM     54  C   UNL     1      -7.736   9.003   0.801  1.00  0.00     0.049 A 
ATOM     55  C   UNL     1      -3.093  11.522   2.765  1.00  0.00     0.074 A 
ATOM     56  C   UNL     1      -8.873   9.785   0.718  1.00  0.00     0.029 A 
ATOM     57  N   UNL     1      -6.721   9.815   1.285  1.00  0.00    -0.354 N 
ATOM     58  N   UNL     1      -4.243  11.063   2.330  1.00  0.00    -0.248 NA
ATOM     59  C   UNL     1      -3.095  12.957   3.077  1.00  0.00     0.031 C 
ATOM     60  C   UNL     1      -8.530  11.087   1.095  1.00  0.00     0.029 A 
ATOM     61  C   UNL     1      -7.196  11.098   1.476  1.00  0.00     0.049 A 
ATOM     62  H   UNL     1      -5.799   9.520   1.465  1.00  0.00     0.167 HD
ATOM     63  C   UNL     1      -5.113  12.145   2.342  1.00  0.00     0.074 A 
ATOM     64  C   UNL     1      -4.360  13.278   2.843  1.00  0.00     0.031 C 
ATOM     65  C   UNL     1      -6.418  12.203   1.975  1.00  0.00     0.031 A 
BRANCH  52  66
ATOM     66  C   UNL     1      -8.743   6.866  -0.108  1.00  0.00    -0.014 A 
ATOM     67  C   UNL     1      -9.396   5.855   0.616  1.00  0.00     0.009 A 
ATOM     68  C   UNL     1      -9.210   7.190  -1.392  1.00  0.00     0.009 A 
ATOM     69  C   UNL     1     -10.473   5.165   0.053  1.00  0.00     0.001 A 
ATOM     70  C   UNL     1     -10.305   6.519  -1.939  1.00  0.00     0.001 A 
ATOM     71  C   UNL     1     -10.930   5.502  -1.220  1.00  0.00     0.000 A 
ENDBRANCH  52  66
BRANCH  53  72
ATOM     72  C   UNL     1      -0.591  11.482   3.494  1.00  0.00    -0.014 A 
ATOM     73  C   UNL     1      -0.536  11.980   4.804  1.00  0.00     0.009 A 
ATOM     74  C   UNL     1       0.522  11.658   2.655  1.00  0.00     0.009 A 
ATOM     75  C   UNL     1       0.598  12.663   5.253  1.00  0.00     0.001 A 
ATOM     76  C   UNL     1       1.664  12.313   3.116  1.00  0.00     0.001 A 
ATOM     77  C   UNL     1       1.698  12.825   4.411  1.00  0.00     0.000 A 
ENDBRANCH  53  72
BRANCH  65  78
ATOM     78  C   UNL     1      -7.117  13.522   2.139  1.00  0.00    -0.014 A 
ATOM     79  C   UNL     1      -6.840  14.605   1.291  1.00  0.00     0.009 A 
ATOM     80  C   UNL     1      -8.102  13.663   3.129  1.00  0.00     0.009 A 
ATOM     81  C   UNL     1      -7.513  15.816   1.456  1.00  0.00     0.001 A 
ATOM     82  C   UNL     1      -8.796  14.865   3.269  1.00  0.00     0.001 A 
ATOM     83  C   UNL     1      -8.493  15.943   2.440  1.00  0.00     0.000 A 
ENDBRANCH  65  78
ENDBRANCH  39  40
ENDBRANCH  32  34
ENDBRANCH  31  32
ENDBRANCH  30  31
ENDBRANCH  29  30
ENDBRANCH  28  29
ENDBRANCH  27  28
ENDBRANCH   1  27
TORSDOF 20
