REMARK SMILES C[C@@](NC(=O)CCOC1CC[NH2+]CC1)(C(=O)OCCOCCOC(=O)c1ccc(-c2c3nc(c(-c4ccccc4)c4ccc([nH]4)c(-c4ccccc4)c4nc(c(-c5ccccc5)c5ccc2[nH]5)C=C4)C=C3)cc1)C(F)(F)F
REMARK SMILES IDX 18 1 17 2 15 3 16 4 2 5 1 6 3 7 4 8 5 10 6 11 7 12 8 13 9 14
REMARK SMILES IDX 10 15 14 16 11 17 13 18 12 19 74 22 75 23 76 24 77 25 19 26
REMARK SMILES IDX 20 27 21 28 22 29 23 30 24 31 25 32 26 33 27 34 73 35 28 36
REMARK SMILES IDX 72 37 29 38 30 39 31 40 66 41 32 42 71 43 65 44 67 45 33 46
REMARK SMILES IDX 70 47 64 48 63 49 34 51 56 52 41 53 55 54 42 55 45 56 54 57
REMARK SMILES IDX 68 58 43 59 44 60 53 62 69 63 46 64 35 65 36 66 40 67 37 68
REMARK SMILES IDX 39 69 38 70 57 71 58 72 62 73 59 74 61 75 60 76 47 77 48 78
REMARK SMILES IDX 52 79 49 80 51 81 50 82
REMARK H PARENT 3 9 12 20 12 21 67 50 45 61
REMARK Flexibility Score: inf
ROOT
ATOM      1  C   UNL     1      -3.552   1.703  -0.974  1.00  0.00     0.261 C 
ENDROOT
BRANCH   1   2
ATOM      2  O   UNL     1      -2.119   1.659  -1.031  1.00  0.00    -0.461 OA
BRANCH   2   3
ATOM      3  C   UNL     1      -1.492   2.675  -1.688  1.00  0.00     0.341 C 
ATOM      4  O   UNL     1      -2.082   3.595  -2.238  1.00  0.00    -0.249 OA
BRANCH   3   5
ATOM      5  C   UNL     1       0.001   2.392  -1.835  1.00  0.00     0.231 C 
ATOM      6  C   UNL     1       0.588   1.430  -0.789  1.00  0.00     0.058 C 
BRANCH   5   7
ATOM      7  N   UNL     1       0.328   1.939  -3.234  1.00  0.00    -0.333 N 
ATOM      8  C   UNL     1      -0.145   0.947  -4.035  1.00  0.00     0.223 C 
ATOM      9  H   UNL     1       1.035   2.476  -3.659  1.00  0.00     0.164 HD
ATOM     10  O   UNL     1       0.570   0.606  -4.982  1.00  0.00    -0.275 OA
BRANCH   8  11
ATOM     11  C   UNL     1      -1.508   0.321  -3.860  1.00  0.00     0.128 C 
BRANCH  11  12
ATOM     12  C   UNL     1      -1.486  -1.107  -3.330  1.00  0.00     0.170 C 
BRANCH  12  13
ATOM     13  O   UNL     1      -0.976  -1.168  -2.011  1.00  0.00    -0.377 OA
BRANCH  13  14
ATOM     14  C   UNL     1       0.175  -1.979  -1.730  1.00  0.00     0.129 C 
ATOM     15  C   UNL     1       1.450  -1.594  -2.484  1.00  0.00     0.093 C 
ATOM     16  C   UNL     1      -0.085  -3.484  -1.742  1.00  0.00     0.093 C 
ATOM     17  C   UNL     1       1.631  -2.326  -3.807  1.00  0.00     0.263 C 
ATOM     18  C   UNL     1       0.192  -4.142  -3.089  1.00  0.00     0.263 C 
ATOM     19  N   UNL     1       1.497  -3.770  -3.630  1.00  0.00    -0.346 N 
ATOM     20  H   UNL     1       2.223  -4.091  -2.989  1.00  0.00     0.346 HD
ATOM     21  H   UNL     1       1.593  -4.208  -4.547  1.00  0.00     0.346 HD
ENDBRANCH  13  14
ENDBRANCH  12  13
ENDBRANCH  11  12
ENDBRANCH   8  11
ENDBRANCH   5   7
BRANCH   5  22
ATOM     22  C   UNL     1       0.643   3.765  -1.532  1.00  0.00     0.422 C 
ATOM     23  F   UNL     1       0.322   4.218  -0.298  1.00  0.00    -0.168 F 
ATOM     24  F   UNL     1       2.000   3.653  -1.564  1.00  0.00    -0.168 F 
ATOM     25  F   UNL     1       0.326   4.721  -2.428  1.00  0.00    -0.168 F 
ENDBRANCH   5  22
ENDBRANCH   3   5
ENDBRANCH   2   3
ENDBRANCH   1   2
BRANCH   1  26
ATOM     26  C   UNL     1      -4.043   1.408   0.439  1.00  0.00     0.202 C 
BRANCH  26  27
ATOM     27  O   UNL     1      -3.469   2.224   1.456  1.00  0.00    -0.374 OA
BRANCH  27  28
ATOM     28  C   UNL     1      -2.170   1.852   1.921  1.00  0.00     0.202 C 
BRANCH  28  29
ATOM     29  C   UNL     1      -2.110   0.668   2.892  1.00  0.00     0.261 C 
BRANCH  29  30
ATOM     30  O   UNL     1      -2.361  -0.601   2.254  1.00  0.00    -0.460 OA
BRANCH  30  31
ATOM     31  C   UNL     1      -3.557  -1.154   2.550  1.00  0.00     0.338 C 
ATOM     32  O   UNL     1      -4.437  -0.674   3.260  1.00  0.00    -0.246 OA
BRANCH  31  33
ATOM     33  C   UNL     1      -3.771  -2.415   1.821  1.00  0.00     0.060 A 
ATOM     34  C   UNL     1      -4.963  -2.557   1.100  1.00  0.00     0.016 A 
ATOM     35  C   UNL     1      -2.920  -3.507   2.006  1.00  0.00     0.016 A 
ATOM     36  C   UNL     1      -5.354  -3.812   0.637  1.00  0.00     0.010 A 
ATOM     37  C   UNL     1      -3.315  -4.767   1.543  1.00  0.00     0.010 A 
ATOM     38  C   UNL     1      -4.559  -4.933   0.906  1.00  0.00    -0.014 A 
BRANCH  38  39
ATOM     39  C   UNL     1      -5.107  -6.293   0.679  1.00  0.00     0.031 A 
ATOM     40  C   UNL     1      -5.665  -7.064   1.847  1.00  0.00     0.074 A 
ATOM     41  C   UNL     1      -5.139  -6.829  -0.553  1.00  0.00     0.049 A 
ATOM     42  N   UNL     1      -6.156  -8.278   1.882  1.00  0.00    -0.248 NA
ATOM     43  C   UNL     1      -5.671  -6.376   3.149  1.00  0.00     0.031 C 
ATOM     44  C   UNL     1      -4.681  -6.170  -1.774  1.00  0.00     0.029 A 
ATOM     45  N   UNL     1      -5.578  -8.059  -0.974  1.00  0.00    -0.354 N 
ATOM     46  C   UNL     1      -6.516  -8.502   3.206  1.00  0.00     0.074 A 
ATOM     47  C   UNL     1      -6.166  -7.310   3.948  1.00  0.00     0.031 C 
ATOM     48  C   UNL     1      -4.856  -7.009  -2.811  1.00  0.00     0.029 A 
ATOM     49  C   UNL     1      -5.406  -8.271  -2.319  1.00  0.00     0.049 A 
ATOM     50  H   UNL     1      -5.978  -8.725  -0.370  1.00  0.00     0.167 HD
ATOM     51  C   UNL     1      -7.090  -9.599   3.757  1.00  0.00     0.031 A 
ATOM     52  C   UNL     1      -5.644  -9.366  -3.065  1.00  0.00     0.031 A 
ATOM     53  C   UNL     1      -7.435 -10.789   3.027  1.00  0.00     0.049 A 
ATOM     54  C   UNL     1      -6.210 -10.601  -2.417  1.00  0.00     0.074 A 
ATOM     55  C   UNL     1      -8.036 -11.945   3.496  1.00  0.00     0.029 A 
ATOM     56  N   UNL     1      -7.204 -10.978   1.675  1.00  0.00    -0.354 N 
ATOM     57  N   UNL     1      -6.559 -10.793  -1.168  1.00  0.00    -0.248 NA
ATOM     58  C   UNL     1      -6.417 -11.769  -3.287  1.00  0.00     0.031 C 
ATOM     59  C   UNL     1      -8.122 -12.854   2.436  1.00  0.00     0.029 A 
ATOM     60  C   UNL     1      -7.624 -12.242   1.296  1.00  0.00     0.049 A 
ATOM     61  H   UNL     1      -6.801 -10.313   1.071  1.00  0.00     0.167 HD
ATOM     62  C   UNL     1      -7.050 -12.092  -1.108  1.00  0.00     0.074 A 
ATOM     63  C   UNL     1      -6.965 -12.636  -2.447  1.00  0.00     0.031 C 
ATOM     64  C   UNL     1      -7.531 -12.772  -0.038  1.00  0.00     0.031 A 
BRANCH  51  65
ATOM     65  C   UNL     1      -7.350  -9.574   5.237  1.00  0.00    -0.014 A 
ATOM     66  C   UNL     1      -8.382  -8.795   5.784  1.00  0.00     0.009 A 
ATOM     67  C   UNL     1      -6.573 -10.370   6.093  1.00  0.00     0.009 A 
ATOM     68  C   UNL     1      -8.609  -8.791   7.163  1.00  0.00     0.001 A 
ATOM     69  C   UNL     1      -6.819 -10.383   7.467  1.00  0.00     0.001 A 
ATOM     70  C   UNL     1      -7.830  -9.588   8.002  1.00  0.00     0.000 A 
ENDBRANCH  51  65
BRANCH  52  71
ATOM     71  C   UNL     1      -5.324  -9.357  -4.516  1.00  0.00    -0.014 A 
ATOM     72  C   UNL     1      -6.348  -9.359  -5.474  1.00  0.00     0.009 A 
ATOM     73  C   UNL     1      -3.988  -9.360  -4.947  1.00  0.00     0.009 A 
ATOM     74  C   UNL     1      -6.040  -9.386  -6.837  1.00  0.00     0.001 A 
ATOM     75  C   UNL     1      -3.683  -9.360  -6.309  1.00  0.00     0.001 A 
ATOM     76  C   UNL     1      -4.709  -9.381  -7.252  1.00  0.00     0.000 A 
ENDBRANCH  52  71
BRANCH  64  77
ATOM     77  C   UNL     1      -8.033 -14.168  -0.278  1.00  0.00    -0.014 A 
ATOM     78  C   UNL     1      -7.146 -15.232  -0.508  1.00  0.00     0.009 A 
ATOM     79  C   UNL     1      -9.411 -14.429  -0.234  1.00  0.00     0.009 A 
ATOM     80  C   UNL     1      -7.634 -16.523  -0.719  1.00  0.00     0.001 A 
ATOM     81  C   UNL     1      -9.894 -15.725  -0.419  1.00  0.00     0.001 A 
ATOM     82  C   UNL     1      -9.006 -16.769  -0.670  1.00  0.00     0.000 A 
ENDBRANCH  64  77
ENDBRANCH  38  39
ENDBRANCH  31  33
ENDBRANCH  30  31
ENDBRANCH  29  30
ENDBRANCH  28  29
ENDBRANCH  27  28
ENDBRANCH  26  27
ENDBRANCH   1  26
TORSDOF 20
