REMARK SMILES Cc1cc(F)cc(NC(=O)N[C@@H]2COC[C@H]2C(=O)OCCOCCOC(=O)c2ccc(-c3c4nc(c(-c5ccccc5)c5ccc([nH]5)c(-c5ccccc5)c5nc(c(-c6ccccc6)c6ccc3[nH]6)C=C5)C=C4)cc2)c1
REMARK SMILES IDX 22 1 21 2 20 3 19 4 17 5 18 6 16 7 12 8 13 9 14 10 15 11
REMARK SMILES IDX 11 12 8 13 9 14 10 16 7 18 1 19 2 20 3 21 76 22 4 23 5 24
REMARK SMILES IDX 6 25 23 26 24 27 25 28 26 29 27 30 28 31 29 32 75 33 30 34
REMARK SMILES IDX 74 35 31 36 32 37 33 38 68 39 34 40 73 41 67 42 69 43 35 44
REMARK SMILES IDX 72 45 66 46 65 47 36 49 58 50 43 51 57 52 44 53 47 54 56 55
REMARK SMILES IDX 70 56 45 57 46 58 55 60 71 61 48 62 37 63 38 64 42 65 39 66
REMARK SMILES IDX 41 67 40 68 59 69 60 70 64 71 61 72 63 73 62 74 49 75 50 76
REMARK SMILES IDX 54 77 51 78 53 79 52 80
REMARK H PARENT 8 15 11 17 69 48 47 59
REMARK Flexibility Score: inf
ROOT
ATOM      1  O   UNL     1      -3.429  -3.710   4.734  1.00  0.00    -0.374 OA
ENDROOT
BRANCH   1   2
ATOM      2  C   UNL     1      -4.779  -3.267   4.647  1.00  0.00     0.202 C 
BRANCH   2   3
ATOM      3  C   UNL     1      -5.002  -1.873   4.054  1.00  0.00     0.261 C 
BRANCH   3   4
ATOM      4  O   UNL     1      -4.452  -1.734   2.732  1.00  0.00    -0.463 OA
BRANCH   4   5
ATOM      5  C   UNL     1      -3.415  -0.864   2.615  1.00  0.00     0.313 C 
ATOM      6  O   UNL     1      -2.988  -0.161   3.523  1.00  0.00    -0.252 OA
BRANCH   5   7
ATOM      7  C   UNL     1      -2.857  -0.769   1.216  1.00  0.00     0.150 C 
ATOM      8  C   UNL     1      -3.101  -1.911   0.254  1.00  0.00     0.126 C 
ATOM      9  C   UNL     1      -3.495  -1.275  -1.073  1.00  0.00     0.186 C 
ATOM     10  O   UNL     1      -3.655   0.128  -0.858  1.00  0.00    -0.378 OA
ATOM     11  C   UNL     1      -3.541   0.407   0.542  1.00  0.00     0.177 C 
BRANCH   8  12
ATOM     12  N   UNL     1      -2.083  -2.961   0.124  1.00  0.00    -0.332 N 
ATOM     13  N   UNL     1       0.258  -2.398  -0.075  1.00  0.00    -0.308 N 
ATOM     14  C   UNL     1      -0.792  -3.208  -0.023  1.00  0.00     0.319 C 
ATOM     15  H   UNL     1       1.079  -2.934   0.010  1.00  0.00     0.171 HD
ATOM     16  O   UNL     1      -0.521  -4.420  -0.046  1.00  0.00    -0.248 OA
ATOM     17  H   UNL     1      -2.546  -3.828   0.162  1.00  0.00     0.165 HD
BRANCH  13  18
ATOM     18  C   UNL     1       0.609  -1.049  -0.207  1.00  0.00     0.046 A 
ATOM     19  C   UNL     1       3.880   0.925   0.169  1.00  0.00     0.044 C 
ATOM     20  C   UNL     1       2.434   0.596  -0.057  1.00  0.00    -0.046 A 
ATOM     21  C   UNL     1       1.526   1.615  -0.336  1.00  0.00     0.042 A 
ATOM     22  C   UNL     1       1.962  -0.726   0.025  1.00  0.00     0.029 A 
ATOM     23  C   UNL     1       0.207   1.290  -0.614  1.00  0.00     0.125 A 
ATOM     24  F   UNL     1      -0.660   2.266  -0.915  1.00  0.00    -0.207 F 
ATOM     25  C   UNL     1      -0.236  -0.030  -0.596  1.00  0.00     0.065 A 
ENDBRANCH  13  18
ENDBRANCH   8  12
ENDBRANCH   5   7
ENDBRANCH   4   5
ENDBRANCH   3   4
ENDBRANCH   2   3
ENDBRANCH   1   2
BRANCH   1  26
ATOM     26  C   UNL     1      -2.772  -4.111   3.529  1.00  0.00     0.202 C 
BRANCH  26  27
ATOM     27  C   UNL     1      -3.428  -5.251   2.740  1.00  0.00     0.261 C 
BRANCH  27  28
ATOM     28  O   UNL     1      -4.623  -4.803   2.061  1.00  0.00    -0.460 OA
BRANCH  28  29
ATOM     29  C   UNL     1      -5.670  -5.660   2.152  1.00  0.00     0.338 C 
ATOM     30  O   UNL     1      -5.669  -6.781   2.631  1.00  0.00    -0.246 OA
BRANCH  29  31
ATOM     31  C   UNL     1      -6.917  -4.998   1.732  1.00  0.00     0.060 A 
ATOM     32  C   UNL     1      -7.883  -4.741   2.712  1.00  0.00     0.016 A 
ATOM     33  C   UNL     1      -7.202  -4.790   0.381  1.00  0.00     0.016 A 
ATOM     34  C   UNL     1      -9.159  -4.319   2.340  1.00  0.00     0.010 A 
ATOM     35  C   UNL     1      -8.486  -4.372   0.010  1.00  0.00     0.010 A 
ATOM     36  C   UNL     1      -9.482  -4.173   0.984  1.00  0.00    -0.014 A 
BRANCH  36  37
ATOM     37  C   UNL     1     -10.899  -3.965   0.591  1.00  0.00     0.031 A 
ATOM     38  C   UNL     1     -11.728  -5.149   0.166  1.00  0.00     0.074 A 
ATOM     39  C   UNL     1     -11.463  -2.746   0.657  1.00  0.00     0.049 A 
ATOM     40  N   UNL     1     -12.985  -5.192  -0.200  1.00  0.00    -0.248 NA
ATOM     41  C   UNL     1     -11.052  -6.456   0.156  1.00  0.00     0.031 C 
ATOM     42  C   UNL     1     -10.790  -1.525   1.097  1.00  0.00     0.029 A 
ATOM     43  N   UNL     1     -12.738  -2.339   0.355  1.00  0.00    -0.354 N 
ATOM     44  C   UNL     1     -13.249  -6.526  -0.485  1.00  0.00     0.074 A 
ATOM     45  C   UNL     1     -12.017  -7.256  -0.275  1.00  0.00     0.031 C 
ATOM     46  C   UNL     1     -11.661  -0.503   1.036  1.00  0.00     0.029 A 
ATOM     47  C   UNL     1     -12.941  -0.992   0.527  1.00  0.00     0.049 A 
ATOM     48  H   UNL     1     -13.441  -2.954   0.044  1.00  0.00     0.167 HD
ATOM     49  C   UNL     1     -14.412  -7.097  -0.881  1.00  0.00     0.031 A 
ATOM     50  C   UNL     1     -14.031  -0.237   0.289  1.00  0.00     0.031 A 
ATOM     51  C   UNL     1     -15.639  -6.380  -1.102  1.00  0.00     0.049 A 
ATOM     52  C   UNL     1     -15.287  -0.882  -0.229  1.00  0.00     0.074 A 
ATOM     53  C   UNL     1     -16.872  -6.879  -1.486  1.00  0.00     0.029 A 
ATOM     54  N   UNL     1     -15.785  -5.009  -0.969  1.00  0.00    -0.354 N 
ATOM     55  N   UNL     1     -15.530  -2.148  -0.466  1.00  0.00    -0.248 NA
ATOM     56  C   UNL     1     -16.423   0.010  -0.509  1.00  0.00     0.031 C 
ATOM     57  C   UNL     1     -17.753  -5.802  -1.632  1.00  0.00     0.029 A 
ATOM     58  C   UNL     1     -17.080  -4.640  -1.291  1.00  0.00     0.049 A 
ATOM     59  H   UNL     1     -15.075  -4.389  -0.686  1.00  0.00     0.167 HD
ATOM     60  C   UNL     1     -16.850  -2.207  -0.896  1.00  0.00     0.074 A 
ATOM     61  C   UNL     1     -17.360  -0.852  -0.877  1.00  0.00     0.031 C 
ATOM     62  C   UNL     1     -17.576  -3.289  -1.270  1.00  0.00     0.031 A 
BRANCH  49  63
ATOM     63  C   UNL     1     -14.403  -8.577  -1.135  1.00  0.00    -0.014 A 
ATOM     64  C   UNL     1     -14.370  -9.497  -0.076  1.00  0.00     0.009 A 
ATOM     65  C   UNL     1     -14.466  -9.057  -2.453  1.00  0.00     0.009 A 
ATOM     66  C   UNL     1     -14.371 -10.870  -0.334  1.00  0.00     0.001 A 
ATOM     67  C   UNL     1     -14.490 -10.429  -2.706  1.00  0.00     0.001 A 
ATOM     68  C   UNL     1     -14.435 -11.334  -1.647  1.00  0.00     0.000 A 
ENDBRANCH  49  63
BRANCH  50  69
ATOM     69  C   UNL     1     -13.983   1.230   0.520  1.00  0.00    -0.014 A 
ATOM     70  C   UNL     1     -14.699   1.812   1.577  1.00  0.00     0.009 A 
ATOM     71  C   UNL     1     -13.240   2.058  -0.335  1.00  0.00     0.009 A 
ATOM     72  C   UNL     1     -14.689   3.197   1.758  1.00  0.00     0.001 A 
ATOM     73  C   UNL     1     -13.211   3.440  -0.136  1.00  0.00     0.001 A 
ATOM     74  C   UNL     1     -13.942   4.009   0.905  1.00  0.00     0.000 A 
ENDBRANCH  50  69
BRANCH  62  75
ATOM     75  C   UNL     1     -19.008  -3.058  -1.660  1.00  0.00    -0.014 A 
ATOM     76  C   UNL     1     -19.341  -2.469  -2.889  1.00  0.00     0.009 A 
ATOM     77  C   UNL     1     -20.038  -3.472  -0.801  1.00  0.00     0.009 A 
ATOM     78  C   UNL     1     -20.680  -2.274  -3.237  1.00  0.00     0.001 A 
ATOM     79  C   UNL     1     -21.375  -3.298  -1.163  1.00  0.00     0.001 A 
ATOM     80  C   UNL     1     -21.695  -2.692  -2.377  1.00  0.00     0.000 A 
ENDBRANCH  62  75
ENDBRANCH  36  37
ENDBRANCH  29  31
ENDBRANCH  28  29
ENDBRANCH  27  28
ENDBRANCH  26  27
ENDBRANCH   1  26
TORSDOF 16
