REMARK SMILES Cc1cc(C)c2c(CCCC(=O)OCCOCCOC(=O)c3ccc(-c4c5nc(c(-c6ccccc6)c6ccc([nH]6)c(-c6ccccc6)c6nc(c(-c7ccccc7)c7ccc4[nH]7)C=C6)C=C5)cc3)c(-c3ccccn3)[nH]c2c1
REMARK SMILES IDX 15 1 14 2 13 3 11 4 12 5 10 6 9 7 8 8 7 9 1 10 2 11 3 12
REMARK SMILES IDX 79 13 4 14 78 15 5 16 6 17 77 18 70 19 71 21 72 22 76 23
REMARK SMILES IDX 73 24 75 25 74 26 16 27 17 28 18 29 19 30 20 31 21 32 22 33
REMARK SMILES IDX 23 34 69 35 24 36 68 37 25 38 26 39 27 40 62 41 28 42 67 43
REMARK SMILES IDX 61 44 63 45 29 46 66 47 60 48 59 49 30 51 52 52 37 53 51 54
REMARK SMILES IDX 38 55 41 56 50 57 64 58 39 59 40 60 49 62 65 63 42 64 31 65
REMARK SMILES IDX 32 66 36 67 33 68 35 69 34 70 53 71 54 72 58 73 55 74 57 75
REMARK SMILES IDX 56 76 43 77 44 78 48 79 45 80 47 81 46 82
REMARK H PARENT 77 20 63 50 41 61
REMARK Flexibility Score: inf
ROOT
ATOM      1  C   UNL     1      -1.102  -9.640  -5.423  1.00  0.00     0.202 C 
ENDROOT
BRANCH   1   2
ATOM      2  C   UNL     1      -1.962  -8.393  -5.257  1.00  0.00     0.261 C 
BRANCH   2   3
ATOM      3  O   UNL     1      -1.936  -7.939  -3.894  1.00  0.00    -0.463 OA
BRANCH   3   4
ATOM      4  C   UNL     1      -3.088  -8.011  -3.184  1.00  0.00     0.305 C 
ATOM      5  O   UNL     1      -4.141  -8.470  -3.616  1.00  0.00    -0.252 OA
BRANCH   4   6
ATOM      6  C   UNL     1      -2.926  -7.561  -1.746  1.00  0.00     0.123 C 
BRANCH   6   7
ATOM      7  C   UNL     1      -1.526  -7.267  -1.207  1.00  0.00     0.017 C 
BRANCH   7   8
ATOM      8  C   UNL     1      -0.613  -6.295  -1.962  1.00  0.00     0.039 C 
BRANCH   8   9
ATOM      9  C   UNL     1      -1.002  -4.845  -1.992  1.00  0.00    -0.013 A 
ATOM     10  C   UNL     1       1.086   0.134  -0.013  1.00  0.00     0.044 C 
ATOM     11  C   UNL     1       0.603  -1.209  -0.474  1.00  0.00    -0.049 A 
ATOM     12  C   UNL     1       1.231  -2.373  -0.027  1.00  0.00     0.007 A 
ATOM     13  C   UNL     1      -0.510  -1.305  -1.308  1.00  0.00     0.030 A 
ATOM     14  C   UNL     1       0.803  -3.665  -0.417  1.00  0.00    -0.041 A 
ATOM     15  C   UNL     1      -0.929  -2.579  -1.705  1.00  0.00     0.047 A 
ATOM     16  C   UNL     1       1.575  -4.838   0.129  1.00  0.00     0.045 C 
ATOM     17  C   UNL     1      -0.308  -3.764  -1.306  1.00  0.00     0.006 A 
ATOM     18  N   UNL     1      -1.975  -2.913  -2.521  1.00  0.00    -0.353 N 
ATOM     19  C   UNL     1      -1.994  -4.257  -2.778  1.00  0.00     0.068 A 
ATOM     20  H   UNL     1      -2.630  -2.270  -2.877  1.00  0.00     0.167 HD
BRANCH  19  21
ATOM     21  C   UNL     1      -2.958  -4.768  -3.740  1.00  0.00     0.087 A 
ATOM     22  C   UNL     1      -2.662  -4.898  -5.089  1.00  0.00     0.030 A 
ATOM     23  N   UNL     1      -4.170  -5.052  -3.217  1.00  0.00    -0.255 NA
ATOM     24  C   UNL     1      -3.644  -5.414  -5.934  1.00  0.00     0.004 A 
ATOM     25  C   UNL     1      -5.092  -5.580  -4.053  1.00  0.00     0.112 A 
ATOM     26  C   UNL     1      -4.874  -5.787  -5.404  1.00  0.00     0.020 A 
ENDBRANCH  19  21
ENDBRANCH   8   9
ENDBRANCH   7   8
ENDBRANCH   6   7
ENDBRANCH   4   6
ENDBRANCH   3   4
ENDBRANCH   2   3
ENDBRANCH   1   2
BRANCH   1  27
ATOM     27  O   UNL     1      -1.625 -10.853  -4.883  1.00  0.00    -0.374 OA
BRANCH  27  28
ATOM     28  C   UNL     1      -1.752 -10.995  -3.473  1.00  0.00     0.202 C 
BRANCH  28  29
ATOM     29  C   UNL     1      -0.486 -11.280  -2.682  1.00  0.00     0.261 C 
BRANCH  29  30
ATOM     30  O   UNL     1       0.463 -10.225  -2.777  1.00  0.00    -0.460 OA
BRANCH  30  31
ATOM     31  C   UNL     1       1.439 -10.454  -3.673  1.00  0.00     0.338 C 
ATOM     32  O   UNL     1       1.450 -11.316  -4.558  1.00  0.00    -0.246 OA
BRANCH  31  33
ATOM     33  C   UNL     1       2.604  -9.642  -3.336  1.00  0.00     0.060 A 
ATOM     34  C   UNL     1       3.782  -9.972  -4.006  1.00  0.00     0.016 A 
ATOM     35  C   UNL     1       2.599  -8.808  -2.205  1.00  0.00     0.016 A 
ATOM     36  C   UNL     1       4.974  -9.662  -3.403  1.00  0.00     0.010 A 
ATOM     37  C   UNL     1       3.798  -8.489  -1.606  1.00  0.00     0.010 A 
ATOM     38  C   UNL     1       4.963  -9.001  -2.167  1.00  0.00    -0.014 A 
BRANCH  38  39
ATOM     39  C   UNL     1       6.247  -8.806  -1.536  1.00  0.00     0.031 A 
ATOM     40  C   UNL     1       7.099  -7.861  -2.274  1.00  0.00     0.074 A 
ATOM     41  C   UNL     1       6.637  -9.436  -0.415  1.00  0.00     0.049 A 
ATOM     42  N   UNL     1       8.115  -8.153  -3.013  1.00  0.00    -0.248 NA
ATOM     43  C   UNL     1       6.662  -6.460  -2.349  1.00  0.00     0.031 C 
ATOM     44  C   UNL     1       5.807 -10.180   0.535  1.00  0.00     0.029 A 
ATOM     45  N   UNL     1       7.872  -9.459   0.158  1.00  0.00    -0.354 N 
ATOM     46  C   UNL     1       8.576  -6.937  -3.492  1.00  0.00     0.074 A 
ATOM     47  C   UNL     1       7.553  -5.962  -3.206  1.00  0.00     0.031 C 
ATOM     48  C   UNL     1       6.511 -10.373   1.675  1.00  0.00     0.029 A 
ATOM     49  C   UNL     1       7.874  -9.911   1.468  1.00  0.00     0.049 A 
ATOM     50  H   UNL     1       8.689  -9.179  -0.315  1.00  0.00     0.167 HD
ATOM     51  C   UNL     1       9.887  -6.774  -3.807  1.00  0.00     0.031 A 
ATOM     52  C   UNL     1       8.918  -9.846   2.326  1.00  0.00     0.031 A 
ATOM     53  C   UNL     1      10.577  -8.032  -3.912  1.00  0.00     0.049 A 
ATOM     54  C   UNL     1      10.161  -9.752   1.530  1.00  0.00     0.074 A 
ATOM     55  C   UNL     1      10.660  -9.062  -4.821  1.00  0.00     0.029 A 
ATOM     56  N   UNL     1      11.061  -8.499  -2.718  1.00  0.00    -0.354 N 
ATOM     57  N   UNL     1      10.616 -10.726   0.796  1.00  0.00    -0.248 NA
ATOM     58  C   UNL     1      10.773  -8.450   1.290  1.00  0.00     0.031 C 
ATOM     59  C   UNL     1      11.036 -10.219  -4.076  1.00  0.00     0.029 A 
ATOM     60  C   UNL     1      11.193  -9.861  -2.737  1.00  0.00     0.049 A 
ATOM     61  H   UNL     1      11.285  -7.929  -1.946  1.00  0.00     0.167 HD
ATOM     62  C   UNL     1      11.234 -10.094  -0.266  1.00  0.00     0.074 A 
ATOM     63  C   UNL     1      11.465  -8.728   0.182  1.00  0.00     0.031 C 
ATOM     64  C   UNL     1      11.208 -10.638  -1.515  1.00  0.00     0.031 A 
BRANCH  51  65
ATOM     65  C   UNL     1      10.638  -5.507  -3.484  1.00  0.00    -0.014 A 
ATOM     66  C   UNL     1      11.972  -5.391  -3.905  1.00  0.00     0.009 A 
ATOM     67  C   UNL     1      10.188  -4.573  -2.528  1.00  0.00     0.009 A 
ATOM     68  C   UNL     1      12.820  -4.416  -3.366  1.00  0.00     0.001 A 
ATOM     69  C   UNL     1      11.020  -3.576  -2.016  1.00  0.00     0.001 A 
ATOM     70  C   UNL     1      12.344  -3.512  -2.420  1.00  0.00     0.000 A 
ENDBRANCH  51  65
BRANCH  52  71
ATOM     71  C   UNL     1       8.910  -9.596   3.781  1.00  0.00    -0.014 A 
ATOM     72  C   UNL     1      10.075  -9.808   4.537  1.00  0.00     0.009 A 
ATOM     73  C   UNL     1       7.867  -8.859   4.370  1.00  0.00     0.009 A 
ATOM     74  C   UNL     1      10.220  -9.238   5.807  1.00  0.00     0.001 A 
ATOM     75  C   UNL     1       8.010  -8.297   5.643  1.00  0.00     0.001 A 
ATOM     76  C   UNL     1       9.196  -8.466   6.350  1.00  0.00     0.000 A 
ENDBRANCH  52  71
BRANCH  64  77
ATOM     77  C   UNL     1      10.980 -12.119  -1.621  1.00  0.00    -0.014 A 
ATOM     78  C   UNL     1       9.793 -12.755  -1.224  1.00  0.00     0.009 A 
ATOM     79  C   UNL     1      11.988 -12.891  -2.219  1.00  0.00     0.009 A 
ATOM     80  C   UNL     1       9.633 -14.133  -1.402  1.00  0.00     0.001 A 
ATOM     81  C   UNL     1      11.818 -14.261  -2.417  1.00  0.00     0.001 A 
ATOM     82  C   UNL     1      10.643 -14.883  -2.003  1.00  0.00     0.000 A 
ENDBRANCH  64  77
ENDBRANCH  38  39
ENDBRANCH  31  33
ENDBRANCH  30  31
ENDBRANCH  29  30
ENDBRANCH  28  29
ENDBRANCH  27  28
ENDBRANCH   1  27
TORSDOF 18
