REMARK SMILES CN1C(=O)C[C@@H](C(=O)OCCOCCOC(=O)c2ccc(-c3c4nc(c(-c5ccccc5)c5ccc([nH]5)c(-c5ccccc5)c5nc(c(-c6ccccc6)c6ccc3[nH]6)C=C5)C=C4)cc2)C12CCN(S(=O)(=O)c1ccccc1F)CC2
REMARK SMILES IDX 12 1 11 2 10 3 9 4 7 5 8 6 6 7 1 8 2 9 3 10 66 11 4 12 5 13
REMARK SMILES IDX 67 14 81 15 68 16 80 17 69 18 70 19 71 20 72 21 73 22 74 23
REMARK SMILES IDX 78 24 75 25 77 26 79 27 76 28 13 29 14 30 15 31 16 32 17 33
REMARK SMILES IDX 18 34 19 35 65 36 20 37 64 38 21 39 22 40 23 41 58 42 24 43
REMARK SMILES IDX 63 44 57 45 59 46 25 47 62 48 56 49 55 50 26 52 48 53 33 54
REMARK SMILES IDX 47 55 34 56 37 57 46 58 60 59 35 60 36 61 45 63 61 64 38 65
REMARK SMILES IDX 27 66 28 67 32 68 29 69 31 70 30 71 49 72 50 73 54 74 51 75
REMARK SMILES IDX 53 76 52 77 39 78 40 79 44 80 41 81 43 82 42 83
REMARK H PARENT 59 51 37 62
REMARK Flexibility Score: inf
ROOT
ATOM      1  O   UNL     1      -1.948   1.061   6.725  1.00  0.00    -0.374 OA
ENDROOT
BRANCH   1   2
ATOM      2  C   UNL     1      -2.702   0.433   5.693  1.00  0.00     0.202 C 
BRANCH   2   3
ATOM      3  C   UNL     1      -2.738   1.115   4.318  1.00  0.00     0.261 C 
BRANCH   3   4
ATOM      4  O   UNL     1      -1.485   1.187   3.600  1.00  0.00    -0.463 OA
BRANCH   4   5
ATOM      5  C   UNL     1      -0.921   2.417   3.537  1.00  0.00     0.311 C 
ATOM      6  O   UNL     1      -1.295   3.375   4.210  1.00  0.00    -0.252 OA
BRANCH   5   7
ATOM      7  C   UNL     1       0.154   2.605   2.477  1.00  0.00     0.134 C 
ATOM      8  C   UNL     1       0.732  -0.160  -0.009  1.00  0.00     0.147 C 
ATOM      9  N   UNL     1       0.375   1.033   0.745  1.00  0.00    -0.339 N 
ATOM     10  C   UNL     1      -0.581   1.929   0.302  1.00  0.00     0.223 C 
ATOM     11  C   UNL     1       1.084   1.477   1.955  1.00  0.00     0.059 C 
ATOM     12  O   UNL     1      -1.283   1.822  -0.689  1.00  0.00    -0.275 OA
ATOM     13  C   UNL     1      -0.575   3.115   1.224  1.00  0.00     0.118 C 
ATOM     14  C   UNL     1       1.332   0.312   2.920  1.00  0.00     0.046 C 
ATOM     15  C   UNL     1       2.464   2.092   1.529  1.00  0.00     0.046 C 
ATOM     16  C   UNL     1       2.279   0.681   4.045  1.00  0.00     0.105 C 
ATOM     17  C   UNL     1       3.467   2.296   2.672  1.00  0.00     0.105 C 
ATOM     18  N   UNL     1       3.599   1.077   3.523  1.00  0.00    -0.198 NA
BRANCH  18  19
ATOM     19  S   UNL     1       4.669  -0.120   2.904  1.00  0.00     0.245 S 
ATOM     20  O   UNL     1       4.085  -0.690   1.708  1.00  0.00    -0.207 OA
ATOM     21  O   UNL     1       5.972   0.511   2.829  1.00  0.00    -0.207 OA
BRANCH  19  22
ATOM     22  C   UNL     1       4.771  -1.400   4.122  1.00  0.00     0.118 A 
ATOM     23  C   UNL     1       5.948  -1.582   4.858  1.00  0.00     0.025 A 
ATOM     24  C   UNL     1       3.732  -2.316   4.262  1.00  0.00     0.143 A 
ATOM     25  C   UNL     1       6.046  -2.650   5.758  1.00  0.00     0.002 A 
ATOM     26  C   UNL     1       3.813  -3.356   5.184  1.00  0.00     0.041 A 
ATOM     27  F   UNL     1       2.607  -2.221   3.544  1.00  0.00    -0.206 F 
ATOM     28  C   UNL     1       4.975  -3.527   5.931  1.00  0.00     0.003 A 
ENDBRANCH  19  22
ENDBRANCH  18  19
ENDBRANCH   5   7
ENDBRANCH   4   5
ENDBRANCH   3   4
ENDBRANCH   2   3
ENDBRANCH   1   2
BRANCH   1  29
ATOM     29  C   UNL     1      -0.526   1.017   6.634  1.00  0.00     0.202 C 
BRANCH  29  30
ATOM     30  C   UNL     1       0.105  -0.374   6.741  1.00  0.00     0.261 C 
BRANCH  30  31
ATOM     31  O   UNL     1      -0.287  -1.196   5.630  1.00  0.00    -0.460 OA
BRANCH  31  32
ATOM     32  C   UNL     1      -0.300  -2.519   5.910  1.00  0.00     0.338 C 
ATOM     33  O   UNL     1       0.224  -3.074   6.860  1.00  0.00    -0.246 OA
BRANCH  32  34
ATOM     34  C   UNL     1      -1.181  -3.224   4.963  1.00  0.00     0.060 A 
ATOM     35  C   UNL     1      -2.497  -3.499   5.355  1.00  0.00     0.016 A 
ATOM     36  C   UNL     1      -0.663  -3.755   3.783  1.00  0.00     0.016 A 
ATOM     37  C   UNL     1      -3.281  -4.370   4.595  1.00  0.00     0.010 A 
ATOM     38  C   UNL     1      -1.452  -4.625   3.022  1.00  0.00     0.010 A 
ATOM     39  C   UNL     1      -2.746  -4.977   3.451  1.00  0.00    -0.014 A 
BRANCH  39  40
ATOM     40  C   UNL     1      -3.459  -6.115   2.814  1.00  0.00     0.031 A 
ATOM     41  C   UNL     1      -3.017  -7.520   3.131  1.00  0.00     0.074 A 
ATOM     42  C   UNL     1      -4.504  -5.914   1.992  1.00  0.00     0.049 A 
ATOM     43  N   UNL     1      -3.476  -8.660   2.679  1.00  0.00    -0.248 NA
ATOM     44  C   UNL     1      -1.908  -7.656   4.091  1.00  0.00     0.031 C 
ATOM     45  C   UNL     1      -5.071  -4.612   1.647  1.00  0.00     0.029 A 
ATOM     46  N   UNL     1      -5.278  -6.813   1.300  1.00  0.00    -0.354 N 
ATOM     47  C   UNL     1      -2.710  -9.645   3.292  1.00  0.00     0.074 A 
ATOM     48  C   UNL     1      -1.736  -8.969   4.122  1.00  0.00     0.031 C 
ATOM     49  C   UNL     1      -6.107  -4.797   0.811  1.00  0.00     0.029 A 
ATOM     50  C   UNL     1      -6.254  -6.225   0.534  1.00  0.00     0.049 A 
ATOM     51  H   UNL     1      -5.145  -7.788   1.349  1.00  0.00     0.167 HD
ATOM     52  C   UNL     1      -2.809 -10.992   3.183  1.00  0.00     0.031 A 
ATOM     53  C   UNL     1      -7.153  -6.774  -0.306  1.00  0.00     0.031 A 
ATOM     54  C   UNL     1      -3.761 -11.668   2.343  1.00  0.00     0.049 A 
ATOM     55  C   UNL     1      -7.181  -8.269  -0.489  1.00  0.00     0.074 A 
ATOM     56  C   UNL     1      -3.937 -13.028   2.159  1.00  0.00     0.029 A 
ATOM     57  N   UNL     1      -4.694 -11.030   1.540  1.00  0.00    -0.354 N 
ATOM     58  N   UNL     1      -6.458  -9.188   0.103  1.00  0.00    -0.248 NA
ATOM     59  C   UNL     1      -8.155  -8.801  -1.455  1.00  0.00     0.031 C 
ATOM     60  C   UNL     1      -4.944 -13.212   1.205  1.00  0.00     0.029 A 
ATOM     61  C   UNL     1      -5.434 -11.968   0.842  1.00  0.00     0.049 A 
ATOM     62  H   UNL     1      -4.812 -10.055   1.477  1.00  0.00     0.167 HD
ATOM     63  C   UNL     1      -6.915 -10.406  -0.387  1.00  0.00     0.074 A 
ATOM     64  C   UNL     1      -7.978 -10.109  -1.325  1.00  0.00     0.031 C 
ATOM     65  C   UNL     1      -6.497 -11.659  -0.079  1.00  0.00     0.031 A 
BRANCH  52  66
ATOM     66  C   UNL     1      -1.829 -11.819   3.969  1.00  0.00    -0.014 A 
ATOM     67  C   UNL     1      -1.906 -11.909   5.368  1.00  0.00     0.009 A 
ATOM     68  C   UNL     1      -0.817 -12.524   3.299  1.00  0.00     0.009 A 
ATOM     69  C   UNL     1      -0.963 -12.652   6.083  1.00  0.00     0.001 A 
ATOM     70  C   UNL     1       0.107 -13.290   4.014  1.00  0.00     0.001 A 
ATOM     71  C   UNL     1       0.040 -13.343   5.405  1.00  0.00     0.000 A 
ENDBRANCH  52  66
BRANCH  53  72
ATOM     72  C   UNL     1      -8.107  -5.905  -1.044  1.00  0.00    -0.014 A 
ATOM     73  C   UNL     1      -9.475  -5.919  -0.729  1.00  0.00     0.009 A 
ATOM     74  C   UNL     1      -7.657  -5.061  -2.071  1.00  0.00     0.009 A 
ATOM     75  C   UNL     1     -10.373  -5.119  -1.439  1.00  0.00     0.001 A 
ATOM     76  C   UNL     1      -8.554  -4.242  -2.761  1.00  0.00     0.001 A 
ATOM     77  C   UNL     1      -9.912  -4.276  -2.449  1.00  0.00     0.000 A 
ENDBRANCH  53  72
BRANCH  65  78
ATOM     78  C   UNL     1      -7.225 -12.811  -0.713  1.00  0.00    -0.014 A 
ATOM     79  C   UNL     1      -7.038 -13.144  -2.063  1.00  0.00     0.009 A 
ATOM     80  C   UNL     1      -8.059 -13.618   0.078  1.00  0.00     0.009 A 
ATOM     81  C   UNL     1      -7.692 -14.250  -2.613  1.00  0.00     0.001 A 
ATOM     82  C   UNL     1      -8.689 -14.737  -0.467  1.00  0.00     0.001 A 
ATOM     83  C   UNL     1      -8.510 -15.048  -1.813  1.00  0.00     0.000 A 
ENDBRANCH  65  78
ENDBRANCH  39  40
ENDBRANCH  32  34
ENDBRANCH  31  32
ENDBRANCH  30  31
ENDBRANCH  29  30
ENDBRANCH   1  29
TORSDOF 16
