REMARK SMILES COc1ccc(-c2cc(Cl)cc3c2O[C@@H](C(F)(F)F)C(C(=O)OCCOCCOC(=O)c2ccc(-c4c5nc(c(-c6ccccc6)c6ccc([nH]6)c(-c6ccccc6)c6nc(c(-c7ccccc7)c7ccc4[nH]7)C=C6)C=C5)cc2)=C3)cc1C
REMARK SMILES IDX 26 1 25 2 24 3 23 4 21 5 22 6 20 7 7 8 8 9 13 10 9 11 12 12
REMARK SMILES IDX 14 13 10 14 11 15 80 16 15 17 6 18 3 19 4 20 82 21 5 22
REMARK SMILES IDX 81 23 83 24 2 25 1 26 16 27 17 28 18 29 19 30 27 31 28 32
REMARK SMILES IDX 29 33 30 34 31 35 32 36 33 37 79 38 34 39 78 40 35 41 36 42
REMARK SMILES IDX 37 43 72 44 38 45 77 46 71 47 73 48 39 49 76 50 70 51 69 52
REMARK SMILES IDX 40 54 62 55 47 56 61 57 48 58 51 59 60 60 74 61 49 62 50 63
REMARK SMILES IDX 59 65 75 66 52 67 41 68 42 69 46 70 43 71 45 72 44 73 63 74
REMARK SMILES IDX 64 75 68 76 65 77 67 78 66 79 53 80 54 81 58 82 55 83 57 84
REMARK SMILES IDX 56 85
REMARK H PARENT 73 53 51 64
REMARK Flexibility Score: inf
ROOT
ATOM      1  O   UNL     1      -2.098   1.555   6.724  1.00  0.00    -0.374 OA
ENDROOT
BRANCH   1   2
ATOM      2  C   UNL     1      -2.623   0.400   7.350  1.00  0.00     0.202 C 
BRANCH   2   3
ATOM      3  C   UNL     1      -1.572  -0.673   7.396  1.00  0.00     0.261 C 
BRANCH   3   4
ATOM      4  O   UNL     1      -0.636  -0.656   8.496  1.00  0.00    -0.460 OA
BRANCH   4   5
ATOM      5  C   UNL     1       0.684  -0.337   8.280  1.00  0.00     0.338 C 
ATOM      6  O   UNL     1       1.280  -0.331   7.224  1.00  0.00    -0.246 OA
BRANCH   5   7
ATOM      7  C   UNL     1       1.196   0.347   9.546  1.00  0.00     0.087 C 
ATOM      8  C   UNL     1       1.565   3.094   6.668  1.00  0.00     0.026 A 
ATOM      9  C   UNL     1       2.689   3.960   6.682  1.00  0.00     0.033 A 
ATOM     10  C   UNL     1       1.302   2.437   7.897  1.00  0.00     0.135 A 
ATOM     11  C   UNL     1       3.610   3.971   7.728  1.00  0.00     0.042 A 
ATOM     12  C   UNL     1       2.417   2.179   8.744  1.00  0.00     0.019 A 
ATOM     13  O   UNL     1       0.012   2.082   8.427  1.00  0.00    -0.475 OA
ATOM     14  Cl  UNL     1       4.953   5.040   7.672  1.00  0.00    -0.084 Cl
ATOM     15  C   UNL     1       3.525   3.017   8.725  1.00  0.00     0.032 A 
ATOM     16  C   UNL     1       2.398   0.956   9.600  1.00  0.00     0.027 C 
ATOM     17  C   UNL     1       0.137   1.407   9.779  1.00  0.00     0.316 C 
BRANCH   8  18
ATOM     18  C   UNL     1       1.205   2.683   5.250  1.00  0.00    -0.014 A 
ATOM     19  C   UNL     1       0.902   2.347   2.386  1.00  0.00     0.121 A 
ATOM     20  C   UNL     1      -0.092   2.931   3.173  1.00  0.00     0.047 A 
ATOM     21  C   UNL     1       2.121   2.050   2.985  1.00  0.00    -0.008 A 
ATOM     22  C   UNL     1       0.066   3.115   4.575  1.00  0.00     0.013 A 
ATOM     23  C   UNL     1       2.224   2.129   4.405  1.00  0.00     0.016 A 
ATOM     24  C   UNL     1       3.356   1.875   2.143  1.00  0.00     0.048 C 
BRANCH  19  25
ATOM     25  O   UNL     1       0.689   2.284   1.031  1.00  0.00    -0.496 OA
ATOM     26  C   UNL     1       0.642   0.952   0.510  1.00  0.00     0.278 C 
ENDBRANCH  19  25
ENDBRANCH   8  18
BRANCH  17  27
ATOM     27  C   UNL     1      -0.998   0.736  10.638  1.00  0.00     0.430 C 
ATOM     28  F   UNL     1      -0.638  -0.510  11.073  1.00  0.00    -0.167 F 
ATOM     29  F   UNL     1      -1.205   1.446  11.779  1.00  0.00    -0.167 F 
ATOM     30  F   UNL     1      -2.199   0.604  10.063  1.00  0.00    -0.167 F 
ENDBRANCH  17  27
ENDBRANCH   5   7
ENDBRANCH   4   5
ENDBRANCH   3   4
ENDBRANCH   2   3
ENDBRANCH   1   2
BRANCH   1  31
ATOM     31  C   UNL     1      -3.045   2.613   6.645  1.00  0.00     0.202 C 
BRANCH  31  32
ATOM     32  C   UNL     1      -4.298   2.247   5.829  1.00  0.00     0.261 C 
BRANCH  32  33
ATOM     33  O   UNL     1      -3.896   1.692   4.556  1.00  0.00    -0.460 OA
BRANCH  33  34
ATOM     34  C   UNL     1      -4.258   0.399   4.307  1.00  0.00     0.338 C 
ATOM     35  O   UNL     1      -5.340  -0.095   4.582  1.00  0.00    -0.246 OA
BRANCH  34  36
ATOM     36  C   UNL     1      -3.053  -0.410   3.930  1.00  0.00     0.060 A 
ATOM     37  C   UNL     1      -3.090  -1.811   3.894  1.00  0.00     0.016 A 
ATOM     38  C   UNL     1      -1.815   0.212   3.931  1.00  0.00     0.016 A 
ATOM     39  C   UNL     1      -1.903  -2.563   4.046  1.00  0.00     0.010 A 
ATOM     40  C   UNL     1      -0.656  -0.523   4.116  1.00  0.00     0.010 A 
ATOM     41  C   UNL     1      -0.688  -1.915   4.261  1.00  0.00    -0.014 A 
BRANCH  41  42
ATOM     42  C   UNL     1       0.557  -2.504   4.808  1.00  0.00     0.031 A 
ATOM     43  C   UNL     1       1.823  -2.315   4.064  1.00  0.00     0.074 A 
ATOM     44  C   UNL     1       0.638  -2.900   6.107  1.00  0.00     0.049 A 
ATOM     45  N   UNL     1       2.967  -2.720   4.478  1.00  0.00    -0.248 NA
ATOM     46  C   UNL     1       1.917  -1.669   2.760  1.00  0.00     0.031 C 
ATOM     47  C   UNL     1       1.812  -3.027   6.987  1.00  0.00     0.029 A 
ATOM     48  N   UNL     1      -0.389  -3.233   6.982  1.00  0.00    -0.354 N 
ATOM     49  C   UNL     1       3.947  -2.147   3.712  1.00  0.00     0.074 A 
ATOM     50  C   UNL     1       3.242  -1.582   2.594  1.00  0.00     0.031 C 
ATOM     51  C   UNL     1       1.480  -3.672   8.122  1.00  0.00     0.029 A 
ATOM     52  C   UNL     1       0.102  -4.095   7.971  1.00  0.00     0.049 A 
ATOM     53  H   UNL     1      -1.318  -2.913   6.917  1.00  0.00     0.167 HD
ATOM     54  C   UNL     1       5.221  -2.168   4.196  1.00  0.00     0.031 A 
ATOM     55  C   UNL     1      -0.424  -5.341   8.055  1.00  0.00     0.031 A 
ATOM     56  C   UNL     1       5.306  -3.079   5.353  1.00  0.00     0.049 A 
ATOM     57  C   UNL     1       0.686  -6.235   7.569  1.00  0.00     0.074 A 
ATOM     58  C   UNL     1       5.470  -2.916   6.718  1.00  0.00     0.029 A 
ATOM     59  N   UNL     1       4.833  -4.386   5.181  1.00  0.00    -0.354 N 
ATOM     60  N   UNL     1       1.587  -5.852   6.694  1.00  0.00    -0.248 NA
ATOM     61  C   UNL     1       1.040  -7.477   8.246  1.00  0.00     0.031 C 
ATOM     62  C   UNL     1       4.954  -4.095   7.358  1.00  0.00     0.029 A 
ATOM     63  C   UNL     1       4.495  -4.978   6.385  1.00  0.00     0.049 A 
ATOM     64  H   UNL     1       4.751  -4.831   4.306  1.00  0.00     0.167 HD
ATOM     65  C   UNL     1       2.702  -6.616   6.867  1.00  0.00     0.074 A 
ATOM     66  C   UNL     1       2.282  -7.679   7.773  1.00  0.00     0.031 C 
ATOM     67  C   UNL     1       3.957  -6.340   6.409  1.00  0.00     0.031 A 
BRANCH  54  68
ATOM     68  C   UNL     1       6.344  -1.267   3.721  1.00  0.00    -0.014 A 
ATOM     69  C   UNL     1       7.551  -1.208   4.441  1.00  0.00     0.009 A 
ATOM     70  C   UNL     1       6.261  -0.396   2.617  1.00  0.00     0.009 A 
ATOM     71  C   UNL     1       8.592  -0.327   4.091  1.00  0.00     0.001 A 
ATOM     72  C   UNL     1       7.292   0.488   2.261  1.00  0.00     0.001 A 
ATOM     73  C   UNL     1       8.461   0.525   3.002  1.00  0.00     0.000 A 
ENDBRANCH  54  68
BRANCH  55  74
ATOM     74  C   UNL     1      -1.904  -5.282   7.781  1.00  0.00    -0.014 A 
ATOM     75  C   UNL     1      -2.680  -4.583   8.750  1.00  0.00     0.009 A 
ATOM     76  C   UNL     1      -2.438  -5.380   6.489  1.00  0.00     0.009 A 
ATOM     77  C   UNL     1      -3.841  -3.877   8.401  1.00  0.00     0.001 A 
ATOM     78  C   UNL     1      -3.623  -4.692   6.152  1.00  0.00     0.001 A 
ATOM     79  C   UNL     1      -4.292  -3.901   7.088  1.00  0.00     0.000 A 
ENDBRANCH  55  74
BRANCH  67  80
ATOM     80  C   UNL     1       4.763  -7.470   5.838  1.00  0.00    -0.014 A 
ATOM     81  C   UNL     1       4.179  -8.703   5.498  1.00  0.00     0.009 A 
ATOM     82  C   UNL     1       6.089  -7.249   5.425  1.00  0.00     0.009 A 
ATOM     83  C   UNL     1       4.901  -9.691   4.836  1.00  0.00     0.001 A 
ATOM     84  C   UNL     1       6.793  -8.211   4.704  1.00  0.00     0.001 A 
ATOM     85  C   UNL     1       6.204  -9.440   4.428  1.00  0.00     0.000 A 
ENDBRANCH  67  80
ENDBRANCH  41  42
ENDBRANCH  34  36
ENDBRANCH  33  34
ENDBRANCH  32  33
ENDBRANCH  31  32
ENDBRANCH   1  31
TORSDOF 17
