REMARK SMILES O=C(COc1ccccc1[C@@H]1[NH2+]CCc2cc(O)c(O)cc21)OCCOCCOC(=O)c1ccc(-c2c3nc(c(-c4ccccc4)c4ccc([nH]4)c(-c4ccccc4)c4nc(c(-c5ccccc5)c5ccc2[nH]5)C=C4)C=C3)cc1
REMARK SMILES IDX 25 1 24 2 23 3 2 4 1 5 3 6 4 7 5 8 6 9 10 10 7 11 9 12 8 13
REMARK SMILES IDX 11 14 12 15 22 16 13 17 15 20 21 21 14 22 16 23 19 24 17 25
REMARK SMILES IDX 20 26 18 28 26 30 27 31 28 32 29 33 30 34 31 35 32 36 33 37
REMARK SMILES IDX 79 38 34 39 78 40 35 41 36 42 37 43 72 44 38 45 77 46 71 47
REMARK SMILES IDX 73 48 39 49 76 50 70 51 69 52 40 54 62 55 47 56 61 57 48 58
REMARK SMILES IDX 51 59 60 60 74 61 49 62 50 63 59 65 75 66 52 67 41 68 42 69
REMARK SMILES IDX 46 70 43 71 45 72 44 73 63 74 64 75 68 76 65 77 67 78 66 79
REMARK SMILES IDX 53 80 54 81 58 82 55 83 57 84 56 85
REMARK H PARENT 12 18 12 19 20 27 18 29 73 53 51 64
REMARK Flexibility Score: inf
ROOT
ATOM      1  C   UNL     1       5.707   1.446   0.230  1.00  0.00     0.202 C 
ENDROOT
BRANCH   1   2
ATOM      2  C   UNL     1       5.750   0.132  -0.573  1.00  0.00     0.261 C 
BRANCH   2   3
ATOM      3  O   UNL     1       4.470  -0.191  -1.135  1.00  0.00    -0.461 OA
BRANCH   3   4
ATOM      4  C   UNL     1       3.465  -0.215  -0.226  1.00  0.00     0.344 C 
ATOM      5  O   UNL     1       2.526   0.569  -0.329  1.00  0.00    -0.248 OA
BRANCH   4   6
ATOM      6  C   UNL     1       3.675  -1.247   0.896  1.00  0.00     0.351 C 
BRANCH   6   7
ATOM      7  O   UNL     1       3.840  -2.595   0.560  1.00  0.00    -0.481 OA
BRANCH   7   8
ATOM      8  C   UNL     1       2.910  -3.386  -0.041  1.00  0.00     0.129 A 
ATOM      9  C   UNL     1       3.506  -4.650  -0.242  1.00  0.00     0.047 A 
ATOM     10  C   UNL     1       1.583  -3.158  -0.481  1.00  0.00     0.056 A 
ATOM     11  C   UNL     1       2.869  -5.666  -0.938  1.00  0.00     0.004 A 
ATOM     12  C   UNL     1       0.987  -4.194  -1.244  1.00  0.00     0.014 A 
ATOM     13  C   UNL     1       1.616  -5.424  -1.469  1.00  0.00     0.001 A 
BRANCH  10  14
ATOM     14  C   UNL     1       0.783  -1.868  -0.294  1.00  0.00     0.249 C 
ATOM     15  N   UNL     1       0.938  -1.264   1.042  1.00  0.00    -0.336 N 
ATOM     16  C   UNL     1      -0.730  -1.817  -0.558  1.00  0.00     0.021 A 
ATOM     17  C   UNL     1       0.252  -1.976   2.125  1.00  0.00     0.266 C 
ATOM     18  H   UNL     1       0.570  -0.314   1.004  1.00  0.00     0.347 HD
ATOM     19  H   UNL     1       1.934  -1.304   1.259  1.00  0.00     0.347 HD
ATOM     20  C   UNL     1      -1.583  -2.221   0.501  1.00  0.00    -0.029 A 
ATOM     21  C   UNL     1      -1.251  -1.081  -1.633  1.00  0.00     0.060 A 
ATOM     22  C   UNL     1      -0.923  -2.860   1.693  1.00  0.00     0.097 C 
ATOM     23  C   UNL     1      -2.927  -1.849   0.511  1.00  0.00     0.054 A 
ATOM     24  C   UNL     1      -2.584  -0.687  -1.589  1.00  0.00     0.157 A 
ATOM     25  C   UNL     1      -3.403  -1.055  -0.520  1.00  0.00     0.157 A 
BRANCH  24  26
ATOM     26  O   UNL     1      -3.119   0.144  -2.536  1.00  0.00    -0.504 OA
ATOM     27  H   UNL     1      -4.021   0.395  -2.484  1.00  0.00     0.293 HD
ENDBRANCH  24  26
BRANCH  25  28
ATOM     28  O   UNL     1      -4.674  -0.560  -0.437  1.00  0.00    -0.504 OA
ATOM     29  H   UNL     1      -5.226  -0.805   0.279  1.00  0.00     0.293 HD
ENDBRANCH  25  28
ENDBRANCH  10  14
ENDBRANCH   7   8
ENDBRANCH   6   7
ENDBRANCH   4   6
ENDBRANCH   3   4
ENDBRANCH   2   3
ENDBRANCH   1   2
BRANCH   1  30
ATOM     30  O   UNL     1       5.352   1.377   1.609  1.00  0.00    -0.374 OA
BRANCH  30  31
ATOM     31  C   UNL     1       4.082   1.848   2.076  1.00  0.00     0.202 C 
BRANCH  31  32
ATOM     32  C   UNL     1       3.523   3.253   1.778  1.00  0.00     0.261 C 
BRANCH  32  33
ATOM     33  O   UNL     1       3.659   3.709   0.434  1.00  0.00    -0.460 OA
BRANCH  33  34
ATOM     34  C   UNL     1       4.767   4.457   0.218  1.00  0.00     0.338 C 
ATOM     35  O   UNL     1       5.609   4.795   1.027  1.00  0.00    -0.246 OA
BRANCH  34  36
ATOM     36  C   UNL     1       4.930   4.614  -1.234  1.00  0.00     0.060 A 
ATOM     37  C   UNL     1       6.099   4.107  -1.820  1.00  0.00     0.016 A 
ATOM     38  C   UNL     1       3.964   5.271  -1.994  1.00  0.00     0.016 A 
ATOM     39  C   UNL     1       6.325   4.276  -3.176  1.00  0.00     0.010 A 
ATOM     40  C   UNL     1       4.210   5.481  -3.346  1.00  0.00     0.010 A 
ATOM     41  C   UNL     1       5.407   5.018  -3.923  1.00  0.00    -0.014 A 
BRANCH  41  42
ATOM     42  C   UNL     1       5.815   5.544  -5.236  1.00  0.00     0.031 A 
ATOM     43  C   UNL     1       6.390   6.928  -5.274  1.00  0.00     0.074 A 
ATOM     44  C   UNL     1       5.649   4.818  -6.349  1.00  0.00     0.049 A 
ATOM     45  N   UNL     1       6.676   7.678  -6.302  1.00  0.00    -0.248 NA
ATOM     46  C   UNL     1       6.663   7.556  -3.968  1.00  0.00     0.031 C 
ATOM     47  C   UNL     1       5.155   3.443  -6.397  1.00  0.00     0.029 A 
ATOM     48  N   UNL     1       5.849   5.159  -7.659  1.00  0.00    -0.354 N 
ATOM     49  C   UNL     1       7.130   8.877  -5.768  1.00  0.00     0.074 A 
ATOM     50  C   UNL     1       7.071   8.761  -4.330  1.00  0.00     0.031 C 
ATOM     51  C   UNL     1       5.050   3.069  -7.684  1.00  0.00     0.029 A 
ATOM     52  C   UNL     1       5.425   4.194  -8.537  1.00  0.00     0.049 A 
ATOM     53  H   UNL     1       6.257   6.009  -7.942  1.00  0.00     0.167 HD
ATOM     54  C   UNL     1       7.547   9.982  -6.428  1.00  0.00     0.031 A 
ATOM     55  C   UNL     1       5.306   4.245  -9.877  1.00  0.00     0.031 A 
ATOM     56  C   UNL     1       7.569  10.082  -7.860  1.00  0.00     0.049 A 
ATOM     57  C   UNL     1       5.708   5.506 -10.592  1.00  0.00     0.074 A 
ATOM     58  C   UNL     1       7.989  11.137  -8.646  1.00  0.00     0.029 A 
ATOM     59  N   UNL     1       7.133   9.083  -8.720  1.00  0.00    -0.354 N 
ATOM     60  N   UNL     1       6.160   6.631 -10.089  1.00  0.00    -0.248 NA
ATOM     61  C   UNL     1       5.589   5.504 -12.055  1.00  0.00     0.031 C 
ATOM     62  C   UNL     1       7.745  10.802  -9.982  1.00  0.00     0.029 A 
ATOM     63  C   UNL     1       7.242   9.510 -10.030  1.00  0.00     0.049 A 
ATOM     64  H   UNL     1       6.797   8.201  -8.439  1.00  0.00     0.167 HD
ATOM     65  C   UNL     1       6.406   7.462 -11.175  1.00  0.00     0.074 A 
ATOM     66  C   UNL     1       6.058   6.707 -12.362  1.00  0.00     0.031 C 
ATOM     67  C   UNL     1       6.885   8.731 -11.191  1.00  0.00     0.031 A 
BRANCH  54  68
ATOM     68  C   UNL     1       7.932  11.174  -5.597  1.00  0.00    -0.014 A 
ATOM     69  C   UNL     1       9.074  11.169  -4.779  1.00  0.00     0.009 A 
ATOM     70  C   UNL     1       7.121  12.319  -5.620  1.00  0.00     0.009 A 
ATOM     71  C   UNL     1       9.366  12.267  -3.966  1.00  0.00     0.001 A 
ATOM     72  C   UNL     1       7.434  13.428  -4.831  1.00  0.00     0.001 A 
ATOM     73  C   UNL     1       8.548  13.396  -3.995  1.00  0.00     0.000 A 
ENDBRANCH  54  68
BRANCH  55  74
ATOM     74  C   UNL     1       4.745   3.078 -10.603  1.00  0.00    -0.014 A 
ATOM     75  C   UNL     1       5.563   2.269 -11.405  1.00  0.00     0.009 A 
ATOM     76  C   UNL     1       3.389   2.740 -10.461  1.00  0.00     0.009 A 
ATOM     77  C   UNL     1       5.032   1.153 -12.056  1.00  0.00     0.001 A 
ATOM     78  C   UNL     1       2.867   1.609 -11.090  1.00  0.00     0.001 A 
ATOM     79  C   UNL     1       3.688   0.819 -11.892  1.00  0.00     0.000 A 
ENDBRANCH  55  74
BRANCH  67  80
ATOM     80  C   UNL     1       7.103   9.370 -12.533  1.00  0.00    -0.014 A 
ATOM     81  C   UNL     1       6.028   9.819 -13.313  1.00  0.00     0.009 A 
ATOM     82  C   UNL     1       8.415   9.601 -12.978  1.00  0.00     0.009 A 
ATOM     83  C   UNL     1       6.264  10.470 -14.526  1.00  0.00     0.001 A 
ATOM     84  C   UNL     1       8.648  10.279 -14.174  1.00  0.00     0.001 A 
ATOM     85  C   UNL     1       7.572  10.707 -14.950  1.00  0.00     0.000 A 
ENDBRANCH  67  80
ENDBRANCH  41  42
ENDBRANCH  34  36
ENDBRANCH  33  34
ENDBRANCH  32  33
ENDBRANCH  31  32
ENDBRANCH  30  31
ENDBRANCH   1  30
TORSDOF 19
