REMARK SMILES O=C(OCCOCCOC(=O)[C@]1(NC(=O)C2CCN(C(=O)C3CC3)CC2)CCCc2ccccc21)c1ccc(-c2c3nc(c(-c4ccccc4)c4ccc([nH]4)c(-c4ccccc4)c4nc(c(-c5ccccc5)c5ccc2[nH]5)C=C4)C=C3)cc1
REMARK SMILES IDX 7 1 6 2 5 3 4 4 3 5 2 6 1 7 36 8 37 9 83 10 38 11 82 12
REMARK SMILES IDX 39 13 40 14 41 15 76 16 42 17 81 18 75 19 77 20 43 21 80 22
REMARK SMILES IDX 74 23 73 24 44 26 66 27 51 28 65 29 52 30 55 31 64 32 78 33
REMARK SMILES IDX 53 34 54 35 63 37 79 38 56 39 45 40 46 41 50 42 47 43 49 44
REMARK SMILES IDX 48 45 67 46 68 47 72 48 69 49 71 50 70 51 57 52 58 53 62 54
REMARK SMILES IDX 59 55 61 56 60 57 8 58 9 59 10 60 11 61 12 62 27 63 35 64
REMARK SMILES IDX 28 65 30 66 34 67 29 68 31 69 33 70 32 71 13 72 14 73 15 75
REMARK SMILES IDX 16 76 17 77 26 78 18 79 25 80 19 81 20 82 21 83 22 84 23 85
REMARK SMILES IDX 24 86
REMARK H PARENT 77 25 55 36 13 74
REMARK Flexibility Score: inf
ROOT
ATOM      1  C   UNL     1       2.628   0.814  -0.907  1.00  0.00     0.202 C 
ENDROOT
BRANCH   1   2
ATOM      2  O   UNL     1       4.014   0.688  -0.590  1.00  0.00    -0.374 OA
BRANCH   2   3
ATOM      3  C   UNL     1       4.611  -0.590  -0.786  1.00  0.00     0.202 C 
BRANCH   3   4
ATOM      4  C   UNL     1       4.257  -1.671   0.243  1.00  0.00     0.261 C 
BRANCH   4   5
ATOM      5  O   UNL     1       2.833  -1.762   0.453  1.00  0.00    -0.460 OA
BRANCH   5   6
ATOM      6  C   UNL     1       2.109  -1.233   1.473  1.00  0.00     0.338 C 
ATOM      7  O   UNL     1       0.902  -1.450   1.533  1.00  0.00    -0.246 OA
BRANCH   6   8
ATOM      8  C   UNL     1       2.731  -0.400   2.540  1.00  0.00     0.060 A 
ATOM      9  C   UNL     1       3.843   0.407   2.327  1.00  0.00     0.016 A 
ATOM     10  C   UNL     1       2.150  -0.392   3.816  1.00  0.00     0.016 A 
ATOM     11  C   UNL     1       4.461   1.088   3.342  1.00  0.00     0.010 A 
ATOM     12  C   UNL     1       2.745   0.329   4.859  1.00  0.00     0.010 A 
ATOM     13  C   UNL     1       3.932   1.029   4.620  1.00  0.00    -0.014 A 
BRANCH  13  14
ATOM     14  C   UNL     1       4.839   1.515   5.666  1.00  0.00     0.031 A 
ATOM     15  C   UNL     1       5.650   0.487   6.393  1.00  0.00     0.074 A 
ATOM     16  C   UNL     1       5.155   2.822   5.694  1.00  0.00     0.049 A 
ATOM     17  N   UNL     1       6.548   0.649   7.322  1.00  0.00    -0.248 NA
ATOM     18  C   UNL     1       5.448  -0.919   5.988  1.00  0.00     0.031 C 
ATOM     19  C   UNL     1       4.590   3.845   4.805  1.00  0.00     0.029 A 
ATOM     20  N   UNL     1       6.098   3.494   6.417  1.00  0.00    -0.354 N 
ATOM     21  C   UNL     1       6.967  -0.631   7.658  1.00  0.00     0.074 A 
ATOM     22  C   UNL     1       6.261  -1.561   6.810  1.00  0.00     0.031 C 
ATOM     23  C   UNL     1       5.248   5.000   4.992  1.00  0.00     0.029 A 
ATOM     24  C   UNL     1       6.198   4.823   6.082  1.00  0.00     0.049 A 
ATOM     25  H   UNL     1       6.651   3.069   7.111  1.00  0.00     0.167 HD
ATOM     26  C   UNL     1       7.841  -0.988   8.624  1.00  0.00     0.031 A 
ATOM     27  C   UNL     1       6.951   5.787   6.639  1.00  0.00     0.031 A 
ATOM     28  C   UNL     1       8.517  -0.022   9.442  1.00  0.00     0.049 A 
ATOM     29  C   UNL     1       7.810   5.388   7.806  1.00  0.00     0.074 A 
ATOM     30  C   UNL     1       9.309  -0.217  10.555  1.00  0.00     0.029 A 
ATOM     31  N   UNL     1       8.474   1.347   9.206  1.00  0.00    -0.354 N 
ATOM     32  N   UNL     1       8.066   4.184   8.265  1.00  0.00    -0.248 NA
ATOM     33  C   UNL     1       8.442   6.474   8.560  1.00  0.00     0.031 C 
ATOM     34  C   UNL     1       9.711   1.042  11.018  1.00  0.00     0.029 A 
ATOM     35  C   UNL     1       9.210   2.015  10.162  1.00  0.00     0.049 A 
ATOM     36  H   UNL     1       7.989   1.777   8.465  1.00  0.00     0.167 HD
ATOM     37  C   UNL     1       8.885   4.365   9.368  1.00  0.00     0.074 A 
ATOM     38  C   UNL     1       9.108   5.795   9.484  1.00  0.00     0.031 C 
ATOM     39  C   UNL     1       9.396   3.443  10.222  1.00  0.00     0.031 A 
BRANCH  26  40
ATOM     40  C   UNL     1       7.960  -2.456   8.909  1.00  0.00    -0.014 A 
ATOM     41  C   UNL     1       8.654  -3.329   8.058  1.00  0.00     0.009 A 
ATOM     42  C   UNL     1       7.263  -2.987  10.006  1.00  0.00     0.009 A 
ATOM     43  C   UNL     1       8.611  -4.710   8.278  1.00  0.00     0.001 A 
ATOM     44  C   UNL     1       7.239  -4.364  10.235  1.00  0.00     0.001 A 
ATOM     45  C   UNL     1       7.902  -5.225   9.364  1.00  0.00     0.000 A 
ENDBRANCH  26  40
BRANCH  27  46
ATOM     46  C   UNL     1       6.835   7.200   6.187  1.00  0.00    -0.014 A 
ATOM     47  C   UNL     1       7.933   7.886   5.649  1.00  0.00     0.009 A 
ATOM     48  C   UNL     1       5.610   7.881   6.302  1.00  0.00     0.009 A 
ATOM     49  C   UNL     1       7.809   9.222   5.249  1.00  0.00     0.001 A 
ATOM     50  C   UNL     1       5.479   9.203   5.872  1.00  0.00     0.001 A 
ATOM     51  C   UNL     1       6.582   9.876   5.355  1.00  0.00     0.000 A 
ENDBRANCH  27  46
BRANCH  39  52
ATOM     52  C   UNL     1      10.260   3.970  11.324  1.00  0.00    -0.014 A 
ATOM     53  C   UNL     1       9.696   4.601  12.443  1.00  0.00     0.009 A 
ATOM     54  C   UNL     1      11.649   3.793  11.255  1.00  0.00     0.009 A 
ATOM     55  C   UNL     1      10.518   5.073  13.465  1.00  0.00     0.001 A 
ATOM     56  C   UNL     1      12.465   4.244  12.290  1.00  0.00     0.001 A 
ATOM     57  C   UNL     1      11.900   4.890  13.389  1.00  0.00     0.000 A 
ENDBRANCH  39  52
ENDBRANCH  13  14
ENDBRANCH   6   8
ENDBRANCH   5   6
ENDBRANCH   4   5
ENDBRANCH   3   4
ENDBRANCH   2   3
ENDBRANCH   1   2
BRANCH   1  58
ATOM     58  C   UNL     1       2.456   1.966  -1.874  1.00  0.00     0.261 C 
BRANCH  58  59
ATOM     59  O   UNL     1       3.102   1.602  -3.102  1.00  0.00    -0.461 OA
BRANCH  59  60
ATOM     60  C   UNL     1       4.433   1.909  -3.172  1.00  0.00     0.336 C 
ATOM     61  O   UNL     1       5.037   2.569  -2.332  1.00  0.00    -0.249 OA
BRANCH  60  62
ATOM     62  C   UNL     1       5.006   1.515  -4.561  1.00  0.00     0.164 C 
ATOM     63  C   UNL     1       4.242   0.358  -5.256  1.00  0.00     0.046 C 
ATOM     64  C   UNL     1       6.461   1.068  -4.294  1.00  0.00    -0.008 A 
ATOM     65  C   UNL     1       4.359  -0.982  -4.538  1.00  0.00     0.008 C 
ATOM     66  C   UNL     1       6.782  -0.281  -4.048  1.00  0.00    -0.042 A 
ATOM     67  C   UNL     1       7.467   2.044  -4.122  1.00  0.00     0.007 A 
ATOM     68  C   UNL     1       5.800  -1.404  -4.260  1.00  0.00     0.036 C 
ATOM     69  C   UNL     1       8.084  -0.613  -3.625  1.00  0.00     0.004 A 
ATOM     70  C   UNL     1       8.752   1.699  -3.710  1.00  0.00     0.000 A 
ATOM     71  C   UNL     1       9.058   0.370  -3.452  1.00  0.00     0.000 A 
BRANCH  62  72
ATOM     72  N   UNL     1       5.021   2.683  -5.497  1.00  0.00    -0.336 N 
ATOM     73  C   UNL     1       4.126   3.691  -5.718  1.00  0.00     0.224 C 
ATOM     74  H   UNL     1       5.828   2.734  -6.059  1.00  0.00     0.164 HD
ATOM     75  O   UNL     1       4.009   4.109  -6.872  1.00  0.00    -0.275 OA
BRANCH  73  76
ATOM     76  C   UNL     1       3.406   4.384  -4.562  1.00  0.00     0.082 C 
ATOM     77  C   UNL     1       1.899   4.070  -4.549  1.00  0.00     0.035 C 
ATOM     78  C   UNL     1       3.740   5.891  -4.528  1.00  0.00     0.035 C 
ATOM     79  C   UNL     1       1.061   5.038  -5.383  1.00  0.00     0.120 C 
ATOM     80  C   UNL     1       2.796   6.712  -5.386  1.00  0.00     0.120 C 
ATOM     81  N   UNL     1       1.431   6.399  -5.016  1.00  0.00    -0.342 N 
ATOM     82  C   UNL     1       0.587   7.101  -4.163  1.00  0.00     0.225 C 
ATOM     83  O   UNL     1      -0.579   6.744  -3.988  1.00  0.00    -0.275 OA
BRANCH  82  84
ATOM     84  C   UNL     1       1.039   8.238  -3.308  1.00  0.00     0.079 C 
ATOM     85  C   UNL     1       2.158   9.237  -3.391  1.00  0.00     0.014 C 
ATOM     86  C   UNL     1       0.790   9.635  -3.845  1.00  0.00     0.014 C 
ENDBRANCH  82  84
ENDBRANCH  73  76
ENDBRANCH  62  72
ENDBRANCH  60  62
ENDBRANCH  59  60
ENDBRANCH  58  59
ENDBRANCH   1  58
TORSDOF 17
