REMARK SMILES Cc1cc(C)cc(-c2ccc([C@@H](C)C(=O)OCCOCCOC(=O)c3ccc(-c4c5nc(c(-c6ccccc6)c6ccc([nH]6)c(-c6ccccc6)c6nc(c(-c7ccccc7)c7ccc4[nH]7)C=C6)C=C5)cc3)cc2F)c1
REMARK SMILES IDX 19 1 18 2 17 3 16 4 14 5 15 6 12 7 13 8 11 9 8 10 9 11 74 12
REMARK SMILES IDX 10 13 73 14 75 15 7 16 1 17 2 18 3 19 76 20 4 21 5 22 6 23
REMARK SMILES IDX 20 24 21 25 22 26 23 27 24 28 25 29 26 30 72 31 27 32 71 33
REMARK SMILES IDX 28 34 29 35 30 36 65 37 31 38 70 39 64 40 66 41 32 42 69 43
REMARK SMILES IDX 63 44 62 45 33 47 55 48 40 49 54 50 41 51 44 52 53 53 67 54
REMARK SMILES IDX 42 55 43 56 52 58 68 59 45 60 34 61 35 62 39 63 36 64 38 65
REMARK SMILES IDX 37 66 56 67 57 68 61 69 58 70 60 71 59 72 46 73 47 74 51 75
REMARK SMILES IDX 48 76 50 77 49 78
REMARK H PARENT 66 46 44 57
REMARK Flexibility Score: inf
ROOT
ATOM      1  O   UNL     1       3.219  -8.155  -2.431  1.00  0.00    -0.374 OA
ENDROOT
BRANCH   1   2
ATOM      2  C   UNL     1       2.223  -8.292  -3.443  1.00  0.00     0.202 C 
BRANCH   2   3
ATOM      3  C   UNL     1       0.916  -8.959  -3.007  1.00  0.00     0.261 C 
BRANCH   3   4
ATOM      4  O   UNL     1       0.198  -8.134  -2.070  1.00  0.00    -0.463 OA
BRANCH   4   5
ATOM      5  C   UNL     1       0.010  -8.667  -0.835  1.00  0.00     0.313 C 
ATOM      6  O   UNL     1       0.292  -9.822  -0.529  1.00  0.00    -0.252 OA
BRANCH   5   7
ATOM      7  C   UNL     1      -0.642  -7.716   0.155  1.00  0.00     0.126 C 
ATOM      8  C   UNL     1      -2.135  -8.029   0.236  1.00  0.00     0.025 C 
BRANCH   7   9
ATOM      9  C   UNL     1      -0.383  -6.221  -0.010  1.00  0.00    -0.031 A 
ATOM     10  C   UNL     1      -0.087  -3.381  -0.100  1.00  0.00     0.017 A 
ATOM     11  C   UNL     1      -0.767  -4.078  -1.113  1.00  0.00     0.012 A 
ATOM     12  C   UNL     1       0.485  -4.144   0.925  1.00  0.00     0.131 A 
ATOM     13  C   UNL     1      -0.912  -5.473  -1.071  1.00  0.00     0.005 A 
ATOM     14  C   UNL     1       0.343  -5.533   0.976  1.00  0.00     0.044 A 
ATOM     15  F   UNL     1       1.155  -3.545   1.922  1.00  0.00    -0.206 F 
BRANCH  10  16
ATOM     16  C   UNL     1      -0.039  -1.908  -0.091  1.00  0.00    -0.015 A 
ATOM     17  C   UNL     1       2.515   0.939   0.012  1.00  0.00     0.044 C 
ATOM     18  C   UNL     1       1.212   0.195  -0.029  1.00  0.00    -0.050 A 
ATOM     19  C   UNL     1       0.009   0.909  -0.031  1.00  0.00     0.006 A 
ATOM     20  C   UNL     1       1.179  -1.208  -0.055  1.00  0.00     0.012 A 
ATOM     21  C   UNL     1      -1.220   0.241  -0.057  1.00  0.00    -0.050 A 
ATOM     22  C   UNL     1      -2.498   1.026  -0.040  1.00  0.00     0.044 C 
ATOM     23  C   UNL     1      -1.232  -1.160  -0.092  1.00  0.00     0.012 A 
ENDBRANCH  10  16
ENDBRANCH   7   9
ENDBRANCH   5   7
ENDBRANCH   4   5
ENDBRANCH   3   4
ENDBRANCH   2   3
ENDBRANCH   1   2
BRANCH   1  24
ATOM     24  C   UNL     1       3.048  -7.100  -1.483  1.00  0.00     0.202 C 
BRANCH  24  25
ATOM     25  C   UNL     1       3.405  -5.690  -1.969  1.00  0.00     0.261 C 
BRANCH  25  26
ATOM     26  O   UNL     1       2.491  -5.218  -2.977  1.00  0.00    -0.460 OA
BRANCH  26  27
ATOM     27  C   UNL     1       3.034  -5.035  -4.202  1.00  0.00     0.338 C 
ATOM     28  O   UNL     1       4.210  -5.147  -4.520  1.00  0.00    -0.246 OA
BRANCH  27  29
ATOM     29  C   UNL     1       1.967  -4.842  -5.201  1.00  0.00     0.060 A 
ATOM     30  C   UNL     1       1.972  -5.680  -6.324  1.00  0.00     0.016 A 
ATOM     31  C   UNL     1       1.024  -3.819  -5.084  1.00  0.00     0.016 A 
ATOM     32  C   UNL     1       1.058  -5.474  -7.355  1.00  0.00     0.010 A 
ATOM     33  C   UNL     1       0.115  -3.606  -6.126  1.00  0.00     0.010 A 
ATOM     34  C   UNL     1       0.147  -4.413  -7.279  1.00  0.00    -0.014 A 
BRANCH  34  35
ATOM     35  C   UNL     1      -0.685  -4.074  -8.458  1.00  0.00     0.031 A 
ATOM     36  C   UNL     1      -0.242  -2.970  -9.377  1.00  0.00     0.074 A 
ATOM     37  C   UNL     1      -1.814  -4.756  -8.722  1.00  0.00     0.049 A 
ATOM     38  N   UNL     1      -0.835  -2.490 -10.441  1.00  0.00    -0.248 NA
ATOM     39  C   UNL     1       1.039  -2.321  -9.055  1.00  0.00     0.031 C 
ATOM     40  C   UNL     1      -2.328  -5.878  -7.938  1.00  0.00     0.029 A 
ATOM     41  N   UNL     1      -2.735  -4.595  -9.726  1.00  0.00    -0.354 N 
ATOM     42  C   UNL     1      -0.005  -1.480 -10.911  1.00  0.00     0.074 A 
ATOM     43  C   UNL     1       1.121  -1.401 -10.006  1.00  0.00     0.031 C 
ATOM     44  C   UNL     1      -3.482  -6.298  -8.485  1.00  0.00     0.029 A 
ATOM     45  C   UNL     1      -3.802  -5.454  -9.635  1.00  0.00     0.049 A 
ATOM     46  H   UNL     1      -2.640  -3.928 -10.443  1.00  0.00     0.167 HD
ATOM     47  C   UNL     1      -0.165  -0.691 -11.999  1.00  0.00     0.031 A 
ATOM     48  C   UNL     1      -4.922  -5.534 -10.379  1.00  0.00     0.031 A 
ATOM     49  C   UNL     1      -1.288  -0.758 -12.895  1.00  0.00     0.049 A 
ATOM     50  C   UNL     1      -5.117  -4.588 -11.533  1.00  0.00     0.074 A 
ATOM     51  C   UNL     1      -1.523  -0.014 -14.039  1.00  0.00     0.029 A 
ATOM     52  N   UNL     1      -2.369  -1.610 -12.741  1.00  0.00    -0.354 N 
ATOM     53  N   UNL     1      -4.311  -3.658 -11.984  1.00  0.00    -0.248 NA
ATOM     54  C   UNL     1      -6.379  -4.704 -12.279  1.00  0.00     0.031 C 
ATOM     55  C   UNL     1      -2.775  -0.379 -14.546  1.00  0.00     0.029 A 
ATOM     56  C   UNL     1      -3.292  -1.387 -13.748  1.00  0.00     0.049 A 
ATOM     57  H   UNL     1      -2.466  -2.275 -12.021  1.00  0.00     0.167 HD
ATOM     58  C   UNL     1      -4.956  -3.095 -13.078  1.00  0.00     0.074 A 
ATOM     59  C   UNL     1      -6.214  -3.795 -13.231  1.00  0.00     0.031 C 
ATOM     60  C   UNL     1      -4.542  -2.087 -13.885  1.00  0.00     0.031 A 
BRANCH  47  61
ATOM     61  C   UNL     1       0.890   0.346 -12.261  1.00  0.00    -0.014 A 
ATOM     62  C   UNL     1       2.155  -0.009 -12.755  1.00  0.00     0.009 A 
ATOM     63  C   UNL     1       0.599   1.702 -12.048  1.00  0.00     0.009 A 
ATOM     64  C   UNL     1       3.117   0.973 -13.002  1.00  0.00     0.001 A 
ATOM     65  C   UNL     1       1.554   2.683 -12.318  1.00  0.00     0.001 A 
ATOM     66  C   UNL     1       2.814   2.317 -12.787  1.00  0.00     0.000 A 
ENDBRANCH  47  61
BRANCH  48  67
ATOM     67  C   UNL     1      -5.971  -6.529 -10.036  1.00  0.00    -0.014 A 
ATOM     68  C   UNL     1      -6.213  -7.633 -10.867  1.00  0.00     0.009 A 
ATOM     69  C   UNL     1      -6.752  -6.364  -8.881  1.00  0.00     0.009 A 
ATOM     70  C   UNL     1      -7.229  -8.540 -10.558  1.00  0.00     0.001 A 
ATOM     71  C   UNL     1      -7.749  -7.286  -8.561  1.00  0.00     0.001 A 
ATOM     72  C   UNL     1      -7.993  -8.368  -9.404  1.00  0.00     0.000 A 
ENDBRANCH  48  67
BRANCH  60  73
ATOM     73  C   UNL     1      -5.444  -1.697 -15.021  1.00  0.00    -0.014 A 
ATOM     74  C   UNL     1      -6.621  -0.967 -14.795  1.00  0.00     0.009 A 
ATOM     75  C   UNL     1      -5.085  -2.020 -16.339  1.00  0.00     0.009 A 
ATOM     76  C   UNL     1      -7.434  -0.590 -15.867  1.00  0.00     0.001 A 
ATOM     77  C   UNL     1      -5.886  -1.621 -17.409  1.00  0.00     0.001 A 
ATOM     78  C   UNL     1      -7.063  -0.913 -17.172  1.00  0.00     0.000 A 
ENDBRANCH  60  73
ENDBRANCH  34  35
ENDBRANCH  27  29
ENDBRANCH  26  27
ENDBRANCH  25  26
ENDBRANCH  24  25
ENDBRANCH   1  24
TORSDOF 16
