REMARK SMILES O=C(OCCOCCOC(=O)[C@H]1C[NH2+]C[C@H]1c1ccc(C2CC2)cc1)c1ccc(-c2c3nc(c(-c4ccccc4)c4ccc([nH]4)c(-c4ccccc4)c4nc(c(-c5ccccc5)c5ccc2[nH]5)C=C4)C=C3)cc1
REMARK SMILES IDX 6 1 5 2 4 3 3 4 2 5 1 6 26 7 27 8 73 9 28 10 72 11 29 12
REMARK SMILES IDX 30 13 31 14 66 15 32 16 71 17 65 18 67 19 33 20 70 21 64 22
REMARK SMILES IDX 63 23 34 25 56 26 41 27 55 28 42 29 45 30 54 31 68 32 43 33
REMARK SMILES IDX 44 34 53 36 69 37 46 38 35 39 36 40 40 41 37 42 39 43 38 44
REMARK SMILES IDX 57 45 58 46 62 47 59 48 61 49 60 50 47 51 48 52 52 53 49 54
REMARK SMILES IDX 51 55 50 56 7 57 8 58 9 59 10 60 11 61 12 62 13 63 16 64
REMARK SMILES IDX 14 65 15 66 17 69 18 70 25 71 19 72 24 73 20 74 21 75 22 76
REMARK SMILES IDX 23 77
REMARK H PARENT 67 24 45 35 14 67 14 68
REMARK Flexibility Score: inf
ROOT
ATOM      1  O   UNL     1       7.999  -0.754  -3.535  1.00  0.00    -0.374 OA
ENDROOT
BRANCH   1   2
ATOM      2  C   UNL     1       7.405  -0.898  -2.252  1.00  0.00     0.202 C 
BRANCH   2   3
ATOM      3  C   UNL     1       8.160  -0.247  -1.093  1.00  0.00     0.261 C 
BRANCH   3   4
ATOM      4  O   UNL     1       8.716   1.029  -1.461  1.00  0.00    -0.460 OA
BRANCH   4   5
ATOM      5  C   UNL     1      10.049   1.296  -1.499  1.00  0.00     0.338 C 
ATOM      6  O   UNL     1      10.459   2.449  -1.427  1.00  0.00    -0.246 OA
BRANCH   5   7
ATOM      7  C   UNL     1      11.025   0.182  -1.616  1.00  0.00     0.060 A 
ATOM      8  C   UNL     1      10.750  -0.941  -2.385  1.00  0.00     0.016 A 
ATOM      9  C   UNL     1      12.269   0.269  -0.990  1.00  0.00     0.016 A 
ATOM     10  C   UNL     1      11.568  -2.046  -2.387  1.00  0.00     0.010 A 
ATOM     11  C   UNL     1      13.185  -0.782  -1.125  1.00  0.00     0.010 A 
ATOM     12  C   UNL     1      12.824  -1.954  -1.810  1.00  0.00    -0.014 A 
BRANCH  12  13
ATOM     13  C   UNL     1      13.715  -3.122  -1.930  1.00  0.00     0.031 A 
ATOM     14  C   UNL     1      14.134  -3.833  -0.686  1.00  0.00     0.074 A 
ATOM     15  C   UNL     1      14.046  -3.582  -3.153  1.00  0.00     0.049 A 
ATOM     16  N   UNL     1      15.033  -4.764  -0.534  1.00  0.00    -0.248 NA
ATOM     17  C   UNL     1      13.455  -3.432   0.558  1.00  0.00     0.031 C 
ATOM     18  C   UNL     1      13.563  -3.039  -4.431  1.00  0.00     0.029 A 
ATOM     19  N   UNL     1      14.831  -4.638  -3.527  1.00  0.00    -0.354 N 
ATOM     20  C   UNL     1      15.091  -5.001   0.832  1.00  0.00     0.074 A 
ATOM     21  C   UNL     1      14.121  -4.133   1.462  1.00  0.00     0.031 C 
ATOM     22  C   UNL     1      14.009  -3.806  -5.436  1.00  0.00     0.029 A 
ATOM     23  C   UNL     1      14.906  -4.810  -4.889  1.00  0.00     0.049 A 
ATOM     24  H   UNL     1      15.298  -5.218  -2.883  1.00  0.00     0.167 HD
ATOM     25  C   UNL     1      15.911  -5.851   1.490  1.00  0.00     0.031 A 
ATOM     26  C   UNL     1      15.662  -5.655  -5.611  1.00  0.00     0.031 A 
ATOM     27  C   UNL     1      16.847  -6.709   0.816  1.00  0.00     0.049 A 
ATOM     28  C   UNL     1      16.608  -6.544  -4.859  1.00  0.00     0.074 A 
ATOM     29  C   UNL     1      17.779  -7.575   1.355  1.00  0.00     0.029 A 
ATOM     30  N   UNL     1      16.949  -6.813  -0.567  1.00  0.00    -0.354 N 
ATOM     31  N   UNL     1      16.755  -6.682  -3.562  1.00  0.00    -0.248 NA
ATOM     32  C   UNL     1      17.512  -7.371  -5.665  1.00  0.00     0.031 C 
ATOM     33  C   UNL     1      18.472  -8.174   0.295  1.00  0.00     0.029 A 
ATOM     34  C   UNL     1      17.933  -7.723  -0.902  1.00  0.00     0.049 A 
ATOM     35  H   UNL     1      16.401  -6.311  -1.212  1.00  0.00     0.167 HD
ATOM     36  C   UNL     1      17.755  -7.625  -3.392  1.00  0.00     0.074 A 
ATOM     37  C   UNL     1      18.165  -8.037  -4.722  1.00  0.00     0.031 C 
ATOM     38  C   UNL     1      18.294  -8.107  -2.244  1.00  0.00     0.031 A 
BRANCH  25  39
ATOM     39  C   UNL     1      15.887  -5.784   2.990  1.00  0.00    -0.014 A 
ATOM     40  C   UNL     1      14.793  -6.243   3.740  1.00  0.00     0.009 A 
ATOM     41  C   UNL     1      16.958  -5.170   3.660  1.00  0.00     0.009 A 
ATOM     42  C   UNL     1      14.747  -6.036   5.122  1.00  0.00     0.001 A 
ATOM     43  C   UNL     1      16.923  -4.992   5.044  1.00  0.00     0.001 A 
ATOM     44  C   UNL     1      15.810  -5.409   5.772  1.00  0.00     0.000 A 
ENDBRANCH  25  39
BRANCH  26  45
ATOM     45  C   UNL     1      15.602  -5.648  -7.098  1.00  0.00    -0.014 A 
ATOM     46  C   UNL     1      15.119  -6.763  -7.799  1.00  0.00     0.009 A 
ATOM     47  C   UNL     1      16.020  -4.523  -7.829  1.00  0.00     0.009 A 
ATOM     48  C   UNL     1      15.075  -6.759  -9.197  1.00  0.00     0.001 A 
ATOM     49  C   UNL     1      15.945  -4.509  -9.224  1.00  0.00     0.001 A 
ATOM     50  C   UNL     1      15.482  -5.631  -9.907  1.00  0.00     0.000 A 
ENDBRANCH  26  45
BRANCH  38  51
ATOM     51  C   UNL     1      19.335  -9.175  -2.396  1.00  0.00    -0.014 A 
ATOM     52  C   UNL     1      20.633  -8.873  -2.834  1.00  0.00     0.009 A 
ATOM     53  C   UNL     1      19.011 -10.497  -2.058  1.00  0.00     0.009 A 
ATOM     54  C   UNL     1      21.581  -9.889  -2.962  1.00  0.00     0.001 A 
ATOM     55  C   UNL     1      19.969 -11.504  -2.159  1.00  0.00     0.001 A 
ATOM     56  C   UNL     1      21.250 -11.200  -2.619  1.00  0.00     0.000 A 
ENDBRANCH  38  51
ENDBRANCH  12  13
ENDBRANCH   5   7
ENDBRANCH   4   5
ENDBRANCH   3   4
ENDBRANCH   2   3
ENDBRANCH   1   2
BRANCH   1  57
ATOM     57  C   UNL     1       7.609   0.395  -4.271  1.00  0.00     0.202 C 
BRANCH  57  58
ATOM     58  C   UNL     1       6.583  -0.011  -5.324  1.00  0.00     0.261 C 
BRANCH  58  59
ATOM     59  O   UNL     1       5.398  -0.509  -4.674  1.00  0.00    -0.463 OA
BRANCH  59  60
ATOM     60  C   UNL     1       5.376  -1.850  -4.389  1.00  0.00     0.315 C 
ATOM     61  O   UNL     1       6.188  -2.674  -4.788  1.00  0.00    -0.252 OA
BRANCH  60  62
ATOM     62  C   UNL     1       4.144  -2.156  -3.559  1.00  0.00     0.167 C 
ATOM     63  C   UNL     1       3.080  -2.599  -4.553  1.00  0.00     0.276 C 
ATOM     64  C   UNL     1       4.188  -3.361  -2.610  1.00  0.00     0.094 C 
ATOM     65  N   UNL     1       3.264  -4.051  -4.732  1.00  0.00    -0.345 N 
ATOM     66  C   UNL     1       4.064  -4.537  -3.586  1.00  0.00     0.269 C 
ATOM     67  H   UNL     1       3.756  -4.236  -5.606  1.00  0.00     0.346 HD
ATOM     68  H   UNL     1       2.362  -4.527  -4.771  1.00  0.00     0.346 HD
BRANCH  64  69
ATOM     69  C   UNL     1       5.227  -3.429  -1.505  1.00  0.00    -0.038 A 
ATOM     70  C   UNL     1       6.242  -4.391  -1.467  1.00  0.00     0.004 A 
ATOM     71  C   UNL     1       5.158  -2.540  -0.418  1.00  0.00     0.004 A 
ATOM     72  C   UNL     1       7.187  -4.415  -0.426  1.00  0.00     0.004 A 
ATOM     73  C   UNL     1       6.107  -2.574   0.625  1.00  0.00     0.004 A 
ATOM     74  C   UNL     1       7.171  -3.490   0.631  1.00  0.00    -0.045 A 
BRANCH  74  75
ATOM     75  C   UNL     1       8.295  -3.507   1.657  1.00  0.00     0.019 C 
ATOM     76  C   UNL     1       8.828  -2.220   2.247  1.00  0.00     0.009 C 
ATOM     77  C   UNL     1       8.079  -3.191   3.115  1.00  0.00     0.009 C 
ENDBRANCH  74  75
ENDBRANCH  64  69
ENDBRANCH  60  62
ENDBRANCH  59  60
ENDBRANCH  58  59
ENDBRANCH  57  58
ENDBRANCH   1  57
TORSDOF 16
