REMARK SMILES C[C@H](C(=O)OCCOCCOC(=O)c1ccc(-c2c3nc(c(-c4ccccc4)c4ccc([nH]4)c(-c4ccccc4)c4nc(c(-c5ccccc5)c5ccc2[nH]5)C=C4)C=C3)cc1)c1ccc2c(c1)OCCO2
REMARK SMILES IDX 9 1 8 2 7 3 6 4 5 5 3 6 4 7 2 8 1 9 62 10 63 11 67 12 64 13
REMARK SMILES IDX 66 14 65 15 68 16 71 17 69 18 70 19 10 20 11 21 12 22 13 23
REMARK SMILES IDX 14 24 15 25 61 26 16 27 60 28 17 29 18 30 19 31 54 32 20 33
REMARK SMILES IDX 59 34 53 35 55 36 21 37 58 38 52 39 51 40 22 42 44 43 29 44
REMARK SMILES IDX 43 45 30 46 33 47 42 48 56 49 31 50 32 51 41 53 57 54 34 55
REMARK SMILES IDX 23 56 24 57 28 58 25 59 27 60 26 61 45 62 46 63 50 64 47 65
REMARK SMILES IDX 49 66 48 67 35 68 36 69 40 70 37 71 39 72 38 73
REMARK H PARENT 55 41 33 52
REMARK Flexibility Score: inf
ROOT
ATOM      1  C   UNL     1       1.502  -2.487   0.712  1.00  0.00     0.202 C 
ENDROOT
BRANCH   1   2
ATOM      2  O   UNL     1       2.208  -2.081   1.885  1.00  0.00    -0.374 OA
BRANCH   2   3
ATOM      3  C   UNL     1       1.652  -0.991   2.628  1.00  0.00     0.202 C 
BRANCH   3   4
ATOM      4  C   UNL     1       1.861   0.387   1.997  1.00  0.00     0.261 C 
BRANCH   4   5
ATOM      5  O   UNL     1       0.948   0.598   0.900  1.00  0.00    -0.463 OA
BRANCH   5   6
ATOM      6  C   UNL     1       1.459   1.271  -0.161  1.00  0.00     0.313 C 
ATOM      7  O   UNL     1       2.601   1.724  -0.194  1.00  0.00    -0.252 OA
BRANCH   6   8
ATOM      8  C   UNL     1       0.536   1.382  -1.363  1.00  0.00     0.126 C 
ATOM      9  C   UNL     1       1.166   0.584  -2.518  1.00  0.00     0.025 C 
BRANCH   8  10
ATOM     10  C   UNL     1      -0.930   0.968  -1.263  1.00  0.00    -0.030 A 
ATOM     11  C   UNL     1      -1.917   1.786  -1.843  1.00  0.00     0.009 A 
ATOM     12  C   UNL     1      -1.294  -0.327  -0.877  1.00  0.00     0.055 A 
ATOM     13  C   UNL     1      -3.188   1.278  -2.133  1.00  0.00     0.051 A 
ATOM     14  C   UNL     1      -2.537  -0.854  -1.206  1.00  0.00     0.161 A 
ATOM     15  C   UNL     1      -3.463  -0.062  -1.880  1.00  0.00     0.161 A 
ATOM     16  O   UNL     1      -2.714  -2.187  -0.947  1.00  0.00    -0.486 OA
ATOM     17  O   UNL     1      -4.618  -0.586  -2.404  1.00  0.00    -0.486 OA
ATOM     18  C   UNL     1      -3.927  -2.716  -1.497  1.00  0.00     0.271 C 
ATOM     19  C   UNL     1      -4.373  -1.960  -2.740  1.00  0.00     0.271 C 
ENDBRANCH   8  10
ENDBRANCH   6   8
ENDBRANCH   5   6
ENDBRANCH   4   5
ENDBRANCH   3   4
ENDBRANCH   2   3
ENDBRANCH   1   2
BRANCH   1  20
ATOM     20  C   UNL     1       0.245  -3.325   0.990  1.00  0.00     0.261 C 
BRANCH  20  21
ATOM     21  O   UNL     1      -0.758  -2.549   1.670  1.00  0.00    -0.460 OA
BRANCH  21  22
ATOM     22  C   UNL     1      -1.347  -3.162   2.717  1.00  0.00     0.338 C 
ATOM     23  O   UNL     1      -1.232  -4.334   3.058  1.00  0.00    -0.246 OA
BRANCH  22  24
ATOM     24  C   UNL     1      -2.054  -2.171   3.544  1.00  0.00     0.060 A 
ATOM     25  C   UNL     1      -1.539  -1.904   4.818  1.00  0.00     0.016 A 
ATOM     26  C   UNL     1      -3.261  -1.603   3.133  1.00  0.00     0.016 A 
ATOM     27  C   UNL     1      -2.262  -1.112   5.710  1.00  0.00     0.010 A 
ATOM     28  C   UNL     1      -3.988  -0.812   4.033  1.00  0.00     0.010 A 
ATOM     29  C   UNL     1      -3.513  -0.597   5.340  1.00  0.00    -0.014 A 
BRANCH  29  30
ATOM     30  C   UNL     1      -4.373   0.028   6.380  1.00  0.00     0.031 A 
ATOM     31  C   UNL     1      -5.454  -0.793   7.033  1.00  0.00     0.074 A 
ATOM     32  C   UNL     1      -4.158   1.290   6.794  1.00  0.00     0.049 A 
ATOM     33  N   UNL     1      -6.271  -0.467   8.004  1.00  0.00    -0.248 NA
ATOM     34  C   UNL     1      -5.634  -2.164   6.530  1.00  0.00     0.031 C 
ATOM     35  C   UNL     1      -3.124   2.186   6.281  1.00  0.00     0.029 A 
ATOM     36  N   UNL     1      -4.798   2.030   7.758  1.00  0.00    -0.354 N 
ATOM     37  C   UNL     1      -7.059  -1.589   8.227  1.00  0.00     0.074 A 
ATOM     38  C   UNL     1      -6.645  -2.594   7.271  1.00  0.00     0.031 C 
ATOM     39  C   UNL     1      -3.194   3.355   6.942  1.00  0.00     0.029 A 
ATOM     40  C   UNL     1      -4.291   3.297   7.907  1.00  0.00     0.049 A 
ATOM     41  H   UNL     1      -5.550   1.685   8.292  1.00  0.00     0.167 HD
ATOM     42  C   UNL     1      -8.033  -1.776   9.150  1.00  0.00     0.031 A 
ATOM     43  C   UNL     1      -4.670   4.300   8.724  1.00  0.00     0.031 A 
ATOM     44  C   UNL     1      -8.461  -0.786  10.101  1.00  0.00     0.049 A 
ATOM     45  C   UNL     1      -5.807   4.093   9.688  1.00  0.00     0.074 A 
ATOM     46  C   UNL     1      -9.424  -0.900  11.089  1.00  0.00     0.029 A 
ATOM     47  N   UNL     1      -7.961   0.503  10.175  1.00  0.00    -0.354 N 
ATOM     48  N   UNL     1      -6.514   3.013   9.915  1.00  0.00    -0.248 NA
ATOM     49  C   UNL     1      -6.193   5.248  10.514  1.00  0.00     0.031 C 
ATOM     50  C   UNL     1      -9.543   0.339  11.729  1.00  0.00     0.029 A 
ATOM     51  C   UNL     1      -8.618   1.206  11.172  1.00  0.00     0.049 A 
ATOM     52  H   UNL     1      -7.246   0.867   9.605  1.00  0.00     0.167 HD
ATOM     53  C   UNL     1      -7.406   3.349  10.926  1.00  0.00     0.074 A 
ATOM     54  C   UNL     1      -7.146   4.729  11.277  1.00  0.00     0.031 C 
ATOM     55  C   UNL     1      -8.355   2.579  11.513  1.00  0.00     0.031 A 
BRANCH  42  56
ATOM     56  C   UNL     1      -8.729  -3.108   9.156  1.00  0.00    -0.014 A 
ATOM     57  C   UNL     1      -8.095  -4.258   9.651  1.00  0.00     0.009 A 
ATOM     58  C   UNL     1     -10.051  -3.203   8.696  1.00  0.00     0.009 A 
ATOM     59  C   UNL     1      -8.762  -5.484   9.656  1.00  0.00     0.001 A 
ATOM     60  C   UNL     1     -10.724  -4.426   8.724  1.00  0.00     0.001 A 
ATOM     61  C   UNL     1     -10.077  -5.566   9.197  1.00  0.00     0.000 A 
ENDBRANCH  42  56
BRANCH  43  62
ATOM     62  C   UNL     1      -3.971   5.610   8.665  1.00  0.00    -0.014 A 
ATOM     63  C   UNL     1      -3.143   6.028   9.718  1.00  0.00     0.009 A 
ATOM     64  C   UNL     1      -4.155   6.463   7.566  1.00  0.00     0.009 A 
ATOM     65  C   UNL     1      -2.531   7.283   9.680  1.00  0.00     0.001 A 
ATOM     66  C   UNL     1      -3.522   7.706   7.519  1.00  0.00     0.001 A 
ATOM     67  C   UNL     1      -2.718   8.119   8.580  1.00  0.00     0.000 A 
ENDBRANCH  43  62
BRANCH  55  68
ATOM     68  C   UNL     1      -9.163   3.199  12.618  1.00  0.00    -0.014 A 
ATOM     69  C   UNL     1     -10.162   4.147  12.346  1.00  0.00     0.009 A 
ATOM     70  C   UNL     1      -8.951   2.796  13.946  1.00  0.00     0.009 A 
ATOM     71  C   UNL     1     -10.912   4.701  13.386  1.00  0.00     0.001 A 
ATOM     72  C   UNL     1      -9.720   3.333  14.981  1.00  0.00     0.001 A 
ATOM     73  C   UNL     1     -10.693   4.290  14.701  1.00  0.00     0.000 A 
ENDBRANCH  55  68
ENDBRANCH  29  30
ENDBRANCH  22  24
ENDBRANCH  21  22
ENDBRANCH  20  21
ENDBRANCH   1  20
TORSDOF 15
