REMARK SMILES CO[C@@H]1C[C@@H](C(=O)OCCOCCOC(=O)c2ccc(-c3c4nc(c(-c5ccccc5)c5ccc([nH]5)c(-c5ccccc5)c5nc(c(-c6ccccc6)c6ccc3[nH]6)C=C5)C=C4)cc2)N(C(=O)c2nc(C(C)C)n[nH]2)C1
REMARK SMILES IDX 10 1 9 2 8 3 6 4 7 5 5 6 3 7 4 8 76 9 65 10 2 11 1 12 66 13
REMARK SMILES IDX 67 14 68 15 69 16 75 17 70 18 74 19 71 21 72 22 73 23 11 24
REMARK SMILES IDX 12 25 13 26 14 27 15 28 16 29 17 30 18 31 64 32 19 33 63 34
REMARK SMILES IDX 20 35 21 36 22 37 57 38 23 39 62 40 56 41 58 42 24 43 61 44
REMARK SMILES IDX 55 45 54 46 25 48 47 49 32 50 46 51 33 52 36 53 45 54 59 55
REMARK SMILES IDX 34 56 35 57 44 59 60 60 37 61 26 62 27 63 31 64 28 65 30 66
REMARK SMILES IDX 29 67 48 68 49 69 53 70 50 71 52 72 51 73 38 74 39 75 43 76
REMARK SMILES IDX 40 77 42 78 41 79
REMARK H PARENT 75 20 58 47 36 58
REMARK Flexibility Score: inf
ROOT
ATOM      1  C   UNL     1       5.768  -1.061  -2.758  1.00  0.00     0.202 C 
ENDROOT
BRANCH   1   2
ATOM      2  C   UNL     1       4.490  -0.272  -3.075  1.00  0.00     0.261 C 
BRANCH   2   3
ATOM      3  O   UNL     1       3.457  -0.577  -2.126  1.00  0.00    -0.462 OA
BRANCH   3   4
ATOM      4  C   UNL     1       2.373  -1.270  -2.597  1.00  0.00     0.329 C 
ATOM      5  O   UNL     1       2.128  -1.435  -3.781  1.00  0.00    -0.250 OA
BRANCH   4   6
ATOM      6  C   UNL     1       1.495  -1.771  -1.428  1.00  0.00     0.198 C 
ATOM      7  C   UNL     1       0.850  -1.628   0.868  1.00  0.00     0.140 C 
ATOM      8  C   UNL     1       1.949  -1.165  -0.080  1.00  0.00     0.071 C 
ATOM      9  C   UNL     1       0.625  -3.074   0.392  1.00  0.00     0.153 C 
ATOM     10  N   UNL     1       1.183  -3.147  -0.973  1.00  0.00    -0.319 N 
BRANCH   7  11
ATOM     11  O   UNL     1      -0.379  -0.908   0.738  1.00  0.00    -0.380 OA
ATOM     12  C   UNL     1      -0.254   0.499   0.597  1.00  0.00     0.195 C 
ENDBRANCH   7  11
BRANCH  10  13
ATOM     13  C   UNL     1       1.516  -4.417  -1.438  1.00  0.00     0.292 C 
ATOM     14  O   UNL     1       1.354  -5.378  -0.676  1.00  0.00    -0.265 OA
BRANCH  13  15
ATOM     15  C   UNL     1       2.170  -4.667  -2.696  1.00  0.00     0.214 A 
ATOM     16  N   UNL     1       1.950  -4.170  -3.895  1.00  0.00    -0.207 NA
ATOM     17  N   UNL     1       3.074  -5.685  -2.812  1.00  0.00    -0.255 N 
ATOM     18  C   UNL     1       2.776  -4.924  -4.710  1.00  0.00     0.153 A 
ATOM     19  N   UNL     1       3.534  -5.811  -4.054  1.00  0.00    -0.158 NA
ATOM     20  H   UNL     1       3.352  -6.260  -2.063  1.00  0.00     0.192 HD
BRANCH  18  21
ATOM     21  C   UNL     1       2.782  -4.871  -6.210  1.00  0.00     0.053 C 
ATOM     22  C   UNL     1       2.880  -6.285  -6.811  1.00  0.00     0.016 C 
ATOM     23  C   UNL     1       1.545  -4.176  -6.778  1.00  0.00     0.016 C 
ENDBRANCH  18  21
ENDBRANCH  13  15
ENDBRANCH  10  13
ENDBRANCH   4   6
ENDBRANCH   3   4
ENDBRANCH   2   3
ENDBRANCH   1   2
BRANCH   1  24
ATOM     24  O   UNL     1       5.604  -2.471  -2.572  1.00  0.00    -0.374 OA
BRANCH  24  25
ATOM     25  C   UNL     1       4.931  -2.831  -1.367  1.00  0.00     0.202 C 
BRANCH  25  26
ATOM     26  C   UNL     1       5.334  -4.210  -0.848  1.00  0.00     0.261 C 
BRANCH  26  27
ATOM     27  O   UNL     1       6.508  -4.064  -0.057  1.00  0.00    -0.460 OA
BRANCH  27  28
ATOM     28  C   UNL     1       7.611  -3.885  -0.817  1.00  0.00     0.338 C 
ATOM     29  O   UNL     1       7.870  -4.419  -1.881  1.00  0.00    -0.246 OA
BRANCH  28  30
ATOM     30  C   UNL     1       8.338  -2.737  -0.253  1.00  0.00     0.060 A 
ATOM     31  C   UNL     1       9.020  -1.900  -1.143  1.00  0.00     0.016 A 
ATOM     32  C   UNL     1       8.314  -2.467   1.121  1.00  0.00     0.016 A 
ATOM     33  C   UNL     1       9.764  -0.838  -0.649  1.00  0.00     0.010 A 
ATOM     34  C   UNL     1       9.044  -1.397   1.614  1.00  0.00     0.010 A 
ATOM     35  C   UNL     1       9.816  -0.625   0.733  1.00  0.00    -0.014 A 
BRANCH  35  36
ATOM     36  C   UNL     1      10.864   0.237   1.299  1.00  0.00     0.031 A 
ATOM     37  C   UNL     1      12.101  -0.432   1.826  1.00  0.00     0.074 A 
ATOM     38  C   UNL     1      10.691   1.565   1.361  1.00  0.00     0.049 A 
ATOM     39  N   UNL     1      13.126   0.089   2.443  1.00  0.00    -0.248 NA
ATOM     40  C   UNL     1      12.181  -1.895   1.649  1.00  0.00     0.031 C 
ATOM     41  C   UNL     1       9.526   2.293   0.860  1.00  0.00     0.029 A 
ATOM     42  N   UNL     1      11.498   2.533   1.891  1.00  0.00    -0.354 N 
ATOM     43  C   UNL     1      13.963  -0.979   2.737  1.00  0.00     0.074 A 
ATOM     44  C   UNL     1      13.313  -2.182   2.272  1.00  0.00     0.031 C 
ATOM     45  C   UNL     1       9.690   3.601   1.119  1.00  0.00     0.029 A 
ATOM     46  C   UNL     1      10.953   3.790   1.826  1.00  0.00     0.049 A 
ATOM     47  H   UNL     1      12.382   2.347   2.281  1.00  0.00     0.167 HD
ATOM     48  C   UNL     1      15.176  -0.954   3.334  1.00  0.00     0.031 A 
ATOM     49  C   UNL     1      11.426   4.954   2.306  1.00  0.00     0.031 A 
ATOM     50  C   UNL     1      15.797   0.253   3.803  1.00  0.00     0.049 A 
ATOM     51  C   UNL     1      12.758   4.952   3.006  1.00  0.00     0.074 A 
ATOM     52  C   UNL     1      17.028   0.415   4.409  1.00  0.00     0.029 A 
ATOM     53  N   UNL     1      15.217   1.511   3.718  1.00  0.00    -0.354 N 
ATOM     54  N   UNL     1      13.563   3.944   3.249  1.00  0.00    -0.248 NA
ATOM     55  C   UNL     1      13.252   6.248   3.486  1.00  0.00     0.031 C 
ATOM     56  C   UNL     1      17.172   1.768   4.734  1.00  0.00     0.029 A 
ATOM     57  C   UNL     1      16.057   2.455   4.278  1.00  0.00     0.049 A 
ATOM     58  H   UNL     1      14.339   1.703   3.317  1.00  0.00     0.167 HD
ATOM     59  C   UNL     1      14.671   4.487   3.885  1.00  0.00     0.074 A 
ATOM     60  C   UNL     1      14.438   5.915   3.976  1.00  0.00     0.031 C 
ATOM     61  C   UNL     1      15.784   3.868   4.351  1.00  0.00     0.031 A 
BRANCH  48  62
ATOM     62  C   UNL     1      15.875  -2.269   3.532  1.00  0.00    -0.014 A 
ATOM     63  C   UNL     1      16.384  -2.997   2.442  1.00  0.00     0.009 A 
ATOM     64  C   UNL     1      16.026  -2.793   4.824  1.00  0.00     0.009 A 
ATOM     65  C   UNL     1      16.993  -4.238   2.640  1.00  0.00     0.001 A 
ATOM     66  C   UNL     1      16.661  -4.021   5.023  1.00  0.00     0.001 A 
ATOM     67  C   UNL     1      17.135  -4.746   3.930  1.00  0.00     0.000 A 
ENDBRANCH  48  62
BRANCH  49  68
ATOM     68  C   UNL     1      10.639   6.201   2.138  1.00  0.00    -0.014 A 
ATOM     69  C   UNL     1      11.069   7.204   1.258  1.00  0.00     0.009 A 
ATOM     70  C   UNL     1       9.442   6.389   2.848  1.00  0.00     0.009 A 
ATOM     71  C   UNL     1      10.329   8.380   1.109  1.00  0.00     0.001 A 
ATOM     72  C   UNL     1       8.691   7.554   2.677  1.00  0.00     0.001 A 
ATOM     73  C   UNL     1       9.139   8.552   1.814  1.00  0.00     0.000 A 
ENDBRANCH  49  68
BRANCH  61  74
ATOM     74  C   UNL     1      16.839   4.741   4.968  1.00  0.00    -0.014 A 
ATOM     75  C   UNL     1      16.657   5.318   6.233  1.00  0.00     0.009 A 
ATOM     76  C   UNL     1      18.049   4.946   4.288  1.00  0.00     0.009 A 
ATOM     77  C   UNL     1      17.659   6.114   6.792  1.00  0.00     0.001 A 
ATOM     78  C   UNL     1      19.060   5.716   4.862  1.00  0.00     0.001 A 
ATOM     79  C   UNL     1      18.860   6.307   6.109  1.00  0.00     0.000 A 
ENDBRANCH  61  74
ENDBRANCH  35  36
ENDBRANCH  28  30
ENDBRANCH  27  28
ENDBRANCH  26  27
ENDBRANCH  25  26
ENDBRANCH  24  25
ENDBRANCH   1  24
TORSDOF 18
