REMARK SMILES CN1C(=O)C[C@H](C(=O)Nc2ccc(C(=O)OCCOCCOC(=O)c3ccc(-c4c5nc(c(-c6ccccc6)c6ccc([nH]6)c(-c6ccccc6)c6nc(c(-c7ccccc7)c7ccc4[nH]7)C=C6)C=C5)cc3)cc2)S/C1=[NH+]\c1cccc(C(F)(F)F)c1
REMARK SMILES IDX 18 1 17 2 16 3 14 4 15 5 13 6 10 7 11 8 74 9 12 10 73 11
REMARK SMILES IDX 9 12 7 13 8 14 6 16 1 17 2 18 3 19 76 20 4 21 5 22 75 23
REMARK SMILES IDX 77 24 78 26 79 27 87 28 80 29 82 30 81 31 83 32 84 33 85 34
REMARK SMILES IDX 86 35 19 36 20 37 21 38 22 39 23 40 24 41 25 42 26 43 72 44
REMARK SMILES IDX 27 45 71 46 28 47 29 48 30 49 65 50 31 51 70 52 64 53 66 54
REMARK SMILES IDX 32 55 69 56 63 57 62 58 33 60 55 61 40 62 54 63 41 64 44 65
REMARK SMILES IDX 53 66 67 67 42 68 43 69 52 71 68 72 45 73 34 74 35 75 39 76
REMARK SMILES IDX 36 77 38 78 37 79 56 80 57 81 61 82 58 83 60 84 59 85 46 86
REMARK SMILES IDX 47 87 51 88 48 89 50 90 49 91
REMARK H PARENT 9 15 77 25 66 59 44 70
REMARK Flexibility Score: inf
ROOT
ATOM      1  C   UNL     1      -0.252   4.924   3.925  1.00  0.00     0.202 C 
ENDROOT
BRANCH   1   2
ATOM      2  C   UNL     1       0.534   3.793   3.260  1.00  0.00     0.261 C 
BRANCH   2   3
ATOM      3  O   UNL     1       0.160   3.632   1.886  1.00  0.00    -0.460 OA
BRANCH   3   4
ATOM      4  C   UNL     1      -0.457   2.459   1.606  1.00  0.00     0.338 C 
ATOM      5  O   UNL     1      -0.629   1.525   2.372  1.00  0.00    -0.246 OA
BRANCH   4   6
ATOM      6  C   UNL     1      -0.995   2.452   0.224  1.00  0.00     0.060 A 
ATOM      7  C   UNL     1      -1.615   1.925  -2.421  1.00  0.00     0.041 A 
ATOM      8  C   UNL     1      -2.249   1.196  -1.421  1.00  0.00     0.027 A 
ATOM      9  C   UNL     1      -0.869   3.058  -2.103  1.00  0.00     0.027 A 
ATOM     10  C   UNL     1      -1.920   1.447  -0.094  1.00  0.00     0.018 A 
ATOM     11  C   UNL     1      -0.542   3.321  -0.772  1.00  0.00     0.018 A 
BRANCH   7  12
ATOM     12  N   UNL     1      -1.755   1.484  -3.729  1.00  0.00    -0.325 N 
ATOM     13  C   UNL     1      -0.826   1.240  -4.691  1.00  0.00     0.238 C 
ATOM     14  O   UNL     1      -1.282   1.054  -5.830  1.00  0.00    -0.273 OA
ATOM     15  H   UNL     1      -2.685   1.320  -4.007  1.00  0.00     0.169 HD
BRANCH  13  16
ATOM     16  C   UNL     1       0.676   0.975  -4.445  1.00  0.00     0.160 C 
ATOM     17  C   UNL     1       1.064  -0.594  -0.367  1.00  0.00     0.301 C 
ATOM     18  N   UNL     1       1.029  -0.182  -1.770  1.00  0.00    -0.194 N 
ATOM     19  C   UNL     1       1.584   1.069  -2.024  1.00  0.00     0.311 C 
ATOM     20  C   UNL     1       0.586  -1.114  -2.708  1.00  0.00     0.319 C 
ATOM     21  O   UNL     1       2.147   1.728  -1.141  1.00  0.00    -0.247 OA
ATOM     22  C   UNL     1       1.552   1.643  -3.424  1.00  0.00     0.153 C 
ATOM     23  S   UNL     1       0.991  -0.796  -4.378  1.00  0.00    -0.024 SA
ATOM     24  N   UNL     1      -0.017  -2.191  -2.305  1.00  0.00    -0.235 N 
ATOM     25  H   UNL     1      -0.284  -2.277  -1.361  1.00  0.00     0.313 HD
BRANCH  24  26
ATOM     26  C   UNL     1      -0.292  -3.228  -3.201  1.00  0.00     0.126 A 
ATOM     27  C   UNL     1      -1.575  -3.428  -3.705  1.00  0.00     0.052 A 
ATOM     28  C   UNL     1       0.746  -4.080  -3.594  1.00  0.00     0.064 A 
ATOM     29  C   UNL     1      -1.806  -4.434  -4.645  1.00  0.00     0.005 A 
ATOM     30  C   UNL     1       0.540  -5.068  -4.562  1.00  0.00     0.060 A 
ATOM     31  C   UNL     1      -0.751  -5.241  -5.081  1.00  0.00     0.013 A 
BRANCH  30  32
ATOM     32  C   UNL     1       1.692  -5.905  -5.050  1.00  0.00     0.416 C 
ATOM     33  F   UNL     1       1.561  -7.219  -4.720  1.00  0.00    -0.166 F 
ATOM     34  F   UNL     1       1.824  -5.870  -6.405  1.00  0.00    -0.166 F 
ATOM     35  F   UNL     1       2.899  -5.514  -4.552  1.00  0.00    -0.166 F 
ENDBRANCH  30  32
ENDBRANCH  24  26
ENDBRANCH  13  16
ENDBRANCH   7  12
ENDBRANCH   4   6
ENDBRANCH   3   4
ENDBRANCH   2   3
ENDBRANCH   1   2
BRANCH   1  36
ATOM     36  O   UNL     1      -1.669   4.788   4.020  1.00  0.00    -0.374 OA
BRANCH  36  37
ATOM     37  C   UNL     1      -2.450   4.839   2.829  1.00  0.00     0.202 C 
BRANCH  37  38
ATOM     38  C   UNL     1      -2.612   6.189   2.119  1.00  0.00     0.261 C 
BRANCH  38  39
ATOM     39  O   UNL     1      -1.366   6.827   1.796  1.00  0.00    -0.460 OA
BRANCH  39  40
ATOM     40  C   UNL     1      -1.094   7.909   2.566  1.00  0.00     0.338 C 
ATOM     41  O   UNL     1      -1.804   8.403   3.425  1.00  0.00    -0.246 OA
BRANCH  40  42
ATOM     42  C   UNL     1       0.288   8.372   2.347  1.00  0.00     0.060 A 
ATOM     43  C   UNL     1       1.088   8.543   3.484  1.00  0.00     0.016 A 
ATOM     44  C   UNL     1       0.746   8.763   1.088  1.00  0.00     0.016 A 
ATOM     45  C   UNL     1       2.318   9.184   3.379  1.00  0.00     0.010 A 
ATOM     46  C   UNL     1       1.980   9.416   0.985  1.00  0.00     0.010 A 
ATOM     47  C   UNL     1       2.741   9.677   2.139  1.00  0.00    -0.014 A 
BRANCH  47  48
ATOM     48  C   UNL     1       3.860  10.649   2.109  1.00  0.00     0.031 A 
ATOM     49  C   UNL     1       3.535  12.120   2.127  1.00  0.00     0.074 A 
ATOM     50  C   UNL     1       5.138  10.239   2.150  1.00  0.00     0.049 A 
ATOM     51  N   UNL     1       4.344  13.148   2.163  1.00  0.00    -0.248 NA
ATOM     52  C   UNL     1       2.106  12.478   2.109  1.00  0.00     0.031 C 
ATOM     53  C   UNL     1       5.583   8.847   2.188  1.00  0.00     0.029 A 
ATOM     54  N   UNL     1       6.301  10.968   2.180  1.00  0.00    -0.354 N 
ATOM     55  C   UNL     1       3.524  14.271   2.174  1.00  0.00     0.074 A 
ATOM     56  C   UNL     1       2.158  13.801   2.107  1.00  0.00     0.031 C 
ATOM     57  C   UNL     1       6.926   8.822   2.243  1.00  0.00     0.029 A 
ATOM     58  C   UNL     1       7.433  10.193   2.224  1.00  0.00     0.049 A 
ATOM     59  H   UNL     1       6.320  11.952   2.171  1.00  0.00     0.167 HD
ATOM     60  C   UNL     1       3.873  15.577   2.245  1.00  0.00     0.031 A 
ATOM     61  C   UNL     1       8.730  10.553   2.245  1.00  0.00     0.031 A 
ATOM     62  C   UNL     1       5.228  16.052   2.299  1.00  0.00     0.049 A 
ATOM     63  C   UNL     1       9.094  12.014   2.258  1.00  0.00     0.074 A 
ATOM     64  C   UNL     1       5.684  17.358   2.359  1.00  0.00     0.029 A 
ATOM     65  N   UNL     1       6.346  15.235   2.297  1.00  0.00    -0.354 N 
ATOM     66  N   UNL     1       8.309  13.063   2.278  1.00  0.00    -0.248 NA
ATOM     67  C   UNL     1      10.529  12.335   2.265  1.00  0.00     0.031 C 
ATOM     68  C   UNL     1       7.083  17.331   2.356  1.00  0.00     0.029 A 
ATOM     69  C   UNL     1       7.494  16.008   2.342  1.00  0.00     0.049 A 
ATOM     70  H   UNL     1       6.328  14.251   2.268  1.00  0.00     0.167 HD
ATOM     71  C   UNL     1       9.152  14.166   2.334  1.00  0.00     0.074 A 
ATOM     72  C   UNL     1      10.508  13.658   2.355  1.00  0.00     0.031 C 
ATOM     73  C   UNL     1       8.834  15.484   2.369  1.00  0.00     0.031 A 
BRANCH  60  74
ATOM     74  C   UNL     1       2.758  16.584   2.242  1.00  0.00    -0.014 A 
ATOM     75  C   UNL     1       1.946  16.771   3.372  1.00  0.00     0.009 A 
ATOM     76  C   UNL     1       2.526  17.363   1.099  1.00  0.00     0.009 A 
ATOM     77  C   UNL     1       0.902  17.698   3.345  1.00  0.00     0.001 A 
ATOM     78  C   UNL     1       1.497  18.307   1.083  1.00  0.00     0.001 A 
ATOM     79  C   UNL     1       0.681  18.467   2.202  1.00  0.00     0.000 A 
ENDBRANCH  60  74
BRANCH  61  80
ATOM     80  C   UNL     1       9.792   9.515   2.257  1.00  0.00    -0.014 A 
ATOM     81  C   UNL     1      10.573   9.303   3.403  1.00  0.00     0.009 A 
ATOM     82  C   UNL     1      10.051   8.754   1.107  1.00  0.00     0.009 A 
ATOM     83  C   UNL     1      11.611   8.368   3.388  1.00  0.00     0.001 A 
ATOM     84  C   UNL     1      11.073   7.803   1.103  1.00  0.00     0.001 A 
ATOM     85  C   UNL     1      11.858   7.617   2.239  1.00  0.00     0.000 A 
ENDBRANCH  61  80
BRANCH  73  86
ATOM     86  C   UNL     1       9.969  16.460   2.480  1.00  0.00    -0.014 A 
ATOM     87  C   UNL     1      10.812  16.729   1.391  1.00  0.00     0.009 A 
ATOM     88  C   UNL     1      10.180  17.141   3.690  1.00  0.00     0.009 A 
ATOM     89  C   UNL     1      11.868  17.633   1.523  1.00  0.00     0.001 A 
ATOM     90  C   UNL     1      11.220  18.064   3.811  1.00  0.00     0.001 A 
ATOM     91  C   UNL     1      12.069  18.301   2.731  1.00  0.00     0.000 A 
ENDBRANCH  73  86
ENDBRANCH  47  48
ENDBRANCH  40  42
ENDBRANCH  39  40
ENDBRANCH  38  39
ENDBRANCH  37  38
ENDBRANCH  36  37
ENDBRANCH   1  36
TORSDOF 18
