REMARK SMILES O=C(OCCOCCOC(=O)[C@H]1CC[C@H](CNC(=O)c2ccccc2O)O1)c1ccc(-c2c3nc(c(-c4ccccc4)c4ccc([nH]4)c(-c4ccccc4)c4nc(c(-c5ccccc5)c5ccc2[nH]5)C=C4)C=C3)cc1
REMARK SMILES IDX 7 1 6 2 5 3 4 4 3 5 2 6 1 7 28 8 29 9 75 10 30 11 74 12
REMARK SMILES IDX 31 13 32 14 33 15 68 16 34 17 73 18 67 19 69 20 35 21 72 22
REMARK SMILES IDX 66 23 65 24 36 26 58 27 43 28 57 29 44 30 47 31 56 32 70 33
REMARK SMILES IDX 45 34 46 35 55 37 71 38 48 39 37 40 38 41 42 42 39 43 41 44
REMARK SMILES IDX 40 45 59 46 60 47 64 48 61 49 63 50 62 51 49 52 50 53 54 54
REMARK SMILES IDX 51 55 53 56 52 57 8 58 9 59 10 60 11 61 12 62 13 63 27 64
REMARK SMILES IDX 14 65 15 66 16 67 17 68 18 69 19 71 20 72 21 73 25 74 22 75
REMARK SMILES IDX 24 76 23 77 26 78
REMARK H PARENT 69 25 47 36 17 70 26 79
REMARK Flexibility Score: inf
ROOT
ATOM      1  C   UNL     1       5.626  -1.810   3.408  1.00  0.00     0.202 C 
ENDROOT
BRANCH   1   2
ATOM      2  O   UNL     1       4.537  -1.628   2.489  1.00  0.00    -0.374 OA
BRANCH   2   3
ATOM      3  C   UNL     1       4.862  -1.274   1.143  1.00  0.00     0.202 C 
BRANCH   3   4
ATOM      4  C   UNL     1       5.069   0.216   0.863  1.00  0.00     0.261 C 
BRANCH   4   5
ATOM      5  O   UNL     1       6.199   0.702   1.598  1.00  0.00    -0.460 OA
BRANCH   5   6
ATOM      6  C   UNL     1       6.208   1.262   2.826  1.00  0.00     0.338 C 
ATOM      7  O   UNL     1       7.291   1.468   3.371  1.00  0.00    -0.246 OA
BRANCH   6   8
ATOM      8  C   UNL     1       4.971   1.657   3.565  1.00  0.00     0.060 A 
ATOM      9  C   UNL     1       3.724   1.030   3.460  1.00  0.00     0.016 A 
ATOM     10  C   UNL     1       5.121   2.674   4.520  1.00  0.00     0.016 A 
ATOM     11  C   UNL     1       2.653   1.397   4.251  1.00  0.00     0.010 A 
ATOM     12  C   UNL     1       4.050   3.055   5.325  1.00  0.00     0.010 A 
ATOM     13  C   UNL     1       2.815   2.417   5.175  1.00  0.00    -0.014 A 
BRANCH  13  14
ATOM     14  C   UNL     1       1.618   2.910   5.852  1.00  0.00     0.031 A 
ATOM     15  C   UNL     1       0.972   4.131   5.292  1.00  0.00     0.074 A 
ATOM     16  C   UNL     1       1.097   2.213   6.872  1.00  0.00     0.049 A 
ATOM     17  N   UNL     1      -0.007   4.841   5.774  1.00  0.00    -0.248 NA
ATOM     18  C   UNL     1       1.503   4.614   4.005  1.00  0.00     0.031 C 
ATOM     19  C   UNL     1       1.597   0.925   7.358  1.00  0.00     0.029 A 
ATOM     20  N   UNL     1       0.030   2.490   7.677  1.00  0.00    -0.354 N 
ATOM     21  C   UNL     1      -0.176   5.884   4.875  1.00  0.00     0.074 A 
ATOM     22  C   UNL     1       0.788   5.710   3.815  1.00  0.00     0.031 C 
ATOM     23  C   UNL     1       0.845   0.533   8.399  1.00  0.00     0.029 A 
ATOM     24  C   UNL     1      -0.131   1.577   8.688  1.00  0.00     0.049 A 
ATOM     25  H   UNL     1      -0.562   3.266   7.546  1.00  0.00     0.167 HD
ATOM     26  C   UNL     1      -1.050   6.911   4.960  1.00  0.00     0.031 A 
ATOM     27  C   UNL     1      -0.941   1.630   9.760  1.00  0.00     0.031 A 
ATOM     28  C   UNL     1      -1.962   7.055   6.060  1.00  0.00     0.049 A 
ATOM     29  C   UNL     1      -1.831   2.833   9.899  1.00  0.00     0.074 A 
ATOM     30  C   UNL     1      -2.861   8.070   6.317  1.00  0.00     0.029 A 
ATOM     31  N   UNL     1      -2.072   6.138   7.101  1.00  0.00    -0.354 N 
ATOM     32  N   UNL     1      -1.953   3.862   9.090  1.00  0.00    -0.248 NA
ATOM     33  C   UNL     1      -2.684   2.896  11.089  1.00  0.00     0.031 C 
ATOM     34  C   UNL     1      -3.473   7.794   7.545  1.00  0.00     0.029 A 
ATOM     35  C   UNL     1      -3.007   6.573   8.017  1.00  0.00     0.049 A 
ATOM     36  H   UNL     1      -1.559   5.301   7.172  1.00  0.00     0.167 HD
ATOM     37  C   UNL     1      -2.912   4.686   9.659  1.00  0.00     0.074 A 
ATOM     38  C   UNL     1      -3.342   4.030  10.882  1.00  0.00     0.031 C 
ATOM     39  C   UNL     1      -3.400   5.872   9.216  1.00  0.00     0.031 A 
BRANCH  26  40
ATOM     40  C   UNL     1      -0.939   7.978   3.910  1.00  0.00    -0.014 A 
ATOM     41  C   UNL     1      -1.276   7.739   2.567  1.00  0.00     0.009 A 
ATOM     42  C   UNL     1      -0.396   9.225   4.259  1.00  0.00     0.009 A 
ATOM     43  C   UNL     1      -1.012   8.703   1.589  1.00  0.00     0.001 A 
ATOM     44  C   UNL     1      -0.165  10.198   3.286  1.00  0.00     0.001 A 
ATOM     45  C   UNL     1      -0.455   9.930   1.950  1.00  0.00     0.000 A 
ENDBRANCH  26  40
BRANCH  27  46
ATOM     46  C   UNL     1      -0.875   0.557  10.786  1.00  0.00    -0.014 A 
ATOM     47  C   UNL     1      -1.934  -0.344  10.961  1.00  0.00     0.009 A 
ATOM     48  C   UNL     1       0.286   0.394  11.562  1.00  0.00     0.009 A 
ATOM     49  C   UNL     1      -1.834  -1.381  11.895  1.00  0.00     0.001 A 
ATOM     50  C   UNL     1       0.395  -0.659  12.474  1.00  0.00     0.001 A 
ATOM     51  C   UNL     1      -0.668  -1.542  12.643  1.00  0.00     0.000 A 
ENDBRANCH  27  46
BRANCH  39  52
ATOM     52  C   UNL     1      -4.488   6.507  10.030  1.00  0.00    -0.014 A 
ATOM     53  C   UNL     1      -4.207   7.167  11.234  1.00  0.00     0.009 A 
ATOM     54  C   UNL     1      -5.795   6.534   9.517  1.00  0.00     0.009 A 
ATOM     55  C   UNL     1      -5.223   7.837  11.917  1.00  0.00     0.001 A 
ATOM     56  C   UNL     1      -6.800   7.229  10.187  1.00  0.00     0.001 A 
ATOM     57  C   UNL     1      -6.513   7.876  11.387  1.00  0.00     0.000 A 
ENDBRANCH  39  52
ENDBRANCH  13  14
ENDBRANCH   6   8
ENDBRANCH   5   6
ENDBRANCH   4   5
ENDBRANCH   3   4
ENDBRANCH   2   3
ENDBRANCH   1   2
BRANCH   1  58
ATOM     58  C   UNL     1       5.431  -3.119   4.180  1.00  0.00     0.261 C 
BRANCH  58  59
ATOM     59  O   UNL     1       5.533  -4.190   3.241  1.00  0.00    -0.461 OA
BRANCH  59  60
ATOM     60  C   UNL     1       4.383  -4.409   2.539  1.00  0.00     0.335 C 
ATOM     61  O   UNL     1       3.259  -4.343   3.007  1.00  0.00    -0.249 OA
BRANCH  60  62
ATOM     62  C   UNL     1       4.693  -4.656   1.058  1.00  0.00     0.228 C 
ATOM     63  C   UNL     1       6.157  -4.522   0.654  1.00  0.00     0.047 C 
ATOM     64  O   UNL     1       4.304  -5.979   0.701  1.00  0.00    -0.361 OA
ATOM     65  C   UNL     1       6.681  -5.911   0.915  1.00  0.00     0.037 C 
ATOM     66  C   UNL     1       5.490  -6.776   0.534  1.00  0.00     0.138 C 
BRANCH  66  67
ATOM     67  C   UNL     1       5.550  -7.207  -0.930  1.00  0.00     0.148 C 
BRANCH  67  68
ATOM     68  N   UNL     1       6.309  -8.431  -1.090  1.00  0.00    -0.349 N 
ATOM     69  C   UNL     1       5.822  -9.697  -1.296  1.00  0.00     0.255 C 
ATOM     70  H   UNL     1       7.289  -8.344  -1.046  1.00  0.00     0.163 HD
ATOM     71  O   UNL     1       6.570 -10.664  -1.177  1.00  0.00    -0.269 OA
BRANCH  69  72
ATOM     72  C   UNL     1       4.383  -9.907  -1.577  1.00  0.00     0.081 A 
ATOM     73  C   UNL     1       3.695 -10.805  -0.752  1.00  0.00     0.018 A 
ATOM     74  C   UNL     1       3.704  -9.261  -2.619  1.00  0.00     0.128 A 
ATOM     75  C   UNL     1       2.329 -11.020  -0.941  1.00  0.00     0.001 A 
ATOM     76  C   UNL     1       2.335  -9.464  -2.795  1.00  0.00     0.047 A 
ATOM     77  C   UNL     1       1.650 -10.342  -1.953  1.00  0.00     0.004 A 
BRANCH  74  78
ATOM     78  O   UNL     1       4.366  -8.414  -3.466  1.00  0.00    -0.507 OA
ATOM     79  H   UNL     1       5.286  -8.268  -3.359  1.00  0.00     0.293 HD
ENDBRANCH  74  78
ENDBRANCH  69  72
ENDBRANCH  67  68
ENDBRANCH  66  67
ENDBRANCH  60  62
ENDBRANCH  59  60
ENDBRANCH  58  59
ENDBRANCH   1  58
TORSDOF 18
