REMARK SMILES O=C(OCCOCCOC(=O)c1ccc([C@H]2CCC[N@@H+](CCN3CCCC3=O)C2)cc1)c1ccc(-c2c3nc(c(-c4ccccc4)c4ccc([nH]4)c(-c4ccccc4)c4nc(c(-c5ccccc5)c5ccc2[nH]5)C=C4)C=C3)cc1
REMARK SMILES IDX 7 1 6 2 5 3 4 4 3 5 2 6 1 7 32 8 33 9 79 10 34 11 78 12
REMARK SMILES IDX 35 13 36 14 37 15 72 16 38 17 77 18 71 19 73 20 39 21 76 22
REMARK SMILES IDX 70 23 69 24 40 26 62 27 47 28 61 29 48 30 51 31 60 32 74 33
REMARK SMILES IDX 49 34 50 35 59 37 75 38 52 39 41 40 42 41 46 42 43 43 45 44
REMARK SMILES IDX 44 45 63 46 64 47 68 48 65 49 67 50 66 51 53 52 54 53 58 54
REMARK SMILES IDX 55 55 57 56 56 57 8 58 9 59 10 60 11 61 12 62 13 63 31 64
REMARK SMILES IDX 14 65 30 66 15 67 16 68 17 69 29 70 18 71 20 72 19 73 21 75
REMARK SMILES IDX 22 76 23 77 24 78 27 79 25 80 26 81 28 82
REMARK H PARENT 73 25 51 36 20 74
REMARK Flexibility Score: inf
ROOT
ATOM      1  C   UNL     1      10.729   6.980  -7.613  1.00  0.00     0.202 C 
ENDROOT
BRANCH   1   2
ATOM      2  O   UNL     1      11.283   6.348  -6.462  1.00  0.00    -0.374 OA
BRANCH   2   3
ATOM      3  C   UNL     1      11.301   7.109  -5.259  1.00  0.00     0.202 C 
BRANCH   3   4
ATOM      4  C   UNL     1      12.594   7.896  -5.046  1.00  0.00     0.261 C 
BRANCH   4   5
ATOM      5  O   UNL     1      12.872   8.728  -6.184  1.00  0.00    -0.460 OA
BRANCH   5   6
ATOM      6  C   UNL     1      13.791   8.513  -7.156  1.00  0.00     0.338 C 
ATOM      7  O   UNL     1      13.964   9.379  -8.012  1.00  0.00    -0.246 OA
BRANCH   6   8
ATOM      8  C   UNL     1      14.623   7.275  -7.239  1.00  0.00     0.060 A 
ATOM      9  C   UNL     1      14.209   6.024  -6.789  1.00  0.00     0.016 A 
ATOM     10  C   UNL     1      15.863   7.356  -7.894  1.00  0.00     0.016 A 
ATOM     11  C   UNL     1      14.997   4.900  -6.920  1.00  0.00     0.010 A 
ATOM     12  C   UNL     1      16.648   6.211  -8.086  1.00  0.00     0.010 A 
ATOM     13  C   UNL     1      16.208   4.978  -7.593  1.00  0.00    -0.014 A 
BRANCH  13  14
ATOM     14  C   UNL     1      16.985   3.732  -7.665  1.00  0.00     0.031 A 
ATOM     15  C   UNL     1      18.156   3.570  -6.751  1.00  0.00     0.074 A 
ATOM     16  C   UNL     1      16.484   2.700  -8.371  1.00  0.00     0.049 A 
ATOM     17  N   UNL     1      18.948   2.544  -6.602  1.00  0.00    -0.248 NA
ATOM     18  C   UNL     1      18.463   4.707  -5.865  1.00  0.00     0.031 C 
ATOM     19  C   UNL     1      15.245   2.739  -9.159  1.00  0.00     0.029 A 
ATOM     20  N   UNL     1      16.908   1.405  -8.489  1.00  0.00    -0.354 N 
ATOM     21  C   UNL     1      19.858   2.917  -5.623  1.00  0.00     0.074 A 
ATOM     22  C   UNL     1      19.530   4.265  -5.218  1.00  0.00     0.031 C 
ATOM     23  C   UNL     1      14.989   1.512  -9.638  1.00  0.00     0.029 A 
ATOM     24  C   UNL     1      16.084   0.627  -9.267  1.00  0.00     0.049 A 
ATOM     25  H   UNL     1      17.725   1.063  -8.059  1.00  0.00     0.167 HD
ATOM     26  C   UNL     1      20.880   2.191  -5.118  1.00  0.00     0.031 A 
ATOM     27  C   UNL     1      16.227  -0.651  -9.661  1.00  0.00     0.031 A 
ATOM     28  C   UNL     1      21.186   0.858  -5.559  1.00  0.00     0.049 A 
ATOM     29  C   UNL     1      17.448  -1.387  -9.184  1.00  0.00     0.074 A 
ATOM     30  C   UNL     1      22.254   0.053  -5.213  1.00  0.00     0.029 A 
ATOM     31  N   UNL     1      20.403   0.134  -6.449  1.00  0.00    -0.354 N 
ATOM     32  N   UNL     1      18.371  -0.993  -8.338  1.00  0.00    -0.248 NA
ATOM     33  C   UNL     1      17.658  -2.734  -9.725  1.00  0.00     0.031 C 
ATOM     34  C   UNL     1      22.142  -1.143  -5.932  1.00  0.00     0.029 A 
ATOM     35  C   UNL     1      20.972  -1.105  -6.677  1.00  0.00     0.049 A 
ATOM     36  H   UNL     1      19.567   0.455  -6.857  1.00  0.00     0.167 HD
ATOM     37  C   UNL     1      19.269  -2.045  -8.239  1.00  0.00     0.074 A 
ATOM     38  C   UNL     1      18.754  -3.108  -9.082  1.00  0.00     0.031 C 
ATOM     39  C   UNL     1      20.422  -2.128  -7.530  1.00  0.00     0.031 A 
BRANCH  26  40
ATOM     40  C   UNL     1      21.764   2.868  -4.113  1.00  0.00    -0.014 A 
ATOM     41  C   UNL     1      21.331   3.117  -2.801  1.00  0.00     0.009 A 
ATOM     42  C   UNL     1      23.041   3.301  -4.501  1.00  0.00     0.009 A 
ATOM     43  C   UNL     1      22.148   3.816  -1.909  1.00  0.00     0.001 A 
ATOM     44  C   UNL     1      23.865   3.977  -3.599  1.00  0.00     0.001 A 
ATOM     45  C   UNL     1      23.415   4.243  -2.308  1.00  0.00     0.000 A 
ENDBRANCH  26  40
BRANCH  27  46
ATOM     46  C   UNL     1      15.268  -1.269 -10.617  1.00  0.00    -0.014 A 
ATOM     47  C   UNL     1      14.520  -2.405 -10.275  1.00  0.00     0.009 A 
ATOM     48  C   UNL     1      15.133  -0.744 -11.915  1.00  0.00     0.009 A 
ATOM     49  C   UNL     1      13.691  -3.021 -11.220  1.00  0.00     0.001 A 
ATOM     50  C   UNL     1      14.277  -1.337 -12.844  1.00  0.00     0.001 A 
ATOM     51  C   UNL     1      13.569  -2.486 -12.501  1.00  0.00     0.000 A 
ENDBRANCH  27  46
BRANCH  39  52
ATOM     52  C   UNL     1      21.171  -3.424  -7.628  1.00  0.00    -0.014 A 
ATOM     53  C   UNL     1      21.851  -3.783  -8.802  1.00  0.00     0.009 A 
ATOM     54  C   UNL     1      21.212  -4.284  -6.521  1.00  0.00     0.009 A 
ATOM     55  C   UNL     1      22.524  -5.002  -8.878  1.00  0.00     0.001 A 
ATOM     56  C   UNL     1      21.915  -5.486  -6.588  1.00  0.00     0.001 A 
ATOM     57  C   UNL     1      22.559  -5.849  -7.770  1.00  0.00     0.000 A 
ENDBRANCH  39  52
ENDBRANCH  13  14
ENDBRANCH   6   8
ENDBRANCH   5   6
ENDBRANCH   4   5
ENDBRANCH   3   4
ENDBRANCH   2   3
ENDBRANCH   1   2
BRANCH   1  58
ATOM     58  C   UNL     1       9.661   6.057  -8.205  1.00  0.00     0.261 C 
BRANCH  58  59
ATOM     59  O   UNL     1       8.658   5.799  -7.210  1.00  0.00    -0.460 OA
BRANCH  59  60
ATOM     60  C   UNL     1       8.923   4.783  -6.340  1.00  0.00     0.338 C 
ATOM     61  O   UNL     1       9.778   3.920  -6.416  1.00  0.00    -0.246 OA
BRANCH  60  62
ATOM     62  C   UNL     1       8.067   5.032  -5.170  1.00  0.00     0.060 A 
ATOM     63  C   UNL     1       8.618   5.297  -3.912  1.00  0.00     0.016 A 
ATOM     64  C   UNL     1       6.703   5.130  -5.367  1.00  0.00     0.016 A 
ATOM     65  C   UNL     1       7.817   5.834  -2.891  1.00  0.00     0.005 A 
ATOM     66  C   UNL     1       5.908   5.596  -4.331  1.00  0.00     0.005 A 
ATOM     67  C   UNL     1       6.452   6.059  -3.109  1.00  0.00    -0.039 A 
BRANCH  67  68
ATOM     68  C   UNL     1       5.557   6.799  -2.092  1.00  0.00     0.074 C 
ATOM     69  C   UNL     1       6.248   7.968  -1.356  1.00  0.00     0.020 C 
ATOM     70  C   UNL     1       4.334   7.375  -2.839  1.00  0.00     0.270 C 
ATOM     71  C   UNL     1       5.232   8.806  -0.569  1.00  0.00     0.062 C 
ATOM     72  N   UNL     1       3.425   8.274  -2.144  1.00  0.00    -0.333 N 
ATOM     73  C   UNL     1       4.122   9.361  -1.472  1.00  0.00     0.262 C 
ATOM     74  H   UNL     1       2.970   7.775  -1.379  1.00  0.00     0.348 HD
BRANCH  72  75
ATOM     75  C   UNL     1       2.353   8.706  -3.075  1.00  0.00     0.284 C 
BRANCH  75  76
ATOM     76  C   UNL     1       2.634   9.707  -4.238  1.00  0.00     0.180 C 
BRANCH  76  77
ATOM     77  N   UNL     1       3.642   9.363  -5.241  1.00  0.00    -0.337 N 
ATOM     78  C   UNL     1       4.648  10.310  -5.660  1.00  0.00     0.120 C 
ATOM     79  C   UNL     1       3.720   8.176  -5.960  1.00  0.00     0.222 C 
ATOM     80  C   UNL     1       5.175   9.741  -6.966  1.00  0.00     0.031 C 
ATOM     81  C   UNL     1       4.968   8.245  -6.811  1.00  0.00     0.102 C 
ATOM     82  O   UNL     1       2.986   7.207  -5.865  1.00  0.00    -0.275 OA
ENDBRANCH  76  77
ENDBRANCH  75  76
ENDBRANCH  72  75
ENDBRANCH  67  68
ENDBRANCH  60  62
ENDBRANCH  59  60
ENDBRANCH  58  59
ENDBRANCH   1  58
TORSDOF 18
