REMARK SMILES C/C(=N\NC(N)=O)c1nnn(-c2ccc(C(=O)OCCOCCOC(=O)c3ccc(-c4c5nc(c(-c6ccccc6)c6ccc([nH]6)c(-c6ccccc6)c6nc(c(-c7ccccc7)c7ccc4[nH]7)C=C6)C=C5)cc3)cc2)c1C
REMARK SMILES IDX 20 1 19 2 18 3 16 4 17 5 15 6 12 7 13 8 76 9 14 10 75 11
REMARK SMILES IDX 11 12 8 13 9 14 77 15 10 16 78 17 2 18 1 19 3 20 4 21 5 22
REMARK SMILES IDX 6 24 7 25 21 28 22 29 23 30 24 31 25 32 26 33 27 34 28 35
REMARK SMILES IDX 74 36 29 37 73 38 30 39 31 40 32 41 67 42 33 43 72 44 66 45
REMARK SMILES IDX 68 46 34 47 71 48 65 49 64 50 35 52 57 53 42 54 56 55 43 56
REMARK SMILES IDX 46 57 55 58 69 59 44 60 45 61 54 63 70 64 47 65 36 66 37 67
REMARK SMILES IDX 41 68 38 69 40 70 39 71 58 72 59 73 63 74 60 75 62 76 61 77
REMARK SMILES IDX 48 78 49 79 53 80 50 81 52 82 51 83
REMARK H PARENT 4 23 6 26 6 27 68 51 46 62
REMARK Flexibility Score: inf
ROOT
ATOM      1  C   UNL     1       9.600  -7.582   3.199  1.00  0.00     0.202 C 
ENDROOT
BRANCH   1   2
ATOM      2  C   UNL     1       9.405  -6.264   2.452  1.00  0.00     0.261 C 
BRANCH   2   3
ATOM      3  O   UNL     1       8.157  -5.638   2.795  1.00  0.00    -0.460 OA
BRANCH   3   4
ATOM      4  C   UNL     1       7.250  -5.612   1.793  1.00  0.00     0.338 C 
ATOM      5  O   UNL     1       7.402  -6.022   0.650  1.00  0.00    -0.246 OA
BRANCH   4   6
ATOM      6  C   UNL     1       5.946  -5.128   2.283  1.00  0.00     0.060 A 
ATOM      7  C   UNL     1       3.482  -3.956   2.719  1.00  0.00     0.067 A 
ATOM      8  C   UNL     1       3.543  -5.138   1.975  1.00  0.00     0.029 A 
ATOM      9  C   UNL     1       4.614  -3.452   3.375  1.00  0.00     0.029 A 
ATOM     10  C   UNL     1       4.791  -5.705   1.734  1.00  0.00     0.018 A 
ATOM     11  C   UNL     1       5.855  -4.051   3.167  1.00  0.00     0.018 A 
BRANCH   7  12
ATOM     12  N   UNL     1       2.333  -3.147   2.584  1.00  0.00    -0.217 N 
ATOM     13  C   UNL     1       0.961  -1.624   1.853  1.00  0.00     0.132 A 
ATOM     14  N   UNL     1       0.235  -2.723   2.224  1.00  0.00    -0.128 NA
ATOM     15  C   UNL     1       2.306  -1.862   2.065  1.00  0.00     0.071 A 
ATOM     16  N   UNL     1       1.085  -3.667   2.606  1.00  0.00    -0.061 NA
ATOM     17  C   UNL     1       3.495  -1.081   1.645  1.00  0.00     0.069 C 
BRANCH  13  18
ATOM     18  C   UNL     1       0.386  -0.500   1.140  1.00  0.00     0.087 C 
ATOM     19  C   UNL     1       0.480  -0.551  -0.365  1.00  0.00     0.071 C 
ATOM     20  N   UNL     1      -0.151   0.422   1.885  1.00  0.00    -0.174 NA
BRANCH  20  21
ATOM     21  N   UNL     1      -0.646   1.574   1.341  1.00  0.00    -0.229 N 
ATOM     22  C   UNL     1       0.015   2.388   0.446  1.00  0.00     0.332 C 
ATOM     23  H   UNL     1      -1.553   1.846   1.612  1.00  0.00     0.195 HD
ATOM     24  N   UNL     1      -0.717   3.482   0.099  1.00  0.00    -0.350 N 
ATOM     25  O   UNL     1       1.126   2.206  -0.036  1.00  0.00    -0.247 OA
ATOM     26  H   UNL     1      -1.610   3.622   0.490  1.00  0.00     0.161 HD
ATOM     27  H   UNL     1      -0.355   4.134  -0.544  1.00  0.00     0.161 HD
ENDBRANCH  20  21
ENDBRANCH  13  18
ENDBRANCH   7  12
ENDBRANCH   4   6
ENDBRANCH   3   4
ENDBRANCH   2   3
ENDBRANCH   1   2
BRANCH   1  28
ATOM     28  O   UNL     1       8.767  -8.683   2.835  1.00  0.00    -0.374 OA
BRANCH  28  29
ATOM     29  C   UNL     1       7.374  -8.649   3.123  1.00  0.00     0.202 C 
BRANCH  29  30
ATOM     30  C   UNL     1       6.938  -8.832   4.569  1.00  0.00     0.261 C 
BRANCH  30  31
ATOM     31  O   UNL     1       7.523  -7.870   5.433  1.00  0.00    -0.460 OA
BRANCH  31  32
ATOM     32  C   UNL     1       8.600  -8.322   6.107  1.00  0.00     0.338 C 
ATOM     33  O   UNL     1       9.254  -9.336   5.876  1.00  0.00    -0.246 OA
BRANCH  32  34
ATOM     34  C   UNL     1       8.771  -7.505   7.307  1.00  0.00     0.060 A 
ATOM     35  C   UNL     1       9.685  -7.985   8.249  1.00  0.00     0.016 A 
ATOM     36  C   UNL     1       7.807  -6.536   7.624  1.00  0.00     0.016 A 
ATOM     37  C   UNL     1       9.470  -7.684   9.572  1.00  0.00     0.010 A 
ATOM     38  C   UNL     1       7.569  -6.269   8.947  1.00  0.00     0.010 A 
ATOM     39  C   UNL     1       8.352  -6.914   9.902  1.00  0.00    -0.014 A 
BRANCH  39  40
ATOM     40  C   UNL     1       8.036  -6.756  11.301  1.00  0.00     0.031 A 
ATOM     41  C   UNL     1       8.813  -5.693  11.962  1.00  0.00     0.074 A 
ATOM     42  C   UNL     1       7.030  -7.430  11.882  1.00  0.00     0.049 A 
ATOM     43  N   UNL     1       9.693  -5.819  12.897  1.00  0.00    -0.248 NA
ATOM     44  C   UNL     1       8.707  -4.339  11.397  1.00  0.00     0.031 C 
ATOM     45  C   UNL     1       6.007  -8.252  11.229  1.00  0.00     0.029 A 
ATOM     46  N   UNL     1       6.631  -7.402  13.181  1.00  0.00    -0.354 N 
ATOM     47  C   UNL     1      10.111  -4.523  13.175  1.00  0.00     0.074 A 
ATOM     48  C   UNL     1       9.648  -3.701  12.089  1.00  0.00     0.031 C 
ATOM     49  C   UNL     1       4.985  -8.444  12.094  1.00  0.00     0.029 A 
ATOM     50  C   UNL     1       5.336  -7.856  13.377  1.00  0.00     0.049 A 
ATOM     51  H   UNL     1       7.209  -7.090  13.914  1.00  0.00     0.167 HD
ATOM     52  C   UNL     1      10.525  -4.169  14.421  1.00  0.00     0.031 A 
ATOM     53  C   UNL     1       4.582  -7.666  14.486  1.00  0.00     0.031 A 
ATOM     54  C   UNL     1      10.889  -5.321  15.209  1.00  0.00     0.049 A 
ATOM     55  C   UNL     1       5.486  -7.266  15.591  1.00  0.00     0.074 A 
ATOM     56  C   UNL     1      11.793  -6.355  15.069  1.00  0.00     0.029 A 
ATOM     57  N   UNL     1      10.000  -5.723  16.178  1.00  0.00    -0.354 N 
ATOM     58  N   UNL     1       6.334  -8.070  16.164  1.00  0.00    -0.248 NA
ATOM     59  C   UNL     1       5.741  -5.847  15.800  1.00  0.00     0.031 C 
ATOM     60  C   UNL     1      11.155  -7.494  15.644  1.00  0.00     0.029 A 
ATOM     61  C   UNL     1       9.913  -7.088  16.137  1.00  0.00     0.049 A 
ATOM     62  H   UNL     1       9.511  -5.131  16.795  1.00  0.00     0.167 HD
ATOM     63  C   UNL     1       7.449  -7.285  16.424  1.00  0.00     0.074 A 
ATOM     64  C   UNL     1       6.978  -5.909  16.301  1.00  0.00     0.031 C 
ATOM     65  C   UNL     1       8.703  -7.827  16.425  1.00  0.00     0.031 A 
BRANCH  52  66
ATOM     66  C   UNL     1      10.133  -2.849  15.052  1.00  0.00    -0.014 A 
ATOM     67  C   UNL     1      10.531  -2.604  16.378  1.00  0.00     0.009 A 
ATOM     68  C   UNL     1       9.158  -1.980  14.522  1.00  0.00     0.009 A 
ATOM     69  C   UNL     1       9.900  -1.628  17.159  1.00  0.00     0.001 A 
ATOM     70  C   UNL     1       8.560  -0.974  15.283  1.00  0.00     0.001 A 
ATOM     71  C   UNL     1       8.905  -0.824  16.615  1.00  0.00     0.000 A 
ENDBRANCH  52  66
BRANCH  53  72
ATOM     72  C   UNL     1       3.113  -7.556  14.594  1.00  0.00    -0.014 A 
ATOM     73  C   UNL     1       2.479  -7.670  15.841  1.00  0.00     0.009 A 
ATOM     74  C   UNL     1       2.344  -7.097  13.509  1.00  0.00     0.009 A 
ATOM     75  C   UNL     1       1.136  -7.305  16.002  1.00  0.00     0.001 A 
ATOM     76  C   UNL     1       1.000  -6.743  13.666  1.00  0.00     0.001 A 
ATOM     77  C   UNL     1       0.401  -6.832  14.917  1.00  0.00     0.000 A 
ENDBRANCH  53  72
BRANCH  65  78
ATOM     78  C   UNL     1       8.820  -9.330  16.443  1.00  0.00    -0.014 A 
ATOM     79  C   UNL     1       8.281 -10.152  15.438  1.00  0.00     0.009 A 
ATOM     80  C   UNL     1       9.614  -9.926  17.435  1.00  0.00     0.009 A 
ATOM     81  C   UNL     1       8.495 -11.533  15.451  1.00  0.00     0.001 A 
ATOM     82  C   UNL     1       9.848 -11.302  17.433  1.00  0.00     0.001 A 
ATOM     83  C   UNL     1       9.281 -12.107  16.447  1.00  0.00     0.000 A 
ENDBRANCH  65  78
ENDBRANCH  39  40
ENDBRANCH  32  34
ENDBRANCH  31  32
ENDBRANCH  30  31
ENDBRANCH  29  30
ENDBRANCH  28  29
ENDBRANCH   1  28
TORSDOF 17
