REMARK SMILES Cc1c(NC(=O)c2cccc(-c3cc4ccccc4oc3=O)c2)cccc1C(=O)OCCOCCOC(=O)c1ccc(-c2c3nc(c(-c4ccccc4)c4ccc([nH]4)c(-c4ccccc4)c4nc(c(-c5ccccc5)c5ccc2[nH]5)C=C4)C=C3)cc1
REMARK SMILES IDX 32 1 31 2 30 3 28 4 29 5 27 6 1 7 2 8 3 9 24 10 26 11 25 12
REMARK SMILES IDX 4 13 5 14 6 16 7 17 8 18 23 19 9 20 11 21 10 22 12 23 13 24
REMARK SMILES IDX 21 25 14 26 20 27 22 28 15 29 19 30 16 31 18 32 17 33 33 34
REMARK SMILES IDX 34 35 35 36 36 37 37 38 38 39 39 40 40 41 86 42 41 43 85 44
REMARK SMILES IDX 42 45 43 46 44 47 79 48 45 49 84 50 78 51 80 52 46 53 83 54
REMARK SMILES IDX 77 55 76 56 47 58 69 59 54 60 68 61 55 62 58 63 67 64 81 65
REMARK SMILES IDX 56 66 57 67 66 69 82 70 59 71 48 72 49 73 53 74 50 75 52 76
REMARK SMILES IDX 51 77 70 78 71 79 75 80 72 81 74 82 73 83 60 84 61 85 65 86
REMARK SMILES IDX 62 87 64 88 63 89
REMARK H PARENT 4 15 80 57 58 68
REMARK Flexibility Score: inf
ROOT
ATOM      1  C   UNL     1       2.243   2.787  -2.301  1.00  0.00     0.202 C 
ENDROOT
BRANCH   1   2
ATOM      2  C   UNL     1       2.676   2.435  -0.916  1.00  0.00     0.261 C 
BRANCH   2   3
ATOM      3  O   UNL     1       1.837   1.501  -0.204  1.00  0.00    -0.460 OA
BRANCH   3   4
ATOM      4  C   UNL     1       0.704   1.853   0.466  1.00  0.00     0.338 C 
ATOM      5  O   UNL     1       0.256   2.968   0.605  1.00  0.00    -0.246 OA
BRANCH   4   6
ATOM      6  C   UNL     1      -0.031   0.596   0.846  1.00  0.00     0.065 A 
ATOM      7  C   UNL     1       2.031  -0.967   0.926  1.00  0.00     0.047 C 
ATOM      8  C   UNL     1       0.543  -0.699   0.918  1.00  0.00    -0.013 A 
ATOM      9  C   UNL     1      -0.329  -1.819   0.916  1.00  0.00     0.045 A 
ATOM     10  C   UNL     1      -1.714  -1.644   1.005  1.00  0.00     0.026 A 
ATOM     11  C   UNL     1      -1.429   0.745   0.947  1.00  0.00     0.016 A 
ATOM     12  C   UNL     1      -2.263  -0.366   1.038  1.00  0.00     0.003 A 
BRANCH   9  13
ATOM     13  N   UNL     1       0.238  -3.101   0.804  1.00  0.00    -0.322 N 
ATOM     14  C   UNL     1      -0.208  -4.271   0.236  1.00  0.00     0.255 C 
ATOM     15  H   UNL     1       1.130  -3.176   1.212  1.00  0.00     0.170 HD
ATOM     16  O   UNL     1       0.445  -5.296   0.441  1.00  0.00    -0.269 OA
BRANCH  14  17
ATOM     17  C   UNL     1      -1.361  -4.343  -0.701  1.00  0.00     0.040 A 
ATOM     18  C   UNL     1      -2.085  -5.536  -0.742  1.00  0.00     0.014 A 
ATOM     19  C   UNL     1      -1.650  -3.338  -1.635  1.00  0.00     0.022 A 
ATOM     20  C   UNL     1      -3.124  -5.694  -1.657  1.00  0.00     0.001 A 
ATOM     21  C   UNL     1      -2.677  -3.494  -2.588  1.00  0.00    -0.010 A 
ATOM     22  C   UNL     1      -3.423  -4.678  -2.565  1.00  0.00     0.009 A 
BRANCH  21  23
ATOM     23  C   UNL     1      -2.957  -2.566  -3.728  1.00  0.00     0.068 A 
ATOM     24  C   UNL     1      -2.838  -1.222  -3.678  1.00  0.00     0.028 A 
ATOM     25  C   UNL     1      -2.349  -3.000  -5.035  1.00  0.00     0.344 A 
ATOM     26  C   UNL     1      -1.415  -0.864  -3.623  1.00  0.00     0.018 A 
ATOM     27  O   UNL     1      -0.980  -2.719  -5.127  1.00  0.00    -0.422 OA
ATOM     28  O   UNL     1      -2.983  -3.576  -5.907  1.00  0.00    -0.246 OA
ATOM     29  C   UNL     1      -0.983   0.133  -2.792  1.00  0.00     0.012 A 
ATOM     30  C   UNL     1      -0.491  -1.714  -4.268  1.00  0.00     0.138 A 
ATOM     31  C   UNL     1       0.372   0.173  -2.539  1.00  0.00     0.001 A 
ATOM     32  C   UNL     1       0.870  -1.654  -4.007  1.00  0.00     0.048 A 
ATOM     33  C   UNL     1       1.304  -0.708  -3.097  1.00  0.00     0.004 A 
ENDBRANCH  21  23
ENDBRANCH  14  17
ENDBRANCH   9  13
ENDBRANCH   4   6
ENDBRANCH   3   4
ENDBRANCH   2   3
ENDBRANCH   1   2
BRANCH   1  34
ATOM     34  O   UNL     1       1.034   3.511  -2.165  1.00  0.00    -0.374 OA
BRANCH  34  35
ATOM     35  C   UNL     1       0.377   3.879  -3.362  1.00  0.00     0.202 C 
BRANCH  35  36
ATOM     36  C   UNL     1       1.302   4.440  -4.452  1.00  0.00     0.261 C 
BRANCH  36  37
ATOM     37  O   UNL     1       1.845   5.719  -4.042  1.00  0.00    -0.460 OA
BRANCH  37  38
ATOM     38  C   UNL     1       3.123   5.729  -3.566  1.00  0.00     0.338 C 
ATOM     39  O   UNL     1       4.095   5.276  -4.149  1.00  0.00    -0.246 OA
BRANCH  38  40
ATOM     40  C   UNL     1       3.116   6.082  -2.109  1.00  0.00     0.060 A 
ATOM     41  C   UNL     1       4.260   5.870  -1.312  1.00  0.00     0.016 A 
ATOM     42  C   UNL     1       1.879   6.247  -1.499  1.00  0.00     0.016 A 
ATOM     43  C   UNL     1       4.131   5.663   0.074  1.00  0.00     0.010 A 
ATOM     44  C   UNL     1       1.745   5.879  -0.179  1.00  0.00     0.010 A 
ATOM     45  C   UNL     1       2.856   5.576   0.626  1.00  0.00    -0.014 A 
BRANCH  45  46
ATOM     46  C   UNL     1       2.496   5.093   1.969  1.00  0.00     0.031 A 
ATOM     47  C   UNL     1       1.681   6.005   2.807  1.00  0.00     0.074 A 
ATOM     48  C   UNL     1       2.624   3.788   2.334  1.00  0.00     0.049 A 
ATOM     49  N   UNL     1       1.392   5.766   4.034  1.00  0.00    -0.248 NA
ATOM     50  C   UNL     1       1.141   7.292   2.358  1.00  0.00     0.031 C 
ATOM     51  C   UNL     1       1.882   3.038   3.356  1.00  0.00     0.029 A 
ATOM     52  N   UNL     1       3.479   2.810   1.827  1.00  0.00    -0.354 N 
ATOM     53  C   UNL     1       0.394   6.627   4.410  1.00  0.00     0.074 A 
ATOM     54  C   UNL     1       0.352   7.630   3.381  1.00  0.00     0.031 C 
ATOM     55  C   UNL     1       2.486   1.857   3.590  1.00  0.00     0.029 A 
ATOM     56  C   UNL     1       3.703   1.830   2.798  1.00  0.00     0.049 A 
ATOM     57  H   UNL     1       3.866   2.810   0.921  1.00  0.00     0.167 HD
ATOM     58  C   UNL     1      -0.350   6.297   5.498  1.00  0.00     0.031 A 
ATOM     59  C   UNL     1       4.974   1.557   3.190  1.00  0.00     0.031 A 
ATOM     60  C   UNL     1       0.215   5.115   6.169  1.00  0.00     0.049 A 
ATOM     61  C   UNL     1       5.070   2.069   4.597  1.00  0.00     0.074 A 
ATOM     62  C   UNL     1      -0.180   3.792   6.266  1.00  0.00     0.029 A 
ATOM     63  N   UNL     1       1.559   5.148   6.554  1.00  0.00    -0.354 N 
ATOM     64  N   UNL     1       4.296   3.026   5.046  1.00  0.00    -0.248 NA
ATOM     65  C   UNL     1       5.858   1.436   5.646  1.00  0.00     0.031 C 
ATOM     66  C   UNL     1       0.977   3.021   6.606  1.00  0.00     0.029 A 
ATOM     67  C   UNL     1       2.063   3.875   6.751  1.00  0.00     0.049 A 
ATOM     68  H   UNL     1       2.081   5.974   6.671  1.00  0.00     0.167 HD
ATOM     69  C   UNL     1       4.322   3.007   6.402  1.00  0.00     0.074 A 
ATOM     70  C   UNL     1       5.377   2.061   6.737  1.00  0.00     0.031 C 
ATOM     71  C   UNL     1       3.445   3.687   7.192  1.00  0.00     0.031 A 
BRANCH  58  72
ATOM     72  C   UNL     1      -1.673   6.930   5.862  1.00  0.00    -0.014 A 
ATOM     73  C   UNL     1      -2.364   6.471   6.997  1.00  0.00     0.009 A 
ATOM     74  C   UNL     1      -2.329   7.928   5.113  1.00  0.00     0.009 A 
ATOM     75  C   UNL     1      -3.619   6.984   7.364  1.00  0.00     0.001 A 
ATOM     76  C   UNL     1      -3.571   8.463   5.486  1.00  0.00     0.001 A 
ATOM     77  C   UNL     1      -4.218   7.988   6.614  1.00  0.00     0.000 A 
ENDBRANCH  58  72
BRANCH  59  78
ATOM     78  C   UNL     1       5.927   1.643   2.033  1.00  0.00    -0.014 A 
ATOM     79  C   UNL     1       5.867   0.584   1.092  1.00  0.00     0.009 A 
ATOM     80  C   UNL     1       6.427   2.877   1.583  1.00  0.00     0.009 A 
ATOM     81  C   UNL     1       6.144   0.792  -0.268  1.00  0.00     0.001 A 
ATOM     82  C   UNL     1       6.699   3.081   0.216  1.00  0.00     0.001 A 
ATOM     83  C   UNL     1       6.520   2.055  -0.712  1.00  0.00     0.000 A 
ENDBRANCH  59  78
BRANCH  71  84
ATOM     84  C   UNL     1       3.882   4.243   8.513  1.00  0.00    -0.014 A 
ATOM     85  C   UNL     1       5.235   4.389   8.857  1.00  0.00     0.009 A 
ATOM     86  C   UNL     1       2.932   4.840   9.362  1.00  0.00     0.009 A 
ATOM     87  C   UNL     1       5.618   5.044  10.026  1.00  0.00     0.001 A 
ATOM     88  C   UNL     1       3.315   5.555  10.494  1.00  0.00     0.001 A 
ATOM     89  C   UNL     1       4.658   5.638  10.836  1.00  0.00     0.000 A 
ENDBRANCH  71  84
ENDBRANCH  45  46
ENDBRANCH  38  40
ENDBRANCH  37  38
ENDBRANCH  36  37
ENDBRANCH  35  36
ENDBRANCH  34  35
ENDBRANCH   1  34
TORSDOF 17
