REMARK SMILES Cc1n[nH]c(C[N@H+]2CCC[C@H](c3cccc(C(=O)OCCOCCOC(=O)c4ccc(-c5c6nc(c(-c7ccccc7)c7ccc([nH]7)c(-c7ccccc7)c7nc(c(-c8ccccc8)c8ccc5[nH]8)C=C7)C=C6)cc4)c3)C2)n1
REMARK SMILES IDX 21 1 20 2 19 3 17 4 18 5 16 6 12 7 13 8 76 9 14 10 15 11
REMARK SMILES IDX 11 12 7 13 8 14 77 15 9 17 10 18 6 19 5 20 1 21 2 22 3 23
REMARK SMILES IDX 78 24 4 25 22 27 23 28 24 29 25 30 26 31 27 32 28 33 29 34
REMARK SMILES IDX 75 35 30 36 74 37 31 38 32 39 33 40 68 41 34 42 73 43 67 44
REMARK SMILES IDX 69 45 35 46 72 47 66 48 65 49 36 51 58 52 43 53 57 54 44 55
REMARK SMILES IDX 47 56 56 57 70 58 45 59 46 60 55 62 71 63 48 64 37 65 38 66
REMARK SMILES IDX 42 67 39 68 41 69 40 70 59 71 60 72 64 73 61 74 63 75 62 76
REMARK SMILES IDX 49 77 50 78 54 79 51 80 53 81 52 82
REMARK H PARENT 7 16 4 26 69 50 47 61
REMARK Flexibility Score: inf
ROOT
ATOM      1  C   UNL     1      -5.227  11.378  -2.941  1.00  0.00     0.202 C 
ENDROOT
BRANCH   1   2
ATOM      2  C   UNL     1      -5.907  10.019  -3.120  1.00  0.00     0.261 C 
BRANCH   2   3
ATOM      3  O   UNL     1      -4.962   8.940  -3.129  1.00  0.00    -0.460 OA
BRANCH   3   4
ATOM      4  C   UNL     1      -4.813   8.335  -4.335  1.00  0.00     0.338 C 
ATOM      5  O   UNL     1      -5.453   8.548  -5.349  1.00  0.00    -0.246 OA
BRANCH   4   6
ATOM      6  C   UNL     1      -3.588   7.510  -4.320  1.00  0.00     0.060 A 
ATOM      7  C   UNL     1      -2.175   5.807  -3.320  1.00  0.00    -0.038 A 
ATOM      8  C   UNL     1      -1.304   5.948  -4.416  1.00  0.00     0.004 A 
ATOM      9  C   UNL     1      -3.287   6.664  -3.251  1.00  0.00     0.020 A 
ATOM     10  C   UNL     1      -1.578   6.832  -5.459  1.00  0.00     0.001 A 
ATOM     11  C   UNL     1      -2.739   7.590  -5.428  1.00  0.00     0.016 A 
BRANCH   7  12
ATOM     12  C   UNL     1      -1.980   4.726  -2.252  1.00  0.00     0.074 C 
ATOM     13  N   UNL     1      -1.318   2.840  -3.765  1.00  0.00    -0.328 N 
ATOM     14  C   UNL     1      -2.584   2.135  -3.536  1.00  0.00     0.262 C 
ATOM     15  C   UNL     1      -0.920   3.647  -2.591  1.00  0.00     0.270 C 
ATOM     16  H   UNL     1      -1.488   3.490  -4.533  1.00  0.00     0.348 HD
ATOM     17  C   UNL     1      -3.706   3.092  -3.125  1.00  0.00     0.062 C 
ATOM     18  C   UNL     1      -3.289   3.962  -1.939  1.00  0.00     0.020 C 
BRANCH  13  19
ATOM     19  C   UNL     1      -0.236   1.956  -4.233  1.00  0.00     0.340 C 
BRANCH  19  20
ATOM     20  C   UNL     1       0.204   0.946  -3.230  1.00  0.00     0.179 A 
ATOM     21  C   UNL     1       1.197  -0.237  -0.071  1.00  0.00     0.092 C 
ATOM     22  C   UNL     1       0.775  -0.062  -1.472  1.00  0.00     0.147 A 
ATOM     23  N   UNL     1       0.275  -1.049  -2.225  1.00  0.00    -0.159 NA
ATOM     24  N   UNL     1       0.799   1.163  -2.075  1.00  0.00    -0.211 NA
ATOM     25  N   UNL     1      -0.061  -0.388  -3.345  1.00  0.00    -0.258 N 
ATOM     26  H   UNL     1      -0.449  -0.810  -4.145  1.00  0.00     0.192 HD
ENDBRANCH  19  20
ENDBRANCH  13  19
ENDBRANCH   7  12
ENDBRANCH   4   6
ENDBRANCH   3   4
ENDBRANCH   2   3
ENDBRANCH   1   2
BRANCH   1  27
ATOM     27  O   UNL     1      -4.333  11.844  -3.953  1.00  0.00    -0.374 OA
BRANCH  27  28
ATOM     28  C   UNL     1      -3.092  11.184  -4.178  1.00  0.00     0.202 C 
BRANCH  28  29
ATOM     29  C   UNL     1      -1.978  11.340  -3.153  1.00  0.00     0.261 C 
BRANCH  29  30
ATOM     30  O   UNL     1      -2.401  10.963  -1.856  1.00  0.00    -0.460 OA
BRANCH  30  31
ATOM     31  C   UNL     1      -2.794  12.007  -1.092  1.00  0.00     0.338 C 
ATOM     32  O   UNL     1      -2.972  13.158  -1.440  1.00  0.00    -0.246 OA
BRANCH  31  33
ATOM     33  C   UNL     1      -2.826  11.564   0.306  1.00  0.00     0.060 A 
ATOM     34  C   UNL     1      -3.049  12.576   1.241  1.00  0.00     0.016 A 
ATOM     35  C   UNL     1      -2.200  10.355   0.635  1.00  0.00     0.016 A 
ATOM     36  C   UNL     1      -2.345  12.518   2.417  1.00  0.00     0.010 A 
ATOM     37  C   UNL     1      -1.468  10.317   1.788  1.00  0.00     0.010 A 
ATOM     38  C   UNL     1      -1.470  11.446   2.603  1.00  0.00    -0.014 A 
BRANCH  38  39
ATOM     39  C   UNL     1      -0.587  11.476   3.741  1.00  0.00     0.031 A 
ATOM     40  C   UNL     1      -1.274  11.023   4.965  1.00  0.00     0.074 A 
ATOM     41  C   UNL     1       0.723  11.756   3.622  1.00  0.00     0.049 A 
ATOM     42  N   UNL     1      -1.697  11.752   5.942  1.00  0.00    -0.248 NA
ATOM     43  C   UNL     1      -1.777   9.637   4.978  1.00  0.00     0.031 C 
ATOM     44  C   UNL     1       1.518  11.916   2.401  1.00  0.00     0.029 A 
ATOM     45  N   UNL     1       1.657  11.836   4.600  1.00  0.00    -0.354 N 
ATOM     46  C   UNL     1      -2.318  10.858   6.806  1.00  0.00     0.074 A 
ATOM     47  C   UNL     1      -2.588   9.677   6.032  1.00  0.00     0.031 C 
ATOM     48  C   UNL     1       2.833  11.811   2.714  1.00  0.00     0.029 A 
ATOM     49  C   UNL     1       2.965  11.701   4.158  1.00  0.00     0.049 A 
ATOM     50  H   UNL     1       1.426  11.978   5.546  1.00  0.00     0.167 HD
ATOM     51  C   UNL     1      -2.214  11.006   8.154  1.00  0.00     0.031 A 
ATOM     52  C   UNL     1       4.043  11.423   4.938  1.00  0.00     0.031 A 
ATOM     53  C   UNL     1      -1.780  12.339   8.499  1.00  0.00     0.049 A 
ATOM     54  C   UNL     1       3.654  11.699   6.346  1.00  0.00     0.074 A 
ATOM     55  C   UNL     1      -2.265  13.612   8.274  1.00  0.00     0.029 A 
ATOM     56  N   UNL     1      -0.452  12.492   8.827  1.00  0.00    -0.354 N 
ATOM     57  N   UNL     1       3.408  12.895   6.799  1.00  0.00    -0.248 NA
ATOM     58  C   UNL     1       3.056  10.611   7.108  1.00  0.00     0.031 C 
ATOM     59  C   UNL     1      -1.109  14.412   8.031  1.00  0.00     0.029 A 
ATOM     60  C   UNL     1       0.021  13.609   8.193  1.00  0.00     0.049 A 
ATOM     61  H   UNL     1       0.068  11.899   9.416  1.00  0.00     0.167 HD
ATOM     62  C   UNL     1       2.287  12.746   7.605  1.00  0.00     0.074 A 
ATOM     63  C   UNL     1       2.169  11.305   7.828  1.00  0.00     0.031 C 
ATOM     64  C   UNL     1       1.391  13.767   7.759  1.00  0.00     0.031 A 
BRANCH  51  65
ATOM     65  C   UNL     1      -1.999   9.828   9.083  1.00  0.00    -0.014 A 
ATOM     66  C   UNL     1      -1.786  10.097  10.445  1.00  0.00     0.009 A 
ATOM     67  C   UNL     1      -1.706   8.518   8.654  1.00  0.00     0.009 A 
ATOM     68  C   UNL     1      -1.195   9.152  11.291  1.00  0.00     0.001 A 
ATOM     69  C   UNL     1      -1.153   7.558   9.502  1.00  0.00     0.001 A 
ATOM     70  C   UNL     1      -0.862   7.888  10.814  1.00  0.00     0.000 A 
ENDBRANCH  51  65
BRANCH  52  71
ATOM     71  C   UNL     1       5.239  10.615   4.601  1.00  0.00    -0.014 A 
ATOM     72  C   UNL     1       6.385  10.647   5.414  1.00  0.00     0.009 A 
ATOM     73  C   UNL     1       5.162   9.600   3.629  1.00  0.00     0.009 A 
ATOM     74  C   UNL     1       7.394   9.681   5.280  1.00  0.00     0.001 A 
ATOM     75  C   UNL     1       6.169   8.638   3.494  1.00  0.00     0.001 A 
ATOM     76  C   UNL     1       7.279   8.670   4.330  1.00  0.00     0.000 A 
ENDBRANCH  52  71
BRANCH  64  77
ATOM     77  C   UNL     1       1.766  15.125   7.218  1.00  0.00    -0.014 A 
ATOM     78  C   UNL     1       1.990  15.379   5.852  1.00  0.00     0.009 A 
ATOM     79  C   UNL     1       1.730  16.215   8.099  1.00  0.00     0.009 A 
ATOM     80  C   UNL     1       2.196  16.684   5.392  1.00  0.00     0.001 A 
ATOM     81  C   UNL     1       1.914  17.518   7.636  1.00  0.00     0.001 A 
ATOM     82  C   UNL     1       2.151  17.753   6.284  1.00  0.00     0.000 A 
ENDBRANCH  64  77
ENDBRANCH  38  39
ENDBRANCH  31  33
ENDBRANCH  30  31
ENDBRANCH  29  30
ENDBRANCH  28  29
ENDBRANCH  27  28
ENDBRANCH   1  27
TORSDOF 17
