REMARK SMILES C[C@](NC(=O)C[C@@H]1CCCCO1)(C(=O)OCCOCCOC(=O)c1ccc(-c2c3nc(c(-c4ccccc4)c4ccc([nH]4)c(-c4ccccc4)c4nc(c(-c5ccccc5)c5ccc2[nH]5)C=C4)C=C3)cc1)c1ccccc1
REMARK SMILES IDX 17 1 16 2 15 3 13 4 14 5 2 6 1 7 72 8 73 9 77 10 74 11 76 12
REMARK SMILES IDX 75 13 3 14 4 15 5 17 6 18 7 19 8 20 12 21 9 22 11 23 10 24
REMARK SMILES IDX 18 25 19 26 20 27 21 28 22 29 23 30 24 31 25 32 71 33 26 34
REMARK SMILES IDX 70 35 27 36 28 37 29 38 64 39 30 40 69 41 63 42 65 43 31 44
REMARK SMILES IDX 68 45 62 46 61 47 32 49 54 50 39 51 53 52 40 53 43 54 52 55
REMARK SMILES IDX 66 56 41 57 42 58 51 60 67 61 44 62 33 63 34 64 38 65 35 66
REMARK SMILES IDX 37 67 36 68 55 69 56 70 60 71 57 72 59 73 58 74 45 75 46 76
REMARK SMILES IDX 50 77 47 78 49 79 48 80
REMARK H PARENT 3 16 65 48 43 59
REMARK Flexibility Score: inf
ROOT
ATOM      1  C   UNL     1      -4.288   0.180   0.868  1.00  0.00     0.202 C 
ENDROOT
BRANCH   1   2
ATOM      2  C   UNL     1      -3.198   0.748  -0.049  1.00  0.00     0.261 C 
BRANCH   2   3
ATOM      3  O   UNL     1      -1.852   0.316   0.206  1.00  0.00    -0.461 OA
BRANCH   3   4
ATOM      4  C   UNL     1      -1.198   1.223   0.981  1.00  0.00     0.336 C 
ATOM      5  O   UNL     1      -1.793   2.071   1.655  1.00  0.00    -0.249 OA
BRANCH   4   6
ATOM      6  C   UNL     1       0.344   1.353   0.686  1.00  0.00     0.161 C 
ATOM      7  C   UNL     1       0.011   2.209  -0.562  1.00  0.00     0.053 C 
BRANCH   6   8
ATOM      8  C   UNL     1       0.856   1.559   2.127  1.00  0.00    -0.012 A 
ATOM      9  C   UNL     1       0.952   0.388   2.933  1.00  0.00     0.007 A 
ATOM     10  C   UNL     1       1.096   2.771   2.770  1.00  0.00     0.007 A 
ATOM     11  C   UNL     1       1.250   0.440   4.296  1.00  0.00     0.000 A 
ATOM     12  C   UNL     1       1.428   2.825   4.132  1.00  0.00     0.000 A 
ATOM     13  C   UNL     1       1.492   1.665   4.897  1.00  0.00     0.000 A 
ENDBRANCH   6   8
BRANCH   6  14
ATOM     14  N   UNL     1       1.398   0.513   0.088  1.00  0.00    -0.337 N 
ATOM     15  C   UNL     1       2.646   0.966  -0.325  1.00  0.00     0.223 C 
ATOM     16  H   UNL     1       1.203  -0.445  -0.028  1.00  0.00     0.164 HD
ATOM     17  O   UNL     1       3.374   0.138  -0.886  1.00  0.00    -0.275 OA
BRANCH  15  18
ATOM     18  C   UNL     1       3.210   2.394  -0.001  1.00  0.00     0.132 C 
BRANCH  18  19
ATOM     19  C   UNL     1       2.908   3.763  -0.728  1.00  0.00     0.127 C 
ATOM     20  C   UNL     1       2.526   4.916   0.230  1.00  0.00     0.033 C 
ATOM     21  O   UNL     1       2.048   3.668  -1.855  1.00  0.00    -0.378 OA
ATOM     22  C   UNL     1       1.058   5.309   0.197  1.00  0.00     0.005 C 
ATOM     23  C   UNL     1       1.381   4.851  -2.287  1.00  0.00     0.160 C 
ATOM     24  C   UNL     1       0.568   5.570  -1.212  1.00  0.00     0.029 C 
ENDBRANCH  18  19
ENDBRANCH  15  18
ENDBRANCH   6  14
ENDBRANCH   4   6
ENDBRANCH   3   4
ENDBRANCH   2   3
ENDBRANCH   1   2
BRANCH   1  25
ATOM     25  O   UNL     1      -4.050  -0.054   2.243  1.00  0.00    -0.374 OA
BRANCH  25  26
ATOM     26  C   UNL     1      -2.916  -0.790   2.672  1.00  0.00     0.202 C 
BRANCH  26  27
ATOM     27  C   UNL     1      -2.558  -2.154   2.058  1.00  0.00     0.261 C 
BRANCH  27  28
ATOM     28  O   UNL     1      -2.668  -2.264   0.630  1.00  0.00    -0.460 OA
BRANCH  28  29
ATOM     29  C   UNL     1      -3.748  -2.940   0.197  1.00  0.00     0.338 C 
ATOM     30  O   UNL     1      -4.641  -3.438   0.893  1.00  0.00    -0.246 OA
BRANCH  29  31
ATOM     31  C   UNL     1      -3.840  -2.916  -1.268  1.00  0.00     0.060 A 
ATOM     32  C   UNL     1      -4.991  -2.371  -1.854  1.00  0.00     0.016 A 
ATOM     33  C   UNL     1      -2.886  -3.571  -2.050  1.00  0.00     0.016 A 
ATOM     34  C   UNL     1      -5.225  -2.531  -3.217  1.00  0.00     0.010 A 
ATOM     35  C   UNL     1      -3.132  -3.748  -3.414  1.00  0.00     0.010 A 
ATOM     36  C   UNL     1      -4.324  -3.270  -3.990  1.00  0.00    -0.014 A 
BRANCH  36  37
ATOM     37  C   UNL     1      -4.715  -3.711  -5.349  1.00  0.00     0.031 A 
ATOM     38  C   UNL     1      -5.281  -5.093  -5.525  1.00  0.00     0.074 A 
ATOM     39  C   UNL     1      -4.569  -2.898  -6.407  1.00  0.00     0.049 A 
ATOM     40  N   UNL     1      -5.604  -5.722  -6.625  1.00  0.00    -0.248 NA
ATOM     41  C   UNL     1      -5.508  -5.869  -4.295  1.00  0.00     0.031 C 
ATOM     42  C   UNL     1      -4.080  -1.522  -6.356  1.00  0.00     0.029 A 
ATOM     43  N   UNL     1      -4.802  -3.128  -7.739  1.00  0.00    -0.354 N 
ATOM     44  C   UNL     1      -6.051  -6.975  -6.222  1.00  0.00     0.074 A 
ATOM     45  C   UNL     1      -5.946  -7.021  -4.780  1.00  0.00     0.031 C 
ATOM     46  C   UNL     1      -4.019  -1.038  -7.608  1.00  0.00     0.029 A 
ATOM     47  C   UNL     1      -4.430  -2.082  -8.545  1.00  0.00     0.049 A 
ATOM     48  H   UNL     1      -5.197  -3.962  -8.083  1.00  0.00     0.167 HD
ATOM     49  C   UNL     1      -6.504  -7.997  -6.985  1.00  0.00     0.031 A 
ATOM     50  C   UNL     1      -4.388  -1.992  -9.888  1.00  0.00     0.031 A 
ATOM     51  C   UNL     1      -6.596  -7.953  -8.419  1.00  0.00     0.049 A 
ATOM     52  C   UNL     1      -4.828  -3.163 -10.723  1.00  0.00     0.074 A 
ATOM     53  C   UNL     1      -7.068  -8.924  -9.284  1.00  0.00     0.029 A 
ATOM     54  N   UNL     1      -6.193  -6.880  -9.200  1.00  0.00    -0.354 N 
ATOM     55  N   UNL     1      -5.276  -4.332 -10.333  1.00  0.00    -0.248 NA
ATOM     56  C   UNL     1      -4.759  -3.002 -12.183  1.00  0.00     0.031 C 
ATOM     57  C   UNL     1      -6.898  -8.460 -10.593  1.00  0.00     0.029 A 
ATOM     58  C   UNL     1      -6.373  -7.178 -10.539  1.00  0.00     0.049 A 
ATOM     59  H   UNL     1      -5.832  -6.032  -8.853  1.00  0.00     0.167 HD
ATOM     60  C   UNL     1      -5.564  -5.037 -11.495  1.00  0.00     0.074 A 
ATOM     61  C   UNL     1      -5.247  -4.162 -12.605  1.00  0.00     0.031 C 
ATOM     62  C   UNL     1      -6.051  -6.295 -11.630  1.00  0.00     0.031 A 
BRANCH  49  63
ATOM     63  C   UNL     1      -6.882  -9.268  -6.279  1.00  0.00    -0.014 A 
ATOM     64  C   UNL     1      -8.041  -9.355  -5.492  1.00  0.00     0.009 A 
ATOM     65  C   UNL     1      -6.066 -10.402  -6.414  1.00  0.00     0.009 A 
ATOM     66  C   UNL     1      -8.352 -10.541  -4.822  1.00  0.00     0.001 A 
ATOM     67  C   UNL     1      -6.393 -11.594  -5.765  1.00  0.00     0.001 A 
ATOM     68  C   UNL     1      -7.529 -11.659  -4.961  1.00  0.00     0.000 A 
ENDBRANCH  49  63
BRANCH  50  69
ATOM     69  C   UNL     1      -3.866  -0.754 -10.521  1.00  0.00    -0.014 A 
ATOM     70  C   UNL     1      -4.727   0.137 -11.178  1.00  0.00     0.009 A 
ATOM     71  C   UNL     1      -2.497  -0.449 -10.449  1.00  0.00     0.009 A 
ATOM     72  C   UNL     1      -4.224   1.304 -11.759  1.00  0.00     0.001 A 
ATOM     73  C   UNL     1      -2.002   0.730 -11.009  1.00  0.00     0.001 A 
ATOM     74  C   UNL     1      -2.865   1.603 -11.668  1.00  0.00     0.000 A 
ENDBRANCH  50  69
BRANCH  62  75
ATOM     75  C   UNL     1      -6.304  -6.795 -13.024  1.00  0.00    -0.014 A 
ATOM     76  C   UNL     1      -5.247  -7.192 -13.857  1.00  0.00     0.009 A 
ATOM     77  C   UNL     1      -7.624  -6.937 -13.480  1.00  0.00     0.009 A 
ATOM     78  C   UNL     1      -5.510  -7.705 -15.129  1.00  0.00     0.001 A 
ATOM     79  C   UNL     1      -7.883  -7.473 -14.742  1.00  0.00     0.001 A 
ATOM     80  C   UNL     1      -6.826  -7.851 -15.568  1.00  0.00     0.000 A 
ENDBRANCH  62  75
ENDBRANCH  36  37
ENDBRANCH  29  31
ENDBRANCH  28  29
ENDBRANCH  27  28
ENDBRANCH  26  27
ENDBRANCH  25  26
ENDBRANCH   1  25
TORSDOF 18
