REMARK SMILES CC1(C)Oc2ccc(NC(=O)[C@H]3CC=CC[C@@H]3C(=O)OCCOCCOC(=O)c3ccc(-c4c5nc(c(-c6ccccc6)c6ccc([nH]6)c(-c6ccccc6)c6nc(c(-c7ccccc7)c7ccc4[nH]7)C=C6)C=C5)cc3)cc2NC1=O
REMARK SMILES IDX 23 1 22 2 21 3 20 4 18 5 19 6 17 7 12 8 13 9 14 10 16 11
REMARK SMILES IDX 15 12 10 13 9 14 11 16 8 17 1 18 2 19 3 20 4 21 80 22 5 23
REMARK SMILES IDX 79 24 81 25 6 26 78 27 7 29 77 30 24 31 25 32 26 33 27 34
REMARK SMILES IDX 28 35 29 36 30 37 76 38 31 39 75 40 32 41 33 42 34 43 69 44
REMARK SMILES IDX 35 45 74 46 68 47 70 48 36 49 73 50 67 51 66 52 37 54 59 55
REMARK SMILES IDX 44 56 58 57 45 58 48 59 57 60 71 61 46 62 47 63 56 65 72 66
REMARK SMILES IDX 49 67 38 68 39 69 43 70 40 71 42 72 41 73 60 74 61 75 65 76
REMARK SMILES IDX 62 77 64 78 63 79 50 80 51 81 55 82 52 83 54 84 53 85
REMARK H PARENT 9 15 79 28 70 53 48 64
REMARK Flexibility Score: inf
ROOT
ATOM      1  O   UNL     1      -8.866   0.768  -7.594  1.00  0.00    -0.374 OA
ENDROOT
BRANCH   1   2
ATOM      2  C   UNL     1      -9.613   1.623  -6.734  1.00  0.00     0.202 C 
BRANCH   2   3
ATOM      3  C   UNL     1      -9.053   2.002  -5.357  1.00  0.00     0.261 C 
BRANCH   3   4
ATOM      4  O   UNL     1      -7.761   2.628  -5.407  1.00  0.00    -0.463 OA
BRANCH   4   5
ATOM      5  C   UNL     1      -6.747   1.740  -5.211  1.00  0.00     0.310 C 
ATOM      6  O   UNL     1      -6.934   0.545  -5.020  1.00  0.00    -0.252 OA
BRANCH   5   7
ATOM      7  C   UNL     1      -5.371   2.402  -5.288  1.00  0.00     0.116 C 
ATOM      8  C   UNL     1      -4.519   1.752  -6.409  1.00  0.00     0.097 C 
ATOM      9  C   UNL     1      -4.242   0.272  -6.126  1.00  0.00     0.041 C 
ATOM     10  C   UNL     1      -4.103  -0.066  -4.663  1.00  0.00    -0.030 C 
ATOM     11  C   UNL     1      -4.741   2.233  -3.905  1.00  0.00     0.043 C 
ATOM     12  C   UNL     1      -4.284   0.821  -3.669  1.00  0.00    -0.030 C 
BRANCH   8  13
ATOM     13  C   UNL     1      -3.417   2.702  -6.940  1.00  0.00     0.228 C 
ATOM     14  N   UNL     1      -2.289   3.060  -6.260  1.00  0.00    -0.326 N 
ATOM     15  H   UNL     1      -1.906   3.927  -6.524  1.00  0.00     0.169 HD
ATOM     16  O   UNL     1      -3.647   3.337  -7.981  1.00  0.00    -0.274 OA
BRANCH  14  17
ATOM     17  C   UNL     1      -1.592   2.397  -5.250  1.00  0.00     0.043 A 
ATOM     18  C   UNL     1       0.839   0.157   0.122  1.00  0.00     0.067 C 
ATOM     19  C   UNL     1       0.778   0.899  -1.215  1.00  0.00     0.182 C 
ATOM     20  C   UNL     1       2.074   0.640  -2.001  1.00  0.00     0.067 C 
ATOM     21  O   UNL     1      -0.286   0.298  -1.957  1.00  0.00    -0.476 OA
ATOM     22  C   UNL     1       0.590   2.418  -0.964  1.00  0.00     0.268 C 
ATOM     23  C   UNL     1      -0.605   1.032  -3.065  1.00  0.00     0.144 A 
ATOM     24  N   UNL     1      -0.056   3.102  -1.970  1.00  0.00    -0.319 N 
ATOM     25  O   UNL     1       1.046   3.017   0.008  1.00  0.00    -0.270 OA
ATOM     26  C   UNL     1      -0.946   0.325  -4.200  1.00  0.00     0.051 A 
ATOM     27  C   UNL     1      -0.585   2.429  -3.073  1.00  0.00     0.086 A 
ATOM     28  H   UNL     1      -0.147   4.080  -1.910  1.00  0.00     0.170 HD
ATOM     29  C   UNL     1      -1.373   1.025  -5.319  1.00  0.00     0.030 A 
ATOM     30  C   UNL     1      -1.090   3.126  -4.169  1.00  0.00     0.056 A 
ENDBRANCH  14  17
ENDBRANCH   8  13
ENDBRANCH   5   7
ENDBRANCH   4   5
ENDBRANCH   3   4
ENDBRANCH   2   3
ENDBRANCH   1   2
BRANCH   1  31
ATOM     31  C   UNL     1      -7.719   1.309  -8.245  1.00  0.00     0.202 C 
BRANCH  31  32
ATOM     32  C   UNL     1      -7.909   2.280  -9.413  1.00  0.00     0.261 C 
BRANCH  32  33
ATOM     33  O   UNL     1      -8.425   3.544  -8.962  1.00  0.00    -0.460 OA
BRANCH  33  34
ATOM     34  C   UNL     1      -9.721   3.779  -9.269  1.00  0.00     0.338 C 
ATOM     35  O   UNL     1     -10.461   3.085  -9.950  1.00  0.00    -0.246 OA
BRANCH  34  36
ATOM     36  C   UNL     1     -10.204   4.894  -8.435  1.00  0.00     0.060 A 
ATOM     37  C   UNL     1      -9.555   6.129  -8.427  1.00  0.00     0.016 A 
ATOM     38  C   UNL     1     -11.345   4.679  -7.647  1.00  0.00     0.016 A 
ATOM     39  C   UNL     1     -10.082   7.166  -7.656  1.00  0.00     0.010 A 
ATOM     40  C   UNL     1     -11.860   5.709  -6.868  1.00  0.00     0.010 A 
ATOM     41  C   UNL     1     -11.249   6.968  -6.893  1.00  0.00    -0.014 A 
BRANCH  41  42
ATOM     42  C   UNL     1     -11.934   8.123  -6.271  1.00  0.00     0.031 A 
ATOM     43  C   UNL     1     -11.909   8.356  -4.795  1.00  0.00     0.074 A 
ATOM     44  C   UNL     1     -12.621   8.950  -7.081  1.00  0.00     0.049 A 
ATOM     45  N   UNL     1     -12.395   9.368  -4.122  1.00  0.00    -0.248 NA
ATOM     46  C   UNL     1     -11.269   7.327  -3.964  1.00  0.00     0.031 C 
ATOM     47  C   UNL     1     -12.744   8.783  -8.531  1.00  0.00     0.029 A 
ATOM     48  N   UNL     1     -13.329  10.092  -6.813  1.00  0.00    -0.354 N 
ATOM     49  C   UNL     1     -12.100   9.113  -2.791  1.00  0.00     0.074 A 
ATOM     50  C   UNL     1     -11.443   7.823  -2.745  1.00  0.00     0.031 C 
ATOM     51  C   UNL     1     -13.443   9.811  -9.030  1.00  0.00     0.029 A 
ATOM     52  C   UNL     1     -13.851  10.686  -7.935  1.00  0.00     0.049 A 
ATOM     53  H   UNL     1     -13.451  10.451  -5.904  1.00  0.00     0.167 HD
ATOM     54  C   UNL     1     -12.342   9.898  -1.714  1.00  0.00     0.031 A 
ATOM     55  C   UNL     1     -14.572  11.815  -8.075  1.00  0.00     0.031 A 
ATOM     56  C   UNL     1     -13.029  11.165  -1.778  1.00  0.00     0.049 A 
ATOM     57  C   UNL     1     -14.867  12.646  -6.859  1.00  0.00     0.074 A 
ATOM     58  C   UNL     1     -13.286  12.052  -0.747  1.00  0.00     0.029 A 
ATOM     59  N   UNL     1     -13.583  11.715  -2.925  1.00  0.00    -0.354 N 
ATOM     60  N   UNL     1     -14.501  12.442  -5.617  1.00  0.00    -0.248 NA
ATOM     61  C   UNL     1     -15.657  13.867  -7.062  1.00  0.00     0.031 C 
ATOM     62  C   UNL     1     -14.066  13.094  -1.252  1.00  0.00     0.029 A 
ATOM     63  C   UNL     1     -14.216  12.909  -2.618  1.00  0.00     0.049 A 
ATOM     64  H   UNL     1     -13.533  11.317  -3.824  1.00  0.00     0.167 HD
ATOM     65  C   UNL     1     -14.996  13.518  -4.892  1.00  0.00     0.074 A 
ATOM     66  C   UNL     1     -15.672  14.383  -5.839  1.00  0.00     0.031 C 
ATOM     67  C   UNL     1     -14.896  13.763  -3.563  1.00  0.00     0.031 A 
BRANCH  54  68
ATOM     68  C   UNL     1     -11.861   9.427  -0.368  1.00  0.00    -0.014 A 
ATOM     69  C   UNL     1     -12.785   9.154   0.654  1.00  0.00     0.009 A 
ATOM     70  C   UNL     1     -10.490   9.360  -0.073  1.00  0.00     0.009 A 
ATOM     71  C   UNL     1     -12.348   8.843   1.944  1.00  0.00     0.001 A 
ATOM     72  C   UNL     1     -10.055   9.015   1.209  1.00  0.00     0.001 A 
ATOM     73  C   UNL     1     -10.984   8.769   2.219  1.00  0.00     0.000 A 
ENDBRANCH  54  68
BRANCH  55  74
ATOM     74  C   UNL     1     -14.998  12.232  -9.437  1.00  0.00    -0.014 A 
ATOM     75  C   UNL     1     -15.924  11.462 -10.163  1.00  0.00     0.009 A 
ATOM     76  C   UNL     1     -14.411  13.344 -10.057  1.00  0.00     0.009 A 
ATOM     77  C   UNL     1     -16.221  11.774 -11.491  1.00  0.00     0.001 A 
ATOM     78  C   UNL     1     -14.738  13.674 -11.375  1.00  0.00     0.001 A 
ATOM     79  C   UNL     1     -15.630  12.881 -12.095  1.00  0.00     0.000 A 
ENDBRANCH  55  74
BRANCH  67  80
ATOM     80  C   UNL     1     -15.525  15.021  -3.023  1.00  0.00    -0.014 A 
ATOM     81  C   UNL     1     -14.713  16.021  -2.464  1.00  0.00     0.009 A 
ATOM     82  C   UNL     1     -16.919  15.163  -2.952  1.00  0.00     0.009 A 
ATOM     83  C   UNL     1     -15.281  17.121  -1.818  1.00  0.00     0.001 A 
ATOM     84  C   UNL     1     -17.485  16.283  -2.338  1.00  0.00     0.001 A 
ATOM     85  C   UNL     1     -16.667  17.252  -1.759  1.00  0.00     0.000 A 
ENDBRANCH  67  80
ENDBRANCH  41  42
ENDBRANCH  34  36
ENDBRANCH  33  34
ENDBRANCH  32  33
ENDBRANCH  31  32
ENDBRANCH   1  31
TORSDOF 16
