REMARK SMILES C[C@H]1CC[C@H]([NH2+]Cc2c(C(=O)OCCOCCOC(=O)c3ccc(-c4c5nc(c(-c6ccccc6)c6ccc([nH]6)c(-c6ccccc6)c6nc(c(-c7ccccc7)c7ccc4[nH]7)C=C6)C=C5)cc3)n(Cc3ccccc3F)c3ccccc23)CC1
REMARK SMILES IDX 14 1 13 2 12 3 10 4 11 5 9 6 8 7 83 8 69 9 78 10 82 11 79 12
REMARK SMILES IDX 81 13 80 14 7 15 6 16 5 19 1 20 2 21 3 22 85 23 4 24 84 25
REMARK SMILES IDX 70 26 71 27 72 28 76 29 73 30 75 31 77 32 74 33 15 34 16 35
REMARK SMILES IDX 17 36 18 37 19 38 20 39 21 40 22 41 68 42 23 43 67 44 24 45
REMARK SMILES IDX 25 46 26 47 61 48 27 49 66 50 60 51 62 52 28 53 65 54 59 55
REMARK SMILES IDX 58 56 29 58 51 59 36 60 50 61 37 62 40 63 49 64 63 65 38 66
REMARK SMILES IDX 39 67 48 69 64 70 41 71 30 72 31 73 35 74 32 75 34 76 33 77
REMARK SMILES IDX 52 78 53 79 57 80 54 81 56 82 55 83 42 84 43 85 47 86 44 87
REMARK SMILES IDX 46 88 45 89
REMARK H PARENT 6 17 6 18 62 57 40 68
REMARK Flexibility Score: inf
ROOT
ATOM      1  C   UNL     1      -0.413   0.241   4.257  1.00  0.00     0.202 C 
ENDROOT
BRANCH   1   2
ATOM      2  C   UNL     1      -0.324   0.007   2.744  1.00  0.00     0.261 C 
BRANCH   2   3
ATOM      3  O   UNL     1      -1.351  -0.831   2.186  1.00  0.00    -0.459 OA
BRANCH   3   4
ATOM      4  C   UNL     1      -0.927  -2.077   1.826  1.00  0.00     0.355 C 
ATOM      5  O   UNL     1       0.236  -2.460   1.958  1.00  0.00    -0.244 OA
BRANCH   4   6
ATOM      6  C   UNL     1      -1.986  -2.890   1.237  1.00  0.00     0.137 A 
ATOM      7  C   UNL     1      -3.053  -2.546   0.379  1.00  0.00     0.047 A 
ATOM      8  C   UNL     1      -3.694  -3.776  -0.014  1.00  0.00     0.009 A 
ATOM      9  N   UNL     1      -1.984  -4.285   1.323  1.00  0.00    -0.330 N 
ATOM     10  C   UNL     1      -2.928  -4.828   0.467  1.00  0.00     0.050 A 
ATOM     11  C   UNL     1      -4.813  -4.072  -0.828  1.00  0.00     0.011 A 
ATOM     12  C   UNL     1      -3.173  -6.157   0.074  1.00  0.00     0.027 A 
ATOM     13  C   UNL     1      -5.101  -5.397  -1.170  1.00  0.00     0.001 A 
ATOM     14  C   UNL     1      -4.272  -6.424  -0.743  1.00  0.00     0.002 A 
BRANCH   7  15
ATOM     15  C   UNL     1      -3.510  -1.236  -0.222  1.00  0.00     0.300 C 
BRANCH  15  16
ATOM     16  N   UNL     1      -2.526  -0.174  -0.232  1.00  0.00    -0.340 N 
ATOM     17  H   UNL     1      -3.041   0.706  -0.221  1.00  0.00     0.346 HD
ATOM     18  H   UNL     1      -1.944  -0.384   0.579  1.00  0.00     0.346 HD
BRANCH  16  19
ATOM     19  C   UNL     1      -1.554  -0.086  -1.338  1.00  0.00     0.182 C 
ATOM     20  C   UNL     1       2.812  -0.194  -0.627  1.00  0.00     0.007 C 
ATOM     21  C   UNL     1       1.298  -0.177  -0.770  1.00  0.00    -0.014 C 
ATOM     22  C   UNL     1       0.781  -1.213  -1.760  1.00  0.00     0.009 C 
ATOM     23  C   UNL     1       0.754   1.167  -1.230  1.00  0.00     0.009 C 
ATOM     24  C   UNL     1      -0.729  -1.365  -1.613  1.00  0.00     0.065 C 
ATOM     25  C   UNL     1      -0.753   1.209  -1.048  1.00  0.00     0.065 C 
ENDBRANCH  16  19
ENDBRANCH  15  16
ENDBRANCH   7  15
BRANCH   9  26
ATOM     26  C   UNL     1      -1.066  -5.111   2.114  1.00  0.00     0.161 C 
BRANCH  26  27
ATOM     27  C   UNL     1      -1.660  -5.582   3.417  1.00  0.00     0.008 A 
ATOM     28  C   UNL     1      -2.517  -6.692   3.478  1.00  0.00     0.008 A 
ATOM     29  C   UNL     1      -1.326  -4.952   4.618  1.00  0.00     0.128 A 
ATOM     30  C   UNL     1      -3.011  -7.155   4.700  1.00  0.00     0.001 A 
ATOM     31  C   UNL     1      -1.807  -5.412   5.843  1.00  0.00     0.039 A 
ATOM     32  F   UNL     1      -0.503  -3.896   4.611  1.00  0.00    -0.207 F 
ATOM     33  C   UNL     1      -2.651  -6.519   5.885  1.00  0.00     0.003 A 
ENDBRANCH  26  27
ENDBRANCH   9  26
ENDBRANCH   4   6
ENDBRANCH   3   4
ENDBRANCH   2   3
ENDBRANCH   1   2
BRANCH   1  34
ATOM     34  O   UNL     1      -0.895  -0.808   5.081  1.00  0.00    -0.374 OA
BRANCH  34  35
ATOM     35  C   UNL     1      -2.266  -1.196   4.947  1.00  0.00     0.202 C 
BRANCH  35  36
ATOM     36  C   UNL     1      -3.336  -0.103   5.095  1.00  0.00     0.261 C 
BRANCH  36  37
ATOM     37  O   UNL     1      -3.245   0.864   4.037  1.00  0.00    -0.460 OA
BRANCH  37  38
ATOM     38  C   UNL     1      -3.468   2.148   4.412  1.00  0.00     0.338 C 
ATOM     39  O   UNL     1      -3.996   2.546   5.441  1.00  0.00    -0.246 OA
BRANCH  38  40
ATOM     40  C   UNL     1      -2.661   2.995   3.518  1.00  0.00     0.060 A 
ATOM     41  C   UNL     1      -2.822   2.937   2.137  1.00  0.00     0.016 A 
ATOM     42  C   UNL     1      -1.608   3.728   4.089  1.00  0.00     0.016 A 
ATOM     43  C   UNL     1      -1.896   3.590   1.329  1.00  0.00     0.010 A 
ATOM     44  C   UNL     1      -0.655   4.334   3.272  1.00  0.00     0.010 A 
ATOM     45  C   UNL     1      -0.779   4.242   1.885  1.00  0.00    -0.014 A 
BRANCH  45  46
ATOM     46  C   UNL     1       0.151   4.892   0.951  1.00  0.00     0.031 A 
ATOM     47  C   UNL     1      -0.421   6.003   0.141  1.00  0.00     0.074 A 
ATOM     48  C   UNL     1       1.482   4.699   0.853  1.00  0.00     0.049 A 
ATOM     49  N   UNL     1      -0.419   6.149  -1.146  1.00  0.00    -0.248 NA
ATOM     50  C   UNL     1      -1.082   7.089   0.879  1.00  0.00     0.031 C 
ATOM     51  C   UNL     1       2.360   3.976   1.773  1.00  0.00     0.029 A 
ATOM     52  N   UNL     1       2.353   5.225  -0.072  1.00  0.00    -0.354 N 
ATOM     53  C   UNL     1      -0.979   7.400  -1.383  1.00  0.00     0.074 A 
ATOM     54  C   UNL     1      -1.428   7.909  -0.110  1.00  0.00     0.031 C 
ATOM     55  C   UNL     1       3.645   4.290   1.489  1.00  0.00     0.029 A 
ATOM     56  C   UNL     1       3.683   5.118   0.291  1.00  0.00     0.049 A 
ATOM     57  H   UNL     1       2.056   5.639  -0.915  1.00  0.00     0.167 HD
ATOM     58  C   UNL     1      -0.929   8.027  -2.587  1.00  0.00     0.031 A 
ATOM     59  C   UNL     1       4.745   5.713  -0.299  1.00  0.00     0.031 A 
ATOM     60  C   UNL     1      -0.553   7.170  -3.670  1.00  0.00     0.049 A 
ATOM     61  C   UNL     1       4.402   6.143  -1.673  1.00  0.00     0.074 A 
ATOM     62  C   UNL     1      -1.135   6.124  -4.348  1.00  0.00     0.029 A 
ATOM     63  N   UNL     1       0.757   7.223  -4.066  1.00  0.00    -0.354 N 
ATOM     64  N   UNL     1       4.202   5.338  -2.676  1.00  0.00    -0.248 NA
ATOM     65  C   UNL     1       4.103   7.545  -1.933  1.00  0.00     0.031 C 
ATOM     66  C   UNL     1      -0.062   5.376  -4.907  1.00  0.00     0.029 A 
ATOM     67  C   UNL     1       1.134   5.984  -4.522  1.00  0.00     0.049 A 
ATOM     68  H   UNL     1       1.334   8.020  -4.029  1.00  0.00     0.167 HD
ATOM     69  C   UNL     1       3.401   6.051  -3.550  1.00  0.00     0.074 A 
ATOM     70  C   UNL     1       3.526   7.437  -3.131  1.00  0.00     0.031 C 
ATOM     71  C   UNL     1       2.464   5.432  -4.324  1.00  0.00     0.031 A 
BRANCH  58  72
ATOM     72  C   UNL     1      -0.969   9.519  -2.742  1.00  0.00    -0.014 A 
ATOM     73  C   UNL     1      -0.471  10.387  -1.751  1.00  0.00     0.009 A 
ATOM     74  C   UNL     1      -1.288  10.081  -3.989  1.00  0.00     0.009 A 
ATOM     75  C   UNL     1      -0.341  11.760  -1.976  1.00  0.00     0.001 A 
ATOM     76  C   UNL     1      -1.123  11.450  -4.229  1.00  0.00     0.001 A 
ATOM     77  C   UNL     1      -0.657  12.289  -3.220  1.00  0.00     0.000 A 
ENDBRANCH  58  72
BRANCH  59  78
ATOM     78  C   UNL     1       6.019   6.127   0.329  1.00  0.00    -0.014 A 
ATOM     79  C   UNL     1       6.036   6.582   1.659  1.00  0.00     0.009 A 
ATOM     80  C   UNL     1       7.175   6.318  -0.445  1.00  0.00     0.009 A 
ATOM     81  C   UNL     1       7.158   7.220   2.195  1.00  0.00     0.001 A 
ATOM     82  C   UNL     1       8.296   6.965   0.088  1.00  0.00     0.001 A 
ATOM     83  C   UNL     1       8.284   7.424   1.404  1.00  0.00     0.000 A 
ENDBRANCH  59  78
BRANCH  71  84
ATOM     84  C   UNL     1       2.674   3.987  -4.704  1.00  0.00    -0.014 A 
ATOM     85  C   UNL     1       2.515   3.623  -6.054  1.00  0.00     0.009 A 
ATOM     86  C   UNL     1       2.912   2.967  -3.775  1.00  0.00     0.009 A 
ATOM     87  C   UNL     1       2.577   2.286  -6.457  1.00  0.00     0.001 A 
ATOM     88  C   UNL     1       3.018   1.635  -4.188  1.00  0.00     0.001 A 
ATOM     89  C   UNL     1       2.833   1.291  -5.522  1.00  0.00     0.000 A 
ENDBRANCH  71  84
ENDBRANCH  45  46
ENDBRANCH  38  40
ENDBRANCH  37  38
ENDBRANCH  36  37
ENDBRANCH  35  36
ENDBRANCH  34  35
ENDBRANCH   1  34
TORSDOF 19
