REMARK SMILES CC1(C)[C@H](O)CC[C@@]2(C)[C@@H]1CC[C@]1(C)Oc3oc(C(=O)OCCOCCOC(=O)c4ccc(-c5c6nc(c(-c7ccccc7)c7ccc([nH]7)c(-c7ccccc7)c7nc(c(-c8ccccc8)c8ccc5[nH]8)C=C7)C=C6)cc4)cc(=O)c3C[C@@H]21
REMARK SMILES IDX 25 1 24 2 23 3 22 4 21 5 19 6 20 7 18 8 1 9 2 10 4 11 10 12
REMARK SMILES IDX 3 13 6 14 8 15 11 16 7 17 83 18 9 19 12 20 13 21 82 22 15 23
REMARK SMILES IDX 14 24 81 25 16 26 79 27 17 28 78 29 80 30 5 31 26 33 27 34
REMARK SMILES IDX 28 35 29 36 30 37 31 38 77 39 32 40 76 41 33 42 34 43 35 44
REMARK SMILES IDX 70 45 36 46 75 47 69 48 71 49 37 50 74 51 68 52 67 53 38 55
REMARK SMILES IDX 60 56 45 57 59 58 46 59 49 60 58 61 72 62 47 63 48 64 57 66
REMARK SMILES IDX 73 67 50 68 39 69 40 70 44 71 41 72 43 73 42 74 61 75 62 76
REMARK SMILES IDX 66 77 63 78 65 79 64 80 51 81 52 82 56 83 53 84 55 85 54 86
REMARK H PARENT 5 32 71 54 49 65
REMARK Flexibility Score: inf
ROOT
ATOM      1  C   UNL     1      -3.506   4.410  -3.072  1.00  0.00     0.202 C 
ENDROOT
BRANCH   1   2
ATOM      2  O   UNL     1      -3.182   5.795  -3.041  1.00  0.00    -0.374 OA
BRANCH   2   3
ATOM      3  C   UNL     1      -1.864   6.215  -3.381  1.00  0.00     0.202 C 
BRANCH   3   4
ATOM      4  C   UNL     1      -0.709   5.802  -2.464  1.00  0.00     0.261 C 
BRANCH   4   5
ATOM      5  O   UNL     1      -0.435   4.398  -2.586  1.00  0.00    -0.457 OA
BRANCH   5   6
ATOM      6  C   UNL     1      -0.741   3.635  -1.508  1.00  0.00     0.374 C 
ATOM      7  O   UNL     1      -1.133   4.014  -0.420  1.00  0.00    -0.242 OA
BRANCH   6   8
ATOM      8  C   UNL     1      -0.629   2.213  -1.899  1.00  0.00     0.219 A 
ATOM      9  C   UNL     1      -0.460  -0.397   2.646  1.00  0.00     0.014 C 
ATOM     10  C   UNL     1      -0.173  -1.819   2.159  1.00  0.00    -0.006 C 
ATOM     11  C   UNL     1       0.407  -2.778   3.212  1.00  0.00     0.120 C 
ATOM     12  C   UNL     1      -1.466  -2.818   1.665  1.00  0.00     0.004 C 
ATOM     13  C   UNL     1       1.131  -1.521   1.272  1.00  0.00     0.014 C 
ATOM     14  C   UNL     1       0.758  -4.109   2.439  1.00  0.00     0.033 C 
ATOM     15  C   UNL     1      -1.009  -3.545   0.417  1.00  0.00    -0.022 C 
ATOM     16  C   UNL     1      -3.014  -2.564   1.631  1.00  0.00     0.009 C 
ATOM     17  C   UNL     1       0.396  -4.169   0.848  1.00  0.00     0.010 C 
ATOM     18  C   UNL     1      -1.339  -2.442  -0.735  1.00  0.00     0.044 C 
ATOM     19  C   UNL     1      -1.815  -4.834   0.038  1.00  0.00     0.012 C 
ATOM     20  C   UNL     1      -3.598  -2.115   0.264  1.00  0.00     0.049 C 
ATOM     21  C   UNL     1      -2.494  -1.299  -0.410  1.00  0.00     0.113 C 
ATOM     22  C   UNL     1      -0.271  -1.987  -1.747  1.00  0.00     0.055 C 
ATOM     23  O   UNL     1      -2.799  -0.703  -1.697  1.00  0.00    -0.458 OA
ATOM     24  C   UNL     1      -2.530  -0.044   0.520  1.00  0.00     0.057 C 
ATOM     25  C   UNL     1      -0.452  -0.538  -2.079  1.00  0.00     0.081 A 
ATOM     26  C   UNL     1      -1.655   0.061  -2.039  1.00  0.00     0.292 A 
ATOM     27  C   UNL     1       0.753   0.295  -2.270  1.00  0.00     0.192 A 
ATOM     28  O   UNL     1      -1.783   1.452  -2.053  1.00  0.00    -0.418 OA
ATOM     29  C   UNL     1       0.609   1.733  -2.029  1.00  0.00     0.107 A 
ATOM     30  O   UNL     1       1.847  -0.183  -2.536  1.00  0.00    -0.289 OA
BRANCH  11  31
ATOM     31  O   UNL     1       1.538  -2.256   3.894  1.00  0.00    -0.393 OA
ATOM     32  H   UNL     1       2.246  -2.076   3.256  1.00  0.00     0.210 HD
ENDBRANCH  11  31
ENDBRANCH   6   8
ENDBRANCH   5   6
ENDBRANCH   4   5
ENDBRANCH   3   4
ENDBRANCH   2   3
ENDBRANCH   1   2
BRANCH   1  33
ATOM     33  C   UNL     1      -3.570   3.684  -4.423  1.00  0.00     0.261 C 
BRANCH  33  34
ATOM     34  O   UNL     1      -2.393   3.816  -5.234  1.00  0.00    -0.460 OA
BRANCH  34  35
ATOM     35  C   UNL     1      -2.541   4.663  -6.285  1.00  0.00     0.338 C 
ATOM     36  O   UNL     1      -3.516   5.323  -6.580  1.00  0.00    -0.246 OA
BRANCH  35  37
ATOM     37  C   UNL     1      -1.268   4.781  -7.013  1.00  0.00     0.060 A 
ATOM     38  C   UNL     1      -0.592   6.007  -6.984  1.00  0.00     0.016 A 
ATOM     39  C   UNL     1      -0.835   3.740  -7.834  1.00  0.00     0.016 A 
ATOM     40  C   UNL     1       0.515   6.208  -7.804  1.00  0.00     0.010 A 
ATOM     41  C   UNL     1       0.261   3.950  -8.669  1.00  0.00     0.010 A 
ATOM     42  C   UNL     1       0.918   5.193  -8.680  1.00  0.00    -0.014 A 
BRANCH  42  43
ATOM     43  C   UNL     1       1.939   5.463  -9.713  1.00  0.00     0.031 A 
ATOM     44  C   UNL     1       1.494   5.808 -11.104  1.00  0.00     0.074 A 
ATOM     45  C   UNL     1       3.245   5.380  -9.415  1.00  0.00     0.049 A 
ATOM     46  N   UNL     1       2.214   5.961 -12.185  1.00  0.00    -0.248 NA
ATOM     47  C   UNL     1       0.049   6.009 -11.306  1.00  0.00     0.031 C 
ATOM     48  C   UNL     1       3.793   5.119  -8.086  1.00  0.00     0.029 A 
ATOM     49  N   UNL     1       4.347   5.496 -10.223  1.00  0.00    -0.354 N 
ATOM     50  C   UNL     1       1.313   6.269 -13.194  1.00  0.00     0.074 A 
ATOM     51  C   UNL     1      -0.009   6.263 -12.606  1.00  0.00     0.031 C 
ATOM     52  C   UNL     1       5.133   5.081  -8.171  1.00  0.00     0.029 A 
ATOM     53  C   UNL     1       5.530   5.274  -9.565  1.00  0.00     0.049 A 
ATOM     54  H   UNL     1       4.295   5.718 -11.181  1.00  0.00     0.167 HD
ATOM     55  C   UNL     1       1.569   6.536 -14.495  1.00  0.00     0.031 A 
ATOM     56  C   UNL     1       6.789   5.208 -10.036  1.00  0.00     0.031 A 
ATOM     57  C   UNL     1       2.883   6.524 -15.077  1.00  0.00     0.049 A 
ATOM     58  C   UNL     1       7.043   5.409 -11.503  1.00  0.00     0.074 A 
ATOM     59  C   UNL     1       3.241   6.776 -16.390  1.00  0.00     0.029 A 
ATOM     60  N   UNL     1       4.051   6.245 -14.386  1.00  0.00    -0.354 N 
ATOM     61  N   UNL     1       6.183   5.673 -12.457  1.00  0.00    -0.248 NA
ATOM     62  C   UNL     1       8.436   5.304 -11.961  1.00  0.00     0.031 C 
ATOM     63  C   UNL     1       4.621   6.599 -16.504  1.00  0.00     0.029 A 
ATOM     64  C   UNL     1       5.130   6.301 -15.249  1.00  0.00     0.049 A 
ATOM     65  H   UNL     1       4.104   6.038 -13.425  1.00  0.00     0.167 HD
ATOM     66  C   UNL     1       6.930   5.797 -13.620  1.00  0.00     0.074 A 
ATOM     67  C   UNL     1       8.314   5.574 -13.256  1.00  0.00     0.031 C 
ATOM     68  C   UNL     1       6.503   6.080 -14.874  1.00  0.00     0.031 A 
BRANCH  55  69
ATOM     69  C   UNL     1       0.407   6.852 -15.390  1.00  0.00    -0.014 A 
ATOM     70  C   UNL     1      -0.237   8.096 -15.325  1.00  0.00     0.009 A 
ATOM     71  C   UNL     1       0.014   5.931 -16.374  1.00  0.00     0.009 A 
ATOM     72  C   UNL     1      -1.258   8.410 -16.224  1.00  0.00     0.001 A 
ATOM     73  C   UNL     1      -0.991   6.256 -17.287  1.00  0.00     0.001 A 
ATOM     74  C   UNL     1      -1.627   7.494 -17.209  1.00  0.00     0.000 A 
ENDBRANCH  55  69
BRANCH  56  75
ATOM     75  C   UNL     1       7.898   4.951  -9.085  1.00  0.00    -0.014 A 
ATOM     76  C   UNL     1       8.734   6.001  -8.679  1.00  0.00     0.009 A 
ATOM     77  C   UNL     1       8.069   3.681  -8.511  1.00  0.00     0.009 A 
ATOM     78  C   UNL     1       9.714   5.787  -7.708  1.00  0.00     0.001 A 
ATOM     79  C   UNL     1       9.037   3.475  -7.526  1.00  0.00     0.001 A 
ATOM     80  C   UNL     1       9.858   4.528  -7.125  1.00  0.00     0.000 A 
ENDBRANCH  56  75
BRANCH  68  81
ATOM     81  C   UNL     1       7.531   6.207 -15.962  1.00  0.00    -0.014 A 
ATOM     82  C   UNL     1       8.124   5.074 -16.536  1.00  0.00     0.009 A 
ATOM     83  C   UNL     1       7.808   7.473 -16.504  1.00  0.00     0.009 A 
ATOM     84  C   UNL     1       8.979   5.209 -17.633  1.00  0.00     0.001 A 
ATOM     85  C   UNL     1       8.643   7.601 -17.614  1.00  0.00     0.001 A 
ATOM     86  C   UNL     1       9.229   6.469 -18.177  1.00  0.00     0.000 A 
ENDBRANCH  68  81
ENDBRANCH  42  43
ENDBRANCH  35  37
ENDBRANCH  34  35
ENDBRANCH  33  34
ENDBRANCH   1  33
TORSDOF 15
