REMARK SMILES COc1cc([C@H]2c3c(-c4ccccc4)n[nH]c3C(=O)N2c2ccc(C(=O)OCCOCCOC(=O)c3ccc(-c4c5nc(c(-c6ccccc6)c6ccc([nH]6)c(-c6ccccc6)c6nc(c(-c7ccccc7)c7ccc4[nH]7)C=C6)C=C5)cc3)cc2)ccc1O
REMARK SMILES IDX 29 1 28 2 27 3 25 4 26 5 24 6 21 7 22 8 85 9 23 10 84 11
REMARK SMILES IDX 20 12 6 13 7 14 8 15 17 16 18 17 15 18 16 19 19 20 5 22 3 23
REMARK SMILES IDX 4 24 88 25 87 26 86 27 2 28 1 29 89 30 9 32 10 33 14 34
REMARK SMILES IDX 11 35 13 36 12 37 30 38 31 39 32 40 33 41 34 42 35 43 36 44
REMARK SMILES IDX 37 45 83 46 38 47 82 48 39 49 40 50 41 51 76 52 42 53 81 54
REMARK SMILES IDX 75 55 77 56 43 57 80 58 74 59 73 60 44 62 66 63 51 64 65 65
REMARK SMILES IDX 52 66 55 67 64 68 78 69 53 70 54 71 63 73 79 74 56 75 45 76
REMARK SMILES IDX 46 77 50 78 47 79 49 80 48 81 67 82 68 83 72 84 69 85 71 86
REMARK SMILES IDX 70 87 57 88 58 89 62 90 59 91 61 92 60 93
REMARK H PARENT 16 21 89 31 77 61 55 72
REMARK Flexibility Score: inf
ROOT
ATOM      1  C   UNL     1      -3.161  -3.421   8.214  1.00  0.00     0.202 C 
ENDROOT
BRANCH   1   2
ATOM      2  C   UNL     1      -2.839  -2.525   7.014  1.00  0.00     0.261 C 
BRANCH   2   3
ATOM      3  O   UNL     1      -2.450  -3.273   5.849  1.00  0.00    -0.460 OA
BRANCH   3   4
ATOM      4  C   UNL     1      -1.141  -3.153   5.515  1.00  0.00     0.338 C 
ATOM      5  O   UNL     1      -0.306  -2.441   6.046  1.00  0.00    -0.246 OA
BRANCH   4   6
ATOM      6  C   UNL     1      -0.786  -4.162   4.497  1.00  0.00     0.060 A 
ATOM      7  C   UNL     1       0.098  -5.943   2.534  1.00  0.00     0.045 A 
ATOM      8  C   UNL     1       0.823  -5.797   3.720  1.00  0.00     0.027 A 
ATOM      9  C   UNL     1      -1.108  -5.245   2.369  1.00  0.00     0.027 A 
ATOM     10  C   UNL     1       0.402  -4.880   4.681  1.00  0.00     0.018 A 
ATOM     11  C   UNL     1      -1.570  -4.378   3.363  1.00  0.00     0.018 A 
BRANCH   7  12
ATOM     12  N   UNL     1       0.656  -6.666   1.460  1.00  0.00    -0.295 N 
ATOM     13  C   UNL     1       0.783  -6.035   0.100  1.00  0.00     0.156 C 
ATOM     14  C   UNL     1       1.608  -7.057  -0.578  1.00  0.00     0.038 A 
ATOM     15  C   UNL     1       2.115  -7.477  -1.818  1.00  0.00     0.099 A 
ATOM     16  C   UNL     1       1.900  -8.071   0.287  1.00  0.00     0.129 A 
ATOM     17  C   UNL     1       1.391  -7.861   1.594  1.00  0.00     0.277 C 
ATOM     18  N   UNL     1       2.689  -8.697  -1.695  1.00  0.00    -0.174 NA
ATOM     19  N   UNL     1       2.554  -9.026  -0.389  1.00  0.00    -0.272 N 
ATOM     20  O   UNL     1       1.552  -8.572   2.563  1.00  0.00    -0.267 OA
ATOM     21  H   UNL     1       2.893  -9.859   0.012  1.00  0.00     0.190 HD
BRANCH  13  22
ATOM     22  C   UNL     1       1.524  -4.708   0.181  1.00  0.00    -0.016 A 
ATOM     23  C   UNL     1       1.313  -2.254   0.150  1.00  0.00     0.160 A 
ATOM     24  C   UNL     1       0.833  -3.533  -0.177  1.00  0.00     0.056 A 
ATOM     25  C   UNL     1       2.522  -2.156   0.838  1.00  0.00     0.157 A 
ATOM     26  C   UNL     1       3.266  -3.299   1.131  1.00  0.00     0.050 A 
ATOM     27  C   UNL     1       2.772  -4.566   0.810  1.00  0.00     0.010 A 
BRANCH  23  28
ATOM     28  O   UNL     1       0.459  -1.252  -0.220  1.00  0.00    -0.493 OA
ATOM     29  C   UNL     1       0.920   0.091  -0.214  1.00  0.00     0.278 C 
ENDBRANCH  23  28
BRANCH  25  30
ATOM     30  O   UNL     1       3.021  -0.986   1.335  1.00  0.00    -0.504 OA
ATOM     31  H   UNL     1       2.571  -0.180   1.176  1.00  0.00     0.293 HD
ENDBRANCH  25  30
ENDBRANCH  13  22
BRANCH  15  32
ATOM     32  C   UNL     1       2.058  -6.819  -3.113  1.00  0.00     0.002 A 
ATOM     33  C   UNL     1       1.444  -7.459  -4.198  1.00  0.00     0.010 A 
ATOM     34  C   UNL     1       2.675  -5.578  -3.307  1.00  0.00     0.010 A 
ATOM     35  C   UNL     1       1.443  -6.864  -5.461  1.00  0.00     0.001 A 
ATOM     36  C   UNL     1       2.683  -4.990  -4.574  1.00  0.00     0.001 A 
ATOM     37  C   UNL     1       2.067  -5.632  -5.649  1.00  0.00     0.000 A 
ENDBRANCH  15  32
ENDBRANCH   7  12
ENDBRANCH   4   6
ENDBRANCH   3   4
ENDBRANCH   2   3
ENDBRANCH   1   2
BRANCH   1  38
ATOM     38  O   UNL     1      -2.113  -4.228   8.747  1.00  0.00    -0.374 OA
BRANCH  38  39
ATOM     39  C   UNL     1      -1.640  -5.338   7.995  1.00  0.00     0.202 C 
BRANCH  39  40
ATOM     40  C   UNL     1      -2.554  -6.543   7.831  1.00  0.00     0.261 C 
BRANCH  40  41
ATOM     41  O   UNL     1      -3.777  -6.238   7.172  1.00  0.00    -0.460 OA
BRANCH  41  42
ATOM     42  C   UNL     1      -4.844  -6.226   8.004  1.00  0.00     0.338 C 
ATOM     43  O   UNL     1      -4.842  -6.005   9.204  1.00  0.00    -0.246 OA
BRANCH  42  44
ATOM     44  C   UNL     1      -6.013  -6.736   7.281  1.00  0.00     0.060 A 
ATOM     45  C   UNL     1      -7.203  -6.833   8.003  1.00  0.00     0.016 A 
ATOM     46  C   UNL     1      -5.859  -7.343   6.024  1.00  0.00     0.016 A 
ATOM     47  C   UNL     1      -8.181  -7.686   7.541  1.00  0.00     0.010 A 
ATOM     48  C   UNL     1      -6.834  -8.203   5.569  1.00  0.00     0.010 A 
ATOM     49  C   UNL     1      -7.954  -8.418   6.366  1.00  0.00    -0.014 A 
BRANCH  49  50
ATOM     50  C   UNL     1      -9.023  -9.267   5.884  1.00  0.00     0.031 A 
ATOM     51  C   UNL     1     -10.194  -8.472   5.455  1.00  0.00     0.074 A 
ATOM     52  C   UNL     1      -8.946 -10.605   5.766  1.00  0.00     0.049 A 
ATOM     53  N   UNL     1     -11.320  -8.386   6.075  1.00  0.00    -0.248 NA
ATOM     54  C   UNL     1     -10.033  -7.509   4.353  1.00  0.00     0.031 C 
ATOM     55  C   UNL     1      -7.783 -11.474   5.944  1.00  0.00     0.029 A 
ATOM     56  N   UNL     1      -9.911 -11.476   5.360  1.00  0.00    -0.354 N 
ATOM     57  C   UNL     1     -12.101  -7.532   5.311  1.00  0.00     0.074 A 
ATOM     58  C   UNL     1     -11.205  -6.874   4.394  1.00  0.00     0.031 C 
ATOM     59  C   UNL     1      -8.049 -12.688   5.404  1.00  0.00     0.029 A 
ATOM     60  C   UNL     1      -9.434 -12.719   4.961  1.00  0.00     0.049 A 
ATOM     61  H   UNL     1     -10.868 -11.244   5.349  1.00  0.00     0.167 HD
ATOM     62  C   UNL     1     -13.452  -7.681   5.290  1.00  0.00     0.031 A 
ATOM     63  C   UNL     1     -10.117 -13.668   4.268  1.00  0.00     0.031 A 
ATOM     64  C   UNL     1     -13.915  -8.458   6.417  1.00  0.00     0.049 A 
ATOM     65  C   UNL     1     -11.565 -13.395   4.447  1.00  0.00     0.074 A 
ATOM     66  C   UNL     1     -13.776  -8.350   7.788  1.00  0.00     0.029 A 
ATOM     67  N   UNL     1     -14.269  -9.765   6.176  1.00  0.00    -0.354 N 
ATOM     68  N   UNL     1     -12.178 -13.559   5.583  1.00  0.00    -0.248 NA
ATOM     69  C   UNL     1     -12.207 -12.480   3.515  1.00  0.00     0.031 C 
ATOM     70  C   UNL     1     -13.568  -9.685   8.242  1.00  0.00     0.029 A 
ATOM     71  C   UNL     1     -13.688 -10.539   7.146  1.00  0.00     0.049 A 
ATOM     72  H   UNL     1     -14.837 -10.087   5.439  1.00  0.00     0.167 HD
ATOM     73  C   UNL     1     -12.978 -12.433   5.706  1.00  0.00     0.074 A 
ATOM     74  C   UNL     1     -13.026 -11.850   4.363  1.00  0.00     0.031 C 
ATOM     75  C   UNL     1     -13.272 -11.906   6.932  1.00  0.00     0.031 A 
BRANCH  62  76
ATOM     76  C   UNL     1     -14.247  -7.572   4.013  1.00  0.00    -0.014 A 
ATOM     77  C   UNL     1     -15.634  -7.787   4.075  1.00  0.00     0.009 A 
ATOM     78  C   UNL     1     -13.659  -7.590   2.733  1.00  0.00     0.009 A 
ATOM     79  C   UNL     1     -16.369  -8.112   2.929  1.00  0.00     0.001 A 
ATOM     80  C   UNL     1     -14.397  -7.870   1.582  1.00  0.00     0.001 A 
ATOM     81  C   UNL     1     -15.747  -8.165   1.686  1.00  0.00     0.000 A 
ENDBRANCH  62  76
BRANCH  63  82
ATOM     82  C   UNL     1      -9.619 -14.617   3.241  1.00  0.00    -0.014 A 
ATOM     83  C   UNL     1     -10.440 -15.648   2.747  1.00  0.00     0.009 A 
ATOM     84  C   UNL     1      -8.431 -14.349   2.538  1.00  0.00     0.009 A 
ATOM     85  C   UNL     1     -10.105 -16.346   1.576  1.00  0.00     0.001 A 
ATOM     86  C   UNL     1      -8.093 -15.049   1.374  1.00  0.00     0.001 A 
ATOM     87  C   UNL     1      -8.939 -16.036   0.883  1.00  0.00     0.000 A 
ENDBRANCH  63  82
BRANCH  75  88
ATOM     88  C   UNL     1     -12.921 -12.700   8.166  1.00  0.00    -0.014 A 
ATOM     89  C   UNL     1     -11.617 -13.127   8.476  1.00  0.00     0.009 A 
ATOM     90  C   UNL     1     -13.923 -12.882   9.131  1.00  0.00     0.009 A 
ATOM     91  C   UNL     1     -11.338 -13.744   9.702  1.00  0.00     0.001 A 
ATOM     92  C   UNL     1     -13.641 -13.475  10.362  1.00  0.00     0.001 A 
ATOM     93  C   UNL     1     -12.350 -13.912  10.646  1.00  0.00     0.000 A 
ENDBRANCH  75  88
ENDBRANCH  49  50
ENDBRANCH  42  44
ENDBRANCH  41  42
ENDBRANCH  40  41
ENDBRANCH  39  40
ENDBRANCH  38  39
ENDBRANCH   1  38
TORSDOF 19
