REMARK SMILES Cc1coc2cc3c(cc12)[C@@H](C)[C@H](CCC(=O)N[C@@H](Cc1c[nH]c2ccccc12)C(=O)OCCOCCOC(=O)c1ccc(-c2c4nc(c(-c5ccccc5)c5ccc([nH]5)c(-c5ccccc5)c5nc(c(-c6ccccc6)c6ccc2[nH]6)C=C5)C=C4)cc1)C(=O)O3
REMARK SMILES IDX 34 1 33 2 32 3 30 4 31 5 19 6 18 7 16 8 17 9 15 11 14 12
REMARK SMILES IDX 13 13 1 14 2 15 3 16 10 17 4 18 5 19 9 20 6 21 8 22 7 23
REMARK SMILES IDX 11 24 91 25 12 26 89 27 90 28 20 29 21 30 22 31 29 32 23 33
REMARK SMILES IDX 24 34 28 35 25 37 27 38 26 39 35 40 36 41 37 42 38 43 39 44
REMARK SMILES IDX 40 45 41 46 42 47 88 48 43 49 87 50 44 51 45 52 46 53 81 54
REMARK SMILES IDX 47 55 86 56 80 57 82 58 48 59 85 60 79 61 78 62 49 64 71 65
REMARK SMILES IDX 56 66 70 67 57 68 60 69 69 70 83 71 58 72 59 73 68 75 84 76
REMARK SMILES IDX 61 77 50 78 51 79 55 80 52 81 54 82 53 83 72 84 73 85 77 86
REMARK SMILES IDX 74 87 76 88 75 89 62 90 63 91 67 92 64 93 66 94 65 95
REMARK H PARENT 18 10 23 36 82 63 60 74
REMARK Flexibility Score: inf
ROOT
ATOM      1  C   UNL     1      -1.719 -10.546   0.706  1.00  0.00     0.202 C 
ENDROOT
BRANCH   1   2
ATOM      2  C   UNL     1      -1.349  -9.886   2.029  1.00  0.00     0.261 C 
BRANCH   2   3
ATOM      3  O   UNL     1      -0.723  -8.629   1.790  1.00  0.00    -0.462 OA
BRANCH   3   4
ATOM      4  C   UNL     1       0.628  -8.700   1.725  1.00  0.00     0.329 C 
ATOM      5  O   UNL     1       1.291  -9.725   1.833  1.00  0.00    -0.250 OA
BRANCH   4   6
ATOM      6  C   UNL     1       1.221  -7.350   1.379  1.00  0.00     0.196 C 
BRANCH   6   7
ATOM      7  N   UNL     1       1.495  -7.123  -0.077  1.00  0.00    -0.342 N 
ATOM      8  C   UNL     1       2.588  -7.019  -0.905  1.00  0.00     0.220 C 
ATOM      9  O   UNL     1       2.306  -6.907  -2.108  1.00  0.00    -0.275 OA
ATOM     10  H   UNL     1       0.656  -7.019  -0.583  1.00  0.00     0.164 HD
BRANCH   8  11
ATOM     11  C   UNL     1       4.105  -7.037  -0.506  1.00  0.00     0.101 C 
BRANCH  11  12
ATOM     12  C   UNL     1       4.958  -5.685  -0.279  1.00  0.00     0.026 C 
BRANCH  12  13
ATOM     13  C   UNL     1       5.046  -5.104   1.201  1.00  0.00     0.107 C 
ATOM     14  C   UNL     1       1.153   0.958   0.321  1.00  0.00     0.048 C 
ATOM     15  C   UNL     1       1.098  -0.383  -0.293  1.00  0.00    -0.005 A 
ATOM     16  C   UNL     1       0.160  -0.823  -1.208  1.00  0.00     0.199 A 
ATOM     17  C   UNL     1       1.936  -1.505  -0.009  1.00  0.00     0.024 A 
ATOM     18  O   UNL     1       0.294  -2.149  -1.435  1.00  0.00    -0.464 OA
ATOM     19  C   UNL     1       1.314  -2.571  -0.650  1.00  0.00     0.137 A 
ATOM     20  C   UNL     1       3.104  -1.759   0.759  1.00  0.00     0.020 A 
ATOM     21  C   UNL     1       1.638  -3.890  -0.431  1.00  0.00     0.095 A 
ATOM     22  C   UNL     1       3.512  -3.084   0.930  1.00  0.00    -0.001 A 
ATOM     23  C   UNL     1       2.652  -4.071   0.496  1.00  0.00     0.138 A 
ATOM     24  C   UNL     1       4.757  -3.594   1.623  1.00  0.00     0.034 C 
ATOM     25  O   UNL     1       2.749  -5.298   1.189  1.00  0.00    -0.426 OA
ATOM     26  C   UNL     1       4.508  -3.489   3.160  1.00  0.00     0.014 C 
ATOM     27  C   UNL     1       3.903  -5.753   1.835  1.00  0.00     0.314 C 
ATOM     28  O   UNL     1       3.954  -6.606   2.706  1.00  0.00    -0.251 OA
ENDBRANCH  12  13
ENDBRANCH  11  12
ENDBRANCH   8  11
ENDBRANCH   6   7
BRANCH   6  29
ATOM     29  C   UNL     1       0.566  -6.264   2.310  1.00  0.00     0.074 C 
BRANCH  29  30
ATOM     30  C   UNL     1      -0.544  -5.268   2.018  1.00  0.00    -0.020 A 
ATOM     31  C   UNL     1      -0.882  -4.356   3.019  1.00  0.00     0.087 A 
ATOM     32  C   UNL     1      -1.412  -4.940   0.911  1.00  0.00     0.003 A 
ATOM     33  N   UNL     1      -1.917  -3.576   2.611  1.00  0.00    -0.361 N 
ATOM     34  C   UNL     1      -2.265  -3.905   1.330  1.00  0.00     0.046 A 
ATOM     35  C   UNL     1      -1.589  -5.380  -0.417  1.00  0.00     0.010 A 
ATOM     36  H   UNL     1      -2.351  -2.880   3.156  1.00  0.00     0.166 HD
ATOM     37  C   UNL     1      -3.272  -3.340   0.532  1.00  0.00     0.026 A 
ATOM     38  C   UNL     1      -2.550  -4.784  -1.253  1.00  0.00     0.001 A 
ATOM     39  C   UNL     1      -3.398  -3.796  -0.775  1.00  0.00     0.002 A 
ENDBRANCH  29  30
ENDBRANCH   6  29
ENDBRANCH   4   6
ENDBRANCH   3   4
ENDBRANCH   2   3
ENDBRANCH   1   2
BRANCH   1  40
ATOM     40  O   UNL     1      -0.692 -11.020  -0.159  1.00  0.00    -0.374 OA
BRANCH  40  41
ATOM     41  C   UNL     1      -0.109 -10.084  -1.075  1.00  0.00     0.202 C 
BRANCH  41  42
ATOM     42  C   UNL     1      -0.962  -9.596  -2.262  1.00  0.00     0.261 C 
BRANCH  42  43
ATOM     43  O   UNL     1      -2.057  -8.782  -1.806  1.00  0.00    -0.460 OA
BRANCH  43  44
ATOM     44  C   UNL     1      -3.292  -9.172  -2.218  1.00  0.00     0.338 C 
ATOM     45  O   UNL     1      -3.573  -9.805  -3.225  1.00  0.00    -0.246 OA
BRANCH  44  46
ATOM     46  C   UNL     1      -4.179  -9.043  -1.042  1.00  0.00     0.060 A 
ATOM     47  C   UNL     1      -4.177  -7.876  -0.281  1.00  0.00     0.016 A 
ATOM     48  C   UNL     1      -4.737 -10.225  -0.528  1.00  0.00     0.016 A 
ATOM     49  C   UNL     1      -4.644  -7.907   1.026  1.00  0.00     0.010 A 
ATOM     50  C   UNL     1      -5.210 -10.256   0.785  1.00  0.00     0.010 A 
ATOM     51  C   UNL     1      -5.141  -9.103   1.572  1.00  0.00    -0.014 A 
BRANCH  51  52
ATOM     52  C   UNL     1      -5.821  -9.001   2.869  1.00  0.00     0.031 A 
ATOM     53  C   UNL     1      -6.997  -8.086   2.828  1.00  0.00     0.074 A 
ATOM     54  C   UNL     1      -5.604  -9.729   3.983  1.00  0.00     0.049 A 
ATOM     55  N   UNL     1      -7.239  -7.055   3.570  1.00  0.00    -0.248 NA
ATOM     56  C   UNL     1      -7.973  -8.303   1.746  1.00  0.00     0.031 C 
ATOM     57  C   UNL     1      -4.719 -10.882   4.149  1.00  0.00     0.029 A 
ATOM     58  N   UNL     1      -6.245  -9.649   5.194  1.00  0.00    -0.354 N 
ATOM     59  C   UNL     1      -8.473  -6.573   3.146  1.00  0.00     0.074 A 
ATOM     60  C   UNL     1      -8.814  -7.292   1.946  1.00  0.00     0.031 C 
ATOM     61  C   UNL     1      -5.046 -11.527   5.292  1.00  0.00     0.029 A 
ATOM     62  C   UNL     1      -6.081 -10.777   5.987  1.00  0.00     0.049 A 
ATOM     63  H   UNL     1      -6.771  -8.866   5.474  1.00  0.00     0.167 HD
ATOM     64  C   UNL     1      -9.242  -5.765   3.921  1.00  0.00     0.031 A 
ATOM     65  C   UNL     1      -6.803 -11.115   7.083  1.00  0.00     0.031 A 
ATOM     66  C   UNL     1      -8.489  -5.114   4.957  1.00  0.00     0.049 A 
ATOM     67  C   UNL     1      -7.458  -9.903   7.615  1.00  0.00     0.074 A 
ATOM     68  C   UNL     1      -7.425  -4.237   4.992  1.00  0.00     0.029 A 
ATOM     69  N   UNL     1      -8.628  -5.603   6.230  1.00  0.00    -0.354 N 
ATOM     70  N   UNL     1      -6.832  -8.940   8.223  1.00  0.00    -0.248 NA
ATOM     71  C   UNL     1      -8.835  -9.615   7.245  1.00  0.00     0.031 C 
ATOM     72  C   UNL     1      -6.717  -4.547   6.189  1.00  0.00     0.029 A 
ATOM     73  C   UNL     1      -7.396  -5.584   6.831  1.00  0.00     0.049 A 
ATOM     74  H   UNL     1      -9.466  -5.913   6.642  1.00  0.00     0.167 HD
ATOM     75  C   UNL     1      -7.560  -7.805   7.915  1.00  0.00     0.074 A 
ATOM     76  C   UNL     1      -8.857  -8.300   7.474  1.00  0.00     0.031 C 
ATOM     77  C   UNL     1      -6.937  -6.600   7.756  1.00  0.00     0.031 A 
BRANCH  64  78
ATOM     78  C   UNL     1     -10.745  -5.890   3.965  1.00  0.00    -0.014 A 
ATOM     79  C   UNL     1     -11.434  -7.028   3.498  1.00  0.00     0.009 A 
ATOM     80  C   UNL     1     -11.485  -4.981   4.740  1.00  0.00     0.009 A 
ATOM     81  C   UNL     1     -12.781  -7.254   3.785  1.00  0.00     0.001 A 
ATOM     82  C   UNL     1     -12.824  -5.228   5.071  1.00  0.00     0.001 A 
ATOM     83  C   UNL     1     -13.470  -6.365   4.594  1.00  0.00     0.000 A 
ENDBRANCH  64  78
BRANCH  65  84
ATOM     84  C   UNL     1      -7.191 -12.459   7.572  1.00  0.00    -0.014 A 
ATOM     85  C   UNL     1      -7.289 -13.541   6.680  1.00  0.00     0.009 A 
ATOM     86  C   UNL     1      -7.755 -12.613   8.851  1.00  0.00     0.009 A 
ATOM     87  C   UNL     1      -7.975 -14.708   7.030  1.00  0.00     0.001 A 
ATOM     88  C   UNL     1      -8.452 -13.777   9.196  1.00  0.00     0.001 A 
ATOM     89  C   UNL     1      -8.577 -14.817   8.279  1.00  0.00     0.000 A 
ENDBRANCH  65  84
BRANCH  77  90
ATOM     90  C   UNL     1      -5.546  -6.435   8.323  1.00  0.00    -0.014 A 
ATOM     91  C   UNL     1      -5.281  -5.308   9.118  1.00  0.00     0.009 A 
ATOM     92  C   UNL     1      -4.474  -7.288   8.010  1.00  0.00     0.009 A 
ATOM     93  C   UNL     1      -3.994  -5.050   9.595  1.00  0.00     0.001 A 
ATOM     94  C   UNL     1      -3.192  -7.049   8.515  1.00  0.00     0.001 A 
ATOM     95  C   UNL     1      -2.952  -5.926   9.303  1.00  0.00     0.000 A 
ENDBRANCH  77  90
ENDBRANCH  51  52
ENDBRANCH  44  46
ENDBRANCH  43  44
ENDBRANCH  42  43
ENDBRANCH  41  42
ENDBRANCH  40  41
ENDBRANCH   1  40
TORSDOF 20
