REMARK SMILES CC(C)CSc1cc2c(cc1Cl)C=C(C(=O)OCCOCCOC(=O)c1ccc(-c3c4nc(c(-c5ccccc5)c5ccc([nH]5)c(-c5ccccc5)c5nc(c(-c6ccccc6)c6ccc3[nH]6)C=C5)C=C4)cc1)[C@H](C(F)(F)F)O2
REMARK SMILES IDX 19 1 18 2 17 3 15 4 16 5 14 6 6 7 7 8 11 9 8 10 10 11 12 12
REMARK SMILES IDX 9 13 79 14 13 15 74 16 5 17 4 18 2 19 1 20 3 21 75 22 76 23
REMARK SMILES IDX 77 24 78 25 20 26 21 27 22 28 23 29 24 30 25 31 26 32 27 33
REMARK SMILES IDX 73 34 28 35 72 36 29 37 30 38 31 39 66 40 32 41 71 42 65 43
REMARK SMILES IDX 67 44 33 45 70 46 64 47 63 48 34 50 56 51 41 52 55 53 42 54
REMARK SMILES IDX 45 55 54 56 68 57 43 58 44 59 53 61 69 62 46 63 35 64 36 65
REMARK SMILES IDX 40 66 37 67 39 68 38 69 57 70 58 71 62 72 59 73 61 74 60 75
REMARK SMILES IDX 47 76 48 77 52 78 49 79 51 80 50 81
REMARK H PARENT 67 49 45 60
REMARK Flexibility Score: inf
ROOT
ATOM      1  C   UNL     1       2.354  -8.513   5.015  1.00  0.00     0.202 C 
ENDROOT
BRANCH   1   2
ATOM      2  C   UNL     1       3.233  -7.787   3.994  1.00  0.00     0.261 C 
BRANCH   2   3
ATOM      3  O   UNL     1       2.900  -6.391   3.927  1.00  0.00    -0.460 OA
BRANCH   3   4
ATOM      4  C   UNL     1       2.264  -6.012   2.801  1.00  0.00     0.338 C 
ATOM      5  O   UNL     1       2.136  -6.678   1.785  1.00  0.00    -0.246 OA
BRANCH   4   6
ATOM      6  C   UNL     1       1.621  -4.698   2.994  1.00  0.00     0.087 C 
ATOM      7  C   UNL     1      -1.077  -0.610   1.953  1.00  0.00     0.030 A 
ATOM      8  C   UNL     1       0.046  -0.862   2.753  1.00  0.00     0.063 A 
ATOM      9  C   UNL     1      -1.792  -1.696   1.423  1.00  0.00     0.055 A 
ATOM     10  C   UNL     1       0.540  -2.157   2.893  1.00  0.00     0.129 A 
ATOM     11  C   UNL     1      -1.327  -3.001   1.615  1.00  0.00     0.033 A 
ATOM     12  Cl  UNL     1      -3.231  -1.499   0.485  1.00  0.00    -0.083 Cl
ATOM     13  C   UNL     1      -0.138  -3.226   2.313  1.00  0.00     0.019 A 
ATOM     14  O   UNL     1       1.757  -2.272   3.502  1.00  0.00    -0.475 OA
ATOM     15  C   UNL     1       0.470  -4.541   2.324  1.00  0.00     0.027 C 
ATOM     16  C   UNL     1       2.260  -3.604   3.813  1.00  0.00     0.316 C 
BRANCH   7  17
ATOM     17  S   UNL     1      -1.428   1.107   1.604  1.00  0.00    -0.124 SA
BRANCH  17  18
ATOM     18  C   UNL     1      -0.873   1.222  -0.146  1.00  0.00     0.078 C 
BRANCH  18  19
ATOM     19  C   UNL     1       0.648   1.384  -0.351  1.00  0.00    -0.007 C 
ATOM     20  C   UNL     1       1.428   0.071  -0.234  1.00  0.00     0.008 C 
ATOM     21  C   UNL     1       0.914   1.970  -1.743  1.00  0.00     0.008 C 
ENDBRANCH  18  19
ENDBRANCH  17  18
ENDBRANCH   7  17
BRANCH  16  22
ATOM     22  C   UNL     1       2.179  -3.792   5.342  1.00  0.00     0.430 C 
ATOM     23  F   UNL     1       0.936  -4.143   5.747  1.00  0.00    -0.167 F 
ATOM     24  F   UNL     1       3.041  -4.728   5.798  1.00  0.00    -0.167 F 
ATOM     25  F   UNL     1       2.499  -2.643   5.993  1.00  0.00    -0.167 F 
ENDBRANCH  16  22
ENDBRANCH   4   6
ENDBRANCH   3   4
ENDBRANCH   2   3
ENDBRANCH   1   2
BRANCH   1  26
ATOM     26  O   UNL     1       0.949  -8.504   4.772  1.00  0.00    -0.374 OA
BRANCH  26  27
ATOM     27  C   UNL     1       0.211  -7.347   5.171  1.00  0.00     0.202 C 
BRANCH  27  28
ATOM     28  C   UNL     1      -0.051  -7.158   6.671  1.00  0.00     0.261 C 
BRANCH  28  29
ATOM     29  O   UNL     1       1.154  -6.832   7.388  1.00  0.00    -0.460 OA
BRANCH  29  30
ATOM     30  C   UNL     1       1.614  -7.799   8.217  1.00  0.00     0.338 C 
ATOM     31  O   UNL     1       1.082  -8.867   8.474  1.00  0.00    -0.246 OA
BRANCH  30  32
ATOM     32  C   UNL     1       3.000  -7.479   8.616  1.00  0.00     0.060 A 
ATOM     33  C   UNL     1       3.343  -6.237   9.153  1.00  0.00     0.016 A 
ATOM     34  C   UNL     1       3.971  -8.477   8.458  1.00  0.00     0.016 A 
ATOM     35  C   UNL     1       4.660  -6.011   9.564  1.00  0.00     0.010 A 
ATOM     36  C   UNL     1       5.284  -8.249   8.869  1.00  0.00     0.010 A 
ATOM     37  C   UNL     1       5.635  -7.021   9.445  1.00  0.00    -0.014 A 
BRANCH  37  38
ATOM     38  C   UNL     1       6.981  -6.840  10.046  1.00  0.00     0.031 A 
ATOM     39  C   UNL     1       8.202  -6.635   9.200  1.00  0.00     0.074 A 
ATOM     40  C   UNL     1       7.095  -6.891  11.388  1.00  0.00     0.049 A 
ATOM     41  N   UNL     1       9.431  -6.394   9.584  1.00  0.00    -0.248 NA
ATOM     42  C   UNL     1       8.031  -6.715   7.742  1.00  0.00     0.031 C 
ATOM     43  C   UNL     1       5.984  -7.122  12.312  1.00  0.00     0.029 A 
ATOM     44  N   UNL     1       8.187  -6.742  12.207  1.00  0.00    -0.354 N 
ATOM     45  C   UNL     1      10.176  -6.274   8.419  1.00  0.00     0.074 A 
ATOM     46  C   UNL     1       9.273  -6.521   7.315  1.00  0.00     0.031 C 
ATOM     47  C   UNL     1       6.443  -7.058  13.571  1.00  0.00     0.029 A 
ATOM     48  C   UNL     1       7.884  -6.822  13.545  1.00  0.00     0.049 A 
ATOM     49  H   UNL     1       9.099  -6.592  11.868  1.00  0.00     0.167 HD
ATOM     50  C   UNL     1      11.489  -5.967   8.288  1.00  0.00     0.031 A 
ATOM     51  C   UNL     1       8.671  -6.714  14.634  1.00  0.00     0.031 A 
ATOM     52  C   UNL     1      12.386  -5.743   9.395  1.00  0.00     0.049 A 
ATOM     53  C   UNL     1      10.134  -6.418  14.459  1.00  0.00     0.074 A 
ATOM     54  C   UNL     1      13.722  -5.381   9.352  1.00  0.00     0.029 A 
ATOM     55  N   UNL     1      12.051  -5.871  10.734  1.00  0.00    -0.354 N 
ATOM     56  N   UNL     1      10.806  -6.215  13.351  1.00  0.00    -0.248 NA
ATOM     57  C   UNL     1      10.947  -6.318  15.680  1.00  0.00     0.031 C 
ATOM     58  C   UNL     1      14.215  -5.373  10.657  1.00  0.00     0.029 A 
ATOM     59  C   UNL     1      13.166  -5.636  11.523  1.00  0.00     0.049 A 
ATOM     60  H   UNL     1      11.154  -6.096  11.074  1.00  0.00     0.167 HD
ATOM     61  C   UNL     1      12.111  -5.939  13.742  1.00  0.00     0.074 A 
ATOM     62  C   UNL     1      12.132  -5.980  15.189  1.00  0.00     0.031 C 
ATOM     63  C   UNL     1      13.189  -5.675  12.964  1.00  0.00     0.031 A 
BRANCH  50  64
ATOM     64  C   UNL     1      12.059  -5.833   6.901  1.00  0.00    -0.014 A 
ATOM     65  C   UNL     1      13.062  -6.715   6.465  1.00  0.00     0.009 A 
ATOM     66  C   UNL     1      11.707  -4.751   6.079  1.00  0.00     0.009 A 
ATOM     67  C   UNL     1      13.718  -6.503   5.251  1.00  0.00     0.001 A 
ATOM     68  C   UNL     1      12.342  -4.559   4.849  1.00  0.00     0.001 A 
ATOM     69  C   UNL     1      13.356  -5.426   4.443  1.00  0.00     0.000 A 
ENDBRANCH  50  64
BRANCH  51  70
ATOM     70  C   UNL     1       8.062  -6.843  15.986  1.00  0.00    -0.014 A 
ATOM     71  C   UNL     1       7.514  -8.065  16.410  1.00  0.00     0.009 A 
ATOM     72  C   UNL     1       7.972  -5.731  16.837  1.00  0.00     0.009 A 
ATOM     73  C   UNL     1       6.860  -8.163  17.640  1.00  0.00     0.001 A 
ATOM     74  C   UNL     1       7.350  -5.841  18.083  1.00  0.00     0.001 A 
ATOM     75  C   UNL     1       6.784  -7.052  18.478  1.00  0.00     0.000 A 
ENDBRANCH  51  70
BRANCH  63  76
ATOM     76  C   UNL     1      14.505  -5.392  13.640  1.00  0.00    -0.014 A 
ATOM     77  C   UNL     1      15.097  -4.124  13.508  1.00  0.00     0.009 A 
ATOM     78  C   UNL     1      15.220  -6.405  14.298  1.00  0.00     0.009 A 
ATOM     79  C   UNL     1      16.385  -3.885  13.991  1.00  0.00     0.001 A 
ATOM     80  C   UNL     1      16.494  -6.152  14.814  1.00  0.00     0.001 A 
ATOM     81  C   UNL     1      17.081  -4.898  14.647  1.00  0.00     0.000 A 
ENDBRANCH  63  76
ENDBRANCH  37  38
ENDBRANCH  30  32
ENDBRANCH  29  30
ENDBRANCH  28  29
ENDBRANCH  27  28
ENDBRANCH  26  27
ENDBRANCH   1  26
TORSDOF 18
