REMARK SMILES O=C(OCCOCCOC(=O)c1ccccc1Nc1cccc(S(F)(F)(F)(F)F)c1)c1ccc(-c2c3nc(c(-c4ccccc4)c4ccc([nH]4)c(-c4ccccc4)c4nc(c(-c5ccccc5)c5ccc2[nH]5)C=C4)C=C3)cc1
REMARK SMILES IDX 7 1 6 2 5 3 4 4 3 5 2 6 1 7 31 8 32 9 78 10 33 11 77 12
REMARK SMILES IDX 34 13 35 14 36 15 71 16 37 17 76 18 70 19 72 20 38 21 75 22
REMARK SMILES IDX 69 23 68 24 39 26 61 27 46 28 60 29 47 30 50 31 59 32 73 33
REMARK SMILES IDX 48 34 49 35 58 37 74 38 51 39 40 40 41 41 45 42 42 43 44 44
REMARK SMILES IDX 43 45 62 46 63 47 67 48 64 49 66 50 65 51 52 52 53 53 57 54
REMARK SMILES IDX 54 55 56 56 55 57 8 58 9 59 10 60 11 61 12 62 13 63 17 64
REMARK SMILES IDX 14 65 16 66 15 67 18 68 19 70 20 71 30 72 21 73 23 74 22 75
REMARK SMILES IDX 24 76 25 77 26 78 27 79 28 80 29 81
REMARK H PARENT 72 25 50 36 18 69
REMARK Flexibility Score: inf
ROOT
ATOM      1  C   UNL     1       2.949   0.395  -1.379  1.00  0.00     0.202 C 
ENDROOT
BRANCH   1   2
ATOM      2  O   UNL     1       4.369   0.395  -1.379  1.00  0.00    -0.374 OA
BRANCH   2   3
ATOM      3  C   UNL     1       4.842  -0.894  -1.018  1.00  0.00     0.202 C 
BRANCH   3   4
ATOM      4  C   UNL     1       4.335  -1.249   0.370  1.00  0.00     0.261 C 
BRANCH   4   5
ATOM      5  O   UNL     1       2.915  -1.249   0.370  1.00  0.00    -0.460 OA
BRANCH   5   6
ATOM      6  C   UNL     1       2.205  -0.065   0.038  1.00  0.00     0.338 C 
ATOM      7  O   UNL     1       0.934  -0.065   0.038  1.00  0.00    -0.246 OA
BRANCH   6   8
ATOM      8  C   UNL     1       2.965   1.203  -0.317  1.00  0.00     0.060 A 
ATOM      9  C   UNL     1       4.040   1.169  -1.189  1.00  0.00     0.016 A 
ATOM     10  C   UNL     1       2.555   2.342   0.227  1.00  0.00     0.016 A 
ATOM     11  C   UNL     1       4.806   2.359  -1.202  1.00  0.00     0.010 A 
ATOM     12  C   UNL     1       3.279   3.498   0.061  1.00  0.00     0.010 A 
ATOM     13  C   UNL     1       4.387   3.524  -0.740  1.00  0.00    -0.014 A 
BRANCH  13  14
ATOM     14  C   UNL     1       5.098   4.823  -1.081  1.00  0.00     0.031 A 
ATOM     15  C   UNL     1       5.604   5.546   0.001  1.00  0.00     0.074 A 
ATOM     16  C   UNL     1       5.193   5.235  -2.400  1.00  0.00     0.049 A 
ATOM     17  N   UNL     1       6.273   6.699  -0.033  1.00  0.00    -0.248 NA
ATOM     18  C   UNL     1       5.474   5.128   1.404  1.00  0.00     0.031 C 
ATOM     19  C   UNL     1       4.694   4.507  -3.497  1.00  0.00     0.029 A 
ATOM     20  N   UNL     1       5.769   6.388  -2.885  1.00  0.00    -0.354 N 
ATOM     21  C   UNL     1       6.610   7.073   1.203  1.00  0.00     0.074 A 
ATOM     22  C   UNL     1       6.096   6.071   2.146  1.00  0.00     0.031 C 
ATOM     23  C   UNL     1       4.954   5.216  -4.627  1.00  0.00     0.029 A 
ATOM     24  C   UNL     1       5.621   6.398  -4.255  1.00  0.00     0.049 A 
ATOM     25  H   UNL     1       6.210   7.084  -2.347  1.00  0.00     0.167 HD
ATOM     26  C   UNL     1       7.328   8.209   1.580  1.00  0.00     0.031 A 
ATOM     27  C   UNL     1       6.035   7.376  -5.146  1.00  0.00     0.031 A 
ATOM     28  C   UNL     1       7.781   9.165   0.685  1.00  0.00     0.049 A 
ATOM     29  C   UNL     1       6.703   8.542  -4.762  1.00  0.00     0.074 A 
ATOM     30  C   UNL     1       8.512  10.312   1.048  1.00  0.00     0.029 A 
ATOM     31  N   UNL     1       7.611   9.188  -0.682  1.00  0.00    -0.354 N 
ATOM     32  N   UNL     1       7.074   8.895  -3.531  1.00  0.00    -0.248 NA
ATOM     33  C   UNL     1       7.118   9.599  -5.693  1.00  0.00     0.031 C 
ATOM     34  C   UNL     1       8.772  11.022  -0.082  1.00  0.00     0.029 A 
ATOM     35  C   UNL     1       8.206  10.330  -1.170  1.00  0.00     0.049 A 
ATOM     36  H   UNL     1       7.145   8.506  -1.217  1.00  0.00     0.167 HD
ATOM     37  C   UNL     1       7.707  10.069  -3.561  1.00  0.00     0.074 A 
ATOM     38  C   UNL     1       7.738  10.543  -4.952  1.00  0.00     0.031 C 
ATOM     39  C   UNL     1       8.264  10.764  -2.486  1.00  0.00     0.031 A 
BRANCH  26  40
ATOM     40  C   UNL     1       7.630   8.409   3.057  1.00  0.00    -0.014 A 
ATOM     41  C   UNL     1       8.336   7.436   3.746  1.00  0.00     0.009 A 
ATOM     42  C   UNL     1       7.176   9.495   3.670  1.00  0.00     0.009 A 
ATOM     43  C   UNL     1       8.263   7.564   5.153  1.00  0.00     0.001 A 
ATOM     44  C   UNL     1       7.260   9.613   5.037  1.00  0.00     0.001 A 
ATOM     45  C   UNL     1       7.892   8.661   5.787  1.00  0.00     0.000 A 
ENDBRANCH  26  40
BRANCH  27  46
ATOM     46  C   UNL     1       5.748   7.167  -6.624  1.00  0.00    -0.014 A 
ATOM     47  C   UNL     1       6.799   7.066  -7.519  1.00  0.00     0.009 A 
ATOM     48  C   UNL     1       4.488   7.043  -7.024  1.00  0.00     0.009 A 
ATOM     49  C   UNL     1       6.403   7.118  -8.877  1.00  0.00     0.001 A 
ATOM     50  C   UNL     1       4.183   6.962  -8.361  1.00  0.00     0.001 A 
ATOM     51  C   UNL     1       5.170   6.917  -9.306  1.00  0.00     0.000 A 
ENDBRANCH  27  46
BRANCH  39  52
ATOM     52  C   UNL     1       8.976  12.075  -2.774  1.00  0.00    -0.014 A 
ATOM     53  C   UNL     1       8.293  13.133  -3.352  1.00  0.00     0.009 A 
ATOM     54  C   UNL     1      10.260  12.179  -2.452  1.00  0.00     0.009 A 
ATOM     55  C   UNL     1       9.133  14.171  -3.820  1.00  0.00     0.001 A 
ATOM     56  C   UNL     1      10.987  13.283  -2.823  1.00  0.00     0.001 A 
ATOM     57  C   UNL     1      10.390  14.341  -3.450  1.00  0.00     0.000 A 
ENDBRANCH  39  52
ENDBRANCH  13  14
ENDBRANCH   6   8
ENDBRANCH   5   6
ENDBRANCH   4   5
ENDBRANCH   3   4
ENDBRANCH   2   3
ENDBRANCH   1   2
BRANCH   1  58
ATOM     58  C   UNL     1       2.442  -0.629  -2.381  1.00  0.00     0.261 C 
BRANCH  58  59
ATOM     59  O   UNL     1       2.915  -1.919  -2.020  1.00  0.00    -0.460 OA
BRANCH  59  60
ATOM     60  C   UNL     1       4.311  -2.168  -1.950  1.00  0.00     0.340 C 
ATOM     61  O   UNL     1       5.137  -1.238  -2.211  1.00  0.00    -0.246 OA
BRANCH  60  62
ATOM     62  C   UNL     1       4.818  -3.548  -1.564  1.00  0.00     0.083 A 
ATOM     63  C   UNL     1       5.888  -3.622  -0.687  1.00  0.00     0.018 A 
ATOM     64  C   UNL     1       4.286  -4.643  -2.094  1.00  0.00     0.053 A 
ATOM     65  C   UNL     1       6.517  -4.889  -0.655  1.00  0.00     0.001 A 
ATOM     66  C   UNL     1       4.878  -5.869  -1.909  1.00  0.00     0.027 A 
ATOM     67  C   UNL     1       5.974  -6.006  -1.103  1.00  0.00     0.002 A 
BRANCH  64  68
ATOM     68  N   UNL     1       3.051  -4.543  -2.886  1.00  0.00    -0.355 N 
ATOM     69  H   UNL     1       2.623  -3.667  -3.022  1.00  0.00     0.167 HD
BRANCH  68  70
ATOM     70  C   UNL     1       2.456  -5.751  -3.476  1.00  0.00     0.040 A 
ATOM     71  C   UNL     1       2.330  -5.950  -4.841  1.00  0.00     0.026 A 
ATOM     72  C   UNL     1       2.104  -6.691  -2.607  1.00  0.00     0.050 A 
ATOM     73  C   UNL     1       1.545  -7.076  -5.185  1.00  0.00     0.004 A 
ATOM     74  C   UNL     1       1.461  -7.829  -3.030  1.00  0.00     0.109 A 
ATOM     75  C   UNL     1       1.250  -8.064  -4.360  1.00  0.00     0.024 A 
BRANCH  74  76
ATOM     76  S   UNL     1       0.886  -9.035  -1.809  1.00  0.00     0.310 S 
ATOM     77  F   UNL     1       2.266  -8.755  -1.080  1.00  0.00    -0.094 F 
ATOM     78  F   UNL     1       1.646 -10.093  -2.694  1.00  0.00    -0.094 F 
ATOM     79  F   UNL     1       0.600 -10.108  -0.721  1.00  0.00    -0.094 F 
ATOM     80  F   UNL     1       0.252  -7.931  -0.874  1.00  0.00    -0.094 F 
ATOM     81  F   UNL     1       1.268  -7.911  -2.853  1.00  0.00    -0.094 F 
ENDBRANCH  74  76
ENDBRANCH  68  70
ENDBRANCH  64  68
ENDBRANCH  60  62
ENDBRANCH  59  60
ENDBRANCH  58  59
ENDBRANCH   1  58
TORSDOF 17
