REMARK SMILES O=C(OCCOCCOC(=O)c1ccc([C@@H]2CC(O)=Nc3c2ncn3-c2cccc(Cl)c2)cc1)c1ccc(-c2c3nc(c(-c4ccccc4)c4ccc([nH]4)c(-c4ccccc4)c4nc(c(-c5ccccc5)c5ccc2[nH]5)C=C4)C=C3)cc1
REMARK SMILES IDX 6 1 5 2 4 3 3 4 2 5 1 6 35 7 36 8 82 9 37 10 81 11 38 12
REMARK SMILES IDX 39 13 40 14 75 15 41 16 80 17 74 18 76 19 42 20 79 21 73 22
REMARK SMILES IDX 72 23 43 25 65 26 50 27 64 28 51 29 54 30 63 31 77 32 52 33
REMARK SMILES IDX 53 34 62 36 78 37 55 38 44 39 45 40 49 41 46 42 48 43 47 44
REMARK SMILES IDX 66 45 67 46 71 47 68 48 70 49 69 50 56 51 57 52 61 53 58 54
REMARK SMILES IDX 60 55 59 56 7 57 8 58 9 59 10 60 11 61 12 62 13 63 34 64
REMARK SMILES IDX 14 65 33 66 15 67 16 68 17 69 22 70 18 71 21 72 23 73 20 74
REMARK SMILES IDX 25 75 24 76 19 77 26 79 27 80 32 81 28 82 30 83 29 84 31 85
REMARK H PARENT 76 24 54 35 19 78
REMARK Flexibility Score: inf
ROOT
ATOM      1  O   UNL     1       4.186  -0.470  -1.297  1.00  0.00    -0.374 OA
ENDROOT
BRANCH   1   2
ATOM      2  C   UNL     1       4.752  -0.820  -0.038  1.00  0.00     0.202 C 
BRANCH   2   3
ATOM      3  C   UNL     1       4.504   0.103   1.152  1.00  0.00     0.261 C 
BRANCH   3   4
ATOM      4  O   UNL     1       3.134   0.134   1.588  1.00  0.00    -0.460 OA
BRANCH   4   5
ATOM      5  C   UNL     1       2.082   0.494   0.822  1.00  0.00     0.338 C 
ATOM      6  O   UNL     1       1.037  -0.151   0.860  1.00  0.00    -0.246 OA
BRANCH   5   7
ATOM      7  C   UNL     1       2.088   1.824   0.164  1.00  0.00     0.060 A 
ATOM      8  C   UNL     1       3.224   2.580  -0.121  1.00  0.00     0.016 A 
ATOM      9  C   UNL     1       0.820   2.391  -0.040  1.00  0.00     0.016 A 
ATOM     10  C   UNL     1       3.112   3.944  -0.282  1.00  0.00     0.010 A 
ATOM     11  C   UNL     1       0.695   3.744  -0.273  1.00  0.00     0.010 A 
ATOM     12  C   UNL     1       1.844   4.522  -0.276  1.00  0.00    -0.014 A 
BRANCH  12  13
ATOM     13  C   UNL     1       1.760   5.959  -0.415  1.00  0.00     0.031 A 
ATOM     14  C   UNL     1       2.271   6.438  -1.720  1.00  0.00     0.074 A 
ATOM     15  C   UNL     1       1.204   6.746   0.524  1.00  0.00     0.049 A 
ATOM     16  N   UNL     1       3.344   7.122  -1.934  1.00  0.00    -0.248 NA
ATOM     17  C   UNL     1       1.623   5.934  -2.942  1.00  0.00     0.031 C 
ATOM     18  C   UNL     1       0.460   6.350   1.723  1.00  0.00     0.029 A 
ATOM     19  N   UNL     1       1.098   8.099   0.541  1.00  0.00    -0.354 N 
ATOM     20  C   UNL     1       3.398   7.316  -3.309  1.00  0.00     0.074 A 
ATOM     21  C   UNL     1       2.431   6.417  -3.886  1.00  0.00     0.031 C 
ATOM     22  C   UNL     1      -0.234   7.417   2.187  1.00  0.00     0.029 A 
ATOM     23  C   UNL     1       0.132   8.589   1.409  1.00  0.00     0.049 A 
ATOM     24  H   UNL     1       1.660   8.685  -0.017  1.00  0.00     0.167 HD
ATOM     25  C   UNL     1       4.037   8.393  -3.840  1.00  0.00     0.031 A 
ATOM     26  C   UNL     1      -0.368   9.852   1.426  1.00  0.00     0.031 A 
ATOM     27  C   UNL     1       4.914   9.013  -2.881  1.00  0.00     0.049 A 
ATOM     28  C   UNL     1       0.594  10.718   0.703  1.00  0.00     0.074 A 
ATOM     29  C   UNL     1       6.029   8.605  -2.177  1.00  0.00     0.029 A 
ATOM     30  N   UNL     1       4.427  10.118  -2.223  1.00  0.00    -0.354 N 
ATOM     31  N   UNL     1       1.784  10.991   1.157  1.00  0.00    -0.248 NA
ATOM     32  C   UNL     1       0.423  10.874  -0.735  1.00  0.00     0.031 C 
ATOM     33  C   UNL     1       5.877   9.186  -0.884  1.00  0.00     0.029 A 
ATOM     34  C   UNL     1       4.731   9.983  -0.894  1.00  0.00     0.049 A 
ATOM     35  H   UNL     1       3.947  10.872  -2.635  1.00  0.00     0.167 HD
ATOM     36  C   UNL     1       2.611  10.898   0.047  1.00  0.00     0.074 A 
ATOM     37  C   UNL     1       1.708  10.915  -1.104  1.00  0.00     0.031 C 
ATOM     38  C   UNL     1       3.916  10.514   0.175  1.00  0.00     0.031 A 
BRANCH  25  39
ATOM     39  C   UNL     1       3.516   9.143  -5.039  1.00  0.00    -0.014 A 
ATOM     40  C   UNL     1       4.253  10.242  -5.513  1.00  0.00     0.009 A 
ATOM     41  C   UNL     1       2.199   9.007  -5.519  1.00  0.00     0.009 A 
ATOM     42  C   UNL     1       3.671  11.197  -6.355  1.00  0.00     0.001 A 
ATOM     43  C   UNL     1       1.628   9.936  -6.390  1.00  0.00     0.001 A 
ATOM     44  C   UNL     1       2.356  11.049  -6.784  1.00  0.00     0.000 A 
ENDBRANCH  25  39
BRANCH  26  45
ATOM     45  C   UNL     1      -1.747  10.300   1.729  1.00  0.00    -0.014 A 
ATOM     46  C   UNL     1      -2.028  11.656   1.970  1.00  0.00     0.009 A 
ATOM     47  C   UNL     1      -2.837   9.441   1.498  1.00  0.00     0.009 A 
ATOM     48  C   UNL     1      -3.345  12.138   1.940  1.00  0.00     0.001 A 
ATOM     49  C   UNL     1      -4.152   9.921   1.470  1.00  0.00     0.001 A 
ATOM     50  C   UNL     1      -4.405  11.273   1.676  1.00  0.00     0.000 A 
ENDBRANCH  26  45
BRANCH  38  51
ATOM     51  C   UNL     1       4.492  10.417   1.566  1.00  0.00    -0.014 A 
ATOM     52  C   UNL     1       4.010   9.532   2.548  1.00  0.00     0.009 A 
ATOM     53  C   UNL     1       5.663  11.138   1.839  1.00  0.00     0.009 A 
ATOM     54  C   UNL     1       4.669   9.398   3.776  1.00  0.00     0.001 A 
ATOM     55  C   UNL     1       6.332  10.989   3.055  1.00  0.00     0.001 A 
ATOM     56  C   UNL     1       5.832  10.124   4.026  1.00  0.00     0.000 A 
ENDBRANCH  38  51
ENDBRANCH  12  13
ENDBRANCH   5   7
ENDBRANCH   4   5
ENDBRANCH   3   4
ENDBRANCH   2   3
ENDBRANCH   1   2
BRANCH   1  57
ATOM     57  C   UNL     1       2.989  -1.151  -1.698  1.00  0.00     0.202 C 
BRANCH  57  58
ATOM     58  C   UNL     1       3.006  -2.662  -1.986  1.00  0.00     0.261 C 
BRANCH  58  59
ATOM     59  O   UNL     1       3.352  -3.458  -0.842  1.00  0.00    -0.460 OA
BRANCH  59  60
ATOM     60  C   UNL     1       4.638  -3.893  -0.839  1.00  0.00     0.338 C 
ATOM     61  O   UNL     1       5.460  -3.759  -1.721  1.00  0.00    -0.246 OA
BRANCH  60  62
ATOM     62  C   UNL     1       5.000  -4.364   0.513  1.00  0.00     0.060 A 
ATOM     63  C   UNL     1       6.158  -3.825   1.083  1.00  0.00     0.016 A 
ATOM     64  C   UNL     1       4.270  -5.347   1.177  1.00  0.00     0.016 A 
ATOM     65  C   UNL     1       6.633  -4.317   2.291  1.00  0.00     0.005 A 
ATOM     66  C   UNL     1       4.774  -5.873   2.369  1.00  0.00     0.005 A 
ATOM     67  C   UNL     1       5.983  -5.393   2.914  1.00  0.00    -0.038 A 
BRANCH  67  68
ATOM     68  C   UNL     1       6.734  -6.114   4.018  1.00  0.00     0.081 C 
ATOM     69  C   UNL     1       7.294  -7.450   3.476  1.00  0.00     0.111 C 
ATOM     70  C   UNL     1       5.814  -6.324   5.154  1.00  0.00     0.093 A 
ATOM     71  C   UNL     1       6.583  -8.691   3.987  1.00  0.00     0.188 C 
ATOM     72  C   UNL     1       5.477  -7.590   5.571  1.00  0.00     0.164 A 
ATOM     73  N   UNL     1       5.185  -5.359   5.890  1.00  0.00    -0.238 NA
ATOM     74  N   UNL     1       5.785  -8.781   5.001  1.00  0.00    -0.198 NA
ATOM     75  N   UNL     1       4.620  -7.402   6.635  1.00  0.00    -0.283 N 
ATOM     76  C   UNL     1       4.435  -6.037   6.737  1.00  0.00     0.206 A 
BRANCH  71  77
ATOM     77  O   UNL     1       6.881  -9.815   3.307  1.00  0.00    -0.496 OA
ATOM     78  H   UNL     1       7.456  -9.778   2.568  1.00  0.00     0.294 HD
ENDBRANCH  71  77
BRANCH  75  79
ATOM     79  C   UNL     1       4.064  -8.398   7.466  1.00  0.00     0.050 A 
ATOM     80  C   UNL     1       2.737  -8.300   7.895  1.00  0.00     0.027 A 
ATOM     81  C   UNL     1       4.862  -9.481   7.856  1.00  0.00     0.047 A 
ATOM     82  C   UNL     1       2.199  -9.315   8.688  1.00  0.00     0.004 A 
ATOM     83  C   UNL     1       4.329 -10.458   8.690  1.00  0.00     0.043 A 
ATOM     84  C   UNL     1       2.997 -10.388   9.095  1.00  0.00     0.020 A 
ATOM     85  Cl  UNL     1       5.327 -11.747   9.241  1.00  0.00    -0.084 Cl
ENDBRANCH  75  79
ENDBRANCH  67  68
ENDBRANCH  60  62
ENDBRANCH  59  60
ENDBRANCH  58  59
ENDBRANCH  57  58
ENDBRANCH   1  57
TORSDOF 17
