REMARK SMILES CCN(CCC(=O)OCCOCCOC(=O)c1ccc(-c2c3nc(c(-c4ccccc4)c4ccc([nH]4)c(-c4ccccc4)c4nc(c(-c5ccccc5)c5ccc2[nH]5)C=C4)C=C3)cc1)C(=O)c1cc(Cl)ccc1F
REMARK SMILES IDX 10 1 9 2 8 3 6 4 7 5 5 6 4 7 3 8 2 9 1 10 65 11 66 12 67 13
REMARK SMILES IDX 68 14 73 15 69 16 72 17 74 18 70 19 71 20 11 21 12 22 13 23
REMARK SMILES IDX 14 24 15 25 16 26 17 27 18 28 64 29 19 30 63 31 20 32 21 33
REMARK SMILES IDX 22 34 57 35 23 36 62 37 56 38 58 39 24 40 61 41 55 42 54 43
REMARK SMILES IDX 25 45 47 46 32 47 46 48 33 49 36 50 45 51 59 52 34 53 35 54
REMARK SMILES IDX 44 56 60 57 37 58 26 59 27 60 31 61 28 62 30 63 29 64 48 65
REMARK SMILES IDX 49 66 53 67 50 68 52 69 51 70 38 71 39 72 43 73 40 74 42 75
REMARK SMILES IDX 41 76
REMARK H PARENT 58 44 36 55
REMARK Flexibility Score: inf
ROOT
ATOM      1  C   UNL     1       3.610   5.950   1.199  1.00  0.00     0.202 C 
ENDROOT
BRANCH   1   2
ATOM      2  C   UNL     1       2.744   5.397   2.554  1.00  0.00     0.261 C 
BRANCH   2   3
ATOM      3  O   UNL     1       1.524   6.135   2.811  1.00  0.00    -0.463 OA
BRANCH   3   4
ATOM      4  C   UNL     1       0.251   5.671   2.846  1.00  0.00     0.307 C 
ATOM      5  O   UNL     1      -0.664   6.479   3.010  1.00  0.00    -0.252 OA
BRANCH   4   6
ATOM      6  C   UNL     1      -0.056   4.187   2.742  1.00  0.00     0.144 C 
BRANCH   6   7
ATOM      7  C   UNL     1      -0.188   3.497   1.376  1.00  0.00     0.131 C 
BRANCH   7   8
ATOM      8  N   UNL     1       0.881   2.539   1.091  1.00  0.00    -0.338 N 
BRANCH   8   9
ATOM      9  C   UNL     1       0.596   1.123   1.366  1.00  0.00     0.116 C 
ATOM     10  C   UNL     1       0.672   0.248   0.117  1.00  0.00     0.027 C 
ENDBRANCH   8   9
BRANCH   8  11
ATOM     11  C   UNL     1       2.165   2.834   0.658  1.00  0.00     0.256 C 
ATOM     12  O   UNL     1       3.032   1.957   0.619  1.00  0.00    -0.269 OA
BRANCH  11  13
ATOM     13  C   UNL     1       2.639   4.188   0.316  1.00  0.00     0.077 A 
ATOM     14  C   UNL     1       4.428   4.217   0.001  1.00  0.00     0.037 A 
ATOM     15  C   UNL     1       1.720   5.770   0.254  1.00  0.00     0.136 A 
ATOM     16  C   UNL     1       5.237   5.763  -0.435  1.00  0.00     0.042 A 
ATOM     17  C   UNL     1       2.561   7.312  -0.159  1.00  0.00     0.041 A 
ATOM     18  F   UNL     1       0.391   5.872   0.316  1.00  0.00    -0.206 F 
ATOM     19  Cl  UNL     1       6.929   5.807  -0.726  1.00  0.00    -0.084 Cl
ATOM     20  C   UNL     1       4.319   7.289  -0.515  1.00  0.00     0.023 A 
ENDBRANCH  11  13
ENDBRANCH   8  11
ENDBRANCH   7   8
ENDBRANCH   6   7
ENDBRANCH   4   6
ENDBRANCH   3   4
ENDBRANCH   2   3
ENDBRANCH   1   2
BRANCH   1  21
ATOM     21  O   UNL     1       3.353   5.598  -0.755  1.00  0.00    -0.374 OA
BRANCH  21  22
ATOM     22  C   UNL     1       2.403   5.566  -1.988  1.00  0.00     0.202 C 
BRANCH  22  23
ATOM     23  C   UNL     1       2.768   4.547  -3.094  1.00  0.00     0.261 C 
BRANCH  23  24
ATOM     24  O   UNL     1       3.458   3.394  -2.617  1.00  0.00    -0.460 OA
BRANCH  24  25
ATOM     25  C   UNL     1       4.619   3.130  -3.270  1.00  0.00     0.338 C 
ATOM     26  O   UNL     1       5.043   3.665  -4.271  1.00  0.00    -0.246 OA
BRANCH  25  27
ATOM     27  C   UNL     1       5.415   2.191  -2.456  1.00  0.00     0.060 A 
ATOM     28  C   UNL     1       6.725   2.574  -2.149  1.00  0.00     0.016 A 
ATOM     29  C   UNL     1       4.889   0.996  -1.958  1.00  0.00     0.016 A 
ATOM     30  C   UNL     1       7.507   1.779  -1.316  1.00  0.00     0.010 A 
ATOM     31  C   UNL     1       5.690   0.173  -1.160  1.00  0.00     0.010 A 
ATOM     32  C   UNL     1       7.006   0.555  -0.848  1.00  0.00    -0.014 A 
BRANCH  32  33
ATOM     33  C   UNL     1       7.961  -0.431  -0.293  1.00  0.00     0.031 A 
ATOM     34  C   UNL     1       8.741  -1.253  -1.283  1.00  0.00     0.074 A 
ATOM     35  C   UNL     1       8.171  -0.580   1.027  1.00  0.00     0.049 A 
ATOM     36  N   UNL     1       9.676  -2.142  -1.074  1.00  0.00    -0.248 NA
ATOM     37  C   UNL     1       8.424  -1.030  -2.705  1.00  0.00     0.031 C 
ATOM     38  C   UNL     1       7.512   0.177   2.089  1.00  0.00     0.029 A 
ATOM     39  N   UNL     1       9.016  -1.433   1.695  1.00  0.00    -0.354 N 
ATOM     40  C   UNL     1      10.074  -2.562  -2.337  1.00  0.00     0.074 A 
ATOM     41  C   UNL     1       9.261  -1.860  -3.303  1.00  0.00     0.031 C 
ATOM     42  C   UNL     1       7.975  -0.251   3.280  1.00  0.00     0.029 A 
ATOM     43  C   UNL     1       8.946  -1.324   3.063  1.00  0.00     0.049 A 
ATOM     44  H   UNL     1       9.616  -2.063   1.236  1.00  0.00     0.167 HD
ATOM     45  C   UNL     1      11.034  -3.453  -2.670  1.00  0.00     0.031 A 
ATOM     46  C   UNL     1       9.586  -2.024   4.021  1.00  0.00     0.031 A 
ATOM     47  C   UNL     1      11.799  -4.207  -1.720  1.00  0.00     0.049 A 
ATOM     48  C   UNL     1      10.569  -3.100   3.622  1.00  0.00     0.074 A 
ATOM     49  C   UNL     1      12.772  -5.160  -1.959  1.00  0.00     0.029 A 
ATOM     50  N   UNL     1      11.656  -4.107  -0.346  1.00  0.00    -0.354 N 
ATOM     51  N   UNL     1      10.972  -3.455   2.425  1.00  0.00    -0.248 NA
ATOM     52  C   UNL     1      11.191  -3.868   4.713  1.00  0.00     0.031 C 
ATOM     53  C   UNL     1      13.180  -5.678  -0.726  1.00  0.00     0.029 A 
ATOM     54  C   UNL     1      12.505  -5.003   0.278  1.00  0.00     0.049 A 
ATOM     55  H   UNL     1      11.043  -3.491   0.116  1.00  0.00     0.167 HD
ATOM     56  C   UNL     1      11.914  -4.460   2.622  1.00  0.00     0.074 A 
ATOM     57  C   UNL     1      12.035  -4.647   4.052  1.00  0.00     0.031 C 
ATOM     58  C   UNL     1      12.618  -5.166   1.703  1.00  0.00     0.031 A 
BRANCH  45  59
ATOM     59  C   UNL     1      11.263  -3.683  -4.134  1.00  0.00    -0.014 A 
ATOM     60  C   UNL     1      11.894  -2.711  -4.928  1.00  0.00     0.009 A 
ATOM     61  C   UNL     1      10.830  -4.876  -4.729  1.00  0.00     0.009 A 
ATOM     62  C   UNL     1      12.059  -2.919  -6.298  1.00  0.00     0.001 A 
ATOM     63  C   UNL     1      11.019  -5.092  -6.094  1.00  0.00     0.001 A 
ATOM     64  C   UNL     1      11.625  -4.110  -6.878  1.00  0.00     0.000 A 
ENDBRANCH  45  59
BRANCH  46  65
ATOM     65  C   UNL     1       9.315  -1.772   5.464  1.00  0.00    -0.014 A 
ATOM     66  C   UNL     1      10.314  -1.255   6.304  1.00  0.00     0.009 A 
ATOM     67  C   UNL     1       8.080  -2.129   6.027  1.00  0.00     0.009 A 
ATOM     68  C   UNL     1      10.097  -1.141   7.681  1.00  0.00     0.001 A 
ATOM     69  C   UNL     1       7.855  -1.987   7.399  1.00  0.00     0.001 A 
ATOM     70  C   UNL     1       8.868  -1.507   8.227  1.00  0.00     0.000 A 
ENDBRANCH  46  65
BRANCH  58  71
ATOM     71  C   UNL     1      13.613  -6.174   2.209  1.00  0.00    -0.014 A 
ATOM     72  C   UNL     1      13.200  -7.383   2.788  1.00  0.00     0.009 A 
ATOM     73  C   UNL     1      14.986  -5.934   2.041  1.00  0.00     0.009 A 
ATOM     74  C   UNL     1      14.145  -8.319   3.215  1.00  0.00     0.001 A 
ATOM     75  C   UNL     1      15.927  -6.883   2.440  1.00  0.00     0.001 A 
ATOM     76  C   UNL     1      15.506  -8.071   3.035  1.00  0.00     0.000 A 
ENDBRANCH  58  71
ENDBRANCH  32  33
ENDBRANCH  25  27
ENDBRANCH  24  25
ENDBRANCH  23  24
ENDBRANCH  22  23
ENDBRANCH  21  22
ENDBRANCH   1  21
TORSDOF 19
