REMARK SMILES Cc1ccccc1NC(=S)NN1C(=O)CS[C@H]1c1ccccc1C(=O)OCCOCCOC(=O)c1ccc(-c2c3nc(c(-c4ccccc4)c4ccc([nH]4)c(-c4ccccc4)c4nc(c(-c5ccccc5)c5ccc2[nH]5)C=C4)C=C3)cc1
REMARK SMILES IDX 27 1 26 2 24 3 25 4 23 5 18 6 19 7 20 8 22 9 21 10 17 11
REMARK SMILES IDX 12 12 13 13 14 14 15 15 16 16 11 17 9 19 10 20 8 21 7 23
REMARK SMILES IDX 1 24 2 25 3 26 4 27 6 28 5 29 28 30 29 31 30 32 31 33 32 34
REMARK SMILES IDX 33 35 34 36 35 37 36 38 82 39 37 40 81 41 38 42 39 43 40 44
REMARK SMILES IDX 75 45 41 46 80 47 74 48 76 49 42 50 79 51 73 52 72 53 43 55
REMARK SMILES IDX 65 56 50 57 64 58 51 59 54 60 63 61 77 62 52 63 53 64 62 66
REMARK SMILES IDX 78 67 55 68 44 69 45 70 49 71 46 72 48 73 47 74 66 75 67 76
REMARK SMILES IDX 71 77 68 78 70 79 69 80 56 81 57 82 61 83 58 84 60 85 59 86
REMARK H PARENT 11 18 8 22 76 54 54 65
REMARK Flexibility Score: inf
ROOT
ATOM      1  C   UNL     1      -1.934   1.648  -0.690  1.00  0.00     0.261 C 
ENDROOT
BRANCH   1   2
ATOM      2  O   UNL     1      -2.298   2.743   0.690  1.00  0.00    -0.460 OA
BRANCH   2   3
ATOM      3  C   UNL     1      -3.061   3.912   1.177  1.00  0.00     0.338 C 
ATOM      4  O   UNL     1      -2.740   4.417   2.257  1.00  0.00    -0.246 OA
BRANCH   3   5
ATOM      5  C   UNL     1      -4.249   4.818   0.571  1.00  0.00     0.066 A 
ATOM      6  C   UNL     1      -5.295   4.394  -0.280  1.00  0.00     0.001 A 
ATOM      7  C   UNL     1      -6.547   5.030  -0.297  1.00  0.00     0.008 A 
ATOM      8  C   UNL     1      -6.621   6.346   0.100  1.00  0.00     0.000 A 
ATOM      9  C   UNL     1      -4.322   6.191   0.884  1.00  0.00     0.016 A 
ATOM     10  C   UNL     1      -5.467   6.962   0.573  1.00  0.00     0.001 A 
BRANCH   6  11
ATOM     11  C   UNL     1      -4.884   3.693  -1.555  1.00  0.00     0.197 C 
ATOM     12  N   UNL     1      -3.729   2.973  -1.191  1.00  0.00    -0.236 N 
ATOM     13  C   UNL     1      -4.353   1.878  -0.335  1.00  0.00     0.252 C 
ATOM     14  O   UNL     1      -4.276   1.558   0.842  1.00  0.00    -0.272 OA
ATOM     15  C   UNL     1      -5.212   1.101  -1.283  1.00  0.00     0.174 C 
ATOM     16  S   UNL     1      -6.059   2.422  -2.163  1.00  0.00    -0.120 SA
BRANCH  12  17
ATOM     17  N   UNL     1      -2.231   3.945  -1.169  1.00  0.00    -0.270 N 
ATOM     18  H   UNL     1      -2.421   4.843  -1.526  1.00  0.00     0.191 HD
BRANCH  17  19
ATOM     19  C   UNL     1      -0.770   3.858  -0.788  1.00  0.00     0.189 C 
ATOM     20  S   UNL     1      -0.454   5.441  -0.216  1.00  0.00    -0.039 S 
BRANCH  19  21
ATOM     21  N   UNL     1       0.320   2.736  -0.792  1.00  0.00    -0.331 N 
ATOM     22  H   UNL     1       1.043   3.086  -0.223  1.00  0.00     0.169 HD
BRANCH  21  23
ATOM     23  C   UNL     1       0.869   1.201  -1.302  1.00  0.00     0.043 A 
ATOM     24  C   UNL     1       3.165   0.568   0.101  1.00  0.00     0.046 C 
ATOM     25  C   UNL     1       1.956   0.351  -0.789  1.00  0.00    -0.028 A 
ATOM     26  C   UNL     1       2.069  -1.075  -1.155  1.00  0.00     0.005 A 
ATOM     27  C   UNL     1       1.216  -1.735  -1.995  1.00  0.00     0.000 A 
ATOM     28  C   UNL     1       0.242   0.457  -2.327  1.00  0.00     0.026 A 
ATOM     29  C   UNL     1       0.319  -0.937  -2.627  1.00  0.00     0.002 A 
ENDBRANCH  21  23
ENDBRANCH  19  21
ENDBRANCH  17  19
ENDBRANCH  12  17
ENDBRANCH   6  11
ENDBRANCH   3   5
ENDBRANCH   2   3
ENDBRANCH   1   2
BRANCH   1  30
ATOM     30  C   UNL     1      -1.927   2.153  -2.515  1.00  0.00     0.202 C 
BRANCH  30  31
ATOM     31  O   UNL     1      -0.781   2.869  -3.152  1.00  0.00    -0.374 OA
BRANCH  31  32
ATOM     32  C   UNL     1      -0.915   4.198  -3.708  1.00  0.00     0.202 C 
BRANCH  32  33
ATOM     33  C   UNL     1       0.204   4.488  -4.731  1.00  0.00     0.261 C 
BRANCH  33  34
ATOM     34  O   UNL     1       1.409   4.886  -4.031  1.00  0.00    -0.460 OA
BRANCH  34  35
ATOM     35  C   UNL     1       2.258   3.892  -3.628  1.00  0.00     0.338 C 
ATOM     36  O   UNL     1       2.373   2.809  -4.136  1.00  0.00    -0.246 OA
BRANCH  35  37
ATOM     37  C   UNL     1       2.854   4.293  -2.298  1.00  0.00     0.060 A 
ATOM     38  C   UNL     1       3.488   3.341  -1.506  1.00  0.00     0.016 A 
ATOM     39  C   UNL     1       2.574   5.507  -1.696  1.00  0.00     0.016 A 
ATOM     40  C   UNL     1       3.490   3.467  -0.088  1.00  0.00     0.010 A 
ATOM     41  C   UNL     1       2.562   5.588  -0.291  1.00  0.00     0.010 A 
ATOM     42  C   UNL     1       2.773   4.460   0.522  1.00  0.00    -0.014 A 
BRANCH  42  43
ATOM     43  C   UNL     1       2.155   4.355   1.897  1.00  0.00     0.031 A 
ATOM     44  C   UNL     1       2.595   5.405   2.885  1.00  0.00     0.074 A 
ATOM     45  C   UNL     1       1.091   3.590   2.359  1.00  0.00     0.049 A 
ATOM     46  N   UNL     1       2.265   5.455   4.139  1.00  0.00    -0.248 NA
ATOM     47  C   UNL     1       3.515   6.484   2.523  1.00  0.00     0.031 C 
ATOM     48  C   UNL     1       0.115   4.245   3.245  1.00  0.00     0.029 A 
ATOM     49  N   UNL     1       0.442   2.322   2.131  1.00  0.00    -0.354 N 
ATOM     50  C   UNL     1       2.456   6.757   4.528  1.00  0.00     0.074 A 
ATOM     51  C   UNL     1       3.437   7.264   3.603  1.00  0.00     0.031 C 
ATOM     52  C   UNL     1      -0.799   3.389   3.673  1.00  0.00     0.029 A 
ATOM     53  C   UNL     1      -0.500   2.069   3.197  1.00  0.00     0.049 A 
ATOM     54  H   UNL     1       0.614   1.724   1.368  1.00  0.00     0.167 HD
ATOM     55  C   UNL     1       1.616   7.342   5.429  1.00  0.00     0.031 A 
ATOM     56  C   UNL     1      -1.056   0.977   3.826  1.00  0.00     0.031 A 
ATOM     57  C   UNL     1       0.663   6.412   6.054  1.00  0.00     0.049 A 
ATOM     58  C   UNL     1      -1.069   1.134   5.319  1.00  0.00     0.074 A 
ATOM     59  C   UNL     1      -0.722   6.364   6.098  1.00  0.00     0.029 A 
ATOM     60  N   UNL     1       1.107   5.218   6.628  1.00  0.00    -0.354 N 
ATOM     61  N   UNL     1      -0.824   2.279   5.863  1.00  0.00    -0.248 NA
ATOM     62  C   UNL     1      -1.152   0.072   6.321  1.00  0.00     0.031 C 
ATOM     63  C   UNL     1      -1.102   5.147   6.719  1.00  0.00     0.029 A 
ATOM     64  C   UNL     1       0.044   4.455   7.079  1.00  0.00     0.049 A 
ATOM     65  H   UNL     1       2.053   4.955   6.702  1.00  0.00     0.167 HD
ATOM     66  C   UNL     1      -0.417   2.111   7.132  1.00  0.00     0.074 A 
ATOM     67  C   UNL     1      -0.721   0.724   7.419  1.00  0.00     0.031 C 
ATOM     68  C   UNL     1       0.237   3.147   7.718  1.00  0.00     0.031 A 
BRANCH  55  69
ATOM     69  C   UNL     1       1.508   8.848   5.631  1.00  0.00    -0.014 A 
ATOM     70  C   UNL     1       0.655   9.355   6.630  1.00  0.00     0.009 A 
ATOM     71  C   UNL     1       2.159   9.820   4.848  1.00  0.00     0.009 A 
ATOM     72  C   UNL     1       0.490  10.732   6.848  1.00  0.00     0.001 A 
ATOM     73  C   UNL     1       2.036  11.196   5.086  1.00  0.00     0.001 A 
ATOM     74  C   UNL     1       1.198  11.654   6.088  1.00  0.00     0.000 A 
ENDBRANCH  55  69
BRANCH  56  75
ATOM     75  C   UNL     1      -1.072  -0.346   3.211  1.00  0.00    -0.014 A 
ATOM     76  C   UNL     1      -2.248  -0.791   2.584  1.00  0.00     0.009 A 
ATOM     77  C   UNL     1       0.170  -0.793   2.812  1.00  0.00     0.009 A 
ATOM     78  C   UNL     1      -2.149  -1.366   1.327  1.00  0.00     0.001 A 
ATOM     79  C   UNL     1       0.256  -1.258   1.524  1.00  0.00     0.001 A 
ATOM     80  C   UNL     1      -0.891  -1.479   0.759  1.00  0.00     0.000 A 
ENDBRANCH  56  75
BRANCH  68  81
ATOM     81  C   UNL     1       1.035   2.990   8.961  1.00  0.00    -0.014 A 
ATOM     82  C   UNL     1       1.588   1.767   9.371  1.00  0.00     0.009 A 
ATOM     83  C   UNL     1       1.317   4.128   9.732  1.00  0.00     0.009 A 
ATOM     84  C   UNL     1       2.294   1.665  10.569  1.00  0.00     0.001 A 
ATOM     85  C   UNL     1       2.064   4.039  10.903  1.00  0.00     0.001 A 
ATOM     86  C   UNL     1       2.524   2.801  11.337  1.00  0.00     0.000 A 
ENDBRANCH  68  81
ENDBRANCH  42  43
ENDBRANCH  35  37
ENDBRANCH  34  35
ENDBRANCH  33  34
ENDBRANCH  32  33
ENDBRANCH  31  32
ENDBRANCH  30  31
ENDBRANCH   1  30
TORSDOF 19
