REMARK SMILES COc1ccc(C(=O)Nc2cc(C(=O)OCCOCCOC(=O)c3ccc(-c4c5nc(c(-c6ccccc6)c6ccc([nH]6)c(-c6ccccc6)c6nc(c(-c7ccccc7)c7ccc4[nH]7)C=C6)C=C5)cc3)c(Cl)cc2Cl)cc1Cl
REMARK SMILES IDX 17 1 16 2 15 3 13 4 14 5 12 6 10 7 11 8 75 9 74 10 76 11
REMARK SMILES IDX 72 12 73 13 9 14 7 15 8 16 6 18 3 19 4 20 78 21 5 22 77 23
REMARK SMILES IDX 79 24 2 25 1 26 18 27 19 28 20 29 21 30 22 31 23 32 24 33
REMARK SMILES IDX 25 34 71 35 26 36 70 37 27 38 28 39 29 40 64 41 30 42 69 43
REMARK SMILES IDX 63 44 65 45 31 46 68 47 62 48 61 49 32 51 54 52 39 53 53 54
REMARK SMILES IDX 40 55 43 56 52 57 66 58 41 59 42 60 51 62 67 63 44 64 33 65
REMARK SMILES IDX 34 66 38 67 35 68 37 69 36 70 55 71 56 72 60 73 57 74 59 75
REMARK SMILES IDX 58 76 45 77 46 78 50 79 47 80 49 81 48 82
REMARK H PARENT 9 17 65 50 43 61
REMARK Flexibility Score: inf
ROOT
ATOM      1  C   UNL     1       5.649   3.145  -0.391  1.00  0.00     0.202 C 
ENDROOT
BRANCH   1   2
ATOM      2  C   UNL     1       6.702   3.175   0.721  1.00  0.00     0.261 C 
BRANCH   2   3
ATOM      3  O   UNL     1       6.468   2.210   1.758  1.00  0.00    -0.460 OA
BRANCH   3   4
ATOM      4  C   UNL     1       6.281   2.734   2.992  1.00  0.00     0.339 C 
ATOM      5  O   UNL     1       6.274   3.915   3.298  1.00  0.00    -0.246 OA
BRANCH   4   6
ATOM      6  C   UNL     1       5.892   1.690   3.957  1.00  0.00     0.080 A 
ATOM      7  C   UNL     1       4.381   1.096   5.768  1.00  0.00     0.061 A 
ATOM      8  C   UNL     1       4.728   1.939   4.711  1.00  0.00     0.045 A 
ATOM      9  C   UNL     1       5.229   0.028   6.095  1.00  0.00     0.066 A 
ATOM     10  C   UNL     1       6.338  -0.266   5.298  1.00  0.00     0.044 A 
ATOM     11  Cl  UNL     1       4.884  -1.004   7.437  1.00  0.00    -0.082 Cl
ATOM     12  C   UNL     1       6.672   0.561   4.222  1.00  0.00     0.057 A 
ATOM     13  Cl  UNL     1       8.078   0.150   3.312  1.00  0.00    -0.083 Cl
BRANCH   7  14
ATOM     14  N   UNL     1       3.232   1.336   6.542  1.00  0.00    -0.321 N 
ATOM     15  C   UNL     1       1.981   1.766   6.160  1.00  0.00     0.255 C 
ATOM     16  O   UNL     1       1.233   2.278   6.989  1.00  0.00    -0.269 OA
ATOM     17  H   UNL     1       3.339   1.171   7.507  1.00  0.00     0.170 HD
BRANCH  15  18
ATOM     18  C   UNL     1       1.444   1.458   4.800  1.00  0.00     0.041 A 
ATOM     19  C   UNL     1       0.167   0.756   2.367  1.00  0.00     0.137 A 
ATOM     20  C   UNL     1      -0.231   1.884   3.100  1.00  0.00     0.049 A 
ATOM     21  C   UNL     1       1.183  -0.050   2.892  1.00  0.00     0.083 A 
ATOM     22  C   UNL     1       0.392   2.231   4.305  1.00  0.00     0.018 A 
ATOM     23  C   UNL     1       1.818   0.306   4.096  1.00  0.00     0.038 A 
ATOM     24  Cl  UNL     1       1.671  -1.565   2.218  1.00  0.00    -0.080 Cl
BRANCH  19  25
ATOM     25  O   UNL     1      -0.601   0.557   1.253  1.00  0.00    -0.495 OA
ATOM     26  C   UNL     1      -0.014  -0.054   0.112  1.00  0.00     0.278 C 
ENDBRANCH  19  25
ENDBRANCH  15  18
ENDBRANCH   7  14
ENDBRANCH   4   6
ENDBRANCH   3   4
ENDBRANCH   2   3
ENDBRANCH   1   2
BRANCH   1  27
ATOM     27  O   UNL     1       4.267   3.157  -0.065  1.00  0.00    -0.374 OA
BRANCH  27  28
ATOM     28  C   UNL     1       3.747   2.190   0.832  1.00  0.00     0.202 C 
BRANCH  28  29
ATOM     29  C   UNL     1       3.969   0.685   0.600  1.00  0.00     0.261 C 
BRANCH  29  30
ATOM     30  O   UNL     1       5.078   0.303  -0.206  1.00  0.00    -0.460 OA
BRANCH  30  31
ATOM     31  C   UNL     1       4.770   0.055  -1.502  1.00  0.00     0.338 C 
ATOM     32  O   UNL     1       3.696   0.184  -2.064  1.00  0.00    -0.246 OA
BRANCH  31  33
ATOM     33  C   UNL     1       6.002  -0.380  -2.164  1.00  0.00     0.060 A 
ATOM     34  C   UNL     1       6.690   0.513  -2.989  1.00  0.00     0.016 A 
ATOM     35  C   UNL     1       6.461  -1.683  -1.960  1.00  0.00     0.016 A 
ATOM     36  C   UNL     1       7.863   0.101  -3.614  1.00  0.00     0.010 A 
ATOM     37  C   UNL     1       7.633  -2.093  -2.589  1.00  0.00     0.010 A 
ATOM     38  C   UNL     1       8.332  -1.206  -3.425  1.00  0.00    -0.014 A 
BRANCH  38  39
ATOM     39  C   UNL     1       9.528  -1.676  -4.155  1.00  0.00     0.031 A 
ATOM     40  C   UNL     1       9.356  -2.591  -5.332  1.00  0.00     0.074 A 
ATOM     41  C   UNL     1      10.751  -1.293  -3.747  1.00  0.00     0.049 A 
ATOM     42  N   UNL     1      10.269  -3.163  -6.071  1.00  0.00    -0.248 NA
ATOM     43  C   UNL     1       7.973  -2.911  -5.723  1.00  0.00     0.031 C 
ATOM     44  C   UNL     1      11.024  -0.395  -2.623  1.00  0.00     0.029 A 
ATOM     45  N   UNL     1      11.993  -1.622  -4.223  1.00  0.00    -0.354 N 
ATOM     46  C   UNL     1       9.574  -3.922  -7.004  1.00  0.00     0.074 A 
ATOM     47  C   UNL     1       8.165  -3.759  -6.723  1.00  0.00     0.031 C 
ATOM     48  C   UNL     1      12.353  -0.249  -2.494  1.00  0.00     0.029 A 
ATOM     49  C   UNL     1      13.021  -1.076  -3.495  1.00  0.00     0.049 A 
ATOM     50  H   UNL     1      12.134  -2.195  -5.011  1.00  0.00     0.167 HD
ATOM     51  C   UNL     1      10.073  -4.685  -8.004  1.00  0.00     0.031 A 
ATOM     52  C   UNL     1      14.352  -1.249  -3.608  1.00  0.00     0.031 A 
ATOM     53  C   UNL     1      11.479  -4.845  -8.265  1.00  0.00     0.049 A 
ATOM     54  C   UNL     1      14.875  -2.148  -4.696  1.00  0.00     0.074 A 
ATOM     55  C   UNL     1      12.090  -5.564  -9.277  1.00  0.00     0.029 A 
ATOM     56  N   UNL     1      12.491  -4.286  -7.500  1.00  0.00    -0.354 N 
ATOM     57  N   UNL     1      14.209  -2.817  -5.608  1.00  0.00    -0.248 NA
ATOM     58  C   UNL     1      16.333  -2.311  -4.776  1.00  0.00     0.031 C 
ATOM     59  C   UNL     1      13.472  -5.497  -9.082  1.00  0.00     0.029 A 
ATOM     60  C   UNL     1      13.723  -4.676  -7.994  1.00  0.00     0.049 A 
ATOM     61  H   UNL     1      12.353  -3.700  -6.721  1.00  0.00     0.167 HD
ATOM     62  C   UNL     1      15.167  -3.455  -6.385  1.00  0.00     0.074 A 
ATOM     63  C   UNL     1      16.459  -3.076  -5.851  1.00  0.00     0.031 C 
ATOM     64  C   UNL     1      14.996  -4.284  -7.444  1.00  0.00     0.031 A 
BRANCH  51  65
ATOM     65  C   UNL     1       9.098  -5.435  -8.869  1.00  0.00    -0.014 A 
ATOM     66  C   UNL     1       8.271  -4.771  -9.788  1.00  0.00     0.009 A 
ATOM     67  C   UNL     1       9.051  -6.837  -8.803  1.00  0.00     0.009 A 
ATOM     68  C   UNL     1       7.400  -5.496 -10.606  1.00  0.00     0.001 A 
ATOM     69  C   UNL     1       8.201  -7.559  -9.641  1.00  0.00     0.001 A 
ATOM     70  C   UNL     1       7.372  -6.888 -10.538  1.00  0.00     0.000 A 
ENDBRANCH  51  65
BRANCH  52  71
ATOM     71  C   UNL     1      15.280  -0.592  -2.649  1.00  0.00    -0.014 A 
ATOM     72  C   UNL     1      16.177   0.398  -3.078  1.00  0.00     0.009 A 
ATOM     73  C   UNL     1      15.292  -0.975  -1.298  1.00  0.00     0.009 A 
ATOM     74  C   UNL     1      17.091   0.962  -2.183  1.00  0.00     0.001 A 
ATOM     75  C   UNL     1      16.182  -0.385  -0.398  1.00  0.00     0.001 A 
ATOM     76  C   UNL     1      17.090   0.573  -0.844  1.00  0.00     0.000 A 
ENDBRANCH  52  71
BRANCH  64  77
ATOM     77  C   UNL     1      16.236  -4.804  -8.116  1.00  0.00    -0.014 A 
ATOM     78  C   UNL     1      17.060  -5.755  -7.495  1.00  0.00     0.009 A 
ATOM     79  C   UNL     1      16.555  -4.369  -9.412  1.00  0.00     0.009 A 
ATOM     80  C   UNL     1      18.200  -6.232  -8.146  1.00  0.00     0.001 A 
ATOM     81  C   UNL     1      17.674  -4.874 -10.074  1.00  0.00     0.001 A 
ATOM     82  C   UNL     1      18.501  -5.796  -9.436  1.00  0.00     0.000 A 
ENDBRANCH  64  77
ENDBRANCH  38  39
ENDBRANCH  31  33
ENDBRANCH  30  31
ENDBRANCH  29  30
ENDBRANCH  28  29
ENDBRANCH  27  28
ENDBRANCH   1  27
TORSDOF 17
