REMARK SMILES C[NH+](C)[C@@H]1CC[N@@H+](Cc2ccc(C(=O)OCCOCCOC(=O)c3ccc(-c4c5nc(c(-c6ccccc6)c6ccc([nH]6)c(-c6ccccc6)c6nc(c(-c7ccccc7)c7ccc4[nH]7)C=C6)C=C5)cc3)cn2)C1
REMARK SMILES IDX 17 1 16 2 15 3 13 4 14 5 12 6 9 7 10 8 73 9 11 10 72 11 8 12
REMARK SMILES IDX 7 13 4 14 5 15 74 16 6 17 2 19 1 20 3 21 18 23 19 24 20 25
REMARK SMILES IDX 21 26 22 27 23 28 24 29 25 30 71 31 26 32 70 33 27 34 28 35
REMARK SMILES IDX 29 36 64 37 30 38 69 39 63 40 65 41 31 42 68 43 62 44 61 45
REMARK SMILES IDX 32 47 54 48 39 49 53 50 40 51 43 52 52 53 66 54 41 55 42 56
REMARK SMILES IDX 51 58 67 59 44 60 33 61 34 62 38 63 35 64 37 65 36 66 55 67
REMARK SMILES IDX 56 68 60 69 57 70 59 71 58 72 45 73 46 74 50 75 47 76 49 77
REMARK SMILES IDX 48 78
REMARK H PARENT 7 18 2 22 65 46 43 57
REMARK Flexibility Score: inf
ROOT
ATOM      1  C   UNL     1       4.137  -1.493   9.769  1.00  0.00     0.202 C 
ENDROOT
BRANCH   1   2
ATOM      2  C   UNL     1       3.835  -0.374   8.769  1.00  0.00     0.261 C 
BRANCH   2   3
ATOM      3  O   UNL     1       3.274  -0.910   7.564  1.00  0.00    -0.460 OA
BRANCH   3   4
ATOM      4  C   UNL     1       4.086  -0.842   6.485  1.00  0.00     0.339 C 
ATOM      5  O   UNL     1       5.130  -0.215   6.389  1.00  0.00    -0.246 OA
BRANCH   4   6
ATOM      6  C   UNL     1       3.625  -1.789   5.459  1.00  0.00     0.078 A 
ATOM      7  C   UNL     1       2.970  -3.430   3.366  1.00  0.00     0.095 A 
ATOM      8  C   UNL     1       1.983  -3.100   4.295  1.00  0.00     0.031 A 
ATOM      9  N   UNL     1       4.272  -3.083   3.534  1.00  0.00    -0.254 NA
ATOM     10  C   UNL     1       2.314  -2.256   5.353  1.00  0.00     0.019 A 
ATOM     11  C   UNL     1       4.571  -2.270   4.569  1.00  0.00     0.127 A 
BRANCH   7  12
ATOM     12  C   UNL     1       2.594  -3.978   2.002  1.00  0.00     0.319 C 
BRANCH  12  13
ATOM     13  N   UNL     1       2.177  -2.981   0.992  1.00  0.00    -0.325 N 
ATOM     14  C   UNL     1       1.115  -0.906   1.738  1.00  0.00     0.245 C 
ATOM     15  C   UNL     1       2.632  -0.717   1.660  1.00  0.00     0.132 C 
ATOM     16  C   UNL     1       0.873  -2.353   1.233  1.00  0.00     0.328 C 
ATOM     17  C   UNL     1       3.126  -1.875   0.804  1.00  0.00     0.269 C 
ATOM     18  H   UNL     1       2.131  -3.568   0.159  1.00  0.00     0.348 HD
BRANCH  14  19
ATOM     19  N   UNL     1       0.354   0.182   1.092  1.00  0.00    -0.333 N 
ATOM     20  C   UNL     1       0.638   0.339  -0.336  1.00  0.00     0.332 C 
ATOM     21  C   UNL     1      -1.084   0.048   1.316  1.00  0.00     0.332 C 
ATOM     22  H   UNL     1       0.680   1.036   1.545  1.00  0.00     0.348 HD
ENDBRANCH  14  19
ENDBRANCH  12  13
ENDBRANCH   7  12
ENDBRANCH   4   6
ENDBRANCH   3   4
ENDBRANCH   2   3
ENDBRANCH   1   2
BRANCH   1  23
ATOM     23  O   UNL     1       5.109  -2.470   9.402  1.00  0.00    -0.374 OA
BRANCH  23  24
ATOM     24  C   UNL     1       4.740  -3.483   8.468  1.00  0.00     0.202 C 
BRANCH  24  25
ATOM     25  C   UNL     1       3.816  -4.613   8.938  1.00  0.00     0.261 C 
BRANCH  25  26
ATOM     26  O   UNL     1       2.538  -4.146   9.399  1.00  0.00    -0.460 OA
BRANCH  26  27
ATOM     27  C   UNL     1       2.390  -4.180  10.746  1.00  0.00     0.338 C 
ATOM     28  O   UNL     1       3.185  -4.597  11.571  1.00  0.00    -0.246 OA
BRANCH  27  29
ATOM     29  C   UNL     1       1.166  -3.456  11.133  1.00  0.00     0.060 A 
ATOM     30  C   UNL     1       1.302  -2.396  12.038  1.00  0.00     0.016 A 
ATOM     31  C   UNL     1      -0.094  -3.860  10.691  1.00  0.00     0.016 A 
ATOM     32  C   UNL     1       0.171  -1.762  12.542  1.00  0.00     0.010 A 
ATOM     33  C   UNL     1      -1.230  -3.226  11.204  1.00  0.00     0.010 A 
ATOM     34  C   UNL     1      -1.103  -2.199  12.158  1.00  0.00    -0.014 A 
BRANCH  34  35
ATOM     35  C   UNL     1      -2.298  -1.667  12.854  1.00  0.00     0.031 A 
ATOM     36  C   UNL     1      -2.980  -2.510  13.896  1.00  0.00     0.074 A 
ATOM     37  C   UNL     1      -2.752  -0.430  12.585  1.00  0.00     0.049 A 
ATOM     38  N   UNL     1      -4.049  -2.249  14.604  1.00  0.00    -0.248 NA
ATOM     39  C   UNL     1      -2.378  -3.824  14.174  1.00  0.00     0.031 C 
ATOM     40  C   UNL     1      -2.154   0.500  11.628  1.00  0.00     0.029 A 
ATOM     41  N   UNL     1      -3.827   0.253  13.094  1.00  0.00    -0.354 N 
ATOM     42  C   UNL     1      -4.252  -3.366  15.406  1.00  0.00     0.074 A 
ATOM     43  C   UNL     1      -3.219  -4.322  15.069  1.00  0.00     0.031 C 
ATOM     44  C   UNL     1      -2.876   1.633  11.614  1.00  0.00     0.029 A 
ATOM     45  C   UNL     1      -4.005   1.492  12.532  1.00  0.00     0.049 A 
ATOM     46  H   UNL     1      -4.415  -0.111  13.795  1.00  0.00     0.167 HD
ATOM     47  C   UNL     1      -5.205  -3.574  16.345  1.00  0.00     0.031 A 
ATOM     48  C   UNL     1      -4.980   2.401  12.718  1.00  0.00     0.031 A 
ATOM     49  C   UNL     1      -6.244  -2.631  16.666  1.00  0.00     0.049 A 
ATOM     50  C   UNL     1      -6.078   2.114  13.707  1.00  0.00     0.074 A 
ATOM     51  C   UNL     1      -7.252  -2.744  17.607  1.00  0.00     0.029 A 
ATOM     52  N   UNL     1      -6.414  -1.402  16.046  1.00  0.00    -0.354 N 
ATOM     53  N   UNL     1      -6.246   1.065  14.476  1.00  0.00    -0.248 NA
ATOM     54  C   UNL     1      -7.115   3.144  13.861  1.00  0.00     0.031 C 
ATOM     55  C   UNL     1      -8.069  -1.613  17.511  1.00  0.00     0.029 A 
ATOM     56  C   UNL     1      -7.528  -0.761  16.562  1.00  0.00     0.049 A 
ATOM     57  H   UNL     1      -5.828  -1.039  15.342  1.00  0.00     0.167 HD
ATOM     58  C   UNL     1      -7.389   1.320  15.223  1.00  0.00     0.074 A 
ATOM     59  C   UNL     1      -7.862   2.631  14.829  1.00  0.00     0.031 C 
ATOM     60  C   UNL     1      -7.993   0.540  16.154  1.00  0.00     0.031 A 
BRANCH  47  61
ATOM     61  C   UNL     1      -5.188  -4.894  17.067  1.00  0.00    -0.014 A 
ATOM     62  C   UNL     1      -4.169  -5.218  17.978  1.00  0.00     0.009 A 
ATOM     63  C   UNL     1      -6.222  -5.819  16.853  1.00  0.00     0.009 A 
ATOM     64  C   UNL     1      -4.165  -6.455  18.627  1.00  0.00     0.001 A 
ATOM     65  C   UNL     1      -6.234  -7.041  17.528  1.00  0.00     0.001 A 
ATOM     66  C   UNL     1      -5.200  -7.363  18.405  1.00  0.00     0.000 A 
ENDBRANCH  47  61
BRANCH  48  67
ATOM     67  C   UNL     1      -4.978   3.662  11.930  1.00  0.00    -0.014 A 
ATOM     68  C   UNL     1      -4.753   4.900  12.551  1.00  0.00     0.009 A 
ATOM     69  C   UNL     1      -5.213   3.631  10.546  1.00  0.00     0.009 A 
ATOM     70  C   UNL     1      -4.790   6.081  11.806  1.00  0.00     0.001 A 
ATOM     71  C   UNL     1      -5.216   4.811   9.799  1.00  0.00     0.001 A 
ATOM     72  C   UNL     1      -5.014   6.035  10.431  1.00  0.00     0.000 A 
ENDBRANCH  48  67
BRANCH  60  73
ATOM     73  C   UNL     1      -9.211   1.101  16.838  1.00  0.00    -0.014 A 
ATOM     74  C   UNL     1     -10.427   1.264  16.155  1.00  0.00     0.009 A 
ATOM     75  C   UNL     1      -9.149   1.440  18.199  1.00  0.00     0.009 A 
ATOM     76  C   UNL     1     -11.541   1.793  16.811  1.00  0.00     0.001 A 
ATOM     77  C   UNL     1     -10.273   1.936  18.861  1.00  0.00     0.001 A 
ATOM     78  C   UNL     1     -11.464   2.124  18.163  1.00  0.00     0.000 A 
ENDBRANCH  60  73
ENDBRANCH  34  35
ENDBRANCH  27  29
ENDBRANCH  26  27
ENDBRANCH  25  26
ENDBRANCH  24  25
ENDBRANCH  23  24
ENDBRANCH   1  23
TORSDOF 17
