REMARK SMILES O=C(OCCOCCOC(=O)[C@]1(CCCCO)CCc2ccccc2C1)c1ccc(-c2c3nc(c(-c4ccccc4)c4ccc([nH]4)c(-c4ccccc4)c4nc(c(-c5ccccc5)c5ccc2[nH]5)C=C4)C=C3)cc1
REMARK SMILES IDX 7 1 6 2 5 3 4 4 3 5 2 6 1 7 27 8 28 9 74 10 29 11 73 12
REMARK SMILES IDX 30 13 31 14 32 15 67 16 33 17 72 18 66 19 68 20 34 21 71 22
REMARK SMILES IDX 65 23 64 24 35 26 57 27 42 28 56 29 43 30 46 31 55 32 69 33
REMARK SMILES IDX 44 34 45 35 54 37 70 38 47 39 36 40 37 41 41 42 38 43 40 44
REMARK SMILES IDX 39 45 58 46 59 47 63 48 60 49 62 50 61 51 48 52 49 53 53 54
REMARK SMILES IDX 50 55 52 56 51 57 8 58 9 59 10 60 11 61 12 62 18 63 26 64
REMARK SMILES IDX 19 65 25 66 20 67 24 68 21 69 23 70 22 71 13 72 14 73 15 74
REMARK SMILES IDX 16 75 17 76
REMARK H PARENT 68 25 46 36 17 77
REMARK Flexibility Score: inf
ROOT
ATOM      1  C   UNL     1       3.142   2.042   0.579  1.00  0.00     0.202 C 
ENDROOT
BRANCH   1   2
ATOM      2  O   UNL     1       4.502   1.605   0.496  1.00  0.00    -0.374 OA
BRANCH   2   3
ATOM      3  C   UNL     1       4.887   0.728  -0.569  1.00  0.00     0.202 C 
BRANCH   3   4
ATOM      4  C   UNL     1       4.432  -0.751  -0.543  1.00  0.00     0.261 C 
BRANCH   4   5
ATOM      5  O   UNL     1       3.000  -0.902  -0.406  1.00  0.00    -0.460 OA
BRANCH   5   6
ATOM      6  C   UNL     1       2.303  -1.343   0.676  1.00  0.00     0.338 C 
ATOM      7  O   UNL     1       1.125  -1.663   0.557  1.00  0.00    -0.246 OA
BRANCH   6   8
ATOM      8  C   UNL     1       2.925  -1.401   2.027  1.00  0.00     0.060 A 
ATOM      9  C   UNL     1       4.050  -0.659   2.340  1.00  0.00     0.016 A 
ATOM     10  C   UNL     1       2.353  -2.171   3.048  1.00  0.00     0.016 A 
ATOM     11  C   UNL     1       4.676  -0.715   3.548  1.00  0.00     0.010 A 
ATOM     12  C   UNL     1       2.944  -2.201   4.322  1.00  0.00     0.010 A 
ATOM     13  C   UNL     1       4.117  -1.474   4.556  1.00  0.00    -0.014 A 
BRANCH  13  14
ATOM     14  C   UNL     1       4.959  -1.550   5.750  1.00  0.00     0.031 A 
ATOM     15  C   UNL     1       5.825  -2.757   5.894  1.00  0.00     0.074 A 
ATOM     16  C   UNL     1       5.180  -0.415   6.441  1.00  0.00     0.049 A 
ATOM     17  N   UNL     1       6.674  -3.050   6.836  1.00  0.00    -0.248 NA
ATOM     18  C   UNL     1       5.753  -3.757   4.810  1.00  0.00     0.031 C 
ATOM     19  C   UNL     1       4.560   0.888   6.149  1.00  0.00     0.029 A 
ATOM     20  N   UNL     1       6.053  -0.142   7.454  1.00  0.00    -0.354 N 
ATOM     21  C   UNL     1       7.189  -4.291   6.492  1.00  0.00     0.074 A 
ATOM     22  C   UNL     1       6.591  -4.685   5.240  1.00  0.00     0.031 C 
ATOM     23  C   UNL     1       5.114   1.825   6.933  1.00  0.00     0.029 A 
ATOM     24  C   UNL     1       6.032   1.172   7.854  1.00  0.00     0.049 A 
ATOM     25  H   UNL     1       6.640  -0.821   7.858  1.00  0.00     0.167 HD
ATOM     26  C   UNL     1       8.064  -5.038   7.200  1.00  0.00     0.031 A 
ATOM     27  C   UNL     1       6.649   1.755   8.896  1.00  0.00     0.031 A 
ATOM     28  C   UNL     1       8.614  -4.590   8.448  1.00  0.00     0.049 A 
ATOM     29  C   UNL     1       7.492   0.859   9.758  1.00  0.00     0.074 A 
ATOM     30  C   UNL     1       9.375  -5.281   9.368  1.00  0.00     0.029 A 
ATOM     31  N   UNL     1       8.452  -3.299   8.939  1.00  0.00    -0.354 N 
ATOM     32  N   UNL     1       7.833  -0.394   9.553  1.00  0.00    -0.248 NA
ATOM     33  C   UNL     1       8.000   1.430  11.007  1.00  0.00     0.031 C 
ATOM     34  C   UNL     1       9.638  -4.415  10.438  1.00  0.00     0.029 A 
ATOM     35  C   UNL     1       9.088  -3.171  10.156  1.00  0.00     0.049 A 
ATOM     36  H   UNL     1       7.955  -2.580   8.484  1.00  0.00     0.167 HD
ATOM     37  C   UNL     1       8.593  -0.766  10.649  1.00  0.00     0.074 A 
ATOM     38  C   UNL     1       8.691   0.410  11.496  1.00  0.00     0.031 C 
ATOM     39  C   UNL     1       9.149  -1.967  10.946  1.00  0.00     0.031 A 
BRANCH  26  40
ATOM     40  C   UNL     1       8.329  -6.424   6.692  1.00  0.00    -0.014 A 
ATOM     41  C   UNL     1       9.122  -6.662   5.558  1.00  0.00     0.009 A 
ATOM     42  C   UNL     1       7.691  -7.509   7.314  1.00  0.00     0.009 A 
ATOM     43  C   UNL     1       9.237  -7.955   5.037  1.00  0.00     0.001 A 
ATOM     44  C   UNL     1       7.827  -8.802   6.805  1.00  0.00     0.001 A 
ATOM     45  C   UNL     1       8.590  -9.022   5.660  1.00  0.00     0.000 A 
ENDBRANCH  26  40
BRANCH  27  46
ATOM     46  C   UNL     1       6.379   3.176   9.248  1.00  0.00    -0.014 A 
ATOM     47  C   UNL     1       7.406   4.130   9.285  1.00  0.00     0.009 A 
ATOM     48  C   UNL     1       5.073   3.587   9.573  1.00  0.00     0.009 A 
ATOM     49  C   UNL     1       7.134   5.452   9.658  1.00  0.00     0.001 A 
ATOM     50  C   UNL     1       4.797   4.913   9.909  1.00  0.00     0.001 A 
ATOM     51  C   UNL     1       5.831   5.843   9.964  1.00  0.00     0.000 A 
ENDBRANCH  27  46
BRANCH  39  52
ATOM     52  C   UNL     1       9.932  -2.031  12.219  1.00  0.00    -0.014 A 
ATOM     53  C   UNL     1       9.287  -2.074  13.463  1.00  0.00     0.009 A 
ATOM     54  C   UNL     1      11.332  -2.091  12.162  1.00  0.00     0.009 A 
ATOM     55  C   UNL     1      10.037  -2.145  14.636  1.00  0.00     0.001 A 
ATOM     56  C   UNL     1      12.077  -2.190  13.334  1.00  0.00     0.001 A 
ATOM     57  C   UNL     1      11.430  -2.209  14.569  1.00  0.00     0.000 A 
ENDBRANCH  39  52
ENDBRANCH  13  14
ENDBRANCH   6   8
ENDBRANCH   5   6
ENDBRANCH   4   5
ENDBRANCH   3   4
ENDBRANCH   2   3
ENDBRANCH   1   2
BRANCH   1  58
ATOM     58  C   UNL     1       2.958   3.480   0.101  1.00  0.00     0.261 C 
BRANCH  58  59
ATOM     59  O   UNL     1       3.263   3.569  -1.297  1.00  0.00    -0.463 OA
BRANCH  59  60
ATOM     60  C   UNL     1       4.581   3.730  -1.571  1.00  0.00     0.312 C 
ATOM     61  O   UNL     1       5.438   3.974  -0.725  1.00  0.00    -0.252 OA
BRANCH  60  62
ATOM     62  C   UNL     1       4.896   3.601  -3.059  1.00  0.00     0.072 C 
ATOM     63  C   UNL     1       6.146   2.698  -3.212  1.00  0.00     0.024 C 
ATOM     64  C   UNL     1       5.292   5.060  -3.420  1.00  0.00     0.054 C 
ATOM     65  C   UNL     1       6.752   2.732  -4.608  1.00  0.00     0.037 C 
ATOM     66  C   UNL     1       6.220   5.212  -4.594  1.00  0.00    -0.044 A 
ATOM     67  C   UNL     1       6.939   4.130  -5.125  1.00  0.00    -0.045 A 
ATOM     68  C   UNL     1       6.431   6.501  -5.104  1.00  0.00     0.004 A 
ATOM     69  C   UNL     1       7.827   4.351  -6.186  1.00  0.00     0.004 A 
ATOM     70  C   UNL     1       7.326   6.710  -6.149  1.00  0.00     0.000 A 
ATOM     71  C   UNL     1       8.020   5.635  -6.692  1.00  0.00     0.000 A 
BRANCH  62  72
ATOM     72  C   UNL     1       3.683   3.163  -3.958  1.00  0.00     0.019 C 
BRANCH  72  73
ATOM     73  C   UNL     1       3.248   1.681  -4.044  1.00  0.00     0.004 C 
BRANCH  73  74
ATOM     74  C   UNL     1       2.289   1.122  -2.984  1.00  0.00     0.028 C 
BRANCH  74  75
ATOM     75  C   UNL     1       0.934   1.794  -2.824  1.00  0.00     0.156 C 
BRANCH  75  76
ATOM     76  O   UNL     1       0.055   1.427  -3.872  1.00  0.00    -0.396 OA
ATOM     77  H   UNL     1       0.429   1.706  -4.722  1.00  0.00     0.210 HD
ENDBRANCH  75  76
ENDBRANCH  74  75
ENDBRANCH  73  74
ENDBRANCH  72  73
ENDBRANCH  62  72
ENDBRANCH  60  62
ENDBRANCH  59  60
ENDBRANCH  58  59
ENDBRANCH   1  58
TORSDOF 19
