REMARK SMILES CC[C@@](C)(C(=O)OCCOCCOC(=O)c1ccc(-c2c3nc(c(-c4ccccc4)c4ccc([nH]4)c(-c4ccccc4)c4nc(c(-c5ccccc5)c5ccc2[nH]5)C=C4)C=C3)cc1)n1nnnc1Cc1cccs1
REMARK SMILES IDX 9 1 8 2 7 3 5 4 6 5 3 6 4 7 2 8 1 9 64 10 65 11 68 12 66 13
REMARK SMILES IDX 67 14 69 15 70 16 71 17 74 18 72 19 73 20 10 21 11 22 12 23
REMARK SMILES IDX 13 24 14 25 15 26 16 27 17 28 63 29 18 30 62 31 19 32 20 33
REMARK SMILES IDX 21 34 56 35 22 36 61 37 55 38 57 39 23 40 60 41 54 42 53 43
REMARK SMILES IDX 24 45 46 46 31 47 45 48 32 49 35 50 44 51 58 52 33 53 34 54
REMARK SMILES IDX 43 56 59 57 36 58 25 59 26 60 30 61 27 62 29 63 28 64 47 65
REMARK SMILES IDX 48 66 52 67 49 68 51 69 50 70 37 71 38 72 42 73 39 74 41 75
REMARK SMILES IDX 40 76
REMARK H PARENT 57 44 35 55
REMARK Flexibility Score: inf
ROOT
ATOM      1  C   UNL     1      -1.259  -4.546   3.977  1.00  0.00     0.202 C 
ENDROOT
BRANCH   1   2
ATOM      2  C   UNL     1      -0.736  -3.184   4.447  1.00  0.00     0.261 C 
BRANCH   2   3
ATOM      3  O   UNL     1      -0.274  -2.354   3.352  1.00  0.00    -0.461 OA
BRANCH   3   4
ATOM      4  C   UNL     1       0.992  -1.851   3.463  1.00  0.00     0.334 C 
ATOM      5  O   UNL     1       1.770  -2.177   4.352  1.00  0.00    -0.249 OA
BRANCH   4   6
ATOM      6  C   UNL     1       1.318  -0.799   2.390  1.00  0.00     0.160 C 
ATOM      7  C   UNL     1       0.728   0.510   2.977  1.00  0.00     0.050 C 
BRANCH   6   8
ATOM      8  C   UNL     1       0.640  -1.091   1.022  1.00  0.00     0.039 C 
ATOM      9  C   UNL     1       0.915  -0.052  -0.064  1.00  0.00     0.007 C 
ENDBRANCH   6   8
BRANCH   6  10
ATOM     10  N   UNL     1       2.781  -0.731   2.229  1.00  0.00    -0.212 N 
ATOM     11  N   UNL     1       3.421   0.449   2.358  1.00  0.00    -0.044 NA
ATOM     12  C   UNL     1       3.710  -1.698   1.879  1.00  0.00     0.157 A 
ATOM     13  N   UNL     1       4.698   0.199   2.124  1.00  0.00    -0.024 NA
ATOM     14  N   UNL     1       4.894  -1.120   1.829  1.00  0.00    -0.113 NA
BRANCH  12  15
ATOM     15  C   UNL     1       3.439  -3.149   1.731  1.00  0.00     0.125 C 
BRANCH  15  16
ATOM     16  C   UNL     1       4.012  -3.828   0.518  1.00  0.00     0.012 A 
ATOM     17  C   UNL     1       5.217  -4.494   0.400  1.00  0.00     0.016 A 
ATOM     18  S   UNL     1       3.087  -3.971  -0.921  1.00  0.00    -0.148 S 
ATOM     19  C   UNL     1       5.321  -5.218  -0.825  1.00  0.00     0.012 A 
ATOM     20  C   UNL     1       4.208  -5.052  -1.619  1.00  0.00     0.065 A 
ENDBRANCH  15  16
ENDBRANCH  12  15
ENDBRANCH   6  10
ENDBRANCH   4   6
ENDBRANCH   3   4
ENDBRANCH   2   3
ENDBRANCH   1   2
BRANCH   1  21
ATOM     21  O   UNL     1      -0.307  -5.549   3.620  1.00  0.00    -0.374 OA
BRANCH  21  22
ATOM     22  C   UNL     1       0.633  -5.236   2.606  1.00  0.00     0.202 C 
BRANCH  22  23
ATOM     23  C   UNL     1       0.150  -5.194   1.147  1.00  0.00     0.261 C 
BRANCH  23  24
ATOM     24  O   UNL     1      -1.243  -4.956   0.998  1.00  0.00    -0.460 OA
BRANCH  24  25
ATOM     25  C   UNL     1      -1.975  -6.092   1.007  1.00  0.00     0.338 C 
ATOM     26  O   UNL     1      -1.577  -7.247   1.015  1.00  0.00    -0.246 OA
BRANCH  25  27
ATOM     27  C   UNL     1      -3.378  -5.715   1.179  1.00  0.00     0.060 A 
ATOM     28  C   UNL     1      -4.042  -6.210   2.306  1.00  0.00     0.016 A 
ATOM     29  C   UNL     1      -4.026  -4.900   0.247  1.00  0.00     0.016 A 
ATOM     30  C   UNL     1      -5.390  -5.934   2.477  1.00  0.00     0.010 A 
ATOM     31  C   UNL     1      -5.380  -4.628   0.418  1.00  0.00     0.010 A 
ATOM     32  C   UNL     1      -6.069  -5.179   1.511  1.00  0.00    -0.014 A 
BRANCH  32  33
ATOM     33  C   UNL     1      -7.542  -5.117   1.565  1.00  0.00     0.031 A 
ATOM     34  C   UNL     1      -8.327  -6.045   0.685  1.00  0.00     0.074 A 
ATOM     35  C   UNL     1      -8.150  -4.282   2.423  1.00  0.00     0.049 A 
ATOM     36  N   UNL     1      -9.622  -6.181   0.574  1.00  0.00    -0.248 NA
ATOM     37  C   UNL     1      -7.548  -6.941  -0.189  1.00  0.00     0.031 C 
ATOM     38  C   UNL     1      -7.467  -3.378   3.349  1.00  0.00     0.029 A 
ATOM     39  N   UNL     1      -9.481  -4.068   2.659  1.00  0.00    -0.354 N 
ATOM     40  C   UNL     1      -9.812  -7.169  -0.385  1.00  0.00     0.074 A 
ATOM     41  C   UNL     1      -8.505  -7.575  -0.849  1.00  0.00     0.031 C 
ATOM     42  C   UNL     1      -8.389  -2.709   4.062  1.00  0.00     0.029 A 
ATOM     43  C   UNL     1      -9.720  -3.113   3.616  1.00  0.00     0.049 A 
ATOM     44  H   UNL     1     -10.197  -4.552   2.189  1.00  0.00     0.167 HD
ATOM     45  C   UNL     1     -10.977  -7.691  -0.832  1.00  0.00     0.031 A 
ATOM     46  C   UNL     1     -10.887  -2.617   4.064  1.00  0.00     0.031 A 
ATOM     47  C   UNL     1     -12.269  -7.264  -0.369  1.00  0.00     0.049 A 
ATOM     48  C   UNL     1     -12.168  -3.165   3.496  1.00  0.00     0.074 A 
ATOM     49  C   UNL     1     -13.517  -7.729  -0.740  1.00  0.00     0.029 A 
ATOM     50  N   UNL     1     -12.474  -6.259   0.566  1.00  0.00    -0.354 N 
ATOM     51  N   UNL     1     -12.339  -4.118   2.611  1.00  0.00    -0.248 NA
ATOM     52  C   UNL     1     -13.416  -2.574   3.995  1.00  0.00     0.031 C 
ATOM     53  C   UNL     1     -14.479  -6.961  -0.076  1.00  0.00     0.029 A 
ATOM     54  C   UNL     1     -13.830  -6.066   0.760  1.00  0.00     0.049 A 
ATOM     55  H   UNL     1     -11.760  -5.757   1.022  1.00  0.00     0.167 HD
ATOM     56  C   UNL     1     -13.713  -4.262   2.468  1.00  0.00     0.074 A 
ATOM     57  C   UNL     1     -14.327  -3.309   3.372  1.00  0.00     0.031 C 
ATOM     58  C   UNL     1     -14.409  -5.106   1.666  1.00  0.00     0.031 A 
BRANCH  45  59
ATOM     59  C   UNL     1     -10.901  -8.743  -1.904  1.00  0.00    -0.014 A 
ATOM     60  C   UNL     1     -10.404 -10.029  -1.639  1.00  0.00     0.009 A 
ATOM     61  C   UNL     1     -11.353  -8.445  -3.199  1.00  0.00     0.009 A 
ATOM     62  C   UNL     1     -10.330 -10.983  -2.658  1.00  0.00     0.001 A 
ATOM     63  C   UNL     1     -11.307  -9.410  -4.207  1.00  0.00     0.001 A 
ATOM     64  C   UNL     1     -10.787 -10.675  -3.938  1.00  0.00     0.000 A 
ENDBRANCH  45  59
BRANCH  46  65
ATOM     65  C   UNL     1     -10.897  -1.542   5.091  1.00  0.00    -0.014 A 
ATOM     66  C   UNL     1     -11.386  -1.787   6.383  1.00  0.00     0.009 A 
ATOM     67  C   UNL     1     -10.422  -0.258   4.779  1.00  0.00     0.009 A 
ATOM     68  C   UNL     1     -11.423  -0.762   7.332  1.00  0.00     0.001 A 
ATOM     69  C   UNL     1     -10.432   0.756   5.739  1.00  0.00     0.001 A 
ATOM     70  C   UNL     1     -10.942   0.506   7.011  1.00  0.00     0.000 A 
ENDBRANCH  46  65
BRANCH  58  71
ATOM     71  C   UNL     1     -15.908  -5.058   1.761  1.00  0.00    -0.014 A 
ATOM     72  C   UNL     1     -16.638  -3.972   1.256  1.00  0.00     0.009 A 
ATOM     73  C   UNL     1     -16.598  -6.140   2.329  1.00  0.00     0.009 A 
ATOM     74  C   UNL     1     -18.031  -3.955   1.352  1.00  0.00     0.001 A 
ATOM     75  C   UNL     1     -17.991  -6.136   2.393  1.00  0.00     0.001 A 
ATOM     76  C   UNL     1     -18.706  -5.038   1.915  1.00  0.00     0.000 A 
ENDBRANCH  58  71
ENDBRANCH  32  33
ENDBRANCH  25  27
ENDBRANCH  24  25
ENDBRANCH  23  24
ENDBRANCH  22  23
ENDBRANCH  21  22
ENDBRANCH   1  21
TORSDOF 18
