REMARK SMILES Cc1cc(S(F)(F)(F)(F)F)cc2c1O[C@H](C(F)(F)F)C(C(=O)OCCOCCOC(=O)c1ccc(-c3c4nc(c(-c5ccccc5)c5ccc([nH]5)c(-c5ccccc5)c5nc(c(-c6ccccc6)c6ccc3[nH]6)C=C5)C=C4)cc1)=C2
REMARK SMILES IDX 27 1 26 2 25 3 24 4 23 5 21 6 22 7 20 8 1 9 2 10 3 11 13 12
REMARK SMILES IDX 4 13 12 14 14 15 11 16 80 17 15 18 5 19 6 20 7 21 8 22 9 23
REMARK SMILES IDX 10 24 16 25 17 26 18 27 19 28 28 29 29 30 30 31 31 32 32 33
REMARK SMILES IDX 33 34 79 35 34 36 78 37 35 38 36 39 37 40 72 41 38 42 77 43
REMARK SMILES IDX 71 44 73 45 39 46 76 47 70 48 69 49 40 51 62 52 47 53 61 54
REMARK SMILES IDX 48 55 51 56 60 57 74 58 49 59 50 60 59 62 75 63 52 64 41 65
REMARK SMILES IDX 42 66 46 67 43 68 45 69 44 70 63 71 64 72 68 73 65 74 67 75
REMARK SMILES IDX 66 76 53 77 54 78 58 79 55 80 57 81 56 82
REMARK H PARENT 73 50 51 61
REMARK Flexibility Score: inf
ROOT
ATOM      1  C   UNL     1      -4.672   3.404   4.012  1.00  0.00     0.202 C 
ENDROOT
BRANCH   1   2
ATOM      2  O   UNL     1      -5.942   3.662   4.591  1.00  0.00    -0.374 OA
BRANCH   2   3
ATOM      3  C   UNL     1      -6.594   2.432   4.870  1.00  0.00     0.202 C 
BRANCH   3   4
ATOM      4  C   UNL     1      -6.775   1.650   3.579  1.00  0.00     0.261 C 
BRANCH   4   5
ATOM      5  O   UNL     1      -5.505   1.392   2.999  1.00  0.00    -0.460 OA
BRANCH   5   6
ATOM      6  C   UNL     1      -4.660   2.472   2.631  1.00  0.00     0.338 C 
ATOM      7  O   UNL     1      -5.040   3.670   2.820  1.00  0.00    -0.246 OA
BRANCH   6   8
ATOM      8  C   UNL     1      -3.299   2.196   2.011  1.00  0.00     0.087 C 
ATOM      9  C   UNL     1       0.945  -0.023   0.080  1.00  0.00     0.048 C 
ATOM     10  C   UNL     1       0.438   1.391   0.309  1.00  0.00    -0.007 A 
ATOM     11  C   UNL     1       1.245   2.452  -0.041  1.00  0.00     0.031 A 
ATOM     12  C   UNL     1      -0.811   1.640   0.877  1.00  0.00     0.130 A 
ATOM     13  C   UNL     1       0.829   3.760   0.171  1.00  0.00     0.108 A 
ATOM     14  C   UNL     1      -1.232   2.972   1.086  1.00  0.00     0.019 A 
ATOM     15  O   UNL     1      -1.716   0.554   1.272  1.00  0.00    -0.475 OA
ATOM     16  C   UNL     1      -0.394   4.027   0.721  1.00  0.00     0.036 A 
ATOM     17  C   UNL     1      -2.547   3.204   1.685  1.00  0.00     0.027 C 
ATOM     18  C   UNL     1      -2.910   0.870   1.817  1.00  0.00     0.316 C 
BRANCH  13  19
ATOM     19  S   UNL     1       1.920   5.129  -0.287  1.00  0.00     0.310 S 
ATOM     20  F   UNL     1       2.612   5.174   1.139  1.00  0.00    -0.094 F 
ATOM     21  F   UNL     1       0.823   6.100   0.291  1.00  0.00    -0.094 F 
ATOM     22  F   UNL     1       2.815   6.336  -0.691  1.00  0.00    -0.094 F 
ATOM     23  F   UNL     1       3.068   4.140  -0.733  1.00  0.00    -0.094 F 
ATOM     24  F   UNL     1       1.073   3.895   0.220  1.00  0.00    -0.094 F 
ENDBRANCH  13  19
BRANCH  18  25
ATOM     25  C   UNL     1      -3.887   0.400   0.751  1.00  0.00     0.430 C 
ATOM     26  F   UNL     1      -3.686  -0.892   0.505  1.00  0.00    -0.167 F 
ATOM     27  F   UNL     1      -5.132   0.581   1.181  1.00  0.00    -0.167 F 
ATOM     28  F   UNL     1      -3.696   1.099  -0.364  1.00  0.00    -0.167 F 
ENDBRANCH  18  25
ENDBRANCH   6   8
ENDBRANCH   5   6
ENDBRANCH   4   5
ENDBRANCH   3   4
ENDBRANCH   2   3
ENDBRANCH   1   2
BRANCH   1  29
ATOM     29  C   UNL     1      -3.829   2.591   4.982  1.00  0.00     0.261 C 
BRANCH  29  30
ATOM     30  O   UNL     1      -4.481   1.361   5.260  1.00  0.00    -0.460 OA
BRANCH  30  31
ATOM     31  C   UNL     1      -5.774   1.360   5.846  1.00  0.00     0.338 C 
ATOM     32  O   UNL     1      -6.348   2.460   6.121  1.00  0.00    -0.246 OA
BRANCH  31  33
ATOM     33  C   UNL     1      -6.472   0.043   6.144  1.00  0.00     0.060 A 
ATOM     34  C   UNL     1      -7.807  -0.131   5.796  1.00  0.00     0.016 A 
ATOM     35  C   UNL     1      -5.839  -0.960   6.713  1.00  0.00     0.016 A 
ATOM     36  C   UNL     1      -8.241  -1.462   5.602  1.00  0.00     0.010 A 
ATOM     37  C   UNL     1      -6.496  -2.168   6.971  1.00  0.00     0.010 A 
ATOM     38  C   UNL     1      -7.669  -2.425   6.432  1.00  0.00    -0.014 A 
BRANCH  38  39
ATOM     39  C   UNL     1      -8.382  -3.738   6.707  1.00  0.00     0.031 A 
ATOM     40  C   UNL     1      -8.693  -4.014   8.040  1.00  0.00     0.074 A 
ATOM     41  C   UNL     1      -8.698  -4.575   5.650  1.00  0.00     0.049 A 
ATOM     42  N   UNL     1      -9.352  -5.069   8.520  1.00  0.00    -0.248 NA
ATOM     43  C   UNL     1      -8.328  -3.144   9.168  1.00  0.00     0.031 C 
ATOM     44  C   UNL     1      -8.396  -4.300   4.301  1.00  0.00     0.029 A 
ATOM     45  N   UNL     1      -9.342  -5.791   5.697  1.00  0.00    -0.354 N 
ATOM     46  C   UNL     1      -9.472  -4.974   9.846  1.00  0.00     0.074 A 
ATOM     47  C   UNL     1      -8.810  -3.737  10.282  1.00  0.00     0.031 C 
ATOM     48  C   UNL     1      -8.840  -5.340   3.549  1.00  0.00     0.029 A 
ATOM     49  C   UNL     1      -9.428  -6.283   4.414  1.00  0.00     0.049 A 
ATOM     50  H   UNL     1      -9.681  -6.233   6.509  1.00  0.00     0.167 HD
ATOM     51  C   UNL     1     -10.109  -5.868  10.707  1.00  0.00     0.031 A 
ATOM     52  C   UNL     1      -9.983  -7.484   4.001  1.00  0.00     0.031 A 
ATOM     53  C   UNL     1     -10.703  -7.048  10.289  1.00  0.00     0.049 A 
ATOM     54  C   UNL     1     -10.570  -8.407   4.870  1.00  0.00     0.074 A 
ATOM     55  C   UNL     1     -11.356  -7.957  11.143  1.00  0.00     0.029 A 
ATOM     56  N   UNL     1     -10.768  -7.551   9.008  1.00  0.00    -0.354 N 
ATOM     57  N   UNL     1     -10.725  -8.292   6.190  1.00  0.00    -0.248 NA
ATOM     58  C   UNL     1     -11.132  -9.696   4.448  1.00  0.00     0.031 C 
ATOM     59  C   UNL     1     -11.800  -8.998  10.390  1.00  0.00     0.029 A 
ATOM     60  C   UNL     1     -11.431  -8.757   9.053  1.00  0.00     0.049 A 
ATOM     61  H   UNL     1     -10.403  -7.123   8.200  1.00  0.00     0.167 HD
ATOM     62  C   UNL     1     -11.347  -9.368   6.675  1.00  0.00     0.074 A 
ATOM     63  C   UNL     1     -11.612 -10.290   5.562  1.00  0.00     0.031 C 
ATOM     64  C   UNL     1     -11.709  -9.616   8.000  1.00  0.00     0.031 A 
BRANCH  51  65
ATOM     65  C   UNL     1     -10.155  -5.528  12.188  1.00  0.00    -0.014 A 
ATOM     66  C   UNL     1     -10.801  -4.374  12.618  1.00  0.00     0.009 A 
ATOM     67  C   UNL     1      -9.618  -6.317  13.093  1.00  0.00     0.009 A 
ATOM     68  C   UNL     1     -11.276  -4.374  13.948  1.00  0.00     0.001 A 
ATOM     69  C   UNL     1      -9.687  -5.997  14.454  1.00  0.00     0.001 A 
ATOM     70  C   UNL     1     -10.495  -5.051  14.883  1.00  0.00     0.000 A 
ENDBRANCH  51  65
BRANCH  52  71
ATOM     71  C   UNL     1      -9.952  -7.815   2.518  1.00  0.00    -0.014 A 
ATOM     72  C   UNL     1     -11.120  -8.042   1.798  1.00  0.00     0.009 A 
ATOM     73  C   UNL     1      -8.801  -7.910   1.887  1.00  0.00     0.009 A 
ATOM     74  C   UNL     1     -11.047  -7.856   0.400  1.00  0.00     0.001 A 
ATOM     75  C   UNL     1      -8.755  -8.240   0.528  1.00  0.00     0.001 A 
ATOM     76  C   UNL     1      -9.845  -8.215  -0.209  1.00  0.00     0.000 A 
ENDBRANCH  52  71
BRANCH  64  77
ATOM     77  C   UNL     1     -12.453 -10.905   8.308  1.00  0.00    -0.014 A 
ATOM     78  C   UNL     1     -11.856 -12.132   8.041  1.00  0.00     0.009 A 
ATOM     79  C   UNL     1     -13.655 -10.898   8.843  1.00  0.00     0.009 A 
ATOM     80  C   UNL     1     -12.317 -13.236   8.793  1.00  0.00     0.001 A 
ATOM     81  C   UNL     1     -14.319 -12.096   9.128  1.00  0.00     0.001 A 
ATOM     82  C   UNL     1     -13.675 -13.244   9.108  1.00  0.00     0.000 A 
ENDBRANCH  64  77
ENDBRANCH  38  39
ENDBRANCH  31  33
ENDBRANCH  30  31
ENDBRANCH  29  30
ENDBRANCH   1  29
TORSDOF 16
