REMARK SMILES O=C(OCCOCCOC(=O)[C@H]1[C@H]2CC[C@H](CC2)[C@@H]1C(=O)Nc1ccc(Cc2ccncc2)cc1)c1ccc(-c2c3nc(c(-c4ccccc4)c4ccc([nH]4)c(-c4ccccc4)c4nc(c(-c5ccccc5)c5ccc2[nH]5)C=C4)C=C3)cc1
REMARK SMILES IDX 7 1 6 2 5 3 4 4 3 5 2 6 1 7 36 8 37 9 83 10 38 11 82 12
REMARK SMILES IDX 39 13 40 14 41 15 76 16 42 17 81 18 75 19 77 20 43 21 80 22
REMARK SMILES IDX 74 23 73 24 44 26 66 27 51 28 65 29 52 30 55 31 64 32 78 33
REMARK SMILES IDX 53 34 54 35 63 37 79 38 56 39 45 40 46 41 50 42 47 43 49 44
REMARK SMILES IDX 48 45 67 46 68 47 72 48 69 49 71 50 70 51 57 52 58 53 62 54
REMARK SMILES IDX 59 55 61 56 60 57 8 58 9 59 10 60 11 61 12 62 13 63 19 64
REMARK SMILES IDX 18 65 14 66 16 67 17 68 15 69 20 70 21 71 22 72 23 74 24 75
REMARK SMILES IDX 35 76 25 77 34 78 26 79 27 80 28 81 29 82 33 83 30 84 32 85
REMARK SMILES IDX 31 86
REMARK H PARENT 77 25 55 36 22 73
REMARK Flexibility Score: inf
ROOT
ATOM      1  C   UNL     1       1.821   0.616   1.142  1.00  0.00     0.202 C 
ENDROOT
BRANCH   1   2
ATOM      2  O   UNL     1       3.118   0.549   0.526  1.00  0.00    -0.374 OA
BRANCH   2   3
ATOM      3  C   UNL     1       3.603   1.811   0.067  1.00  0.00     0.202 C 
BRANCH   3   4
ATOM      4  C   UNL     1       3.768   1.909  -1.448  1.00  0.00     0.261 C 
BRANCH   4   5
ATOM      5  O   UNL     1       2.706   1.303  -2.189  1.00  0.00    -0.460 OA
BRANCH   5   6
ATOM      6  C   UNL     1       2.325   0.007  -2.127  1.00  0.00     0.338 C 
ATOM      7  O   UNL     1       1.134  -0.250  -2.308  1.00  0.00    -0.246 OA
BRANCH   6   8
ATOM      8  C   UNL     1       3.268  -1.147  -1.894  1.00  0.00     0.060 A 
ATOM      9  C   UNL     1       4.585  -1.103  -1.419  1.00  0.00     0.016 A 
ATOM     10  C   UNL     1       2.712  -2.414  -2.111  1.00  0.00     0.016 A 
ATOM     11  C   UNL     1       5.252  -2.259  -0.979  1.00  0.00     0.010 A 
ATOM     12  C   UNL     1       3.378  -3.571  -1.709  1.00  0.00     0.010 A 
ATOM     13  C   UNL     1       4.603  -3.496  -1.009  1.00  0.00    -0.014 A 
BRANCH  13  14
ATOM     14  C   UNL     1       5.315  -4.891  -0.326  1.00  0.00     0.031 A 
ATOM     15  C   UNL     1       6.238  -5.258  -1.871  1.00  0.00     0.074 A 
ATOM     16  C   UNL     1       5.183  -5.851   1.267  1.00  0.00     0.049 A 
ATOM     17  N   UNL     1       7.191  -6.153  -2.054  1.00  0.00    -0.248 NA
ATOM     18  C   UNL     1       5.964  -4.540  -3.144  1.00  0.00     0.031 C 
ATOM     19  C   UNL     1       4.403  -5.768   2.731  1.00  0.00     0.029 A 
ATOM     20  N   UNL     1       5.754  -7.174   1.694  1.00  0.00    -0.354 N 
ATOM     21  C   UNL     1       7.405  -6.292  -3.386  1.00  0.00     0.074 A 
ATOM     22  C   UNL     1       6.719  -5.197  -4.022  1.00  0.00     0.031 C 
ATOM     23  C   UNL     1       4.777  -6.712   3.603  1.00  0.00     0.029 A 
ATOM     24  C   UNL     1       5.639  -7.643   2.949  1.00  0.00     0.049 A 
ATOM     25  H   UNL     1       6.232  -7.720   1.028  1.00  0.00     0.167 HD
ATOM     26  C   UNL     1       8.020  -7.339  -3.973  1.00  0.00     0.031 A 
ATOM     27  C   UNL     1       6.185  -8.764   3.438  1.00  0.00     0.031 A 
ATOM     28  C   UNL     1       8.438  -8.535  -3.259  1.00  0.00     0.049 A 
ATOM     29  C   UNL     1       7.035  -9.601   2.510  1.00  0.00     0.074 A 
ATOM     30  C   UNL     1       9.124  -9.612  -3.784  1.00  0.00     0.029 A 
ATOM     31  N   UNL     1       8.142  -8.863  -1.918  1.00  0.00    -0.354 N 
ATOM     32  N   UNL     1       7.348  -9.411   1.243  1.00  0.00    -0.248 NA
ATOM     33  C   UNL     1       7.596 -10.817   3.095  1.00  0.00     0.031 C 
ATOM     34  C   UNL     1       9.197 -10.604  -2.806  1.00  0.00     0.029 A 
ATOM     35  C   UNL     1       8.654 -10.129  -1.614  1.00  0.00     0.049 A 
ATOM     36  H   UNL     1       7.649  -8.286  -1.290  1.00  0.00     0.167 HD
ATOM     37  C   UNL     1       8.131 -10.492   0.864  1.00  0.00     0.074 A 
ATOM     38  C   UNL     1       8.286 -11.299   2.071  1.00  0.00     0.031 C 
ATOM     39  C   UNL     1       8.670 -10.839  -0.339  1.00  0.00     0.031 A 
BRANCH  26  40
ATOM     40  C   UNL     1       8.165  -7.248  -5.463  1.00  0.00    -0.014 A 
ATOM     41  C   UNL     1       8.974  -6.256  -6.043  1.00  0.00     0.009 A 
ATOM     42  C   UNL     1       7.471  -8.131  -6.302  1.00  0.00     0.009 A 
ATOM     43  C   UNL     1       9.047  -6.119  -7.429  1.00  0.00     0.001 A 
ATOM     44  C   UNL     1       7.569  -8.011  -7.690  1.00  0.00     0.001 A 
ATOM     45  C   UNL     1       8.345  -6.998  -8.252  1.00  0.00     0.000 A 
ENDBRANCH  26  40
BRANCH  27  46
ATOM     46  C   UNL     1       5.963  -9.079   4.868  1.00  0.00    -0.014 A 
ATOM     47  C   UNL     1       7.012  -8.970   5.791  1.00  0.00     0.009 A 
ATOM     48  C   UNL     1       4.666  -9.344   5.340  1.00  0.00     0.009 A 
ATOM     49  C   UNL     1       6.764  -9.107   7.158  1.00  0.00     0.001 A 
ATOM     50  C   UNL     1       4.414  -9.437   6.708  1.00  0.00     0.001 A 
ATOM     51  C   UNL     1       5.464  -9.320   7.616  1.00  0.00     0.000 A 
ENDBRANCH  27  46
BRANCH  39  52
ATOM     52  C   UNL     1       9.422 -12.159  -0.325  1.00  0.00    -0.014 A 
ATOM     53  C   UNL     1       8.745 -13.386  -0.203  1.00  0.00     0.009 A 
ATOM     54  C   UNL     1      10.822 -12.167  -0.441  1.00  0.00     0.009 A 
ATOM     55  C   UNL     1       9.459 -14.585  -0.139  1.00  0.00     0.001 A 
ATOM     56  C   UNL     1      11.528 -13.371  -0.419  1.00  0.00     0.001 A 
ATOM     57  C   UNL     1      10.849 -14.577  -0.251  1.00  0.00     0.000 A 
ENDBRANCH  39  52
ENDBRANCH  13  14
ENDBRANCH   6   8
ENDBRANCH   5   6
ENDBRANCH   4   5
ENDBRANCH   3   4
ENDBRANCH   2   3
ENDBRANCH   1   2
BRANCH   1  58
ATOM     58  C   UNL     1       1.934   0.926   2.635  1.00  0.00     0.261 C 
BRANCH  58  59
ATOM     59  O   UNL     1       2.675   2.148   2.765  1.00  0.00    -0.463 OA
BRANCH  59  60
ATOM     60  C   UNL     1       3.717   2.105   3.631  1.00  0.00     0.310 C 
ATOM     61  O   UNL     1       3.814   1.299   4.545  1.00  0.00    -0.252 OA
BRANCH  60  62
ATOM     62  C   UNL     1       4.804   3.104   3.230  1.00  0.00     0.115 C 
ATOM     63  C   UNL     1       4.281   4.387   2.525  1.00  0.00     0.004 C 
ATOM     64  C   UNL     1       5.669   3.443   4.458  1.00  0.00     0.096 C 
ATOM     65  C   UNL     1       3.341   5.158   3.453  1.00  0.00     0.005 C 
ATOM     66  C   UNL     1       5.492   5.282   2.202  1.00  0.00     0.005 C 
ATOM     67  C   UNL     1       5.539   4.987   4.699  1.00  0.00     0.002 C 
ATOM     68  C   UNL     1       4.031   5.345   4.807  1.00  0.00     0.005 C 
ATOM     69  C   UNL     1       6.113   5.782   3.508  1.00  0.00     0.005 C 
BRANCH  64  70
ATOM     70  C   UNL     1       7.148   2.947   4.464  1.00  0.00     0.228 C 
ATOM     71  O   UNL     1       8.069   3.743   4.683  1.00  0.00    -0.274 OA
ATOM     72  N   UNL     1       7.480   1.611   4.494  1.00  0.00    -0.326 N 
ATOM     73  H   UNL     1       8.287   1.413   5.022  1.00  0.00     0.169 HD
BRANCH  72  74
ATOM     74  C   UNL     1       6.887   0.481   3.915  1.00  0.00     0.041 A 
ATOM     75  C   UNL     1       6.806  -0.718   4.626  1.00  0.00     0.026 A 
ATOM     76  C   UNL     1       6.474   0.483   2.593  1.00  0.00     0.026 A 
ATOM     77  C   UNL     1       6.073  -1.802   4.105  1.00  0.00     0.006 A 
ATOM     78  C   UNL     1       5.723  -0.574   2.087  1.00  0.00     0.006 A 
ATOM     79  C   UNL     1       5.442  -1.697   2.857  1.00  0.00    -0.043 A 
BRANCH  79  80
ATOM     80  C   UNL     1       4.389  -2.674   2.386  1.00  0.00     0.071 C 
BRANCH  80  81
ATOM     81  C   UNL     1       4.797  -3.788   1.434  1.00  0.00    -0.041 A 
ATOM     82  C   UNL     1       6.566  -4.270   1.277  1.00  0.00     0.024 A 
ATOM     83  C   UNL     1       3.457  -4.862   0.681  1.00  0.00     0.024 A 
ATOM     84  C   UNL     1       7.002  -5.793   0.375  1.00  0.00     0.111 A 
ATOM     85  C   UNL     1       3.935  -6.388  -0.234  1.00  0.00     0.111 A 
ATOM     86  N   UNL     1       5.685  -6.862  -0.390  1.00  0.00    -0.265 NA
ENDBRANCH  80  81
ENDBRANCH  79  80
ENDBRANCH  72  74
ENDBRANCH  64  70
ENDBRANCH  60  62
ENDBRANCH  59  60
ENDBRANCH  58  59
ENDBRANCH   1  58
TORSDOF 18
