REMARK SMILES O=C(CCCCCN1C(=O)/C(=C2\C(=O)Nc3ccccc32)SC1=S)OCCOCCOC(=O)c1ccc(-c2c3nc(c(-c4ccccc4)c4ccc([nH]4)c(-c4ccccc4)c4nc(c(-c5ccccc5)c5ccc2[nH]5)C=C4)C=C3)cc1
REMARK SMILES IDX 26 1 25 2 2 3 1 4 3 5 4 6 5 7 6 8 7 9 8 10 9 11 23 12 10 13
REMARK SMILES IDX 11 14 22 15 24 16 12 17 13 18 21 19 14 20 15 21 16 22 20 23
REMARK SMILES IDX 17 25 19 26 18 27 27 28 28 29 29 30 30 31 31 32 32 33 33 34
REMARK SMILES IDX 34 35 35 36 81 37 36 38 80 39 37 40 38 41 39 42 74 43 40 44
REMARK SMILES IDX 79 45 73 46 75 47 41 48 78 49 72 50 71 51 42 53 64 54 49 55
REMARK SMILES IDX 63 56 50 57 53 58 62 59 76 60 51 61 52 62 61 64 77 65 54 66
REMARK SMILES IDX 43 67 44 68 48 69 45 70 47 71 46 72 65 73 66 74 70 75 67 76
REMARK SMILES IDX 69 77 68 78 55 79 56 80 60 81 57 82 59 83 58 84
REMARK H PARENT 15 24 75 52 53 63
REMARK Flexibility Score: inf
ROOT
ATOM      1  C   UNL     1       3.577   0.528   1.425  1.00  0.00     0.261 C 
ENDROOT
BRANCH   1   2
ATOM      2  O   UNL     1       2.248   0.739   0.939  1.00  0.00    -0.463 OA
BRANCH   2   3
ATOM      3  C   UNL     1       1.883   0.910  -0.348  1.00  0.00     0.305 C 
ATOM      4  O   UNL     1       0.741   1.301  -0.588  1.00  0.00    -0.252 OA
BRANCH   3   5
ATOM      5  C   UNL     1       2.794   0.516  -1.492  1.00  0.00     0.123 C 
BRANCH   5   6
ATOM      6  C   UNL     1       3.744   1.554  -2.074  1.00  0.00     0.012 C 
BRANCH   6   7
ATOM      7  C   UNL     1       5.093   1.785  -1.390  1.00  0.00     0.002 C 
BRANCH   7   8
ATOM      8  C   UNL     1       5.900   0.543  -0.959  1.00  0.00     0.022 C 
BRANCH   8   9
ATOM      9  C   UNL     1       7.074   0.140  -1.839  1.00  0.00     0.127 C 
BRANCH   9  10
ATOM     10  N   UNL     1       8.088   1.153  -2.097  1.00  0.00    -0.293 N 
ATOM     11  C   UNL     1       8.164   2.341  -1.385  1.00  0.00     0.267 C 
ATOM     12  C   UNL     1       9.081   0.986  -3.040  1.00  0.00     0.148 C 
ATOM     13  O   UNL     1       7.896   2.523  -0.212  1.00  0.00    -0.268 OA
ATOM     14  C   UNL     1       8.742   3.341  -2.313  1.00  0.00     0.093 C 
ATOM     15  S   UNL     1       9.948   2.502  -3.224  1.00  0.00    -0.053 SA
ATOM     16  S   UNL     1       9.439  -0.364  -3.948  1.00  0.00    -0.052 S 
ATOM     17  C   UNL     1       8.135   4.494  -2.630  1.00  0.00     0.069 C 
ATOM     18  C   UNL     1       7.017   5.143  -1.840  1.00  0.00     0.257 C 
ATOM     19  C   UNL     1       8.331   5.332  -3.828  1.00  0.00     0.012 A 
ATOM     20  O   UNL     1       6.451   4.751  -0.846  1.00  0.00    -0.269 OA
ATOM     21  N   UNL     1       6.728   6.315  -2.521  1.00  0.00    -0.321 N 
ATOM     22  C   UNL     1       7.475   6.428  -3.686  1.00  0.00     0.049 A 
ATOM     23  C   UNL     1       9.034   5.170  -5.011  1.00  0.00     0.011 A 
ATOM     24  H   UNL     1       6.074   6.985  -2.217  1.00  0.00     0.170 HD
ATOM     25  C   UNL     1       7.361   7.420  -4.639  1.00  0.00     0.027 A 
ATOM     26  C   UNL     1       8.920   6.147  -6.003  1.00  0.00     0.001 A 
ATOM     27  C   UNL     1       8.107   7.274  -5.810  1.00  0.00     0.002 A 
ENDBRANCH   9  10
ENDBRANCH   8   9
ENDBRANCH   7   8
ENDBRANCH   6   7
ENDBRANCH   5   6
ENDBRANCH   3   5
ENDBRANCH   2   3
ENDBRANCH   1   2
BRANCH   1  28
ATOM     28  C   UNL     1       3.941  -0.940   1.570  1.00  0.00     0.202 C 
BRANCH  28  29
ATOM     29  O   UNL     1       3.791  -1.730   0.394  1.00  0.00    -0.374 OA
BRANCH  29  30
ATOM     30  C   UNL     1       2.609  -2.535   0.370  1.00  0.00     0.202 C 
BRANCH  30  31
ATOM     31  C   UNL     1       2.798  -3.903   1.039  1.00  0.00     0.261 C 
BRANCH  31  32
ATOM     32  O   UNL     1       3.235  -3.757   2.400  1.00  0.00    -0.460 OA
BRANCH  32  33
ATOM     33  C   UNL     1       4.581  -3.790   2.596  1.00  0.00     0.338 C 
ATOM     34  O   UNL     1       5.429  -4.160   1.804  1.00  0.00    -0.246 OA
BRANCH  33  35
ATOM     35  C   UNL     1       4.889  -3.070   3.861  1.00  0.00     0.060 A 
ATOM     36  C   UNL     1       3.962  -3.001   4.904  1.00  0.00     0.016 A 
ATOM     37  C   UNL     1       6.095  -2.355   3.952  1.00  0.00     0.016 A 
ATOM     38  C   UNL     1       4.248  -2.238   6.036  1.00  0.00     0.010 A 
ATOM     39  C   UNL     1       6.387  -1.599   5.092  1.00  0.00     0.010 A 
ATOM     40  C   UNL     1       5.475  -1.557   6.154  1.00  0.00    -0.014 A 
BRANCH  40  41
ATOM     41  C   UNL     1       5.864  -1.019   7.481  1.00  0.00     0.031 A 
ATOM     42  C   UNL     1       5.845   0.442   7.807  1.00  0.00     0.074 A 
ATOM     43  C   UNL     1       6.197  -1.921   8.425  1.00  0.00     0.049 A 
ATOM     44  N   UNL     1       5.973   1.013   8.979  1.00  0.00    -0.248 NA
ATOM     45  C   UNL     1       5.665   1.385   6.694  1.00  0.00     0.031 C 
ATOM     46  C   UNL     1       6.274  -3.367   8.203  1.00  0.00     0.029 A 
ATOM     47  N   UNL     1       6.489  -1.772   9.757  1.00  0.00    -0.354 N 
ATOM     48  C   UNL     1       5.870   2.379   8.753  1.00  0.00     0.074 A 
ATOM     49  C   UNL     1       5.712   2.555   7.324  1.00  0.00     0.031 C 
ATOM     50  C   UNL     1       6.516  -3.977   9.370  1.00  0.00     0.029 A 
ATOM     51  C   UNL     1       6.657  -2.968  10.414  1.00  0.00     0.049 A 
ATOM     52  H   UNL     1       6.569  -0.896  10.199  1.00  0.00     0.167 HD
ATOM     53  C   UNL     1       5.890   3.382   9.663  1.00  0.00     0.031 A 
ATOM     54  C   UNL     1       6.877  -3.234  11.715  1.00  0.00     0.031 A 
ATOM     55  C   UNL     1       6.072   3.189  11.082  1.00  0.00     0.049 A 
ATOM     56  C   UNL     1       6.926  -2.095  12.693  1.00  0.00     0.074 A 
ATOM     57  C   UNL     1       6.064   4.146  12.084  1.00  0.00     0.029 A 
ATOM     58  N   UNL     1       6.305   1.969  11.701  1.00  0.00    -0.354 N 
ATOM     59  N   UNL     1       6.732  -0.817  12.478  1.00  0.00    -0.248 NA
ATOM     60  C   UNL     1       7.202  -2.436  14.095  1.00  0.00     0.031 C 
ATOM     61  C   UNL     1       6.376   3.520  13.291  1.00  0.00     0.029 A 
ATOM     62  C   UNL     1       6.480   2.158  13.063  1.00  0.00     0.049 A 
ATOM     63  H   UNL     1       6.341   1.100  11.241  1.00  0.00     0.167 HD
ATOM     64  C   UNL     1       6.832  -0.204  13.720  1.00  0.00     0.074 A 
ATOM     65  C   UNL     1       7.082  -1.254  14.685  1.00  0.00     0.031 C 
ATOM     66  C   UNL     1       6.725   1.112  14.025  1.00  0.00     0.031 A 
BRANCH  53  67
ATOM     67  C   UNL     1       5.699   4.799   9.185  1.00  0.00    -0.014 A 
ATOM     68  C   UNL     1       6.732   5.739   9.347  1.00  0.00     0.009 A 
ATOM     69  C   UNL     1       4.447   5.244   8.734  1.00  0.00     0.009 A 
ATOM     70  C   UNL     1       6.506   7.095   9.100  1.00  0.00     0.001 A 
ATOM     71  C   UNL     1       4.233   6.597   8.457  1.00  0.00     0.001 A 
ATOM     72  C   UNL     1       5.257   7.523   8.655  1.00  0.00     0.000 A 
ENDBRANCH  53  67
BRANCH  54  73
ATOM     73  C   UNL     1       7.000  -4.648  12.161  1.00  0.00    -0.014 A 
ATOM     74  C   UNL     1       8.071  -5.446  11.725  1.00  0.00     0.009 A 
ATOM     75  C   UNL     1       6.018  -5.225  12.980  1.00  0.00     0.009 A 
ATOM     76  C   UNL     1       8.141  -6.796  12.075  1.00  0.00     0.001 A 
ATOM     77  C   UNL     1       6.112  -6.566  13.362  1.00  0.00     0.001 A 
ATOM     78  C   UNL     1       7.165  -7.352  12.899  1.00  0.00     0.000 A 
ENDBRANCH  54  73
BRANCH  66  79
ATOM     79  C   UNL     1       6.851   1.516  15.472  1.00  0.00    -0.014 A 
ATOM     80  C   UNL     1       5.752   2.095  16.130  1.00  0.00     0.009 A 
ATOM     81  C   UNL     1       8.074   1.426  16.153  1.00  0.00     0.009 A 
ATOM     82  C   UNL     1       5.881   2.595  17.427  1.00  0.00     0.001 A 
ATOM     83  C   UNL     1       8.190   1.890  17.465  1.00  0.00     0.001 A 
ATOM     84  C   UNL     1       7.098   2.486  18.096  1.00  0.00     0.000 A 
ENDBRANCH  66  79
ENDBRANCH  40  41
ENDBRANCH  33  35
ENDBRANCH  32  33
ENDBRANCH  31  32
ENDBRANCH  30  31
ENDBRANCH  29  30
ENDBRANCH  28  29
ENDBRANCH   1  28
TORSDOF 19
