REMARK SMILES Cc1ccccc1/[NH+]=C1\S[C@@H](CC(=O)Nc2ccc(C(=O)OCCOCCOC(=O)c3ccc(-c4c5nc(c(-c6ccccc6)c6ccc([nH]6)c(-c6ccccc6)c6nc(c(-c7ccccc7)c7ccc4[nH]7)C=C6)C=C5)cc3)cc2)C(=O)N1C
REMARK SMILES IDX 24 1 23 2 22 3 20 4 21 5 19 6 16 7 17 8 80 9 18 10 79 11
REMARK SMILES IDX 15 12 13 13 14 14 12 16 11 17 8 18 9 19 10 21 83 22 81 23
REMARK SMILES IDX 84 24 82 25 7 26 1 27 2 28 3 29 4 30 6 31 5 32 25 33 26 34
REMARK SMILES IDX 27 35 28 36 29 37 30 38 31 39 32 40 78 41 33 42 77 43 34 44
REMARK SMILES IDX 35 45 36 46 71 47 37 48 76 49 70 50 72 51 38 52 75 53 69 54
REMARK SMILES IDX 68 55 39 57 61 58 46 59 60 60 47 61 50 62 59 63 73 64 48 65
REMARK SMILES IDX 49 66 58 68 74 69 51 70 40 71 41 72 45 73 42 74 44 75 43 76
REMARK SMILES IDX 62 77 63 78 67 79 64 80 66 81 65 82 52 83 53 84 57 85 54 86
REMARK SMILES IDX 56 87 55 88
REMARK H PARENT 15 15 8 20 72 56 50 67
REMARK Flexibility Score: inf
ROOT
ATOM      1  C   UNL     1       3.941   8.128  -1.481  1.00  0.00     0.202 C 
ENDROOT
BRANCH   1   2
ATOM      2  C   UNL     1       3.653   6.835  -2.175  1.00  0.00     0.261 C 
BRANCH   2   3
ATOM      3  O   UNL     1       4.663   5.839  -1.879  1.00  0.00    -0.460 OA
BRANCH   3   4
ATOM      4  C   UNL     1       5.976   5.924  -2.238  1.00  0.00     0.338 C 
ATOM      5  O   UNL     1       6.481   6.439  -3.218  1.00  0.00    -0.246 OA
BRANCH   4   6
ATOM      6  C   UNL     1       6.726   5.236  -1.167  1.00  0.00     0.060 A 
ATOM      7  C   UNL     1       7.886   3.748   0.861  1.00  0.00     0.041 A 
ATOM      8  C   UNL     1       6.702   4.431   1.082  1.00  0.00     0.027 A 
ATOM      9  C   UNL     1       8.621   3.989  -0.295  1.00  0.00     0.027 A 
ATOM     10  C   UNL     1       6.095   5.124   0.069  1.00  0.00     0.018 A 
ATOM     11  C   UNL     1       8.030   4.740  -1.328  1.00  0.00     0.018 A 
BRANCH   7  12
ATOM     12  N   UNL     1       8.215   2.754   1.790  1.00  0.00    -0.326 N 
ATOM     13  C   UNL     1       7.280   1.849   2.283  1.00  0.00     0.226 C 
ATOM     14  O   UNL     1       7.423   1.304   3.374  1.00  0.00    -0.275 OA
ATOM     15  H   UNL     1       9.145   2.692   2.107  1.00  0.00     0.169 HD
BRANCH  13  16
ATOM     16  C   UNL     1       6.209   1.389   1.290  1.00  0.00     0.128 C 
BRANCH  16  17
ATOM     17  C   UNL     1       4.741   1.570   1.624  1.00  0.00     0.183 C 
ATOM     18  N   UNL     1       1.206   2.007   0.831  1.00  0.00    -0.234 N 
ATOM     19  C   UNL     1       2.468   2.233   0.806  1.00  0.00     0.319 C 
ATOM     20  H   UNL     1       0.676   2.712   1.266  1.00  0.00     0.313 HD
ATOM     21  S   UNL     1       3.778   1.395   0.061  1.00  0.00    -0.022 SA
ATOM     22  N   UNL     1       3.019   3.244   1.537  1.00  0.00    -0.193 N 
ATOM     23  C   UNL     1       4.189   2.882   2.180  1.00  0.00     0.324 C 
ATOM     24  C   UNL     1       2.342   4.500   1.795  1.00  0.00     0.301 C 
ATOM     25  O   UNL     1       4.636   3.451   3.169  1.00  0.00    -0.245 OA
BRANCH  18  26
ATOM     26  C   UNL     1       0.446   0.926   0.344  1.00  0.00     0.128 A 
ATOM     27  C   UNL     1       2.093  -1.072   0.604  1.00  0.00     0.049 C 
ATOM     28  C   UNL     1       0.762  -0.452   0.299  1.00  0.00    -0.004 A 
ATOM     29  C   UNL     1      -0.242  -1.387  -0.047  1.00  0.00     0.008 A 
ATOM     30  C   UNL     1      -1.556  -1.002  -0.273  1.00  0.00     0.001 A 
ATOM     31  C   UNL     1      -0.896   1.281   0.092  1.00  0.00     0.052 A 
ATOM     32  C   UNL     1      -1.887   0.339  -0.198  1.00  0.00     0.004 A 
ENDBRANCH  18  26
ENDBRANCH  16  17
ENDBRANCH  13  16
ENDBRANCH   7  12
ENDBRANCH   4   6
ENDBRANCH   3   4
ENDBRANCH   2   3
ENDBRANCH   1   2
BRANCH   1  33
ATOM     33  O   UNL     1       5.143   8.589  -2.065  1.00  0.00    -0.374 OA
BRANCH  33  34
ATOM     34  C   UNL     1       5.705   9.743  -1.484  1.00  0.00     0.202 C 
BRANCH  34  35
ATOM     35  C   UNL     1       4.825  10.972  -1.717  1.00  0.00     0.261 C 
BRANCH  35  36
ATOM     36  O   UNL     1       4.667  11.181  -3.138  1.00  0.00    -0.460 OA
BRANCH  36  37
ATOM     37  C   UNL     1       3.494  10.739  -3.674  1.00  0.00     0.338 C 
ATOM     38  O   UNL     1       2.384  10.960  -3.217  1.00  0.00    -0.246 OA
BRANCH  37  39
ATOM     39  C   UNL     1       3.765   9.713  -4.726  1.00  0.00     0.060 A 
ATOM     40  C   UNL     1       2.713   8.907  -5.202  1.00  0.00     0.016 A 
ATOM     41  C   UNL     1       5.084   9.342  -4.975  1.00  0.00     0.016 A 
ATOM     42  C   UNL     1       2.985   7.651  -5.769  1.00  0.00     0.010 A 
ATOM     43  C   UNL     1       5.339   8.071  -5.452  1.00  0.00     0.010 A 
ATOM     44  C   UNL     1       4.301   7.194  -5.806  1.00  0.00    -0.014 A 
BRANCH  44  45
ATOM     45  C   UNL     1       4.719   5.809  -6.071  1.00  0.00     0.031 A 
ATOM     46  C   UNL     1       5.623   5.537  -7.204  1.00  0.00     0.074 A 
ATOM     47  C   UNL     1       4.530   4.826  -5.156  1.00  0.00     0.049 A 
ATOM     48  N   UNL     1       5.867   4.355  -7.657  1.00  0.00    -0.248 NA
ATOM     49  C   UNL     1       6.298   6.583  -7.969  1.00  0.00     0.031 C 
ATOM     50  C   UNL     1       5.294   3.592  -4.957  1.00  0.00     0.029 A 
ATOM     51  N   UNL     1       3.571   4.747  -4.150  1.00  0.00    -0.354 N 
ATOM     52  C   UNL     1       6.995   4.453  -8.432  1.00  0.00     0.074 A 
ATOM     53  C   UNL     1       7.100   5.855  -8.749  1.00  0.00     0.031 C 
ATOM     54  C   UNL     1       4.630   2.779  -4.115  1.00  0.00     0.029 A 
ATOM     55  C   UNL     1       3.347   3.405  -3.836  1.00  0.00     0.049 A 
ATOM     56  H   UNL     1       3.122   5.515  -3.727  1.00  0.00     0.167 HD
ATOM     57  C   UNL     1       7.811   3.366  -8.539  1.00  0.00     0.031 A 
ATOM     58  C   UNL     1       2.108   2.856  -3.922  1.00  0.00     0.031 A 
ATOM     59  C   UNL     1       7.233   2.183  -7.865  1.00  0.00     0.049 A 
ATOM     60  C   UNL     1       2.194   1.775  -4.951  1.00  0.00     0.074 A 
ATOM     61  C   UNL     1       7.616   1.437  -6.761  1.00  0.00     0.029 A 
ATOM     62  N   UNL     1       5.918   1.790  -8.151  1.00  0.00    -0.354 N 
ATOM     63  N   UNL     1       3.021   1.845  -5.962  1.00  0.00    -0.248 NA
ATOM     64  C   UNL     1       1.530   0.484  -4.831  1.00  0.00     0.031 C 
ATOM     65  C   UNL     1       6.503   0.643  -6.354  1.00  0.00     0.029 A 
ATOM     66  C   UNL     1       5.448   0.878  -7.224  1.00  0.00     0.049 A 
ATOM     67  H   UNL     1       5.395   2.122  -8.916  1.00  0.00     0.167 HD
ATOM     68  C   UNL     1       3.150   0.600  -6.491  1.00  0.00     0.074 A 
ATOM     69  C   UNL     1       2.140  -0.203  -5.814  1.00  0.00     0.031 C 
ATOM     70  C   UNL     1       4.133   0.253  -7.365  1.00  0.00     0.031 A 
BRANCH  57  71
ATOM     71  C   UNL     1       9.255   3.440  -9.020  1.00  0.00    -0.014 A 
ATOM     72  C   UNL     1      10.100   2.324  -8.882  1.00  0.00     0.009 A 
ATOM     73  C   UNL     1       9.870   4.583  -9.569  1.00  0.00     0.009 A 
ATOM     74  C   UNL     1      11.461   2.363  -9.232  1.00  0.00     0.001 A 
ATOM     75  C   UNL     1      11.226   4.634  -9.924  1.00  0.00     0.001 A 
ATOM     76  C   UNL     1      12.027   3.521  -9.750  1.00  0.00     0.000 A 
ENDBRANCH  57  71
BRANCH  58  77
ATOM     77  C   UNL     1       1.006   3.830  -3.666  1.00  0.00    -0.014 A 
ATOM     78  C   UNL     1       0.751   4.186  -2.323  1.00  0.00     0.009 A 
ATOM     79  C   UNL     1       0.558   4.703  -4.669  1.00  0.00     0.009 A 
ATOM     80  C   UNL     1       0.179   5.423  -1.992  1.00  0.00     0.001 A 
ATOM     81  C   UNL     1      -0.002   5.947  -4.334  1.00  0.00     0.001 A 
ATOM     82  C   UNL     1      -0.156   6.323  -2.999  1.00  0.00     0.000 A 
ENDBRANCH  58  77
BRANCH  70  83
ATOM     83  C   UNL     1       3.916  -0.785  -8.425  1.00  0.00    -0.014 A 
ATOM     84  C   UNL     1       2.650  -1.297  -8.748  1.00  0.00     0.009 A 
ATOM     85  C   UNL     1       4.980  -1.114  -9.287  1.00  0.00     0.009 A 
ATOM     86  C   UNL     1       2.462  -2.129  -9.852  1.00  0.00     0.001 A 
ATOM     87  C   UNL     1       4.786  -1.899 -10.422  1.00  0.00     0.001 A 
ATOM     88  C   UNL     1       3.527  -2.416 -10.697  1.00  0.00     0.000 A 
ENDBRANCH  70  83
ENDBRANCH  44  45
ENDBRANCH  37  39
ENDBRANCH  36  37
ENDBRANCH  35  36
ENDBRANCH  34  35
ENDBRANCH  33  34
ENDBRANCH   1  33
TORSDOF 18
