REMARK SMILES O=C(CCCN1C(=O)/C(=C/c2cc(Br)ccc2O)SC1=S)OCCOCCOC(=O)c1ccc(-c2c3nc(c(-c4ccccc4)c4ccc([nH]4)c(-c4ccccc4)c4nc(c(-c5ccccc5)c5ccc2[nH]5)C=C4)C=C3)cc1
REMARK SMILES IDX 23 1 22 2 2 3 1 4 3 5 4 6 5 7 6 8 7 9 20 10 8 11 9 12 19 13
REMARK SMILES IDX 21 14 10 15 11 16 12 17 17 18 13 19 16 20 14 21 15 22 18 23
REMARK SMILES IDX 24 25 25 26 26 27 27 28 28 29 29 30 30 31 31 32 32 33 78 34
REMARK SMILES IDX 33 35 77 36 34 37 35 38 36 39 71 40 37 41 76 42 70 43 72 44
REMARK SMILES IDX 38 45 75 46 69 47 68 48 39 50 61 51 46 52 60 53 47 54 50 55
REMARK SMILES IDX 59 56 73 57 48 58 49 59 58 61 74 62 51 63 40 64 41 65 45 66
REMARK SMILES IDX 42 67 44 68 43 69 62 70 63 71 67 72 64 73 66 74 65 75 52 76
REMARK SMILES IDX 53 77 57 78 54 79 56 80 55 81
REMARK H PARENT 18 24 72 49 50 60
REMARK Flexibility Score: inf
ROOT
ATOM      1  C   UNL     1       3.238   0.717  -0.324  1.00  0.00     0.261 C 
ENDROOT
BRANCH   1   2
ATOM      2  O   UNL     1       2.330  -0.337  -0.701  1.00  0.00    -0.463 OA
BRANCH   2   3
ATOM      3  C   UNL     1       2.386  -1.655  -0.455  1.00  0.00     0.305 C 
ATOM      4  O   UNL     1       1.472  -2.376  -0.855  1.00  0.00    -0.252 OA
BRANCH   3   5
ATOM      5  C   UNL     1       3.566  -2.268   0.254  1.00  0.00     0.124 C 
BRANCH   5   6
ATOM      6  C   UNL     1       4.677  -2.755  -0.670  1.00  0.00     0.034 C 
BRANCH   6   7
ATOM      7  C   UNL     1       5.860  -1.808  -0.941  1.00  0.00     0.128 C 
BRANCH   7   8
ATOM      8  N   UNL     1       6.537  -1.175   0.206  1.00  0.00    -0.293 N 
ATOM      9  C   UNL     1       6.795   0.188   0.141  1.00  0.00     0.266 C 
ATOM     10  C   UNL     1       7.115  -1.824   1.280  1.00  0.00     0.148 C 
ATOM     11  O   UNL     1       6.499   0.937  -0.782  1.00  0.00    -0.268 OA
ATOM     12  C   UNL     1       7.450   0.669   1.384  1.00  0.00     0.081 C 
ATOM     13  S   UNL     1       7.751  -0.645   2.433  1.00  0.00    -0.054 SA
ATOM     14  S   UNL     1       7.269  -3.461   1.551  1.00  0.00    -0.052 S 
ATOM     15  C   UNL     1       7.686   1.973   1.577  1.00  0.00     0.033 C 
BRANCH  15  16
ATOM     16  C   UNL     1       8.231   2.610   2.779  1.00  0.00     0.019 A 
ATOM     17  C   UNL     1       7.350   3.072   3.764  1.00  0.00     0.027 A 
ATOM     18  C   UNL     1       9.604   2.844   2.926  1.00  0.00     0.122 A 
ATOM     19  C   UNL     1       7.843   3.763   4.871  1.00  0.00     0.018 A 
ATOM     20  C   UNL     1      10.096   3.527   4.039  1.00  0.00     0.048 A 
ATOM     21  Br  UNL     1       6.644   4.419   6.178  1.00  0.00    -0.051 Br
ATOM     22  C   UNL     1       9.210   3.993   5.013  1.00  0.00     0.019 A 
BRANCH  18  23
ATOM     23  O   UNL     1      10.460   2.416   1.949  1.00  0.00    -0.507 OA
ATOM     24  H   UNL     1      10.128   1.957   1.203  1.00  0.00     0.293 HD
ENDBRANCH  18  23
ENDBRANCH  15  16
ENDBRANCH   7   8
ENDBRANCH   6   7
ENDBRANCH   5   6
ENDBRANCH   3   5
ENDBRANCH   2   3
ENDBRANCH   1   2
BRANCH   1  25
ATOM     25  C   UNL     1       3.605   0.795   1.154  1.00  0.00     0.202 C 
BRANCH  25  26
ATOM     26  O   UNL     1       2.552   0.477   2.051  1.00  0.00    -0.374 OA
BRANCH  26  27
ATOM     27  C   UNL     1       1.400   1.322   2.003  1.00  0.00     0.202 C 
BRANCH  27  28
ATOM     28  C   UNL     1       1.649   2.735   2.537  1.00  0.00     0.261 C 
BRANCH  28  29
ATOM     29  O   UNL     1       2.189   3.575   1.497  1.00  0.00    -0.460 OA
BRANCH  29  30
ATOM     30  C   UNL     1       3.419   4.088   1.725  1.00  0.00     0.338 C 
ATOM     31  O   UNL     1       4.137   3.915   2.692  1.00  0.00    -0.246 OA
BRANCH  30  32
ATOM     32  C   UNL     1       3.861   4.801   0.521  1.00  0.00     0.060 A 
ATOM     33  C   UNL     1       4.973   4.325  -0.184  1.00  0.00     0.016 A 
ATOM     34  C   UNL     1       3.235   5.990   0.157  1.00  0.00     0.016 A 
ATOM     35  C   UNL     1       5.506   5.074  -1.233  1.00  0.00     0.010 A 
ATOM     36  C   UNL     1       3.762   6.731  -0.896  1.00  0.00     0.010 A 
ATOM     37  C   UNL     1       4.918   6.296  -1.572  1.00  0.00    -0.014 A 
BRANCH  37  38
ATOM     38  C   UNL     1       5.533   7.220  -2.550  1.00  0.00     0.031 A 
ATOM     39  C   UNL     1       6.159   8.482  -2.040  1.00  0.00     0.074 A 
ATOM     40  C   UNL     1       5.425   6.996  -3.869  1.00  0.00     0.049 A 
ATOM     41  N   UNL     1       6.420   9.594  -2.674  1.00  0.00    -0.248 NA
ATOM     42  C   UNL     1       6.514   8.496  -0.611  1.00  0.00     0.031 C 
ATOM     43  C   UNL     1       4.902   5.779  -4.484  1.00  0.00     0.029 A 
ATOM     44  N   UNL     1       5.706   7.823  -4.927  1.00  0.00    -0.354 N 
ATOM     45  C   UNL     1       6.911  10.463  -1.709  1.00  0.00     0.074 A 
ATOM     46  C   UNL     1       6.929   9.744  -0.453  1.00  0.00     0.031 C 
ATOM     47  C   UNL     1       4.856   5.954  -5.816  1.00  0.00     0.029 A 
ATOM     48  C   UNL     1       5.280   7.316  -6.129  1.00  0.00     0.049 A 
ATOM     49  H   UNL     1       6.165   8.689  -4.833  1.00  0.00     0.167 HD
ATOM     50  C   UNL     1       7.288  11.755  -1.860  1.00  0.00     0.031 A 
ATOM     51  C   UNL     1       5.174   7.909  -7.333  1.00  0.00     0.031 A 
ATOM     52  C   UNL     1       7.267  12.453  -3.116  1.00  0.00     0.049 A 
ATOM     53  C   UNL     1       5.550   9.357  -7.476  1.00  0.00     0.074 A 
ATOM     54  C   UNL     1       7.633  13.759  -3.388  1.00  0.00     0.029 A 
ATOM     55  N   UNL     1       6.856  11.892  -4.316  1.00  0.00    -0.354 N 
ATOM     56  N   UNL     1       5.971  10.194  -6.559  1.00  0.00    -0.248 NA
ATOM     57  C   UNL     1       5.421   9.944  -8.817  1.00  0.00     0.031 C 
ATOM     58  C   UNL     1       7.409  13.998  -4.749  1.00  0.00     0.029 A 
ATOM     59  C   UNL     1       6.945  12.828  -5.330  1.00  0.00     0.049 A 
ATOM     60  H   UNL     1       6.546  10.964  -4.429  1.00  0.00     0.167 HD
ATOM     61  C   UNL     1       6.175  11.402  -7.213  1.00  0.00     0.074 A 
ATOM     62  C   UNL     1       5.836  11.186  -8.606  1.00  0.00     0.031 C 
ATOM     63  C   UNL     1       6.604  12.585  -6.708  1.00  0.00     0.031 A 
BRANCH  50  64
ATOM     64  C   UNL     1       7.685  12.501  -0.619  1.00  0.00    -0.014 A 
ATOM     65  C   UNL     1       8.902  12.252   0.033  1.00  0.00     0.009 A 
ATOM     66  C   UNL     1       6.813  13.464  -0.087  1.00  0.00     0.009 A 
ATOM     67  C   UNL     1       9.220  12.926   1.215  1.00  0.00     0.001 A 
ATOM     68  C   UNL     1       7.144  14.153   1.081  1.00  0.00     0.001 A 
ATOM     69  C   UNL     1       8.342  13.875   1.737  1.00  0.00     0.000 A 
ENDBRANCH  50  64
BRANCH  51  70
ATOM     70  C   UNL     1       4.624   7.139  -8.476  1.00  0.00    -0.014 A 
ATOM     71  C   UNL     1       5.469   6.670  -9.491  1.00  0.00     0.009 A 
ATOM     72  C   UNL     1       3.255   6.831  -8.532  1.00  0.00     0.009 A 
ATOM     73  C   UNL     1       4.954   5.908 -10.542  1.00  0.00     0.001 A 
ATOM     74  C   UNL     1       2.746   6.051  -9.572  1.00  0.00     0.001 A 
ATOM     75  C   UNL     1       3.595   5.593 -10.577  1.00  0.00     0.000 A 
ENDBRANCH  51  70
BRANCH  63  76
ATOM     76  C   UNL     1       6.772  13.721  -7.673  1.00  0.00    -0.014 A 
ATOM     77  C   UNL     1       5.666  14.450  -8.135  1.00  0.00     0.009 A 
ATOM     78  C   UNL     1       8.061  14.100  -8.078  1.00  0.00     0.009 A 
ATOM     79  C   UNL     1       5.850  15.528  -9.004  1.00  0.00     0.001 A 
ATOM     80  C   UNL     1       8.242  15.189  -8.930  1.00  0.00     0.001 A 
ATOM     81  C   UNL     1       7.136  15.899  -9.397  1.00  0.00     0.000 A 
ENDBRANCH  63  76
ENDBRANCH  37  38
ENDBRANCH  30  32
ENDBRANCH  29  30
ENDBRANCH  28  29
ENDBRANCH  27  28
ENDBRANCH  26  27
ENDBRANCH  25  26
ENDBRANCH   1  25
TORSDOF 19
