REMARK SMILES Cc1cc(Cl)ccc1Oc1cc(C)c(N)c(C(=O)OCCOCCOC(=O)c2ccc(-c3c4nc(c(-c5ccccc5)c5ccc([nH]5)c(-c5ccccc5)c5nc(c(-c6ccccc6)c6ccc3[nH]6)C=C5)C=C4)cc2)c1
REMARK SMILES IDX 22 1 21 2 20 3 19 4 17 5 18 6 16 7 10 8 11 9 76 10 12 11
REMARK SMILES IDX 13 12 14 13 9 14 8 15 1 16 2 17 3 18 4 19 7 20 5 21 6 22
REMARK SMILES IDX 15 23 23 26 24 27 25 28 26 29 27 30 28 31 29 32 75 33 30 34
REMARK SMILES IDX 74 35 31 36 32 37 33 38 68 39 34 40 73 41 67 42 69 43 35 44
REMARK SMILES IDX 72 45 66 46 65 47 36 49 58 50 43 51 57 52 44 53 47 54 56 55
REMARK SMILES IDX 70 56 45 57 46 58 55 60 71 61 48 62 37 63 38 64 42 65 39 66
REMARK SMILES IDX 41 67 40 68 59 69 60 70 64 71 61 72 63 73 62 74 49 75 50 76
REMARK SMILES IDX 54 77 51 78 53 79 52 80
REMARK H PARENT 15 24 15 25 69 48 47 59
REMARK Flexibility Score: inf
ROOT
ATOM      1  O   UNL     1      -8.253   2.273   4.083  1.00  0.00    -0.374 OA
ENDROOT
BRANCH   1   2
ATOM      2  C   UNL     1      -8.340   0.958   4.634  1.00  0.00     0.202 C 
BRANCH   2   3
ATOM      3  C   UNL     1      -8.665  -0.162   3.641  1.00  0.00     0.261 C 
BRANCH   3   4
ATOM      4  O   UNL     1      -7.626  -0.297   2.657  1.00  0.00    -0.460 OA
BRANCH   4   5
ATOM      5  C   UNL     1      -7.981   0.076   1.401  1.00  0.00     0.340 C 
ATOM      6  O   UNL     1      -9.113   0.342   1.024  1.00  0.00    -0.246 OA
BRANCH   5   7
ATOM      7  C   UNL     1      -6.778   0.267   0.545  1.00  0.00     0.086 A 
ATOM      8  C   UNL     1      -4.518  -0.337  -0.081  1.00  0.00     0.128 A 
ATOM      9  C   UNL     1      -4.588   0.537  -1.163  1.00  0.00     0.052 A 
ATOM     10  C   UNL     1      -5.634  -0.516   0.738  1.00  0.00     0.065 A 
ATOM     11  C   UNL     1      -5.700   1.383  -1.325  1.00  0.00    -0.024 A 
ATOM     12  C   UNL     1      -5.654   2.445  -2.392  1.00  0.00     0.047 C 
ATOM     13  C   UNL     1      -6.806   1.265  -0.459  1.00  0.00     0.049 A 
BRANCH   8  14
ATOM     14  O   UNL     1      -3.425  -1.100   0.232  1.00  0.00    -0.457 OA
BRANCH  14  15
ATOM     15  C   UNL     1      -2.129  -0.643   0.105  1.00  0.00     0.130 A 
ATOM     16  C   UNL     1      -2.458   1.876   0.609  1.00  0.00     0.048 C 
ATOM     17  C   UNL     1      -1.632   0.661   0.290  1.00  0.00    -0.007 A 
ATOM     18  C   UNL     1      -0.241   0.875   0.162  1.00  0.00     0.027 A 
ATOM     19  C   UNL     1       0.638  -0.183  -0.065  1.00  0.00     0.041 A 
ATOM     20  C   UNL     1      -1.222  -1.698  -0.114  1.00  0.00     0.049 A 
ATOM     21  Cl  UNL     1       2.330   0.114  -0.159  1.00  0.00    -0.084 Cl
ATOM     22  C   UNL     1       0.153  -1.475  -0.192  1.00  0.00     0.024 A 
ENDBRANCH  14  15
ENDBRANCH   8  14
BRANCH  13  23
ATOM     23  N   UNL     1      -7.810   2.240  -0.467  1.00  0.00    -0.398 N 
ATOM     24  H   UNL     1      -7.820   2.930  -1.169  1.00  0.00     0.156 HD
ATOM     25  H   UNL     1      -8.505   2.237   0.230  1.00  0.00     0.156 HD
ENDBRANCH  13  23
ENDBRANCH   5   7
ENDBRANCH   4   5
ENDBRANCH   3   4
ENDBRANCH   2   3
ENDBRANCH   1   2
BRANCH   1  26
ATOM     26  C   UNL     1      -7.019   2.629   3.455  1.00  0.00     0.202 C 
BRANCH  26  27
ATOM     27  C   UNL     1      -5.893   3.069   4.397  1.00  0.00     0.261 C 
BRANCH  27  28
ATOM     28  O   UNL     1      -5.458   1.991   5.246  1.00  0.00    -0.460 OA
BRANCH  28  29
ATOM     29  C   UNL     1      -5.784   2.134   6.550  1.00  0.00     0.338 C 
ATOM     30  O   UNL     1      -6.287   3.115   7.085  1.00  0.00    -0.246 OA
BRANCH  29  31
ATOM     31  C   UNL     1      -5.611   0.858   7.270  1.00  0.00     0.060 A 
ATOM     32  C   UNL     1      -6.665   0.446   8.095  1.00  0.00     0.016 A 
ATOM     33  C   UNL     1      -4.429   0.115   7.207  1.00  0.00     0.016 A 
ATOM     34  C   UNL     1      -6.513  -0.667   8.916  1.00  0.00     0.010 A 
ATOM     35  C   UNL     1      -4.278  -1.005   8.035  1.00  0.00     0.010 A 
ATOM     36  C   UNL     1      -5.302  -1.371   8.927  1.00  0.00    -0.014 A 
BRANCH  36  37
ATOM     37  C   UNL     1      -5.085  -2.391   9.982  1.00  0.00     0.031 A 
ATOM     38  C   UNL     1      -4.303  -2.021  11.212  1.00  0.00     0.074 A 
ATOM     39  C   UNL     1      -5.641  -3.610   9.882  1.00  0.00     0.049 A 
ATOM     40  N   UNL     1      -4.096  -2.716  12.303  1.00  0.00    -0.248 NA
ATOM     41  C   UNL     1      -3.669  -0.693  11.215  1.00  0.00     0.031 C 
ATOM     42  C   UNL     1      -6.430  -4.089   8.748  1.00  0.00     0.029 A 
ATOM     43  N   UNL     1      -5.635  -4.664  10.761  1.00  0.00    -0.354 N 
ATOM     44  C   UNL     1      -3.309  -1.913  13.118  1.00  0.00     0.074 A 
ATOM     45  C   UNL     1      -3.045  -0.694  12.384  1.00  0.00     0.031 C 
ATOM     46  C   UNL     1      -6.838  -5.344   9.003  1.00  0.00     0.029 A 
ATOM     47  C   UNL     1      -6.330  -5.758  10.310  1.00  0.00     0.049 A 
ATOM     48  H   UNL     1      -5.175  -4.638  11.631  1.00  0.00     0.167 HD
ATOM     49  C   UNL     1      -2.854  -2.160  14.370  1.00  0.00     0.031 A 
ATOM     50  C   UNL     1      -6.537  -6.958  10.885  1.00  0.00     0.031 A 
ATOM     51  C   UNL     1      -3.106  -3.374  15.100  1.00  0.00     0.049 A 
ATOM     52  C   UNL     1      -6.005  -7.221  12.267  1.00  0.00     0.074 A 
ATOM     53  C   UNL     1      -2.722  -3.700  16.389  1.00  0.00     0.029 A 
ATOM     54  N   UNL     1      -3.796  -4.466  14.599  1.00  0.00    -0.354 N 
ATOM     55  N   UNL     1      -5.320  -6.426  13.054  1.00  0.00    -0.248 NA
ATOM     56  C   UNL     1      -6.294  -8.540  12.847  1.00  0.00     0.031 C 
ATOM     57  C   UNL     1      -3.134  -5.013  16.648  1.00  0.00     0.029 A 
ATOM     58  C   UNL     1      -3.824  -5.481  15.541  1.00  0.00     0.049 A 
ATOM     59  H   UNL     1      -4.207  -4.513  13.705  1.00  0.00     0.167 HD
ATOM     60  C   UNL     1      -5.119  -7.138  14.230  1.00  0.00     0.074 A 
ATOM     61  C   UNL     1      -5.766  -8.422  14.058  1.00  0.00     0.031 C 
ATOM     62  C   UNL     1      -4.462  -6.758  15.354  1.00  0.00     0.031 A 
BRANCH  49  63
ATOM     63  C   UNL     1      -2.002  -1.101  15.013  1.00  0.00    -0.014 A 
ATOM     64  C   UNL     1      -2.551   0.116  15.449  1.00  0.00     0.009 A 
ATOM     65  C   UNL     1      -0.631  -1.333  15.198  1.00  0.00     0.009 A 
ATOM     66  C   UNL     1      -1.735   1.094  16.021  1.00  0.00     0.001 A 
ATOM     67  C   UNL     1       0.178  -0.364  15.795  1.00  0.00     0.001 A 
ATOM     68  C   UNL     1      -0.373   0.853  16.196  1.00  0.00     0.000 A 
ENDBRANCH  49  63
BRANCH  50  69
ATOM     69  C   UNL     1      -7.298  -8.001  10.151  1.00  0.00    -0.014 A 
ATOM     70  C   UNL     1      -8.600  -8.351  10.539  1.00  0.00     0.009 A 
ATOM     71  C   UNL     1      -6.723  -8.643   9.043  1.00  0.00     0.009 A 
ATOM     72  C   UNL     1      -9.303  -9.335   9.841  1.00  0.00     0.001 A 
ATOM     73  C   UNL     1      -7.438  -9.607   8.332  1.00  0.00     0.001 A 
ATOM     74  C   UNL     1      -8.725  -9.958   8.735  1.00  0.00     0.000 A 
ENDBRANCH  50  69
BRANCH  62  75
ATOM     75  C   UNL     1      -4.431  -7.735  16.496  1.00  0.00    -0.014 A 
ATOM     76  C   UNL     1      -3.644  -8.896  16.445  1.00  0.00     0.009 A 
ATOM     77  C   UNL     1      -5.176  -7.470  17.657  1.00  0.00     0.009 A 
ATOM     78  C   UNL     1      -3.632  -9.789  17.518  1.00  0.00     0.001 A 
ATOM     79  C   UNL     1      -5.140  -8.351  18.739  1.00  0.00     0.001 A 
ATOM     80  C   UNL     1      -4.376  -9.514  18.665  1.00  0.00     0.000 A 
ENDBRANCH  62  75
ENDBRANCH  36  37
ENDBRANCH  29  31
ENDBRANCH  28  29
ENDBRANCH  27  28
ENDBRANCH  26  27
ENDBRANCH   1  26
TORSDOF 17
