REMARK SMILES CC(C)C[C@H](CNC(=O)[C@H]1CCCCC[C@H]1[NH3+])CC(=O)OCCOCCOC(=O)c1ccc(-c2c3nc(c(-c4ccccc4)c4ccc([nH]4)c(-c4ccccc4)c4nc(c(-c5ccccc5)c5ccc2[nH]5)C=C4)C=C3)cc1
REMARK SMILES IDX 21 1 19 2 20 3 18 4 5 5 4 6 2 7 1 8 3 9 6 10 7 11 8 12 9 14
REMARK SMILES IDX 10 15 11 16 12 17 13 18 14 19 16 21 15 22 17 24 22 28 23 29
REMARK SMILES IDX 24 30 25 31 26 32 27 33 28 34 29 35 30 36 31 37 77 38 32 39
REMARK SMILES IDX 76 40 33 41 34 42 35 43 70 44 36 45 75 46 69 47 71 48 37 49
REMARK SMILES IDX 74 50 68 51 67 52 38 54 60 55 45 56 59 57 46 58 49 59 58 60
REMARK SMILES IDX 72 61 47 62 48 63 57 65 73 66 50 67 39 68 40 69 44 70 41 71
REMARK SMILES IDX 43 72 42 73 61 74 62 75 66 76 63 77 65 78 64 79 51 80 52 81
REMARK SMILES IDX 56 82 53 83 55 84 54 85
REMARK H PARENT 7 13 17 25 17 26 17 27 71 53 49 64
REMARK Flexibility Score: 90.00
ROOT
ATOM      1  O   UNL     1      -2.425  -0.779  -1.139  1.00  0.00    -0.463 OA
ENDROOT
BRANCH   1   2
ATOM      2  C   UNL     1      -1.946   0.237  -1.902  1.00  0.00     0.306 C 
ATOM      3  O   UNL     1      -1.110   0.110  -2.786  1.00  0.00    -0.252 OA
BRANCH   2   4
ATOM      4  C   UNL     1      -2.532   1.589  -1.507  1.00  0.00     0.128 C 
BRANCH   4   5
ATOM      5  C   UNL     1      -4.061   1.600  -1.300  1.00  0.00     0.019 C 
BRANCH   5   6
ATOM      6  C   UNL     1      -4.748   2.963  -1.609  1.00  0.00     0.009 C 
BRANCH   6   7
ATOM      7  C   UNL     1      -4.845   4.023  -0.495  1.00  0.00    -0.017 C 
ATOM      8  C   UNL     1      -3.584   4.872  -0.392  1.00  0.00     0.007 C 
ATOM      9  C   UNL     1      -6.074   4.913  -0.702  1.00  0.00     0.007 C 
ENDBRANCH   6   7
ENDBRANCH   5   6
BRANCH   5  10
ATOM     10  C   UNL     1      -4.529   0.977   0.029  1.00  0.00     0.120 C 
BRANCH  10  11
ATOM     11  N   UNL     1      -3.902   1.558   1.201  1.00  0.00    -0.355 N 
ATOM     12  C   UNL     1      -4.477   1.958   2.375  1.00  0.00     0.229 C 
ATOM     13  H   UNL     1      -2.927   1.682   1.143  1.00  0.00     0.163 HD
ATOM     14  O   UNL     1      -3.772   2.589   3.164  1.00  0.00    -0.275 OA
BRANCH  12  15
ATOM     15  C   UNL     1      -5.934   1.576   2.663  1.00  0.00     0.136 C 
BRANCH  15  16
ATOM     16  C   UNL     1      -6.071   0.048   2.786  1.00  0.00     0.020 C 
BRANCH  16  17
ATOM     17  C   UNL     1      -5.038  -0.595   3.708  1.00  0.00     0.001 C 
BRANCH  17  18
ATOM     18  C   UNL     1      -5.364  -0.567   5.195  1.00  0.00     0.000 C 
BRANCH  18  19
ATOM     19  C   UNL     1      -6.308   0.521   5.692  1.00  0.00     0.006 CG0
ATOM     20  G   UNL     1      -5.971   1.945   5.251  1.00  0.00     0.000 G0
ENDBRANCH  18  19
ENDBRANCH  17  18
ENDBRANCH  16  17
ENDBRANCH  15  16
BRANCH  15  21
ATOM     21  C   UNL     1      -6.548   2.315   3.872  1.00  0.00     0.193 C 
BRANCH  21  22
ATOM     22  C   UNL     1      -5.971   1.945   5.251  1.00  0.00     0.066 CG0
ATOM     23  G   UNL     1      -6.308   0.521   5.692  1.00  0.00     0.000 G0
ENDBRANCH  21  22
BRANCH  21  24
ATOM     24  N   UNL     1      -6.489   3.772   3.664  1.00  0.00    -0.354 N 
ATOM     25  H   UNL     1      -5.515   4.072   3.633  1.00  0.00     0.344 HD
ATOM     26  H   UNL     1      -6.967   4.244   4.432  1.00  0.00     0.344 HD
ATOM     27  H   UNL     1      -6.947   4.008   2.784  1.00  0.00     0.344 HD
ENDBRANCH  21  24
ENDBRANCH  15  21
ENDBRANCH  12  15
ENDBRANCH  10  11
ENDBRANCH   5  10
ENDBRANCH   4   5
ENDBRANCH   2   4
ENDBRANCH   1   2
BRANCH   1  28
ATOM     28  C   UNL     1      -1.984  -2.119  -1.456  1.00  0.00     0.261 C 
BRANCH  28  29
ATOM     29  C   UNL     1      -3.185  -3.055  -1.643  1.00  0.00     0.202 C 
BRANCH  29  30
ATOM     30  O   UNL     1      -3.839  -2.962  -2.913  1.00  0.00    -0.374 OA
BRANCH  30  31
ATOM     31  C   UNL     1      -4.676  -1.825  -3.104  1.00  0.00     0.202 C 
BRANCH  31  32
ATOM     32  C   UNL     1      -6.121  -1.980  -2.613  1.00  0.00     0.261 C 
BRANCH  32  33
ATOM     33  O   UNL     1      -6.191  -2.299  -1.212  1.00  0.00    -0.460 OA
BRANCH  33  34
ATOM     34  C   UNL     1      -6.536  -3.582  -0.943  1.00  0.00     0.338 C 
ATOM     35  O   UNL     1      -6.873  -4.447  -1.739  1.00  0.00    -0.246 OA
BRANCH  34  36
ATOM     36  C   UNL     1      -6.307  -3.870   0.482  1.00  0.00     0.060 A 
ATOM     37  C   UNL     1      -5.418  -4.900   0.809  1.00  0.00     0.016 A 
ATOM     38  C   UNL     1      -6.991  -3.180   1.483  1.00  0.00     0.016 A 
ATOM     39  C   UNL     1      -5.205  -5.242   2.145  1.00  0.00     0.010 A 
ATOM     40  C   UNL     1      -6.783  -3.532   2.820  1.00  0.00     0.010 A 
ATOM     41  C   UNL     1      -5.891  -4.566   3.162  1.00  0.00    -0.014 A 
BRANCH  41  42
ATOM     42  C   UNL     1      -5.747  -4.988   4.579  1.00  0.00     0.031 A 
ATOM     43  C   UNL     1      -6.866  -5.742   5.239  1.00  0.00     0.074 A 
ATOM     44  C   UNL     1      -4.633  -4.699   5.277  1.00  0.00     0.049 A 
ATOM     45  N   UNL     1      -6.975  -6.147   6.479  1.00  0.00    -0.248 NA
ATOM     46  C   UNL     1      -8.017  -6.085   4.389  1.00  0.00     0.031 C 
ATOM     47  C   UNL     1      -3.455  -4.010   4.752  1.00  0.00     0.029 A 
ATOM     48  N   UNL     1      -4.317  -4.947   6.591  1.00  0.00    -0.354 N 
ATOM     49  C   UNL     1      -8.206  -6.783   6.560  1.00  0.00     0.074 A 
ATOM     50  C   UNL     1      -8.822  -6.682   5.254  1.00  0.00     0.031 C 
ATOM     51  C   UNL     1      -2.547  -3.885   5.735  1.00  0.00     0.029 A 
ATOM     52  C   UNL     1      -3.091  -4.454   6.966  1.00  0.00     0.049 A 
ATOM     53  H   UNL     1      -4.913  -5.433   7.206  1.00  0.00     0.167 HD
ATOM     54  C   UNL     1      -8.773  -7.404   7.622  1.00  0.00     0.031 A 
ATOM     55  C   UNL     1      -2.485  -4.438   8.169  1.00  0.00     0.031 A 
ATOM     56  C   UNL     1      -8.171  -7.501   8.924  1.00  0.00     0.049 A 
ATOM     57  C   UNL     1      -3.180  -5.042   9.360  1.00  0.00     0.074 A 
ATOM     58  C   UNL     1      -8.657  -8.138  10.053  1.00  0.00     0.029 A 
ATOM     59  N   UNL     1      -6.958  -6.932   9.276  1.00  0.00    -0.354 N 
ATOM     60  N   UNL     1      -4.330  -5.669   9.415  1.00  0.00    -0.248 NA
ATOM     61  C   UNL     1      -2.495  -4.928  10.657  1.00  0.00     0.031 C 
ATOM     62  C   UNL     1      -7.766  -7.902  11.105  1.00  0.00     0.029 A 
ATOM     63  C   UNL     1      -6.699  -7.165  10.617  1.00  0.00     0.049 A 
ATOM     64  H   UNL     1      -6.367  -6.436   8.664  1.00  0.00     0.167 HD
ATOM     65  C   UNL     1      -4.500  -6.035  10.745  1.00  0.00     0.074 A 
ATOM     66  C   UNL     1      -3.327  -5.578  11.460  1.00  0.00     0.031 C 
ATOM     67  C   UNL     1      -5.536  -6.691  11.321  1.00  0.00     0.031 A 
BRANCH  54  68
ATOM     68  C   UNL     1     -10.137  -8.000   7.420  1.00  0.00    -0.014 A 
ATOM     69  C   UNL     1     -10.320  -9.161   6.652  1.00  0.00     0.009 A 
ATOM     70  C   UNL     1     -11.252  -7.402   8.026  1.00  0.00     0.009 A 
ATOM     71  C   UNL     1     -11.600  -9.688   6.464  1.00  0.00     0.001 A 
ATOM     72  C   UNL     1     -12.526  -7.946   7.859  1.00  0.00     0.001 A 
ATOM     73  C   UNL     1     -12.700  -9.082   7.070  1.00  0.00     0.000 A 
ENDBRANCH  54  68
BRANCH  55  74
ATOM     74  C   UNL     1      -1.151  -3.799   8.323  1.00  0.00    -0.014 A 
ATOM     75  C   UNL     1      -0.011  -4.577   8.575  1.00  0.00     0.009 A 
ATOM     76  C   UNL     1      -1.016  -2.404   8.236  1.00  0.00     0.009 A 
ATOM     77  C   UNL     1       1.234  -3.969   8.753  1.00  0.00     0.001 A 
ATOM     78  C   UNL     1       0.234  -1.802   8.389  1.00  0.00     0.001 A 
ATOM     79  C   UNL     1       1.357  -2.583   8.655  1.00  0.00     0.000 A 
ENDBRANCH  55  74
BRANCH  67  80
ATOM     80  C   UNL     1      -5.451  -6.959  12.797  1.00  0.00    -0.014 A 
ATOM     81  C   UNL     1      -5.641  -5.929  13.731  1.00  0.00     0.009 A 
ATOM     82  C   UNL     1      -5.234  -8.267  13.260  1.00  0.00     0.009 A 
ATOM     83  C   UNL     1      -5.594  -6.199  15.100  1.00  0.00     0.001 A 
ATOM     84  C   UNL     1      -5.214  -8.538  14.629  1.00  0.00     0.001 A 
ATOM     85  C   UNL     1      -5.387  -7.504  15.548  1.00  0.00     0.000 A 
ENDBRANCH  67  80
ENDBRANCH  41  42
ENDBRANCH  34  36
ENDBRANCH  33  34
ENDBRANCH  32  33
ENDBRANCH  31  32
ENDBRANCH  30  31
ENDBRANCH  29  30
ENDBRANCH  28  29
ENDBRANCH   1  28
TORSDOF 21
