REMARK SMILES O=C1NC(=S)S/C1=C\c1ccc(OCc2cn(-c3ccc(C(=O)OCCOCCOC(=O)c4ccc(-c5c6nc(c(-c7ccccc7)c7ccc([nH]7)c(-c7ccccc7)c7nc(c(-c8ccccc8)c8ccc5[nH]8)C=C7)C=C6)cc4)cc3)nn2)cc1
REMARK SMILES IDX 25 1 24 2 22 3 23 4 21 5 18 6 19 7 82 8 20 9 81 10 17 11
REMARK SMILES IDX 15 12 16 13 84 14 83 15 14 16 13 17 12 18 9 19 10 20 86 21
REMARK SMILES IDX 11 22 85 23 8 24 1 25 2 26 3 27 7 28 4 29 6 31 5 32 26 33
REMARK SMILES IDX 27 34 28 35 29 36 30 37 31 38 32 39 33 40 34 41 80 42 35 43
REMARK SMILES IDX 79 44 36 45 37 46 38 47 73 48 39 49 78 50 72 51 74 52 40 53
REMARK SMILES IDX 77 54 71 55 70 56 41 58 63 59 48 60 62 61 49 62 52 63 61 64
REMARK SMILES IDX 75 65 50 66 51 67 60 69 76 70 53 71 42 72 43 73 47 74 44 75
REMARK SMILES IDX 46 76 45 77 64 78 65 79 69 80 66 81 68 82 67 83 54 84 55 85
REMARK SMILES IDX 59 86 56 87 58 88 57 89
REMARK H PARENT 3 30 74 57 52 68
REMARK Flexibility Score: inf
ROOT
ATOM      1  C   UNL     1       8.179  11.009  -1.040  1.00  0.00     0.261 C 
ENDROOT
BRANCH   1   2
ATOM      2  O   UNL     1       6.888  10.445  -0.745  1.00  0.00    -0.460 OA
BRANCH   2   3
ATOM      3  C   UNL     1       6.104  10.260  -1.828  1.00  0.00     0.338 C 
ATOM      4  O   UNL     1       6.361  10.560  -2.991  1.00  0.00    -0.246 OA
BRANCH   3   5
ATOM      5  C   UNL     1       4.915   9.466  -1.478  1.00  0.00     0.060 A 
ATOM      6  C   UNL     1       2.502   8.123  -1.140  1.00  0.00     0.066 A 
ATOM      7  C   UNL     1       3.400   7.705  -2.134  1.00  0.00     0.029 A 
ATOM      8  C   UNL     1       2.859   9.148  -0.251  1.00  0.00     0.029 A 
ATOM      9  C   UNL     1       4.589   8.399  -2.321  1.00  0.00     0.018 A 
ATOM     10  C   UNL     1       4.084   9.808  -0.407  1.00  0.00     0.018 A 
BRANCH   6  11
ATOM     11  N   UNL     1       1.200   7.569  -1.143  1.00  0.00    -0.220 N 
ATOM     12  C   UNL     1      -0.967   7.309  -1.154  1.00  0.00     0.120 A 
ATOM     13  C   UNL     1       0.035   8.110  -0.643  1.00  0.00     0.144 A 
ATOM     14  N   UNL     1      -0.394   6.293  -1.868  1.00  0.00    -0.131 NA
ATOM     15  N   UNL     1       0.917   6.449  -1.843  1.00  0.00    -0.062 NA
BRANCH  12  16
ATOM     16  C   UNL     1      -2.452   7.463  -1.122  1.00  0.00     0.289 C 
BRANCH  16  17
ATOM     17  O   UNL     1      -3.118   6.720  -0.091  1.00  0.00    -0.487 OA
BRANCH  17  18
ATOM     18  C   UNL     1      -3.120   5.355  -0.182  1.00  0.00     0.119 A 
ATOM     19  C   UNL     1      -2.920   2.559  -0.025  1.00  0.00    -0.024 A 
ATOM     20  C   UNL     1      -3.359   3.293   1.078  1.00  0.00     0.012 A 
ATOM     21  C   UNL     1      -2.671   3.221  -1.230  1.00  0.00     0.012 A 
ATOM     22  C   UNL     1      -3.456   4.686   0.997  1.00  0.00     0.047 A 
ATOM     23  C   UNL     1      -2.792   4.609  -1.313  1.00  0.00     0.047 A 
BRANCH  19  24
ATOM     24  C   UNL     1      -2.689   1.117   0.077  1.00  0.00     0.029 C 
ATOM     25  O   UNL     1      -2.205  -1.755   0.173  1.00  0.00    -0.268 OA
ATOM     26  C   UNL     1      -1.301  -0.932   0.121  1.00  0.00     0.263 C 
ATOM     27  N   UNL     1       0.029  -1.239   0.080  1.00  0.00    -0.307 N 
ATOM     28  C   UNL     1      -1.478   0.542   0.080  1.00  0.00     0.080 C 
ATOM     29  C   UNL     1       0.923  -0.214   0.027  1.00  0.00     0.145 C 
ATOM     30  H   UNL     1       0.333  -2.176   0.089  1.00  0.00     0.171 HD
ATOM     31  S   UNL     1       0.070   1.311   0.024  1.00  0.00    -0.055 SA
ATOM     32  S   UNL     1       2.564  -0.427  -0.022  1.00  0.00    -0.052 S 
ENDBRANCH  19  24
ENDBRANCH  17  18
ENDBRANCH  16  17
ENDBRANCH  12  16
ENDBRANCH   6  11
ENDBRANCH   3   5
ENDBRANCH   2   3
ENDBRANCH   1   2
BRANCH   1  33
ATOM     33  C   UNL     1       9.313  10.009  -0.814  1.00  0.00     0.202 C 
BRANCH  33  34
ATOM     34  O   UNL     1       9.399   8.885  -1.690  1.00  0.00    -0.374 OA
BRANCH  34  35
ATOM     35  C   UNL     1       8.427   7.849  -1.611  1.00  0.00     0.202 C 
BRANCH  35  36
ATOM     36  C   UNL     1       8.504   6.888  -0.433  1.00  0.00     0.261 C 
BRANCH  36  37
ATOM     37  O   UNL     1       8.341   7.558   0.808  1.00  0.00    -0.460 OA
BRANCH  37  38
ATOM     38  C   UNL     1       9.492   7.803   1.460  1.00  0.00     0.338 C 
ATOM     39  O   UNL     1      10.638   7.697   1.016  1.00  0.00    -0.246 OA
BRANCH  38  40
ATOM     40  C   UNL     1       9.191   8.077   2.862  1.00  0.00     0.060 A 
ATOM     41  C   UNL     1      10.288   8.122   3.724  1.00  0.00     0.016 A 
ATOM     42  C   UNL     1       7.873   7.962   3.333  1.00  0.00     0.016 A 
ATOM     43  C   UNL     1      10.088   7.790   5.041  1.00  0.00     0.010 A 
ATOM     44  C   UNL     1       7.676   7.616   4.646  1.00  0.00     0.010 A 
ATOM     45  C   UNL     1       8.798   7.441   5.452  1.00  0.00    -0.014 A 
BRANCH  45  46
ATOM     46  C   UNL     1       8.658   6.899   6.781  1.00  0.00     0.031 A 
ATOM     47  C   UNL     1       8.738   7.914   7.846  1.00  0.00     0.074 A 
ATOM     48  C   UNL     1       8.395   5.599   6.996  1.00  0.00     0.049 A 
ATOM     49  N   UNL     1       9.634   8.028   8.767  1.00  0.00    -0.248 NA
ATOM     50  C   UNL     1       7.772   9.021   7.785  1.00  0.00     0.031 C 
ATOM     51  C   UNL     1       7.999   4.582   6.018  1.00  0.00     0.029 A 
ATOM     52  N   UNL     1       8.303   4.945   8.183  1.00  0.00    -0.354 N 
ATOM     53  C   UNL     1       9.243   9.127   9.521  1.00  0.00     0.074 A 
ATOM     54  C   UNL     1       8.208   9.796   8.775  1.00  0.00     0.031 C 
ATOM     55  C   UNL     1       7.478   3.521   6.677  1.00  0.00     0.029 A 
ATOM     56  C   UNL     1       7.622   3.741   8.108  1.00  0.00     0.049 A 
ATOM     57  H   UNL     1       8.686   5.294   9.020  1.00  0.00     0.167 HD
ATOM     58  C   UNL     1       9.603   9.260  10.824  1.00  0.00     0.031 A 
ATOM     59  C   UNL     1       7.127   3.040   9.155  1.00  0.00     0.031 A 
ATOM     60  C   UNL     1      10.729   8.433  11.165  1.00  0.00     0.049 A 
ATOM     61  C   UNL     1       7.792   3.530  10.388  1.00  0.00     0.074 A 
ATOM     62  C   UNL     1      12.032   8.333  10.719  1.00  0.00     0.029 A 
ATOM     63  N   UNL     1      10.477   7.273  11.859  1.00  0.00    -0.354 N 
ATOM     64  N   UNL     1       9.046   3.321  10.666  1.00  0.00    -0.248 NA
ATOM     65  C   UNL     1       7.169   4.624  11.119  1.00  0.00     0.031 C 
ATOM     66  C   UNL     1      12.336   6.941  10.768  1.00  0.00     0.029 A 
ATOM     67  C   UNL     1      11.219   6.278  11.279  1.00  0.00     0.049 A 
ATOM     68  H   UNL     1       9.873   7.176  12.630  1.00  0.00     0.167 HD
ATOM     69  C   UNL     1       9.480   4.497  11.264  1.00  0.00     0.074 A 
ATOM     70  C   UNL     1       8.258   5.213  11.619  1.00  0.00     0.031 C 
ATOM     71  C   UNL     1      10.779   4.905  11.156  1.00  0.00     0.031 A 
BRANCH  58  72
ATOM     72  C   UNL     1       8.655   9.807  11.858  1.00  0.00    -0.014 A 
ATOM     73  C   UNL     1       9.115   9.982  13.172  1.00  0.00     0.009 A 
ATOM     74  C   UNL     1       7.261   9.888  11.657  1.00  0.00     0.009 A 
ATOM     75  C   UNL     1       8.220  10.163  14.234  1.00  0.00     0.001 A 
ATOM     76  C   UNL     1       6.369  10.115  12.705  1.00  0.00     0.001 A 
ATOM     77  C   UNL     1       6.849  10.223  14.000  1.00  0.00     0.000 A 
ENDBRANCH  58  72
BRANCH  59  78
ATOM     78  C   UNL     1       5.915   2.196   9.194  1.00  0.00    -0.014 A 
ATOM     79  C   UNL     1       5.704   1.293  10.246  1.00  0.00     0.009 A 
ATOM     80  C   UNL     1       4.836   2.457   8.328  1.00  0.00     0.009 A 
ATOM     81  C   UNL     1       4.450   0.699  10.443  1.00  0.00     0.001 A 
ATOM     82  C   UNL     1       3.587   1.859   8.518  1.00  0.00     0.001 A 
ATOM     83  C   UNL     1       3.390   0.991   9.586  1.00  0.00     0.000 A 
ENDBRANCH  59  78
BRANCH  71  84
ATOM     84  C   UNL     1      11.780   3.927  10.591  1.00  0.00    -0.014 A 
ATOM     85  C   UNL     1      11.675   3.393   9.294  1.00  0.00     0.009 A 
ATOM     86  C   UNL     1      12.939   3.653  11.332  1.00  0.00     0.009 A 
ATOM     87  C   UNL     1      12.684   2.579   8.771  1.00  0.00     0.001 A 
ATOM     88  C   UNL     1      13.957   2.858  10.800  1.00  0.00     0.001 A 
ATOM     89  C   UNL     1      13.827   2.316   9.523  1.00  0.00     0.000 A 
ENDBRANCH  71  84
ENDBRANCH  45  46
ENDBRANCH  38  40
ENDBRANCH  37  38
ENDBRANCH  36  37
ENDBRANCH  35  36
ENDBRANCH  34  35
ENDBRANCH  33  34
ENDBRANCH   1  33
TORSDOF 19
