REMARK SMILES C[NH2+][C@@]1(C(=O)OCCOCCOC(=O)c2ccc(-c3c4nc(c(-c5ccccc5)c5ccc([nH]5)c(-c5ccccc5)c5nc(c(-c6ccccc6)c6ccc3[nH]6)C=C5)C=C4)cc2)CC[C@H]([N@@H+]2CCC[N@H+]3CCC[C@@H]3C2)C1
REMARK SMILES IDX 8 1 7 2 6 3 4 4 5 5 3 6 63 7 76 8 64 9 65 10 2 11 1 12 66 15
REMARK SMILES IDX 67 17 68 18 75 20 74 21 70 22 73 23 71 24 72 26 69 27 9 29
REMARK SMILES IDX 10 30 11 31 12 32 13 33 14 34 15 35 16 36 62 37 17 38 61 39
REMARK SMILES IDX 18 40 19 41 20 42 55 43 21 44 60 45 54 46 56 47 22 48 59 49
REMARK SMILES IDX 53 50 52 51 23 53 45 54 30 55 44 56 31 57 34 58 43 59 57 60
REMARK SMILES IDX 32 61 33 62 42 64 58 65 35 66 24 67 25 68 29 69 26 70 28 71
REMARK SMILES IDX 27 72 46 73 47 74 51 75 48 76 50 77 49 78 36 79 37 80 41 81
REMARK SMILES IDX 38 82 40 83 39 84
REMARK H PARENT 2 13 2 14 66 16 70 25 56 52 34 63
REMARK Flexibility Score: 90.00
ROOT
ATOM      1  C   UNL     1      -0.974   0.594   4.395  1.00  0.00     0.202 C 
ENDROOT
BRANCH   1   2
ATOM      2  C   UNL     1      -0.723   1.905   3.630  1.00  0.00     0.261 C 
BRANCH   2   3
ATOM      3  O   UNL     1      -1.034   1.743   2.228  1.00  0.00    -0.459 OA
BRANCH   3   4
ATOM      4  C   UNL     1      -0.118   2.168   1.332  1.00  0.00     0.368 C 
ATOM      5  O   UNL     1       0.900   2.784   1.641  1.00  0.00    -0.245 OA
BRANCH   4   6
ATOM      6  C   UNL     1      -0.444   1.799  -0.161  1.00  0.00     0.200 C 
ATOM      7  C   UNL     1      -1.118   2.996  -0.854  1.00  0.00     0.087 C 
ATOM      8  C   UNL     1      -1.412   0.638  -0.437  1.00  0.00     0.146 C 
ATOM      9  C   UNL     1      -2.618   2.764  -0.727  1.00  0.00     0.072 C 
ATOM     10  C   UNL     1      -2.798   1.240  -0.721  1.00  0.00     0.191 C 
BRANCH   6  11
ATOM     11  N   UNL     1       0.880   1.575  -0.823  1.00  0.00    -0.334 N 
ATOM     12  C   UNL     1       1.478   0.285  -0.487  1.00  0.00     0.331 C 
ATOM     13  H   UNL     1       0.750   1.619  -1.833  1.00  0.00     0.347 HD
ATOM     14  H   UNL     1       1.515   2.300  -0.488  1.00  0.00     0.347 HD
ENDBRANCH   6  11
BRANCH  10  15
ATOM     15  N   UNL     1      -3.893   0.708   0.115  1.00  0.00    -0.327 N 
ATOM     16  H   UNL     1      -3.882  -0.311   0.078  1.00  0.00     0.348 HD
BRANCH  15  17
ATOM     17  C   UNL     1      -5.189   1.125  -0.432  1.00  0.00     0.268 C 
BRANCH  17  18
ATOM     18  C   UNL     1      -6.328   0.343   0.181  1.00  0.00     0.123 CG0
ATOM     19  G   UNL     1      -6.885   0.971   1.454  1.00  0.00     0.000 G0
ENDBRANCH  17  18
ENDBRANCH  15  17
BRANCH  15  20
ATOM     20  C   UNL     1      -3.698   1.009   1.544  1.00  0.00     0.328 C 
BRANCH  20  21
ATOM     21  C   UNL     1      -4.771   0.716   2.599  1.00  0.00     0.240 C 
ATOM     22  N   UNL     1      -5.956   1.542   2.440  1.00  0.00    -0.328 N 
ATOM     23  C   UNL     1      -4.261   1.074   4.004  1.00  0.00     0.077 C 
ATOM     24  C   UNL     1      -6.520   1.666   3.791  1.00  0.00     0.262 C 
ATOM     25  H   UNL     1      -5.745   2.465   2.061  1.00  0.00     0.348 HD
ATOM     26  C   UNL     1      -5.376   1.745   4.758  1.00  0.00     0.068 C 
BRANCH  22  27
ATOM     27  C   UNL     1      -6.885   0.971   1.454  1.00  0.00     0.268 CG0
ATOM     28  G   UNL     1      -6.328   0.343   0.181  1.00  0.00     0.000 G0
ENDBRANCH  22  27
ENDBRANCH  20  21
ENDBRANCH  15  20
ENDBRANCH  10  15
ENDBRANCH   4   6
ENDBRANCH   3   4
ENDBRANCH   2   3
ENDBRANCH   1   2
BRANCH   1  29
ATOM     29  O   UNL     1      -0.076  -0.459   4.055  1.00  0.00    -0.374 OA
BRANCH  29  30
ATOM     30  C   UNL     1      -0.508  -1.259   2.947  1.00  0.00     0.202 C 
BRANCH  30  31
ATOM     31  C   UNL     1      -1.465  -2.413   3.308  1.00  0.00     0.261 C 
BRANCH  31  32
ATOM     32  O   UNL     1      -2.869  -2.031   3.341  1.00  0.00    -0.460 OA
BRANCH  32  33
ATOM     33  C   UNL     1      -3.678  -2.948   3.959  1.00  0.00     0.338 C 
ATOM     34  O   UNL     1      -3.308  -3.957   4.528  1.00  0.00    -0.246 OA
BRANCH  33  35
ATOM     35  C   UNL     1      -5.120  -2.564   3.913  1.00  0.00     0.060 A 
ATOM     36  C   UNL     1      -5.750  -2.112   5.077  1.00  0.00     0.016 A 
ATOM     37  C   UNL     1      -5.890  -2.726   2.754  1.00  0.00     0.016 A 
ATOM     38  C   UNL     1      -7.122  -1.774   5.072  1.00  0.00     0.010 A 
ATOM     39  C   UNL     1      -7.267  -2.387   2.753  1.00  0.00     0.010 A 
ATOM     40  C   UNL     1      -7.906  -1.890   3.908  1.00  0.00    -0.014 A 
BRANCH  40  41
ATOM     41  C   UNL     1      -9.409  -1.721   3.990  1.00  0.00     0.031 A 
ATOM     42  C   UNL     1     -10.208  -2.942   4.333  1.00  0.00     0.074 A 
ATOM     43  C   UNL     1     -10.103  -0.566   3.845  1.00  0.00     0.049 A 
ATOM     44  N   UNL     1     -11.493  -3.044   4.548  1.00  0.00    -0.248 NA
ATOM     45  C   UNL     1      -9.465  -4.206   4.440  1.00  0.00     0.031 C 
ATOM     46  C   UNL     1      -9.533   0.701   3.480  1.00  0.00     0.029 A 
ATOM     47  N   UNL     1     -11.437  -0.232   3.981  1.00  0.00    -0.354 N 
ATOM     48  C   UNL     1     -11.713  -4.378   4.833  1.00  0.00     0.074 A 
ATOM     49  C   UNL     1     -10.437  -5.055   4.730  1.00  0.00     0.031 C 
ATOM     50  C   UNL     1     -10.422   1.691   3.482  1.00  0.00     0.029 A 
ATOM     51  C   UNL     1     -11.708   1.111   3.768  1.00  0.00     0.049 A 
ATOM     52  H   UNL     1     -12.133  -0.890   4.208  1.00  0.00     0.167 HD
ATOM     53  C   UNL     1     -12.874  -4.990   5.153  1.00  0.00     0.031 A 
ATOM     54  C   UNL     1     -12.842   1.834   3.751  1.00  0.00     0.031 A 
ATOM     55  C   UNL     1     -14.158  -4.346   5.182  1.00  0.00     0.049 A 
ATOM     56  C   UNL     1     -14.119   1.119   4.011  1.00  0.00     0.074 A 
ATOM     57  C   UNL     1     -15.392  -4.907   5.458  1.00  0.00     0.029 A 
ATOM     58  N   UNL     1     -14.382  -3.006   4.901  1.00  0.00    -0.354 N 
ATOM     59  N   UNL     1     -14.291  -0.144   4.305  1.00  0.00    -0.248 NA
ATOM     60  C   UNL     1     -15.352   1.908   3.928  1.00  0.00     0.031 C 
ATOM     61  C   UNL     1     -16.369  -3.919   5.293  1.00  0.00     0.029 A 
ATOM     62  C   UNL     1     -15.739  -2.729   4.970  1.00  0.00     0.049 A 
ATOM     63  H   UNL     1     -13.681  -2.350   4.683  1.00  0.00     0.167 HD
ATOM     64  C   UNL     1     -15.654  -0.305   4.455  1.00  0.00     0.074 A 
ATOM     65  C   UNL     1     -16.261   0.995   4.243  1.00  0.00     0.031 C 
ATOM     66  C   UNL     1     -16.334  -1.438   4.741  1.00  0.00     0.031 A 
BRANCH  53  67
ATOM     67  C   UNL     1     -12.778  -6.458   5.433  1.00  0.00    -0.014 A 
ATOM     68  C   UNL     1     -12.191  -6.929   6.619  1.00  0.00     0.009 A 
ATOM     69  C   UNL     1     -13.218  -7.377   4.471  1.00  0.00     0.009 A 
ATOM     70  C   UNL     1     -12.007  -8.298   6.814  1.00  0.00     0.001 A 
ATOM     71  C   UNL     1     -13.055  -8.745   4.682  1.00  0.00     0.001 A 
ATOM     72  C   UNL     1     -12.439  -9.204   5.846  1.00  0.00     0.000 A 
ENDBRANCH  53  67
BRANCH  54  73
ATOM     73  C   UNL     1     -12.822   3.294   3.437  1.00  0.00    -0.014 A 
ATOM     74  C   UNL     1     -13.118   4.248   4.423  1.00  0.00     0.009 A 
ATOM     75  C   UNL     1     -12.496   3.744   2.145  1.00  0.00     0.009 A 
ATOM     76  C   UNL     1     -13.107   5.614   4.119  1.00  0.00     0.001 A 
ATOM     77  C   UNL     1     -12.454   5.110   1.852  1.00  0.00     0.001 A 
ATOM     78  C   UNL     1     -12.769   6.044   2.836  1.00  0.00     0.000 A 
ENDBRANCH  54  73
BRANCH  66  79
ATOM     79  C   UNL     1     -17.818  -1.301   4.869  1.00  0.00    -0.014 A 
ATOM     80  C   UNL     1     -18.630  -1.112   3.741  1.00  0.00     0.009 A 
ATOM     81  C   UNL     1     -18.406  -1.358   6.140  1.00  0.00     0.009 A 
ATOM     82  C   UNL     1     -20.008  -0.952   3.889  1.00  0.00     0.001 A 
ATOM     83  C   UNL     1     -19.786  -1.226   6.282  1.00  0.00     0.001 A 
ATOM     84  C   UNL     1     -20.584  -1.014   5.158  1.00  0.00     0.000 A 
ENDBRANCH  66  79
ENDBRANCH  40  41
ENDBRANCH  33  35
ENDBRANCH  32  33
ENDBRANCH  31  32
ENDBRANCH  30  31
ENDBRANCH  29  30
ENDBRANCH   1  29
TORSDOF 16
