REMARK SMILES CCCC[C@H](C(=O)OCCOCCOC(=O)c1ccc(-c2c3nc(c(-c4ccccc4)c4ccc([nH]4)c(-c4ccccc4)c4nc(c(-c5ccccc5)c5ccc2[nH]5)C=C4)C=C3)cc1)c1ccnn1C
REMARK SMILES IDX 10 1 9 2 8 3 6 4 7 5 5 6 4 7 3 8 2 9 1 10 65 11 66 12 69 13
REMARK SMILES IDX 67 14 68 15 70 16 11 17 12 18 13 19 14 20 15 21 16 22 17 23
REMARK SMILES IDX 18 24 64 25 19 26 63 27 20 28 21 29 22 30 57 31 23 32 62 33
REMARK SMILES IDX 56 34 58 35 24 36 61 37 55 38 54 39 25 41 47 42 32 43 46 44
REMARK SMILES IDX 33 45 36 46 45 47 59 48 34 49 35 50 44 52 60 53 37 54 26 55
REMARK SMILES IDX 27 56 31 57 28 58 30 59 29 60 48 61 49 62 53 63 50 64 52 65
REMARK SMILES IDX 51 66 38 67 39 68 43 69 40 70 42 71 41 72
REMARK H PARENT 58 40 36 51
REMARK Flexibility Score: inf
ROOT
ATOM      1  C   UNL     1       3.064   2.166   2.772  1.00  0.00     0.202 C 
ENDROOT
BRANCH   1   2
ATOM      2  C   UNL     1       2.406   2.158   1.387  1.00  0.00     0.261 C 
BRANCH   2   3
ATOM      3  O   UNL     1       1.026   2.576   1.484  1.00  0.00    -0.463 OA
BRANCH   3   4
ATOM      4  C   UNL     1       0.079   1.615   1.367  1.00  0.00     0.315 C 
ATOM      5  O   UNL     1       0.328   0.443   1.100  1.00  0.00    -0.251 OA
BRANCH   4   6
ATOM      6  C   UNL     1      -1.333   2.073   1.730  1.00  0.00     0.148 C 
BRANCH   6   7
ATOM      7  C   UNL     1      -1.853   1.427   3.038  1.00  0.00     0.022 C 
BRANCH   7   8
ATOM      8  C   UNL     1      -2.065   2.268   4.306  1.00  0.00     0.001 C 
BRANCH   8   9
ATOM      9  C   UNL     1      -3.302   3.172   4.350  1.00  0.00    -0.003 C 
ATOM     10  C   UNL     1      -4.614   2.452   4.079  1.00  0.00     0.004 C 
ENDBRANCH   8   9
ENDBRANCH   7   8
ENDBRANCH   6   7
BRANCH   6  11
ATOM     11  C   UNL     1      -1.684   3.521   1.502  1.00  0.00     0.052 A 
ATOM     12  C   UNL     1      -2.763   3.988   0.765  1.00  0.00     0.046 A 
ATOM     13  N   UNL     1      -1.078   4.657   1.997  1.00  0.00    -0.272 N 
ATOM     14  C   UNL     1      -2.728   5.381   0.879  1.00  0.00     0.135 A 
ATOM     15  N   UNL     1      -1.699   5.794   1.613  1.00  0.00    -0.182 NA
ATOM     16  C   UNL     1       0.051   4.824   2.883  1.00  0.00     0.174 C 
ENDBRANCH   6  11
ENDBRANCH   4   6
ENDBRANCH   3   4
ENDBRANCH   2   3
ENDBRANCH   1   2
BRANCH   1  17
ATOM     17  O   UNL     1       2.804   1.000   3.559  1.00  0.00    -0.374 OA
BRANCH  17  18
ATOM     18  C   UNL     1       1.556   0.977   4.248  1.00  0.00     0.202 C 
BRANCH  18  19
ATOM     19  C   UNL     1       1.621   1.466   5.695  1.00  0.00     0.261 C 
BRANCH  19  20
ATOM     20  O   UNL     1       1.858   2.885   5.722  1.00  0.00    -0.460 OA
BRANCH  20  21
ATOM     21  C   UNL     1       3.141   3.230   5.971  1.00  0.00     0.338 C 
ATOM     22  O   UNL     1       4.057   2.489   6.295  1.00  0.00    -0.246 OA
BRANCH  21  23
ATOM     23  C   UNL     1       3.355   4.647   5.626  1.00  0.00     0.060 A 
ATOM     24  C   UNL     1       4.523   4.956   4.918  1.00  0.00     0.016 A 
ATOM     25  C   UNL     1       2.476   5.660   6.020  1.00  0.00     0.016 A 
ATOM     26  C   UNL     1       4.853   6.283   4.665  1.00  0.00     0.010 A 
ATOM     27  C   UNL     1       2.808   6.994   5.761  1.00  0.00     0.010 A 
ATOM     28  C   UNL     1       4.020   7.312   5.122  1.00  0.00    -0.014 A 
BRANCH  28  29
ATOM     29  C   UNL     1       4.502   8.712   5.047  1.00  0.00     0.031 A 
ATOM     30  C   UNL     1       5.049   9.370   6.285  1.00  0.00     0.074 A 
ATOM     31  C   UNL     1       4.513   9.369   3.875  1.00  0.00     0.049 A 
ATOM     32  N   UNL     1       5.555  10.568   6.432  1.00  0.00    -0.248 NA
ATOM     33  C   UNL     1       5.023   8.571   7.521  1.00  0.00     0.031 C 
ATOM     34  C   UNL     1       4.049   8.829   2.598  1.00  0.00     0.029 A 
ATOM     35  N   UNL     1       4.940  10.637   3.571  1.00  0.00    -0.354 N 
ATOM     36  C   UNL     1       5.900  10.669   7.774  1.00  0.00     0.074 A 
ATOM     37  C   UNL     1       5.516   9.426   8.405  1.00  0.00     0.031 C 
ATOM     38  C   UNL     1       4.221   9.759   1.644  1.00  0.00     0.029 A 
ATOM     39  C   UNL     1       4.776  10.968   2.249  1.00  0.00     0.049 A 
ATOM     40  H   UNL     1       5.328  11.250   4.236  1.00  0.00     0.167 HD
ATOM     41  C   UNL     1       6.491  11.701   8.422  1.00  0.00     0.031 A 
ATOM     42  C   UNL     1       5.030  12.122   1.601  1.00  0.00     0.031 A 
ATOM     43  C   UNL     1       6.864  12.943   7.798  1.00  0.00     0.049 A 
ATOM     44  C   UNL     1       5.619  13.281   2.359  1.00  0.00     0.074 A 
ATOM     45  C   UNL     1       7.490  14.039   8.366  1.00  0.00     0.029 A 
ATOM     46  N   UNL     1       6.633  13.259   6.468  1.00  0.00    -0.354 N 
ATOM     47  N   UNL     1       5.975  13.351   3.619  1.00  0.00    -0.248 NA
ATOM     48  C   UNL     1       5.850  14.518   1.599  1.00  0.00     0.031 C 
ATOM     49  C   UNL     1       7.580  15.043   7.395  1.00  0.00     0.029 A 
ATOM     50  C   UNL     1       7.072  14.546   6.205  1.00  0.00     0.049 A 
ATOM     51  H   UNL     1       6.219  12.657   5.808  1.00  0.00     0.167 HD
ATOM     52  C   UNL     1       6.494  14.627   3.797  1.00  0.00     0.074 A 
ATOM     53  C   UNL     1       6.423  15.290   2.511  1.00  0.00     0.031 C 
ATOM     54  C   UNL     1       6.987  15.198   4.924  1.00  0.00     0.031 A 
BRANCH  41  55
ATOM     55  C   UNL     1       6.733  11.543   9.899  1.00  0.00    -0.014 A 
ATOM     56  C   UNL     1       7.705  10.659  10.393  1.00  0.00     0.009 A 
ATOM     57  C   UNL     1       5.992  12.313  10.809  1.00  0.00     0.009 A 
ATOM     58  C   UNL     1       7.904  10.523  11.769  1.00  0.00     0.001 A 
ATOM     59  C   UNL     1       6.214  12.198  12.182  1.00  0.00     0.001 A 
ATOM     60  C   UNL     1       7.161  11.296  12.662  1.00  0.00     0.000 A 
ENDBRANCH  41  55
BRANCH  42  61
ATOM     61  C   UNL     1       4.710  12.243   0.155  1.00  0.00    -0.014 A 
ATOM     62  C   UNL     1       5.732  12.346  -0.801  1.00  0.00     0.009 A 
ATOM     63  C   UNL     1       3.374  12.263  -0.275  1.00  0.00     0.009 A 
ATOM     64  C   UNL     1       5.420  12.487  -2.156  1.00  0.00     0.001 A 
ATOM     65  C   UNL     1       3.066  12.374  -1.632  1.00  0.00     0.001 A 
ATOM     66  C   UNL     1       4.089  12.494  -2.570  1.00  0.00     0.000 A 
ENDBRANCH  42  61
BRANCH  54  67
ATOM     67  C   UNL     1       7.517  16.602   4.810  1.00  0.00    -0.014 A 
ATOM     68  C   UNL     1       6.657  17.696   4.627  1.00  0.00     0.009 A 
ATOM     69  C   UNL     1       8.897  16.835   4.925  1.00  0.00     0.009 A 
ATOM     70  C   UNL     1       7.173  18.990   4.525  1.00  0.00     0.001 A 
ATOM     71  C   UNL     1       9.406  18.132   4.854  1.00  0.00     0.001 A 
ATOM     72  C   UNL     1       8.545  19.207   4.643  1.00  0.00     0.000 A 
ENDBRANCH  54  67
ENDBRANCH  28  29
ENDBRANCH  21  23
ENDBRANCH  20  21
ENDBRANCH  19  20
ENDBRANCH  18  19
ENDBRANCH  17  18
ENDBRANCH   1  17
TORSDOF 18
