REMARK SMILES NS(=O)(=O)c1ccc(-n2nc(C(=O)OCCOCCOC(=O)c3ccc(-c4c5nc(c(-c6ccccc6)c6ccc([nH]6)c(-c6ccccc6)c6nc(c(-c7ccccc7)c7ccc4[nH]7)C=C6)C=C5)cc3)c(Cl)c2-c2ccc(Cl)cc2)cc1
REMARK SMILES IDX 16 1 15 2 14 3 12 4 13 5 11 6 9 7 10 8 73 9 71 10 72 11 8 12
REMARK SMILES IDX 5 13 6 14 82 15 7 16 81 17 2 18 3 19 4 20 1 21 74 24 75 25
REMARK SMILES IDX 80 26 76 27 79 28 77 29 78 30 17 31 18 32 19 33 20 34 21 35
REMARK SMILES IDX 22 36 23 37 24 38 70 39 25 40 69 41 26 42 27 43 28 44 63 45
REMARK SMILES IDX 29 46 68 47 62 48 64 49 30 50 67 51 61 52 60 53 31 55 53 56
REMARK SMILES IDX 38 57 52 58 39 59 42 60 51 61 65 62 40 63 41 64 50 66 66 67
REMARK SMILES IDX 43 68 32 69 33 70 37 71 34 72 36 73 35 74 54 75 55 76 59 77
REMARK SMILES IDX 56 78 58 79 57 80 44 81 45 82 49 83 46 84 48 85 47 86
REMARK H PARENT 1 22 1 23 64 54 42 65
REMARK Flexibility Score: inf
ROOT
ATOM      1  C   UNL     1       5.469  -1.567  12.265  1.00  0.00     0.202 C 
ENDROOT
BRANCH   1   2
ATOM      2  C   UNL     1       5.452  -0.116  11.792  1.00  0.00     0.261 C 
BRANCH   2   3
ATOM      3  O   UNL     1       4.327   0.147  10.943  1.00  0.00    -0.458 OA
BRANCH   3   4
ATOM      4  C   UNL     1       4.590   0.376   9.622  1.00  0.00     0.360 C 
ATOM      5  O   UNL     1       5.716   0.389   9.139  1.00  0.00    -0.244 OA
BRANCH   4   6
ATOM      6  C   UNL     1       3.364   0.557   8.833  1.00  0.00     0.190 A 
ATOM      7  N   UNL     1       2.128   0.780   7.098  1.00  0.00    -0.231 N 
ATOM      8  N   UNL     1       3.294   0.237   7.522  1.00  0.00    -0.159 NA
ATOM      9  C   UNL     1       1.392   1.325   8.136  1.00  0.00     0.094 A 
ATOM     10  C   UNL     1       2.131   1.084   9.277  1.00  0.00     0.102 A 
ATOM     11  Cl  UNL     1       1.681   1.478  10.875  1.00  0.00    -0.079 Cl
BRANCH   7  12
ATOM     12  C   UNL     1       1.845   0.869   5.713  1.00  0.00     0.065 A 
ATOM     13  C   UNL     1       1.074   1.080   3.049  1.00  0.00     0.082 A 
ATOM     14  C   UNL     1       1.313  -0.185   3.601  1.00  0.00     0.024 A 
ATOM     15  C   UNL     1       1.261   2.238   3.811  1.00  0.00     0.024 A 
ATOM     16  C   UNL     1       1.729  -0.292   4.937  1.00  0.00     0.030 A 
ATOM     17  C   UNL     1       1.628   2.132   5.150  1.00  0.00     0.030 A 
BRANCH  13  18
ATOM     18  S   UNL     1       0.539   1.275   1.373  1.00  0.00     0.238 S 
ATOM     19  O   UNL     1       1.133   2.472   0.834  1.00  0.00    -0.207 OA
ATOM     20  O   UNL     1      -0.884   1.018   1.324  1.00  0.00    -0.207 OA
BRANCH  18  21
ATOM     21  N   UNL     1       1.272   0.012   0.545  1.00  0.00    -0.225 NA
ATOM     22  H   UNL     1       1.010   0.055  -0.440  1.00  0.00     0.137 HD
ATOM     23  H   UNL     1       0.964  -0.877   0.939  1.00  0.00     0.137 HD
ENDBRANCH  18  21
ENDBRANCH  13  18
ENDBRANCH   7  12
BRANCH   9  24
ATOM     24  C   UNL     1       0.117   2.025   8.021  1.00  0.00     0.002 A 
ATOM     25  C   UNL     1       0.030   3.336   8.514  1.00  0.00     0.012 A 
ATOM     26  C   UNL     1      -1.027   1.404   7.509  1.00  0.00     0.012 A 
ATOM     27  C   UNL     1      -1.190   4.006   8.537  1.00  0.00     0.021 A 
ATOM     28  C   UNL     1      -2.250   2.081   7.525  1.00  0.00     0.021 A 
ATOM     29  C   UNL     1      -2.328   3.371   8.051  1.00  0.00     0.041 A 
ATOM     30  Cl  UNL     1      -3.843   4.179   8.123  1.00  0.00    -0.084 Cl
ENDBRANCH   9  24
ENDBRANCH   4   6
ENDBRANCH   3   4
ENDBRANCH   2   3
ENDBRANCH   1   2
BRANCH   1  31
ATOM     31  O   UNL     1       5.746  -2.579  11.298  1.00  0.00    -0.374 OA
BRANCH  31  32
ATOM     32  C   UNL     1       4.831  -2.840  10.240  1.00  0.00     0.202 C 
BRANCH  32  33
ATOM     33  C   UNL     1       3.528  -3.552  10.572  1.00  0.00     0.261 C 
BRANCH  33  34
ATOM     34  O   UNL     1       2.799  -2.883  11.587  1.00  0.00    -0.460 OA
BRANCH  34  35
ATOM     35  C   UNL     1       2.986  -3.400  12.825  1.00  0.00     0.338 C 
ATOM     36  O   UNL     1       3.823  -4.217  13.168  1.00  0.00    -0.246 OA
BRANCH  35  37
ATOM     37  C   UNL     1       1.874  -2.961  13.675  1.00  0.00     0.060 A 
ATOM     38  C   UNL     1       1.721  -3.690  14.854  1.00  0.00     0.016 A 
ATOM     39  C   UNL     1       0.823  -2.231  13.100  1.00  0.00     0.016 A 
ATOM     40  C   UNL     1       0.441  -3.978  15.254  1.00  0.00     0.010 A 
ATOM     41  C   UNL     1      -0.454  -2.528  13.495  1.00  0.00     0.010 A 
ATOM     42  C   UNL     1      -0.620  -3.494  14.482  1.00  0.00    -0.014 A 
BRANCH  42  43
ATOM     43  C   UNL     1      -1.947  -3.958  14.798  1.00  0.00     0.031 A 
ATOM     44  C   UNL     1      -2.456  -3.327  16.030  1.00  0.00     0.074 A 
ATOM     45  C   UNL     1      -2.639  -4.794  14.004  1.00  0.00     0.049 A 
ATOM     46  N   UNL     1      -2.590  -3.877  17.189  1.00  0.00    -0.248 NA
ATOM     47  C   UNL     1      -2.608  -1.862  16.026  1.00  0.00     0.031 C 
ATOM     48  C   UNL     1      -2.336  -5.255  12.646  1.00  0.00     0.029 A 
ATOM     49  N   UNL     1      -3.859  -5.338  14.233  1.00  0.00    -0.354 N 
ATOM     50  C   UNL     1      -3.047  -2.864  18.019  1.00  0.00     0.074 A 
ATOM     51  C   UNL     1      -2.816  -1.626  17.320  1.00  0.00     0.031 C 
ATOM     52  C   UNL     1      -3.461  -5.774  12.094  1.00  0.00     0.029 A 
ATOM     53  C   UNL     1      -4.510  -5.804  13.101  1.00  0.00     0.049 A 
ATOM     54  H   UNL     1      -4.252  -5.397  15.134  1.00  0.00     0.167 HD
ATOM     55  C   UNL     1      -3.861  -3.136  19.072  1.00  0.00     0.031 A 
ATOM     56  C   UNL     1      -5.835  -6.096  13.016  1.00  0.00     0.031 A 
ATOM     57  C   UNL     1      -3.831  -4.533  19.422  1.00  0.00     0.049 A 
ATOM     58  C   UNL     1      -6.338  -6.258  14.406  1.00  0.00     0.074 A 
ATOM     59  C   UNL     1      -2.845  -5.408  19.833  1.00  0.00     0.029 A 
ATOM     60  N   UNL     1      -4.862  -5.316  18.955  1.00  0.00    -0.354 N 
ATOM     61  N   UNL     1      -5.981  -7.243  15.181  1.00  0.00    -0.248 NA
ATOM     62  C   UNL     1      -6.824  -5.068  15.092  1.00  0.00     0.031 C 
ATOM     63  C   UNL     1      -3.127  -6.626  19.148  1.00  0.00     0.029 A 
ATOM     64  C   UNL     1      -4.308  -6.453  18.424  1.00  0.00     0.049 A 
ATOM     65  H   UNL     1      -5.821  -5.100  18.994  1.00  0.00     0.167 HD
ATOM     66  C   UNL     1      -5.775  -6.660  16.423  1.00  0.00     0.074 A 
ATOM     67  C   UNL     1      -6.380  -5.330  16.326  1.00  0.00     0.031 C 
ATOM     68  C   UNL     1      -4.875  -7.178  17.310  1.00  0.00     0.031 A 
BRANCH  55  69
ATOM     69  C   UNL     1      -5.010  -2.236  19.447  1.00  0.00    -0.014 A 
ATOM     70  C   UNL     1      -5.782  -2.570  20.570  1.00  0.00     0.009 A 
ATOM     71  C   UNL     1      -5.536  -1.252  18.585  1.00  0.00     0.009 A 
ATOM     72  C   UNL     1      -7.045  -2.003  20.773  1.00  0.00     0.001 A 
ATOM     73  C   UNL     1      -6.775  -0.653  18.806  1.00  0.00     0.001 A 
ATOM     74  C   UNL     1      -7.544  -1.052  19.887  1.00  0.00     0.000 A 
ENDBRANCH  55  69
BRANCH  56  75
ATOM     75  C   UNL     1      -6.758  -5.878  11.877  1.00  0.00    -0.014 A 
ATOM     76  C   UNL     1      -8.036  -6.464  11.862  1.00  0.00     0.009 A 
ATOM     77  C   UNL     1      -6.501  -4.859  10.941  1.00  0.00     0.009 A 
ATOM     78  C   UNL     1      -9.027  -6.019  10.973  1.00  0.00     0.001 A 
ATOM     79  C   UNL     1      -7.489  -4.415  10.054  1.00  0.00     0.001 A 
ATOM     80  C   UNL     1      -8.758  -4.984  10.080  1.00  0.00     0.000 A 
ENDBRANCH  56  75
BRANCH  68  81
ATOM     81  C   UNL     1      -4.242  -8.510  16.983  1.00  0.00    -0.014 A 
ATOM     82  C   UNL     1      -3.430  -8.727  15.854  1.00  0.00     0.009 A 
ATOM     83  C   UNL     1      -4.335  -9.531  17.939  1.00  0.00     0.009 A 
ATOM     84  C   UNL     1      -2.756  -9.941  15.679  1.00  0.00     0.001 A 
ATOM     85  C   UNL     1      -3.647 -10.735  17.774  1.00  0.00     0.001 A 
ATOM     86  C   UNL     1      -2.862 -10.942  16.643  1.00  0.00     0.000 A 
ENDBRANCH  68  81
ENDBRANCH  42  43
ENDBRANCH  35  37
ENDBRANCH  34  35
ENDBRANCH  33  34
ENDBRANCH  32  33
ENDBRANCH  31  32
ENDBRANCH   1  31
TORSDOF 18
