REMARK SMILES Cc1c(CC(=O)N[C@H](CO)C(=O)OCCOCCOC(=O)c2ccc(-c3c4nc(c(-c5ccccc5)c5ccc([nH]5)c(-c5ccccc5)c5nc(c(-c6ccccc6)c6ccc3[nH]6)C=C5)C=C4)cc2)cc(-c2ccc(S(C)(=O)=O)cc2)n1-c1ccc(F)cc1
REMARK SMILES IDX 14 1 13 2 11 3 12 4 8 5 7 6 5 7 6 8 4 10 3 11 1 12 2 13
REMARK SMILES IDX 82 14 70 15 71 16 83 17 84 18 89 19 85 20 88 21 86 22 87 23
REMARK SMILES IDX 72 24 73 25 81 26 74 27 80 28 75 29 76 30 77 31 78 32 79 33
REMARK SMILES IDX 9 34 10 35 15 37 16 38 17 39 18 40 19 41 20 42 21 43 22 44
REMARK SMILES IDX 23 45 69 46 24 47 68 48 25 49 26 50 27 51 62 52 28 53 67 54
REMARK SMILES IDX 61 55 63 56 29 57 66 58 60 59 59 60 30 62 52 63 37 64 51 65
REMARK SMILES IDX 38 66 41 67 50 68 64 69 39 70 40 71 49 73 65 74 42 75 31 76
REMARK SMILES IDX 32 77 36 78 33 79 35 80 34 81 53 82 54 83 58 84 55 85 57 86
REMARK SMILES IDX 56 87 43 88 44 89 48 90 45 91 47 92 46 93
REMARK H PARENT 7 9 10 36 63 61 41 72
REMARK Flexibility Score: inf
ROOT
ATOM      1  C   UNL     1       5.211  -5.861  -4.211  1.00  0.00     0.261 C 
ENDROOT
BRANCH   1   2
ATOM      2  O   UNL     1       4.587  -4.893  -3.331  1.00  0.00    -0.462 OA
BRANCH   2   3
ATOM      3  C   UNL     1       3.403  -4.353  -3.731  1.00  0.00     0.331 C 
ATOM      4  O   UNL     1       2.762  -4.761  -4.695  1.00  0.00    -0.250 OA
BRANCH   3   5
ATOM      5  C   UNL     1       3.079  -3.011  -3.040  1.00  0.00     0.218 C 
BRANCH   5   6
ATOM      6  N   UNL     1       3.763  -1.876  -3.678  1.00  0.00    -0.341 N 
ATOM      7  C   UNL     1       5.078  -1.531  -3.747  1.00  0.00     0.225 C 
ATOM      8  O   UNL     1       5.331  -0.420  -4.227  1.00  0.00    -0.275 OA
ATOM      9  H   UNL     1       3.159  -1.250  -4.139  1.00  0.00     0.164 HD
BRANCH   7  10
ATOM     10  C   UNL     1       6.205  -2.475  -3.321  1.00  0.00     0.137 C 
BRANCH  10  11
ATOM     11  C   UNL     1       6.367  -2.591  -1.822  1.00  0.00    -0.017 A 
ATOM     12  C   UNL     1       7.445  -0.302  -1.529  1.00  0.00     0.065 C 
ATOM     13  C   UNL     1       6.849  -1.591  -1.028  1.00  0.00     0.024 A 
ATOM     14  N   UNL     1       6.686  -1.964   0.312  1.00  0.00    -0.314 N 
ATOM     15  C   UNL     1       6.209  -3.682  -0.905  1.00  0.00     0.033 A 
ATOM     16  C   UNL     1       6.302  -3.321   0.464  1.00  0.00     0.053 A 
BRANCH  14  17
ATOM     17  C   UNL     1       7.113  -1.098   1.308  1.00  0.00     0.046 A 
ATOM     18  C   UNL     1       8.483  -1.001   1.488  1.00  0.00     0.029 A 
ATOM     19  C   UNL     1       6.265  -0.098   1.760  1.00  0.00     0.029 A 
ATOM     20  C   UNL     1       8.994  -0.042   2.341  1.00  0.00     0.041 A 
ATOM     21  C   UNL     1       6.782   0.856   2.631  1.00  0.00     0.041 A 
ATOM     22  C   UNL     1       8.129   0.825   2.973  1.00  0.00     0.123 A 
ATOM     23  F   UNL     1       8.614   1.672   3.885  1.00  0.00    -0.207 F 
ENDBRANCH  14  17
BRANCH  16  24
ATOM     24  C   UNL     1       6.084  -4.186   1.804  1.00  0.00    -0.001 A 
ATOM     25  C   UNL     1       5.273  -3.902   2.900  1.00  0.00     0.011 A 
ATOM     26  C   UNL     1       6.676  -5.451   2.040  1.00  0.00     0.011 A 
ATOM     27  C   UNL     1       5.100  -4.840   4.030  1.00  0.00     0.021 A 
ATOM     28  C   UNL     1       6.466  -6.442   3.006  1.00  0.00     0.021 A 
ATOM     29  C   UNL     1       5.701  -6.112   4.063  1.00  0.00     0.067 A 
BRANCH  29  30
ATOM     30  S   UNL     1       5.690  -7.336   5.355  1.00  0.00     0.175 S 
ATOM     31  C   UNL     1       7.269  -7.104   6.155  1.00  0.00     0.163 C 
ATOM     32  O   UNL     1       4.631  -7.014   6.272  1.00  0.00    -0.224 OA
ATOM     33  O   UNL     1       5.752  -8.646   4.704  1.00  0.00    -0.224 OA
ENDBRANCH  29  30
ENDBRANCH  16  24
ENDBRANCH  10  11
ENDBRANCH   7  10
ENDBRANCH   5   6
BRANCH   5  34
ATOM     34  C   UNL     1       3.056  -2.928  -1.514  1.00  0.00     0.193 C 
BRANCH  34  35
ATOM     35  O   UNL     1       1.911  -3.589  -0.979  1.00  0.00    -0.394 OA
ATOM     36  H   UNL     1       1.106  -3.163  -1.314  1.00  0.00     0.210 HD
ENDBRANCH  34  35
ENDBRANCH   5  34
ENDBRANCH   3   5
ENDBRANCH   2   3
ENDBRANCH   1   2
BRANCH   1  37
ATOM     37  C   UNL     1       5.996  -6.956  -3.470  1.00  0.00     0.202 C 
BRANCH  37  38
ATOM     38  O   UNL     1       5.280  -7.641  -2.461  1.00  0.00    -0.374 OA
BRANCH  38  39
ATOM     39  C   UNL     1       5.184  -6.912  -1.257  1.00  0.00     0.202 C 
BRANCH  39  40
ATOM     40  C   UNL     1       6.447  -6.813  -0.299  1.00  0.00     0.261 C 
BRANCH  40  41
ATOM     41  O   UNL     1       7.844  -5.907  -0.421  1.00  0.00    -0.460 OA
BRANCH  41  42
ATOM     42  C   UNL     1       8.966  -5.166   0.261  1.00  0.00     0.338 C 
ATOM     43  O   UNL     1       9.927  -5.067  -0.526  1.00  0.00    -0.246 OA
BRANCH  42  44
ATOM     44  C   UNL     1       9.378  -4.302   1.781  1.00  0.00     0.060 A 
ATOM     45  C   UNL     1      10.503  -3.481   1.685  1.00  0.00     0.016 A 
ATOM     46  C   UNL     1       8.946  -4.104   3.159  1.00  0.00     0.016 A 
ATOM     47  C   UNL     1      10.951  -2.458   2.707  1.00  0.00     0.010 A 
ATOM     48  C   UNL     1       9.429  -3.047   4.250  1.00  0.00     0.010 A 
ATOM     49  C   UNL     1      10.431  -2.096   4.033  1.00  0.00    -0.014 A 
BRANCH  49  50
ATOM     50  C   UNL     1      11.323  -0.905   5.009  1.00  0.00     0.031 A 
ATOM     51  C   UNL     1      12.666  -1.260   4.534  1.00  0.00     0.074 A 
ATOM     52  C   UNL     1      11.492   0.063   6.074  1.00  0.00     0.049 A 
ATOM     53  N   UNL     1      12.935  -2.510   4.728  1.00  0.00    -0.248 NA
ATOM     54  C   UNL     1      13.479  -0.600   3.525  1.00  0.00     0.031 C 
ATOM     55  C   UNL     1      10.536   0.552   7.106  1.00  0.00     0.029 A 
ATOM     56  N   UNL     1      12.655   0.878   6.533  1.00  0.00    -0.354 N 
ATOM     57  C   UNL     1      14.083  -2.800   4.069  1.00  0.00     0.074 A 
ATOM     58  C   UNL     1      14.283  -1.631   3.205  1.00  0.00     0.031 C 
ATOM     59  C   UNL     1      11.031   1.578   7.882  1.00  0.00     0.029 A 
ATOM     60  C   UNL     1      12.425   1.920   7.561  1.00  0.00     0.049 A 
ATOM     61  H   UNL     1      13.554   0.727   6.161  1.00  0.00     0.167 HD
ATOM     62  C   UNL     1      14.920  -3.524   4.866  1.00  0.00     0.031 A 
ATOM     63  C   UNL     1      13.273   2.887   8.182  1.00  0.00     0.031 A 
ATOM     64  C   UNL     1      15.866  -2.633   5.484  1.00  0.00     0.049 A 
ATOM     65  C   UNL     1      14.595   2.258   8.205  1.00  0.00     0.074 A 
ATOM     66  C   UNL     1      16.573  -1.562   4.968  1.00  0.00     0.029 A 
ATOM     67  N   UNL     1      15.763  -2.429   6.843  1.00  0.00    -0.354 N 
ATOM     68  N   UNL     1      14.881   1.402   9.138  1.00  0.00    -0.248 NA
ATOM     69  C   UNL     1      15.716   2.664   7.370  1.00  0.00     0.031 C 
ATOM     70  C   UNL     1      16.380  -0.536   5.911  1.00  0.00     0.029 A 
ATOM     71  C   UNL     1      16.035  -1.109   7.127  1.00  0.00     0.049 A 
ATOM     72  H   UNL     1      15.531  -3.118   7.507  1.00  0.00     0.167 HD
ATOM     73  C   UNL     1      15.937   0.743   8.608  1.00  0.00     0.074 A 
ATOM     74  C   UNL     1      16.579   1.710   7.732  1.00  0.00     0.031 C 
ATOM     75  C   UNL     1      15.734  -0.587   8.432  1.00  0.00     0.031 A 
BRANCH  62  76
ATOM     76  C   UNL     1      14.145  -4.646   5.579  1.00  0.00    -0.014 A 
ATOM     77  C   UNL     1      14.168  -5.934   5.034  1.00  0.00     0.009 A 
ATOM     78  C   UNL     1      13.165  -4.381   6.575  1.00  0.00     0.009 A 
ATOM     79  C   UNL     1      13.221  -6.895   5.428  1.00  0.00     0.001 A 
ATOM     80  C   UNL     1      12.186  -5.317   6.919  1.00  0.00     0.001 A 
ATOM     81  C   UNL     1      12.215  -6.579   6.343  1.00  0.00     0.000 A 
ENDBRANCH  62  76
BRANCH  63  82
ATOM     82  C   UNL     1      13.473   4.186   9.144  1.00  0.00    -0.014 A 
ATOM     83  C   UNL     1      14.573   4.239  10.093  1.00  0.00     0.009 A 
ATOM     84  C   UNL     1      12.979   5.467   8.845  1.00  0.00     0.009 A 
ATOM     85  C   UNL     1      15.191   5.423  10.580  1.00  0.00     0.001 A 
ATOM     86  C   UNL     1      13.576   6.668   9.370  1.00  0.00     0.001 A 
ATOM     87  C   UNL     1      14.699   6.652  10.199  1.00  0.00     0.000 A 
ENDBRANCH  63  82
BRANCH  75  88
ATOM     88  C   UNL     1      15.021  -1.336   9.552  1.00  0.00    -0.014 A 
ATOM     89  C   UNL     1      13.862  -0.896  10.236  1.00  0.00     0.009 A 
ATOM     90  C   UNL     1      15.610  -2.519  10.013  1.00  0.00     0.009 A 
ATOM     91  C   UNL     1      13.372  -1.555  11.371  1.00  0.00     0.001 A 
ATOM     92  C   UNL     1      15.091  -3.210  11.114  1.00  0.00     0.001 A 
ATOM     93  C   UNL     1      13.990  -2.717  11.808  1.00  0.00     0.000 A 
ENDBRANCH  75  88
ENDBRANCH  49  50
ENDBRANCH  42  44
ENDBRANCH  41  42
ENDBRANCH  40  41
ENDBRANCH  39  40
ENDBRANCH  38  39
ENDBRANCH  37  38
ENDBRANCH   1  37
TORSDOF 22
