REMARK SMILES Cc1ccc(C2=NN(C(=O)CCC(=O)OCCOCCOC(=O)c3ccc(-c4c5nc(c(-c6ccccc6)c6ccc([nH]6)c(-c6ccccc6)c6nc(c(-c7ccccc7)c7ccc4[nH]7)C=C6)C=C5)cc3)[C@H](C[C@H]3C=c4cccc(C)c4=NC3=O)C2)cc1
REMARK SMILES IDX 16 1 15 2 13 3 14 4 12 5 11 6 9 7 10 8 8 9 6 10 7 11 86 12
REMARK SMILES IDX 72 13 5 14 1 15 2 16 3 17 88 18 4 19 87 20 73 21 74 22 75 23
REMARK SMILES IDX 84 24 76 25 83 26 85 27 77 28 82 29 78 30 80 31 79 32 81 33
REMARK SMILES IDX 17 34 18 35 19 36 20 37 21 38 22 39 23 40 24 41 25 42 71 43
REMARK SMILES IDX 26 44 70 45 27 46 28 47 29 48 64 49 30 50 69 51 63 52 65 53
REMARK SMILES IDX 31 54 68 55 62 56 61 57 32 59 54 60 39 61 53 62 40 63 43 64
REMARK SMILES IDX 52 65 66 66 41 67 42 68 51 70 67 71 44 72 33 73 34 74 38 75
REMARK SMILES IDX 35 76 37 77 36 78 55 79 56 80 60 81 57 82 59 83 58 84 45 85
REMARK SMILES IDX 46 86 50 87 47 88 49 89 48 90
REMARK H PARENT 65 58 43 69
REMARK Flexibility Score: inf
ROOT
ATOM      1  C   UNL     1      -7.883   2.488  -0.875  1.00  0.00     0.261 C 
ENDROOT
BRANCH   1   2
ATOM      2  O   UNL     1      -7.658   1.644   0.235  1.00  0.00    -0.463 OA
BRANCH   2   3
ATOM      3  C   UNL     1      -8.613   1.708   1.171  1.00  0.00     0.306 C 
ATOM      4  O   UNL     1      -9.576   2.488   1.157  1.00  0.00    -0.252 OA
BRANCH   3   5
ATOM      5  C   UNL     1      -8.366   0.718   2.255  1.00  0.00     0.132 C 
BRANCH   5   6
ATOM      6  C   UNL     1      -7.617  -0.540   1.843  1.00  0.00     0.114 C 
BRANCH   6   7
ATOM      7  C   UNL     1      -6.068  -0.554   1.658  1.00  0.00     0.243 C 
ATOM      8  O   UNL     1      -5.455  -0.716   2.731  1.00  0.00    -0.273 OA
BRANCH   7   9
ATOM      9  N   UNL     1      -5.346  -0.613   0.417  1.00  0.00    -0.230 N 
ATOM     10  C   UNL     1      -3.229  -0.905  -0.228  1.00  0.00     0.070 C 
ATOM     11  N   UNL     1      -4.082  -1.349   0.624  1.00  0.00    -0.174 NA
ATOM     12  C   UNL     1      -3.845   0.104  -1.137  1.00  0.00     0.086 C 
ATOM     13  C   UNL     1      -5.441   0.038  -1.305  1.00  0.00     0.118 C 
BRANCH  10  14
ATOM     14  C   UNL     1      -1.674  -1.014  -0.242  1.00  0.00    -0.002 A 
ATOM     15  C   UNL     1       2.663  -0.428   0.094  1.00  0.00     0.044 C 
ATOM     16  C   UNL     1       1.182  -0.665  -0.018  1.00  0.00    -0.051 A 
ATOM     17  C   UNL     1       0.549  -1.884   0.297  1.00  0.00     0.004 A 
ATOM     18  C   UNL     1       0.391   0.357  -0.503  1.00  0.00     0.004 A 
ATOM     19  C   UNL     1      -0.872  -2.050   0.226  1.00  0.00     0.010 A 
ATOM     20  C   UNL     1      -0.981   0.154  -0.650  1.00  0.00     0.010 A 
ENDBRANCH  10  14
BRANCH  13  21
ATOM     21  C   UNL     1      -6.576  -0.814  -2.827  1.00  0.00     0.045 C 
BRANCH  21  22
ATOM     22  C   UNL     1      -7.088  -2.714  -2.914  1.00  0.00     0.106 C 
ATOM     23  C   UNL     1      -6.807  -3.779  -1.684  1.00  0.00    -0.003 C 
ATOM     24  C   UNL     1      -8.554  -3.023  -3.384  1.00  0.00     0.253 C 
ATOM     25  C   UNL     1      -7.781  -4.259  -0.896  1.00  0.00    -0.003 A 
ATOM     26  N   UNL     1      -9.337  -4.015  -2.767  1.00  0.00    -0.212 NA
ATOM     27  O   UNL     1      -9.010  -2.359  -4.315  1.00  0.00    -0.272 OA
ATOM     28  C   UNL     1      -7.742  -4.420   0.560  1.00  0.00     0.010 A 
ATOM     29  C   UNL     1      -9.014  -4.554  -1.634  1.00  0.00     0.077 A 
ATOM     30  C   UNL     1      -8.731  -5.070   1.192  1.00  0.00     0.001 A 
ATOM     31  C   UNL     1      -9.774  -5.671  -0.933  1.00  0.00    -0.025 A 
ATOM     32  C   UNL     1      -9.641  -5.858   0.399  1.00  0.00     0.005 A 
ATOM     33  C   UNL     1     -10.379  -6.720  -1.798  1.00  0.00     0.047 C 
ENDBRANCH  21  22
ENDBRANCH  13  21
ENDBRANCH   7   9
ENDBRANCH   6   7
ENDBRANCH   5   6
ENDBRANCH   3   5
ENDBRANCH   2   3
ENDBRANCH   1   2
BRANCH   1  34
ATOM     34  C   UNL     1      -8.200   1.720  -2.122  1.00  0.00     0.202 C 
BRANCH  34  35
ATOM     35  O   UNL     1      -9.008   0.570  -2.027  1.00  0.00    -0.374 OA
BRANCH  35  36
ATOM     36  C   UNL     1      -8.680  -0.720  -1.439  1.00  0.00     0.202 C 
BRANCH  36  37
ATOM     37  C   UNL     1      -7.126  -1.398  -0.925  1.00  0.00     0.261 C 
BRANCH  37  38
ATOM     38  O   UNL     1      -5.446  -1.869  -1.735  1.00  0.00    -0.460 OA
BRANCH  38  39
ATOM     39  C   UNL     1      -4.397  -1.402  -3.026  1.00  0.00     0.338 C 
ATOM     40  O   UNL     1      -3.627  -2.273  -3.393  1.00  0.00    -0.246 OA
BRANCH  39  41
ATOM     41  C   UNL     1      -4.184   0.313  -3.734  1.00  0.00     0.060 A 
ATOM     42  C   UNL     1      -3.049   1.141  -3.435  1.00  0.00     0.016 A 
ATOM     43  C   UNL     1      -5.209   1.173  -4.137  1.00  0.00     0.016 A 
ATOM     44  C   UNL     1      -3.202   2.471  -2.804  1.00  0.00     0.010 A 
ATOM     45  C   UNL     1      -5.346   2.510  -3.615  1.00  0.00     0.010 A 
ATOM     46  C   UNL     1      -4.445   3.094  -2.711  1.00  0.00    -0.014 A 
BRANCH  46  47
ATOM     47  C   UNL     1      -4.949   4.196  -1.736  1.00  0.00     0.031 A 
ATOM     48  C   UNL     1      -5.744   5.391  -2.294  1.00  0.00     0.074 A 
ATOM     49  C   UNL     1      -5.070   4.074  -0.351  1.00  0.00     0.049 A 
ATOM     50  N   UNL     1      -6.240   6.359  -1.581  1.00  0.00    -0.248 NA
ATOM     51  C   UNL     1      -6.041   5.597  -3.712  1.00  0.00     0.031 C 
ATOM     52  C   UNL     1      -6.183   4.684   0.442  1.00  0.00     0.029 A 
ATOM     53  N   UNL     1      -4.477   3.269   0.649  1.00  0.00    -0.354 N 
ATOM     54  C   UNL     1      -7.165   7.057  -2.331  1.00  0.00     0.074 A 
ATOM     55  C   UNL     1      -6.904   6.624  -3.681  1.00  0.00     0.031 C 
ATOM     56  C   UNL     1      -6.141   4.324   1.728  1.00  0.00     0.029 A 
ATOM     57  C   UNL     1      -4.866   3.713   1.964  1.00  0.00     0.049 A 
ATOM     58  H   UNL     1      -3.879   2.508   0.471  1.00  0.00     0.167 HD
ATOM     59  C   UNL     1      -8.104   7.854  -1.730  1.00  0.00     0.031 A 
ATOM     60  C   UNL     1      -4.071   4.098   3.022  1.00  0.00     0.031 A 
ATOM     61  C   UNL     1      -7.941   7.920  -0.271  1.00  0.00     0.049 A 
ATOM     62  C   UNL     1      -4.151   5.574   3.274  1.00  0.00     0.074 A 
ATOM     63  C   UNL     1      -8.681   7.485   0.817  1.00  0.00     0.029 A 
ATOM     64  N   UNL     1      -6.734   8.360   0.247  1.00  0.00    -0.354 N 
ATOM     65  N   UNL     1      -5.170   6.326   2.997  1.00  0.00    -0.248 NA
ATOM     66  C   UNL     1      -2.947   6.321   3.644  1.00  0.00     0.031 C 
ATOM     67  C   UNL     1      -7.869   7.624   1.986  1.00  0.00     0.029 A 
ATOM     68  C   UNL     1      -6.675   8.223   1.624  1.00  0.00     0.049 A 
ATOM     69  H   UNL     1      -6.002   8.726  -0.300  1.00  0.00     0.167 HD
ATOM     70  C   UNL     1      -4.707   7.602   2.865  1.00  0.00     0.074 A 
ATOM     71  C   UNL     1      -3.317   7.555   3.295  1.00  0.00     0.031 C 
ATOM     72  C   UNL     1      -5.444   8.602   2.308  1.00  0.00     0.031 A 
BRANCH  59  73
ATOM     73  C   UNL     1      -9.276   8.551  -2.422  1.00  0.00    -0.014 A 
ATOM     74  C   UNL     1     -10.097   9.440  -1.692  1.00  0.00     0.009 A 
ATOM     75  C   UNL     1      -9.657   8.355  -3.762  1.00  0.00     0.009 A 
ATOM     76  C   UNL     1     -11.210  10.087  -2.262  1.00  0.00     0.001 A 
ATOM     77  C   UNL     1     -10.751   9.020  -4.348  1.00  0.00     0.001 A 
ATOM     78  C   UNL     1     -11.532   9.883  -3.596  1.00  0.00     0.000 A 
ENDBRANCH  59  73
BRANCH  60  79
ATOM     79  C   UNL     1      -2.766   3.417   3.296  1.00  0.00    -0.014 A 
ATOM     80  C   UNL     1      -2.910   2.204   3.985  1.00  0.00     0.009 A 
ATOM     81  C   UNL     1      -1.889   3.539   2.219  1.00  0.00     0.009 A 
ATOM     82  C   UNL     1      -2.783   1.069   3.233  1.00  0.00     0.001 A 
ATOM     83  C   UNL     1      -1.852   2.435   1.419  1.00  0.00     0.001 A 
ATOM     84  C   UNL     1      -2.406   1.260   1.922  1.00  0.00     0.000 A 
ENDBRANCH  60  79
BRANCH  72  85
ATOM     85  C   UNL     1      -4.943  10.016   2.321  1.00  0.00    -0.014 A 
ATOM     86  C   UNL     1      -4.087  10.486   3.331  1.00  0.00     0.009 A 
ATOM     87  C   UNL     1      -5.381  10.957   1.378  1.00  0.00     0.009 A 
ATOM     88  C   UNL     1      -3.544  11.769   3.296  1.00  0.00     0.001 A 
ATOM     89  C   UNL     1      -4.886  12.261   1.367  1.00  0.00     0.001 A 
ATOM     90  C   UNL     1      -3.937  12.654   2.303  1.00  0.00     0.000 A 
ENDBRANCH  72  85
ENDBRANCH  46  47
ENDBRANCH  39  41
ENDBRANCH  38  39
ENDBRANCH  37  38
ENDBRANCH  36  37
ENDBRANCH  35  36
ENDBRANCH  34  35
ENDBRANCH   1  34
TORSDOF 20
