REMARK SMILES Cc1ccc(Cl)c(Nc2ccccc2C(=O)N[C@@H](C)C(=O)OCCOCCOC(=O)c2ccc(-c3c4nc(c(-c5ccccc5)c5ccc([nH]5)c(-c5ccccc5)c5nc(c(-c6ccccc6)c6ccc3[nH]6)C=C5)C=C4)cc2)c1Cl
REMARK SMILES IDX 24 1 23 2 22 3 20 4 21 5 18 6 19 7 17 8 15 9 16 10 14 12
REMARK SMILES IDX 9 13 10 14 11 15 13 16 12 17 8 18 7 20 1 21 2 22 3 23 79 24
REMARK SMILES IDX 4 25 80 26 5 27 6 28 25 29 26 30 27 31 28 32 29 33 30 34
REMARK SMILES IDX 31 35 32 36 78 37 33 38 77 39 34 40 35 41 36 42 71 43 37 44
REMARK SMILES IDX 76 45 70 46 72 47 38 48 75 49 69 50 68 51 39 53 61 54 46 55
REMARK SMILES IDX 60 56 47 57 50 58 59 59 73 60 48 61 49 62 58 64 74 65 51 66
REMARK SMILES IDX 40 67 41 68 45 69 42 70 44 71 43 72 62 73 63 74 67 75 64 76
REMARK SMILES IDX 66 77 65 78 52 79 53 80 57 81 54 82 56 83 55 84
REMARK H PARENT 17 11 8 19 72 52 50 63
REMARK Flexibility Score: inf
ROOT
ATOM      1  C   UNL     1       0.533   3.672  -0.959  1.00  0.00     0.202 C 
ENDROOT
BRANCH   1   2
ATOM      2  C   UNL     1      -0.587   3.202   0.069  1.00  0.00     0.261 C 
BRANCH   2   3
ATOM      3  O   UNL     1      -0.419   1.964   0.839  1.00  0.00    -0.462 OA
BRANCH   3   4
ATOM      4  C   UNL     1      -1.571   1.258   1.129  1.00  0.00     0.328 C 
ATOM      5  O   UNL     1      -2.691   1.725   0.919  1.00  0.00    -0.250 OA
BRANCH   4   6
ATOM      6  C   UNL     1      -1.377  -0.265   1.551  1.00  0.00     0.189 C 
ATOM      7  C   UNL     1      -2.562  -0.727   2.407  1.00  0.00     0.043 C 
BRANCH   6   8
ATOM      8  N   UNL     1      -0.143  -0.683   2.211  1.00  0.00    -0.339 N 
ATOM      9  C   UNL     1       0.652  -1.808   2.266  1.00  0.00     0.254 C 
ATOM     10  O   UNL     1       1.472  -1.702   3.196  1.00  0.00    -0.269 OA
ATOM     11  H   UNL     1       0.223   0.039   2.771  1.00  0.00     0.164 HD
BRANCH   9  12
ATOM     12  C   UNL     1       0.753  -3.079   1.405  1.00  0.00     0.063 A 
ATOM     13  C   UNL     1      -0.045  -3.673   0.388  1.00  0.00     0.051 A 
ATOM     14  C   UNL     1       0.387  -4.887  -0.238  1.00  0.00     0.027 A 
ATOM     15  C   UNL     1       1.601  -5.494   0.051  1.00  0.00     0.002 A 
ATOM     16  C   UNL     1       1.965  -3.783   1.698  1.00  0.00     0.016 A 
ATOM     17  C   UNL     1       2.394  -4.939   1.031  1.00  0.00     0.001 A 
BRANCH  13  18
ATOM     18  N   UNL     1      -1.125  -3.085  -0.312  1.00  0.00    -0.352 N 
ATOM     19  H   UNL     1      -2.040  -3.297  -0.017  1.00  0.00     0.167 HD
BRANCH  18  20
ATOM     20  C   UNL     1      -0.959  -2.193  -1.433  1.00  0.00     0.077 A 
ATOM     21  C   UNL     1       1.406   0.239  -0.601  1.00  0.00     0.046 C 
ATOM     22  C   UNL     1       0.313  -0.234  -1.508  1.00  0.00    -0.030 A 
ATOM     23  C   UNL     1      -0.798   0.494  -1.946  1.00  0.00     0.006 A 
ATOM     24  C   UNL     1       0.275  -1.599  -1.644  1.00  0.00     0.069 A 
ATOM     25  C   UNL     1      -1.986  -0.168  -2.259  1.00  0.00     0.023 A 
ATOM     26  Cl  UNL     1       1.760  -2.461  -1.846  1.00  0.00    -0.082 Cl
ATOM     27  C   UNL     1      -2.088  -1.512  -1.917  1.00  0.00     0.066 A 
ATOM     28  Cl  UNL     1      -3.633  -2.274  -1.929  1.00  0.00    -0.082 Cl
ENDBRANCH  18  20
ENDBRANCH  13  18
ENDBRANCH   9  12
ENDBRANCH   6   8
ENDBRANCH   4   6
ENDBRANCH   3   4
ENDBRANCH   2   3
ENDBRANCH   1   2
BRANCH   1  29
ATOM     29  O   UNL     1       1.307   2.708  -1.675  1.00  0.00    -0.374 OA
BRANCH  29  30
ATOM     30  C   UNL     1       2.730   2.936  -1.784  1.00  0.00     0.202 C 
BRANCH  30  31
ATOM     31  C   UNL     1       3.595   2.520  -0.570  1.00  0.00     0.261 C 
BRANCH  31  32
ATOM     32  O   UNL     1       2.920   2.921   0.622  1.00  0.00    -0.460 OA
BRANCH  32  33
ATOM     33  C   UNL     1       3.644   3.459   1.600  1.00  0.00     0.338 C 
ATOM     34  O   UNL     1       4.875   3.431   1.759  1.00  0.00    -0.246 OA
BRANCH  33  35
ATOM     35  C   UNL     1       2.729   4.331   2.325  1.00  0.00     0.060 A 
ATOM     36  C   UNL     1       2.184   5.397   1.595  1.00  0.00     0.016 A 
ATOM     37  C   UNL     1       2.473   4.190   3.686  1.00  0.00     0.016 A 
ATOM     38  C   UNL     1       1.387   6.340   2.213  1.00  0.00     0.010 A 
ATOM     39  C   UNL     1       1.715   5.174   4.328  1.00  0.00     0.010 A 
ATOM     40  C   UNL     1       1.226   6.279   3.599  1.00  0.00    -0.014 A 
BRANCH  40  41
ATOM     41  C   UNL     1       0.893   7.551   4.274  1.00  0.00     0.031 A 
ATOM     42  C   UNL     1       2.038   8.402   4.759  1.00  0.00     0.074 A 
ATOM     43  C   UNL     1      -0.361   8.027   4.319  1.00  0.00     0.049 A 
ATOM     44  N   UNL     1       2.012   9.565   5.357  1.00  0.00    -0.248 NA
ATOM     45  C   UNL     1       3.395   7.878   4.520  1.00  0.00     0.031 C 
ATOM     46  C   UNL     1      -1.547   7.370   3.775  1.00  0.00     0.029 A 
ATOM     47  N   UNL     1      -0.832   9.204   4.844  1.00  0.00    -0.354 N 
ATOM     48  C   UNL     1       3.342   9.897   5.584  1.00  0.00     0.074 A 
ATOM     49  C   UNL     1       4.149   8.812   5.075  1.00  0.00     0.031 C 
ATOM     50  C   UNL     1      -2.616   8.152   4.006  1.00  0.00     0.029 A 
ATOM     51  C   UNL     1      -2.192   9.343   4.743  1.00  0.00     0.049 A 
ATOM     52  H   UNL     1      -0.249   9.883   5.253  1.00  0.00     0.167 HD
ATOM     53  C   UNL     1       3.852  11.007   6.163  1.00  0.00     0.031 A 
ATOM     54  C   UNL     1      -3.001  10.309   5.216  1.00  0.00     0.031 A 
ATOM     55  C   UNL     1       3.065  12.093   6.675  1.00  0.00     0.049 A 
ATOM     56  C   UNL     1      -2.417  11.482   5.959  1.00  0.00     0.074 A 
ATOM     57  C   UNL     1       3.500  13.251   7.296  1.00  0.00     0.029 A 
ATOM     58  N   UNL     1       1.683  12.156   6.629  1.00  0.00    -0.354 N 
ATOM     59  N   UNL     1      -1.162  11.776   6.196  1.00  0.00    -0.248 NA
ATOM     60  C   UNL     1      -3.373  12.464   6.495  1.00  0.00     0.031 C 
ATOM     61  C   UNL     1       2.376  13.991   7.675  1.00  0.00     0.029 A 
ATOM     62  C   UNL     1       1.246  13.324   7.231  1.00  0.00     0.049 A 
ATOM     63  H   UNL     1       1.098  11.473   6.228  1.00  0.00     0.167 HD
ATOM     64  C   UNL     1      -1.177  12.990   6.876  1.00  0.00     0.074 A 
ATOM     65  C   UNL     1      -2.564  13.383   7.002  1.00  0.00     0.031 C 
ATOM     66  C   UNL     1      -0.134  13.715   7.348  1.00  0.00     0.031 A 
BRANCH  53  67
ATOM     67  C   UNL     1       5.343  11.071   6.324  1.00  0.00    -0.014 A 
ATOM     68  C   UNL     1       6.192  11.289   5.228  1.00  0.00     0.009 A 
ATOM     69  C   UNL     1       5.901  10.935   7.604  1.00  0.00     0.009 A 
ATOM     70  C   UNL     1       7.575  11.345   5.410  1.00  0.00     0.001 A 
ATOM     71  C   UNL     1       7.281  11.021   7.787  1.00  0.00     0.001 A 
ATOM     72  C   UNL     1       8.117  11.218   6.689  1.00  0.00     0.000 A 
ENDBRANCH  53  67
BRANCH  54  73
ATOM     73  C   UNL     1      -4.472  10.195   5.043  1.00  0.00    -0.014 A 
ATOM     74  C   UNL     1      -5.170  11.090   4.219  1.00  0.00     0.009 A 
ATOM     75  C   UNL     1      -5.189   9.214   5.745  1.00  0.00     0.009 A 
ATOM     76  C   UNL     1      -6.562  11.025   4.128  1.00  0.00     0.001 A 
ATOM     77  C   UNL     1      -6.577   9.132   5.628  1.00  0.00     0.001 A 
ATOM     78  C   UNL     1      -7.263  10.045   4.829  1.00  0.00     0.000 A 
ENDBRANCH  54  73
BRANCH  66  79
ATOM     79  C   UNL     1      -0.442  15.038   7.996  1.00  0.00    -0.014 A 
ATOM     80  C   UNL     1      -1.058  15.116   9.254  1.00  0.00     0.009 A 
ATOM     81  C   UNL     1      -0.075  16.228   7.346  1.00  0.00     0.009 A 
ATOM     82  C   UNL     1      -1.339  16.359   9.828  1.00  0.00     0.001 A 
ATOM     83  C   UNL     1      -0.329  17.468   7.935  1.00  0.00     0.001 A 
ATOM     84  C   UNL     1      -0.972  17.533   9.169  1.00  0.00     0.000 A 
ENDBRANCH  66  79
ENDBRANCH  40  41
ENDBRANCH  33  35
ENDBRANCH  32  33
ENDBRANCH  31  32
ENDBRANCH  30  31
ENDBRANCH  29  30
ENDBRANCH   1  29
TORSDOF 18
