REMARK SMILES CCOc1cc(C(=O)OCCOCCOC(=O)c2ccc(-c3c4nc(c(-c5ccccc5)c5ccc([nH]5)c(-c5ccccc5)c5nc(c(-c6ccccc6)c6ccc3[nH]6)C=C5)C=C4)cc2)ccc1OCc1ccc(Cl)c(Cl)c1
REMARK SMILES IDX 11 1 10 2 9 3 7 4 8 5 6 6 4 7 5 8 68 9 67 10 66 11 3 12 2 13
REMARK SMILES IDX 1 14 69 15 70 16 71 17 72 18 78 19 73 20 76 21 74 22 77 23
REMARK SMILES IDX 75 24 12 25 13 26 14 27 15 28 16 29 17 30 18 31 19 32 65 33
REMARK SMILES IDX 20 34 64 35 21 36 22 37 23 38 58 39 24 40 63 41 57 42 59 43
REMARK SMILES IDX 25 44 62 45 56 46 55 47 26 49 48 50 33 51 47 52 34 53 37 54
REMARK SMILES IDX 46 55 60 56 35 57 36 58 45 60 61 61 38 62 27 63 28 64 32 65
REMARK SMILES IDX 29 66 31 67 30 68 49 69 50 70 54 71 51 72 53 73 52 74 39 75
REMARK SMILES IDX 40 76 44 77 41 78 43 79 42 80
REMARK H PARENT 59 48 37 59
REMARK Flexibility Score: inf
ROOT
ATOM      1  C   UNL     1       5.474  -7.930  -1.335  1.00  0.00     0.202 C 
ENDROOT
BRANCH   1   2
ATOM      2  C   UNL     1       5.702  -6.811  -2.357  1.00  0.00     0.261 C 
BRANCH   2   3
ATOM      3  O   UNL     1       5.410  -5.531  -1.776  1.00  0.00    -0.460 OA
BRANCH   3   4
ATOM      4  C   UNL     1       4.258  -4.930  -2.161  1.00  0.00     0.338 C 
ATOM      5  O   UNL     1       3.490  -5.292  -3.038  1.00  0.00    -0.246 OA
BRANCH   4   6
ATOM      6  C   UNL     1       3.980  -3.816  -1.223  1.00  0.00     0.064 A 
ATOM      7  C   UNL     1       2.424  -2.316  -0.122  1.00  0.00     0.162 A 
ATOM      8  C   UNL     1       2.654  -3.488  -0.848  1.00  0.00     0.066 A 
ATOM      9  C   UNL     1       3.512  -1.457   0.095  1.00  0.00     0.161 A 
ATOM     10  C   UNL     1       4.823  -1.899  -0.065  1.00  0.00     0.051 A 
ATOM     11  C   UNL     1       5.063  -3.083  -0.729  1.00  0.00     0.020 A 
BRANCH   7  12
ATOM     12  O   UNL     1       1.243  -1.939   0.443  1.00  0.00    -0.490 OA
BRANCH  12  13
ATOM     13  C   UNL     1       0.013  -2.062  -0.269  1.00  0.00     0.226 C 
ATOM     14  C   UNL     1      -0.857  -0.882   0.172  1.00  0.00     0.049 C 
ENDBRANCH  12  13
ENDBRANCH   7  12
BRANCH   9  15
ATOM     15  O   UNL     1       3.453  -0.114   0.320  1.00  0.00    -0.485 OA
BRANCH  15  16
ATOM     16  C   UNL     1       2.391   0.655  -0.252  1.00  0.00     0.265 C 
BRANCH  16  17
ATOM     17  C   UNL     1       1.994   0.658  -1.742  1.00  0.00    -0.009 A 
ATOM     18  C   UNL     1       1.373   1.821  -2.230  1.00  0.00     0.009 A 
ATOM     19  C   UNL     1       1.997  -0.450  -2.602  1.00  0.00     0.029 A 
ATOM     20  C   UNL     1       0.713   1.843  -3.466  1.00  0.00     0.022 A 
ATOM     21  C   UNL     1       1.274  -0.464  -3.808  1.00  0.00     0.060 A 
ATOM     22  C   UNL     1       0.622   0.686  -4.238  1.00  0.00     0.059 A 
ATOM     23  Cl  UNL     1       1.159  -1.967  -4.660  1.00  0.00    -0.083 Cl
ATOM     24  Cl  UNL     1      -0.328   0.740  -5.678  1.00  0.00    -0.083 Cl
ENDBRANCH  16  17
ENDBRANCH  15  16
ENDBRANCH   9  15
ENDBRANCH   4   6
ENDBRANCH   3   4
ENDBRANCH   2   3
ENDBRANCH   1   2
BRANCH   1  25
ATOM     25  O   UNL     1       4.126  -8.233  -0.975  1.00  0.00    -0.374 OA
BRANCH  25  26
ATOM     26  C   UNL     1       3.422  -7.315  -0.146  1.00  0.00     0.202 C 
BRANCH  26  27
ATOM     27  C   UNL     1       3.707  -7.312   1.359  1.00  0.00     0.261 C 
BRANCH  27  28
ATOM     28  O   UNL     1       5.097  -7.187   1.680  1.00  0.00    -0.460 OA
BRANCH  28  29
ATOM     29  C   UNL     1       5.689  -8.367   1.981  1.00  0.00     0.338 C 
ATOM     30  O   UNL     1       5.169  -9.469   2.033  1.00  0.00    -0.246 OA
BRANCH  29  31
ATOM     31  C   UNL     1       7.141  -8.181   2.118  1.00  0.00     0.060 A 
ATOM     32  C   UNL     1       7.971  -8.987   1.330  1.00  0.00     0.016 A 
ATOM     33  C   UNL     1       7.679  -7.316   3.072  1.00  0.00     0.016 A 
ATOM     34  C   UNL     1       9.346  -8.975   1.535  1.00  0.00     0.010 A 
ATOM     35  C   UNL     1       9.060  -7.306   3.277  1.00  0.00     0.010 A 
ATOM     36  C   UNL     1       9.894  -8.165   2.538  1.00  0.00    -0.014 A 
BRANCH  36  37
ATOM     37  C   UNL     1      11.324  -8.313   2.896  1.00  0.00     0.031 A 
ATOM     38  C   UNL     1      11.698  -9.057   4.147  1.00  0.00     0.074 A 
ATOM     39  C   UNL     1      12.280  -7.802   2.103  1.00  0.00     0.049 A 
ATOM     40  N   UNL     1      12.883  -9.277   4.658  1.00  0.00    -0.248 NA
ATOM     41  C   UNL     1      10.588  -9.622   4.929  1.00  0.00     0.031 C 
ATOM     42  C   UNL     1      12.045  -7.089   0.850  1.00  0.00     0.029 A 
ATOM     43  N   UNL     1      13.644  -7.801   2.246  1.00  0.00    -0.354 N 
ATOM     44  C   UNL     1      12.660  -9.990   5.830  1.00  0.00     0.074 A 
ATOM     45  C   UNL     1      11.226 -10.134   5.970  1.00  0.00     0.031 C 
ATOM     46  C   UNL     1      13.227  -6.709   0.339  1.00  0.00     0.029 A 
ATOM     47  C   UNL     1      14.295  -7.119   1.250  1.00  0.00     0.049 A 
ATOM     48  H   UNL     1      14.110  -8.245   2.991  1.00  0.00     0.167 HD
ATOM     49  C   UNL     1      13.566 -10.482   6.708  1.00  0.00     0.031 A 
ATOM     50  C   UNL     1      15.602  -6.832   1.100  1.00  0.00     0.031 A 
ATOM     51  C   UNL     1      14.991 -10.317   6.576  1.00  0.00     0.049 A 
ATOM     52  C   UNL     1      16.589  -7.329   2.120  1.00  0.00     0.074 A 
ATOM     53  C   UNL     1      15.996 -10.803   7.393  1.00  0.00     0.029 A 
ATOM     54  N   UNL     1      15.611  -9.593   5.568  1.00  0.00    -0.354 N 
ATOM     55  N   UNL     1      16.373  -8.037   3.203  1.00  0.00    -0.248 NA
ATOM     56  C   UNL     1      18.001  -6.995   1.891  1.00  0.00     0.031 C 
ATOM     57  C   UNL     1      17.218 -10.311   6.922  1.00  0.00     0.029 A 
ATOM     58  C   UNL     1      16.983  -9.584   5.766  1.00  0.00     0.049 A 
ATOM     59  H   UNL     1      15.146  -9.151   4.821  1.00  0.00     0.167 HD
ATOM     60  C   UNL     1      17.622  -8.254   3.771  1.00  0.00     0.074 A 
ATOM     61  C   UNL     1      18.591  -7.615   2.904  1.00  0.00     0.031 C 
ATOM     62  C   UNL     1      17.937  -8.928   4.906  1.00  0.00     0.031 A 
BRANCH  49  63
ATOM     63  C   UNL     1      13.030 -11.195   7.921  1.00  0.00    -0.014 A 
ATOM     64  C   UNL     1      12.359 -12.426   7.819  1.00  0.00     0.009 A 
ATOM     65  C   UNL     1      13.193 -10.619   9.191  1.00  0.00     0.009 A 
ATOM     66  C   UNL     1      11.815 -13.032   8.954  1.00  0.00     0.001 A 
ATOM     67  C   UNL     1      12.680 -11.246  10.328  1.00  0.00     0.001 A 
ATOM     68  C   UNL     1      11.977 -12.443  10.207  1.00  0.00     0.000 A 
ENDBRANCH  49  63
BRANCH  50  69
ATOM     69  C   UNL     1      16.038  -6.016  -0.061  1.00  0.00    -0.014 A 
ATOM     70  C   UNL     1      16.762  -6.593  -1.115  1.00  0.00     0.009 A 
ATOM     71  C   UNL     1      15.696  -4.655  -0.137  1.00  0.00     0.009 A 
ATOM     72  C   UNL     1      17.143  -5.821  -2.215  1.00  0.00     0.001 A 
ATOM     73  C   UNL     1      16.052  -3.894  -1.251  1.00  0.00     0.001 A 
ATOM     74  C   UNL     1      16.779  -4.476  -2.287  1.00  0.00     0.000 A 
ENDBRANCH  50  69
BRANCH  62  75
ATOM     75  C   UNL     1      19.396  -9.033   5.264  1.00  0.00    -0.014 A 
ATOM     76  C   UNL     1      20.127  -7.918   5.704  1.00  0.00     0.009 A 
ATOM     77  C   UNL     1      20.038 -10.280   5.198  1.00  0.00     0.009 A 
ATOM     78  C   UNL     1      21.478  -8.045   6.036  1.00  0.00     0.001 A 
ATOM     79  C   UNL     1      21.379 -10.411   5.563  1.00  0.00     0.001 A 
ATOM     80  C   UNL     1      22.101  -9.291   5.971  1.00  0.00     0.000 A 
ENDBRANCH  62  75
ENDBRANCH  36  37
ENDBRANCH  29  31
ENDBRANCH  28  29
ENDBRANCH  27  28
ENDBRANCH  26  27
ENDBRANCH  25  26
ENDBRANCH   1  25
TORSDOF 19
