REMARK SMILES COc1cccc(-c2ccc(Nc3cccc(C(=O)OCCOCCOC(=O)c4ccc(-c5c6nc(c(-c7ccccc7)c7ccc([nH]7)c(-c7ccccc7)c7nc(c(-c8ccccc8)c8ccc5[nH]8)C=C7)C=C6)cc4)c3)nn2)c1
REMARK SMILES IDX 22 1 21 2 20 3 18 4 19 5 17 6 13 7 14 8 77 9 15 10 16 11
REMARK SMILES IDX 12 12 11 14 8 15 9 16 79 17 10 18 78 19 7 20 3 21 4 22 80 23
REMARK SMILES IDX 5 24 6 25 2 26 1 27 23 28 24 29 25 30 26 31 27 32 28 33
REMARK SMILES IDX 29 34 30 35 76 36 31 37 75 38 32 39 33 40 34 41 69 42 35 43
REMARK SMILES IDX 74 44 68 45 70 46 36 47 73 48 67 49 66 50 37 52 59 53 44 54
REMARK SMILES IDX 58 55 45 56 48 57 57 58 71 59 46 60 47 61 56 63 72 64 49 65
REMARK SMILES IDX 38 66 39 67 43 68 40 69 42 70 41 71 60 72 61 73 65 74 62 75
REMARK SMILES IDX 64 76 63 77 50 78 51 79 55 80 52 81 54 82 53 83
REMARK H PARENT 12 13 70 51 48 62
REMARK Flexibility Score: inf
ROOT
ATOM      1  C   UNL     1       7.857  -0.343  -8.702  1.00  0.00     0.202 C 
ENDROOT
BRANCH   1   2
ATOM      2  C   UNL     1       6.605  -1.218  -8.572  1.00  0.00     0.261 C 
BRANCH   2   3
ATOM      3  O   UNL     1       6.786  -2.214  -7.551  1.00  0.00    -0.460 OA
BRANCH   3   4
ATOM      4  C   UNL     1       6.803  -3.499  -7.979  1.00  0.00     0.338 C 
ATOM      5  O   UNL     1       6.523  -3.902  -9.101  1.00  0.00    -0.246 OA
BRANCH   4   6
ATOM      6  C   UNL     1       7.424  -4.359  -6.946  1.00  0.00     0.062 A 
ATOM      7  C   UNL     1       7.826  -4.974  -4.626  1.00  0.00     0.040 A 
ATOM      8  C   UNL     1       8.677  -5.997  -5.069  1.00  0.00     0.026 A 
ATOM      9  C   UNL     1       7.228  -4.137  -5.580  1.00  0.00     0.041 A 
ATOM     10  C   UNL     1       8.890  -6.211  -6.433  1.00  0.00     0.003 A 
ATOM     11  C   UNL     1       8.251  -5.404  -7.371  1.00  0.00     0.016 A 
BRANCH   7  12
ATOM     12  N   UNL     1       7.503  -4.883  -3.257  1.00  0.00    -0.339 N 
ATOM     13  H   UNL     1       8.236  -5.016  -2.613  1.00  0.00     0.168 HD
BRANCH  12  14
ATOM     14  C   UNL     1       6.225  -4.620  -2.729  1.00  0.00     0.153 A 
ATOM     15  C   UNL     1       3.725  -4.029  -1.743  1.00  0.00     0.093 A 
ATOM     16  C   UNL     1       4.806  -4.054  -0.874  1.00  0.00     0.035 A 
ATOM     17  N   UNL     1       3.895  -4.298  -3.051  1.00  0.00    -0.148 NA
ATOM     18  C   UNL     1       6.074  -4.352  -1.377  1.00  0.00     0.051 A 
ATOM     19  N   UNL     1       5.145  -4.587  -3.536  1.00  0.00    -0.132 NA
BRANCH  15  20
ATOM     20  C   UNL     1       2.353  -3.716  -1.338  1.00  0.00     0.006 A 
ATOM     21  C   UNL     1       0.738  -2.264  -0.237  1.00  0.00     0.119 A 
ATOM     22  C   UNL     1      -0.294  -3.131  -0.591  1.00  0.00     0.046 A 
ATOM     23  C   UNL     1       2.057  -2.566  -0.587  1.00  0.00     0.056 A 
ATOM     24  C   UNL     1      -0.021  -4.270  -1.346  1.00  0.00     0.005 A 
ATOM     25  C   UNL     1       1.291  -4.552  -1.725  1.00  0.00     0.011 A 
BRANCH  21  26
ATOM     26  O   UNL     1       0.382  -1.167   0.500  1.00  0.00    -0.497 OA
ATOM     27  C   UNL     1       0.997   0.042   0.060  1.00  0.00     0.278 C 
ENDBRANCH  21  26
ENDBRANCH  15  20
ENDBRANCH  12  14
ENDBRANCH   7  12
ENDBRANCH   4   6
ENDBRANCH   3   4
ENDBRANCH   2   3
ENDBRANCH   1   2
BRANCH   1  28
ATOM     28  O   UNL     1       9.018  -0.990  -9.231  1.00  0.00    -0.374 OA
BRANCH  28  29
ATOM     29  C   UNL     1       9.768  -1.803  -8.329  1.00  0.00     0.202 C 
BRANCH  29  30
ATOM     30  C   UNL     1      10.782  -1.070  -7.446  1.00  0.00     0.261 C 
BRANCH  30  31
ATOM     31  O   UNL     1      10.149  -0.112  -6.579  1.00  0.00    -0.460 OA
BRANCH  31  32
ATOM     32  C   UNL     1      10.355   1.178  -6.928  1.00  0.00     0.338 C 
ATOM     33  O   UNL     1      11.092   1.601  -7.807  1.00  0.00    -0.246 OA
BRANCH  32  34
ATOM     34  C   UNL     1       9.433   2.061  -6.192  1.00  0.00     0.060 A 
ATOM     35  C   UNL     1       8.696   2.981  -6.947  1.00  0.00     0.016 A 
ATOM     36  C   UNL     1       9.342   2.053  -4.797  1.00  0.00     0.016 A 
ATOM     37  C   UNL     1       7.911   3.935  -6.308  1.00  0.00     0.010 A 
ATOM     38  C   UNL     1       8.552   3.016  -4.156  1.00  0.00     0.010 A 
ATOM     39  C   UNL     1       7.863   3.984  -4.907  1.00  0.00    -0.014 A 
BRANCH  39  40
ATOM     40  C   UNL     1       7.174   5.126  -4.258  1.00  0.00     0.031 A 
ATOM     41  C   UNL     1       7.982   6.284  -3.738  1.00  0.00     0.074 A 
ATOM     42  C   UNL     1       5.830   5.167  -4.206  1.00  0.00     0.049 A 
ATOM     43  N   UNL     1       7.570   7.421  -3.236  1.00  0.00    -0.248 NA
ATOM     44  C   UNL     1       9.445   6.145  -3.793  1.00  0.00     0.031 C 
ATOM     45  C   UNL     1       4.934   4.122  -4.698  1.00  0.00     0.029 A 
ATOM     46  N   UNL     1       4.988   6.140  -3.732  1.00  0.00    -0.354 N 
ATOM     47  C   UNL     1       8.720   8.134  -2.921  1.00  0.00     0.074 A 
ATOM     48  C   UNL     1       9.846   7.286  -3.250  1.00  0.00     0.031 C 
ATOM     49  C   UNL     1       3.663   4.518  -4.515  1.00  0.00     0.029 A 
ATOM     50  C   UNL     1       3.658   5.832  -3.876  1.00  0.00     0.049 A 
ATOM     51  H   UNL     1       5.306   6.979  -3.326  1.00  0.00     0.167 HD
ATOM     52  C   UNL     1       8.832   9.386  -2.414  1.00  0.00     0.031 A 
ATOM     53  C   UNL     1       2.559   6.531  -3.533  1.00  0.00     0.031 A 
ATOM     54  C   UNL     1       7.715  10.227  -2.072  1.00  0.00     0.049 A 
ATOM     55  C   UNL     1       2.710   7.896  -2.920  1.00  0.00     0.074 A 
ATOM     56  C   UNL     1       7.729  11.519  -1.575  1.00  0.00     0.029 A 
ATOM     57  N   UNL     1       6.385   9.856  -2.181  1.00  0.00    -0.354 N 
ATOM     58  N   UNL     1       3.804   8.575  -2.671  1.00  0.00    -0.248 NA
ATOM     59  C   UNL     1       1.470   8.596  -2.554  1.00  0.00     0.031 C 
ATOM     60  C   UNL     1       6.408  11.908  -1.329  1.00  0.00     0.029 A 
ATOM     61  C   UNL     1       5.569  10.881  -1.730  1.00  0.00     0.049 A 
ATOM     62  H   UNL     1       6.066   8.991  -2.528  1.00  0.00     0.167 HD
ATOM     63  C   UNL     1       3.384   9.788  -2.139  1.00  0.00     0.074 A 
ATOM     64  C   UNL     1       1.936   9.760  -2.124  1.00  0.00     0.031 C 
ATOM     65  C   UNL     1       4.130  10.833  -1.702  1.00  0.00     0.031 A 
BRANCH  52  66
ATOM     66  C   UNL     1      10.220   9.912  -2.173  1.00  0.00    -0.014 A 
ATOM     67  C   UNL     1      11.058  10.274  -3.239  1.00  0.00     0.009 A 
ATOM     68  C   UNL     1      10.681  10.082  -0.859  1.00  0.00     0.009 A 
ATOM     69  C   UNL     1      12.343  10.764  -2.994  1.00  0.00     0.001 A 
ATOM     70  C   UNL     1      11.956  10.598  -0.615  1.00  0.00     0.001 A 
ATOM     71  C   UNL     1      12.788  10.930  -1.683  1.00  0.00     0.000 A 
ENDBRANCH  52  66
BRANCH  53  72
ATOM     72  C   UNL     1       1.210   5.951  -3.761  1.00  0.00    -0.014 A 
ATOM     73  C   UNL     1       0.351   6.487  -4.732  1.00  0.00     0.009 A 
ATOM     74  C   UNL     1       0.768   4.863  -2.991  1.00  0.00     0.009 A 
ATOM     75  C   UNL     1      -0.931   5.961  -4.911  1.00  0.00     0.001 A 
ATOM     76  C   UNL     1      -0.502   4.321  -3.191  1.00  0.00     0.001 A 
ATOM     77  C   UNL     1      -1.354   4.877  -4.144  1.00  0.00     0.000 A 
ENDBRANCH  53  72
BRANCH  65  78
ATOM     78  C   UNL     1       3.388  12.034  -1.185  1.00  0.00    -0.014 A 
ATOM     79  C   UNL     1       2.702  11.994   0.039  1.00  0.00     0.009 A 
ATOM     80  C   UNL     1       3.388  13.227  -1.925  1.00  0.00     0.009 A 
ATOM     81  C   UNL     1       1.995  13.111   0.490  1.00  0.00     0.001 A 
ATOM     82  C   UNL     1       2.706  14.351  -1.457  1.00  0.00     0.001 A 
ATOM     83  C   UNL     1       2.000  14.289  -0.257  1.00  0.00     0.000 A 
ENDBRANCH  65  78
ENDBRANCH  39  40
ENDBRANCH  32  34
ENDBRANCH  31  32
ENDBRANCH  30  31
ENDBRANCH  29  30
ENDBRANCH  28  29
ENDBRANCH   1  28
TORSDOF 18
