REMARK SMILES C[C@H]1c2ccc(O)cc2OC(=O)[C@@H]1CC(=O)N[C@@H](CC1=c2ccccc2=NC1)C(=O)OCCOCCOC(=O)c1ccc(-c2c3nc(c(-c4ccccc4)c4ccc([nH]4)c(-c4ccccc4)c4nc(c(-c5ccccc5)c5ccc2[nH]5)C=C4)C=C3)cc1
REMARK SMILES IDX 33 1 32 2 31 3 29 4 30 5 18 6 17 7 15 8 16 9 14 11 13 12
REMARK SMILES IDX 1 13 2 14 3 15 4 16 9 17 11 18 5 19 8 20 10 21 12 22 6 23
REMARK SMILES IDX 7 24 19 26 20 27 21 28 28 29 22 30 26 31 27 32 23 33 25 34
REMARK SMILES IDX 24 35 34 36 35 37 36 38 37 39 38 40 39 41 40 42 41 43 87 44
REMARK SMILES IDX 42 45 86 46 43 47 44 48 45 49 80 50 46 51 85 52 79 53 81 54
REMARK SMILES IDX 47 55 84 56 78 57 77 58 48 60 70 61 55 62 69 63 56 64 59 65
REMARK SMILES IDX 68 66 82 67 57 68 58 69 67 71 83 72 60 73 49 74 50 75 54 76
REMARK SMILES IDX 51 77 53 78 52 79 71 80 72 81 76 82 73 83 75 84 74 85 61 86
REMARK SMILES IDX 62 87 66 88 63 89 65 90 64 91
REMARK H PARENT 17 10 7 25 81 59 59 70
REMARK Flexibility Score: inf
ROOT
ATOM      1  C   UNL     1      -1.525  -8.613  -3.002  1.00  0.00     0.202 C 
ENDROOT
BRANCH   1   2
ATOM      2  C   UNL     1      -0.007  -8.445  -3.121  1.00  0.00     0.261 C 
BRANCH   2   3
ATOM      3  O   UNL     1       0.560  -7.741  -2.006  1.00  0.00    -0.462 OA
BRANCH   3   4
ATOM      4  C   UNL     1       1.207  -6.600  -2.351  1.00  0.00     0.329 C 
ATOM      5  O   UNL     1       1.473  -6.266  -3.502  1.00  0.00    -0.250 OA
BRANCH   4   6
ATOM      6  C   UNL     1       1.600  -5.728  -1.162  1.00  0.00     0.196 C 
BRANCH   6   7
ATOM      7  N   UNL     1       1.083  -5.940   0.198  1.00  0.00    -0.342 N 
ATOM      8  C   UNL     1       0.708  -4.989   1.112  1.00  0.00     0.221 C 
ATOM      9  O   UNL     1       0.765  -5.263   2.311  1.00  0.00    -0.275 OA
ATOM     10  H   UNL     1       0.996  -6.877   0.487  1.00  0.00     0.164 HD
BRANCH   8  11
ATOM     11  C   UNL     1       0.081  -3.677   0.647  1.00  0.00     0.116 C 
BRANCH  11  12
ATOM     12  C   UNL     1       0.993  -2.433   0.530  1.00  0.00     0.116 C 
ATOM     13  C   UNL     1       1.100   0.131   0.419  1.00  0.00     0.014 C 
ATOM     14  C   UNL     1       0.193  -1.109   0.406  1.00  0.00     0.034 C 
ATOM     15  C   UNL     1      -0.601  -1.147  -0.879  1.00  0.00    -0.001 A 
ATOM     16  C   UNL     1      -1.831  -0.503  -1.028  1.00  0.00     0.011 A 
ATOM     17  C   UNL     1      -0.096  -1.882  -1.957  1.00  0.00     0.138 A 
ATOM     18  C   UNL     1       1.870  -2.475  -0.695  1.00  0.00     0.315 C 
ATOM     19  C   UNL     1      -2.559  -0.653  -2.214  1.00  0.00     0.047 A 
ATOM     20  C   UNL     1      -0.824  -2.074  -3.125  1.00  0.00     0.093 A 
ATOM     21  O   UNL     1       1.196  -2.433  -1.907  1.00  0.00    -0.426 OA
ATOM     22  O   UNL     1       3.090  -2.575  -0.640  1.00  0.00    -0.251 OA
ATOM     23  C   UNL     1      -2.061  -1.458  -3.239  1.00  0.00     0.119 A 
BRANCH  23  24
ATOM     24  O   UNL     1      -2.760  -1.658  -4.392  1.00  0.00    -0.508 OA
ATOM     25  H   UNL     1      -3.600  -1.258  -4.506  1.00  0.00     0.293 HD
ENDBRANCH  23  24
ENDBRANCH  11  12
ENDBRANCH   8  11
ENDBRANCH   6   7
BRANCH   6  26
ATOM     26  C   UNL     1       3.139  -5.636  -1.164  1.00  0.00     0.070 C 
BRANCH  26  27
ATOM     27  C   UNL     1       4.000  -6.844  -0.775  1.00  0.00    -0.037 C 
ATOM     28  C   UNL     1       3.640  -7.633   0.245  1.00  0.00     0.001 A 
ATOM     29  C   UNL     1       5.418  -6.369  -0.496  1.00  0.00     0.174 C 
ATOM     30  C   UNL     1       3.317  -9.035   0.294  1.00  0.00     0.010 A 
ATOM     31  C   UNL     1       4.559  -7.169   1.313  1.00  0.00     0.065 A 
ATOM     32  N   UNL     1       5.556  -6.415   0.976  1.00  0.00    -0.280 NA
ATOM     33  C   UNL     1       3.349  -9.626   1.504  1.00  0.00     0.001 A 
ATOM     34  C   UNL     1       4.215  -7.658   2.661  1.00  0.00     0.028 A 
ATOM     35  C   UNL     1       3.599  -8.852   2.712  1.00  0.00     0.002 A 
ENDBRANCH  26  27
ENDBRANCH   6  26
ENDBRANCH   4   6
ENDBRANCH   3   4
ENDBRANCH   2   3
ENDBRANCH   1   2
BRANCH   1  36
ATOM     36  O   UNL     1      -2.287  -7.459  -2.668  1.00  0.00    -0.374 OA
BRANCH  36  37
ATOM     37  C   UNL     1      -2.121  -6.875  -1.376  1.00  0.00     0.202 C 
BRANCH  37  38
ATOM     38  C   UNL     1      -2.302  -7.769  -0.138  1.00  0.00     0.261 C 
BRANCH  38  39
ATOM     39  O   UNL     1      -1.293  -8.790  -0.012  1.00  0.00    -0.460 OA
BRANCH  39  40
ATOM     40  C   UNL     1      -1.764 -10.064   0.019  1.00  0.00     0.338 C 
ATOM     41  O   UNL     1      -2.925 -10.427  -0.040  1.00  0.00    -0.246 OA
BRANCH  40  42
ATOM     42  C   UNL     1      -0.644 -11.019  -0.030  1.00  0.00     0.060 A 
ATOM     43  C   UNL     1       0.172 -11.205   1.081  1.00  0.00     0.016 A 
ATOM     44  C   UNL     1      -0.512 -11.842  -1.156  1.00  0.00     0.016 A 
ATOM     45  C   UNL     1       1.110 -12.242   1.071  1.00  0.00     0.010 A 
ATOM     46  C   UNL     1       0.440 -12.864  -1.170  1.00  0.00     0.010 A 
ATOM     47  C   UNL     1       1.250 -13.082  -0.049  1.00  0.00    -0.014 A 
BRANCH  47  48
ATOM     48  C   UNL     1       2.137 -14.271   0.015  1.00  0.00     0.031 A 
ATOM     49  C   UNL     1       3.432 -14.335  -0.740  1.00  0.00     0.074 A 
ATOM     50  C   UNL     1       1.740 -15.324   0.757  1.00  0.00     0.049 A 
ATOM     51  N   UNL     1       4.342 -15.275  -0.723  1.00  0.00    -0.248 NA
ATOM     52  C   UNL     1       3.748 -13.208  -1.631  1.00  0.00     0.031 C 
ATOM     53  C   UNL     1       0.481 -15.395   1.502  1.00  0.00     0.029 A 
ATOM     54  N   UNL     1       2.347 -16.528   1.011  1.00  0.00    -0.354 N 
ATOM     55  C   UNL     1       5.346 -14.851  -1.584  1.00  0.00     0.074 A 
ATOM     56  C   UNL     1       4.914 -13.587  -2.142  1.00  0.00     0.031 C 
ATOM     57  C   UNL     1       0.423 -16.567   2.151  1.00  0.00     0.029 A 
ATOM     58  C   UNL     1       1.621 -17.343   1.846  1.00  0.00     0.049 A 
ATOM     59  H   UNL     1       3.219 -16.783   0.632  1.00  0.00     0.167 HD
ATOM     60  C   UNL     1       6.523 -15.458  -1.868  1.00  0.00     0.031 A 
ATOM     61  C   UNL     1       1.885 -18.576   2.320  1.00  0.00     0.031 A 
ATOM     62  C   UNL     1       6.936 -16.727  -1.324  1.00  0.00     0.049 A 
ATOM     63  C   UNL     1       3.186 -19.238   1.964  1.00  0.00     0.074 A 
ATOM     64  C   UNL     1       8.137 -17.389  -1.516  1.00  0.00     0.029 A 
ATOM     65  N   UNL     1       6.165 -17.530  -0.500  1.00  0.00    -0.354 N 
ATOM     66  N   UNL     1       4.167 -18.778   1.227  1.00  0.00    -0.248 NA
ATOM     67  C   UNL     1       3.426 -20.579   2.516  1.00  0.00     0.031 C 
ATOM     68  C   UNL     1       8.065 -18.624  -0.870  1.00  0.00     0.029 A 
ATOM     69  C   UNL     1       6.850 -18.698  -0.208  1.00  0.00     0.049 A 
ATOM     70  H   UNL     1       5.265 -17.305  -0.172  1.00  0.00     0.167 HD
ATOM     71  C   UNL     1       5.149 -19.760   1.245  1.00  0.00     0.074 A 
ATOM     72  C   UNL     1       4.654 -20.834   2.081  1.00  0.00     0.031 C 
ATOM     73  C   UNL     1       6.353 -19.766   0.623  1.00  0.00     0.031 A 
BRANCH  60  74
ATOM     74  C   UNL     1       7.478 -14.766  -2.803  1.00  0.00    -0.014 A 
ATOM     75  C   UNL     1       7.775 -15.338  -4.051  1.00  0.00     0.009 A 
ATOM     76  C   UNL     1       8.191 -13.630  -2.390  1.00  0.00     0.009 A 
ATOM     77  C   UNL     1       8.781 -14.800  -4.856  1.00  0.00     0.001 A 
ATOM     78  C   UNL     1       9.178 -13.078  -3.210  1.00  0.00     0.001 A 
ATOM     79  C   UNL     1       9.480 -13.670  -4.436  1.00  0.00     0.000 A 
ENDBRANCH  60  74
BRANCH  61  80
ATOM     80  C   UNL     1       0.901 -19.238   3.217  1.00  0.00    -0.014 A 
ATOM     81  C   UNL     1      -0.351 -19.646   2.726  1.00  0.00     0.009 A 
ATOM     82  C   UNL     1       1.185 -19.419   4.579  1.00  0.00     0.009 A 
ATOM     83  C   UNL     1      -1.304 -20.198   3.583  1.00  0.00     0.001 A 
ATOM     84  C   UNL     1       0.241 -20.002   5.427  1.00  0.00     0.001 A 
ATOM     85  C   UNL     1      -1.006 -20.381   4.932  1.00  0.00     0.000 A 
ENDBRANCH  61  80
BRANCH  73  86
ATOM     86  C   UNL     1       7.245 -20.962   0.816  1.00  0.00    -0.014 A 
ATOM     87  C   UNL     1       8.456 -20.822   1.514  1.00  0.00     0.009 A 
ATOM     88  C   UNL     1       6.950 -22.192   0.209  1.00  0.00     0.009 A 
ATOM     89  C   UNL     1       9.363 -21.881   1.582  1.00  0.00     0.001 A 
ATOM     90  C   UNL     1       7.845 -23.260   0.306  1.00  0.00     0.001 A 
ATOM     91  C   UNL     1       9.055 -23.099   0.980  1.00  0.00     0.000 A 
ENDBRANCH  73  86
ENDBRANCH  47  48
ENDBRANCH  40  42
ENDBRANCH  39  40
ENDBRANCH  38  39
ENDBRANCH  37  38
ENDBRANCH  36  37
ENDBRANCH   1  36
TORSDOF 20
