REMARK SMILES NS(=O)(=O)c1ccc(-n2nc(C(=O)OCCOCCOC(=O)c3ccc(-c4c5nc(c(-c6ccccc6)c6ccc([nH]6)c(-c6ccccc6)c6nc(c(-c7ccccc7)c7ccc4[nH]7)C=C6)C=C5)cc3)cc2-c2ccc(Cl)s2)cc1
REMARK SMILES IDX 16 1 15 2 14 3 12 4 13 5 11 6 9 7 10 8 72 9 71 10 8 11 5 12
REMARK SMILES IDX 6 13 80 14 7 15 79 16 2 17 3 18 4 19 1 20 73 23 74 24 78 25
REMARK SMILES IDX 75 26 76 27 77 28 17 29 18 30 19 31 20 32 21 33 22 34 23 35
REMARK SMILES IDX 24 36 70 37 25 38 69 39 26 40 27 41 28 42 63 43 29 44 68 45
REMARK SMILES IDX 62 46 64 47 30 48 67 49 61 50 60 51 31 53 53 54 38 55 52 56
REMARK SMILES IDX 39 57 42 58 51 59 65 60 40 61 41 62 50 64 66 65 43 66 32 67
REMARK SMILES IDX 33 68 37 69 34 70 36 71 35 72 54 73 55 74 59 75 56 76 58 77
REMARK SMILES IDX 57 78 44 79 45 80 49 81 46 82 48 83 47 84
REMARK H PARENT 1 21 1 22 64 52 42 63
REMARK Flexibility Score: inf
ROOT
ATOM      1  C   UNL     1       0.964  -7.939  10.479  1.00  0.00     0.202 C 
ENDROOT
BRANCH   1   2
ATOM      2  C   UNL     1       0.407  -8.491   9.165  1.00  0.00     0.261 C 
BRANCH   2   3
ATOM      3  O   UNL     1       1.026  -7.895   8.014  1.00  0.00    -0.458 OA
BRANCH   3   4
ATOM      4  C   UNL     1       0.266  -6.950   7.380  1.00  0.00     0.358 C 
ATOM      5  O   UNL     1      -0.900  -6.696   7.660  1.00  0.00    -0.244 OA
BRANCH   4   6
ATOM      6  C   UNL     1       1.038  -6.207   6.376  1.00  0.00     0.171 A 
ATOM      7  N   UNL     1       1.529  -4.623   5.030  1.00  0.00    -0.231 N 
ATOM      8  N   UNL     1       0.831  -4.895   6.154  1.00  0.00    -0.160 NA
ATOM      9  C   UNL     1       2.348  -5.678   4.661  1.00  0.00     0.085 A 
ATOM     10  C   UNL     1       2.078  -6.697   5.548  1.00  0.00     0.068 A 
BRANCH   7  11
ATOM     11  C   UNL     1       1.237  -3.451   4.295  1.00  0.00     0.065 A 
ATOM     12  C   UNL     1       0.715  -1.166   2.813  1.00  0.00     0.082 A 
ATOM     13  C   UNL     1       0.612  -2.419   2.203  1.00  0.00     0.024 A 
ATOM     14  C   UNL     1       1.062  -1.049   4.165  1.00  0.00     0.024 A 
ATOM     15  C   UNL     1       0.889  -3.565   2.942  1.00  0.00     0.030 A 
ATOM     16  C   UNL     1       1.292  -2.201   4.922  1.00  0.00     0.030 A 
BRANCH  12  17
ATOM     17  S   UNL     1       0.422   0.287   1.850  1.00  0.00     0.238 S 
ATOM     18  O   UNL     1       1.194   1.382   2.403  1.00  0.00    -0.207 OA
ATOM     19  O   UNL     1      -0.987   0.380   1.575  1.00  0.00    -0.207 OA
BRANCH  17  20
ATOM     20  N   UNL     1       1.167  -0.068   0.383  1.00  0.00    -0.225 NA
ATOM     21  H   UNL     1       1.054   0.720  -0.255  1.00  0.00     0.137 HD
ATOM     22  H   UNL     1       0.737  -0.899  -0.024  1.00  0.00     0.137 HD
ENDBRANCH  17  20
ENDBRANCH  12  17
ENDBRANCH   7  11
BRANCH   9  23
ATOM     23  C   UNL     1       3.241  -5.669   3.541  1.00  0.00     0.054 A 
ATOM     24  C   UNL     1       3.224  -6.553   2.479  1.00  0.00     0.024 A 
ATOM     25  S   UNL     1       4.465  -4.482   3.355  1.00  0.00    -0.122 S 
ATOM     26  C   UNL     1       4.161  -6.193   1.466  1.00  0.00     0.033 A 
ATOM     27  C   UNL     1       4.878  -5.082   1.829  1.00  0.00     0.094 A 
ATOM     28  Cl  UNL     1       6.088  -4.297   0.899  1.00  0.00    -0.072 Cl
ENDBRANCH   9  23
ENDBRANCH   4   6
ENDBRANCH   3   4
ENDBRANCH   2   3
ENDBRANCH   1   2
BRANCH   1  29
ATOM     29  O   UNL     1       0.723  -6.566  10.782  1.00  0.00    -0.374 OA
BRANCH  29  30
ATOM     30  C   UNL     1       1.415  -5.545  10.073  1.00  0.00     0.202 C 
BRANCH  30  31
ATOM     31  C   UNL     1       2.901  -5.367  10.328  1.00  0.00     0.261 C 
BRANCH  31  32
ATOM     32  O   UNL     1       3.646  -6.550  10.080  1.00  0.00    -0.460 OA
BRANCH  32  33
ATOM     33  C   UNL     1       4.003  -7.203  11.210  1.00  0.00     0.338 C 
ATOM     34  O   UNL     1       3.465  -7.145  12.302  1.00  0.00    -0.246 OA
BRANCH  33  35
ATOM     35  C   UNL     1       5.298  -7.844  10.979  1.00  0.00     0.060 A 
ATOM     36  C   UNL     1       5.869  -8.506  12.068  1.00  0.00     0.016 A 
ATOM     37  C   UNL     1       6.039  -7.500   9.839  1.00  0.00     0.016 A 
ATOM     38  C   UNL     1       7.237  -8.638  12.102  1.00  0.00     0.010 A 
ATOM     39  C   UNL     1       7.405  -7.599   9.890  1.00  0.00     0.010 A 
ATOM     40  C   UNL     1       7.988  -8.101  11.051  1.00  0.00    -0.014 A 
BRANCH  40  41
ATOM     41  C   UNL     1       9.424  -8.239  11.091  1.00  0.00     0.031 A 
ATOM     42  C   UNL     1       9.839  -9.624  10.784  1.00  0.00     0.074 A 
ATOM     43  C   UNL     1      10.253  -7.195  11.268  1.00  0.00     0.049 A 
ATOM     44  N   UNL     1      10.346 -10.473  11.610  1.00  0.00    -0.248 NA
ATOM     45  C   UNL     1       9.444 -10.206   9.488  1.00  0.00     0.031 C 
ATOM     46  C   UNL     1       9.919  -5.771  11.337  1.00  0.00     0.029 A 
ATOM     47  N   UNL     1      11.611  -7.187  11.308  1.00  0.00    -0.354 N 
ATOM     48  C   UNL     1      10.551 -11.628  10.870  1.00  0.00     0.074 A 
ATOM     49  C   UNL     1       9.776 -11.484   9.667  1.00  0.00     0.031 C 
ATOM     50  C   UNL     1      11.046  -5.042  11.153  1.00  0.00     0.029 A 
ATOM     51  C   UNL     1      12.184  -5.944  11.065  1.00  0.00     0.049 A 
ATOM     52  H   UNL     1      12.144  -7.994  11.493  1.00  0.00     0.167 HD
ATOM     53  C   UNL     1      11.593 -12.453  11.159  1.00  0.00     0.031 A 
ATOM     54  C   UNL     1      13.483  -5.701  10.742  1.00  0.00     0.031 A 
ATOM     55  C   UNL     1      12.123 -12.184  12.473  1.00  0.00     0.049 A 
ATOM     56  C   UNL     1      14.267  -6.901  11.127  1.00  0.00     0.074 A 
ATOM     57  C   UNL     1      11.590 -12.177  13.748  1.00  0.00     0.029 A 
ATOM     58  N   UNL     1      13.279 -11.440  12.535  1.00  0.00    -0.354 N 
ATOM     59  N   UNL     1      14.489  -7.235  12.365  1.00  0.00    -0.248 NA
ATOM     60  C   UNL     1      14.385  -7.984  10.160  1.00  0.00     0.031 C 
ATOM     61  C   UNL     1      12.194 -11.060  14.393  1.00  0.00     0.029 A 
ATOM     62  C   UNL     1      13.129 -10.502  13.521  1.00  0.00     0.049 A 
ATOM     63  H   UNL     1      14.075 -11.562  11.969  1.00  0.00     0.167 HD
ATOM     64  C   UNL     1      14.285  -8.607  12.394  1.00  0.00     0.074 A 
ATOM     65  C   UNL     1      14.332  -9.029  10.993  1.00  0.00     0.031 C 
ATOM     66  C   UNL     1      13.786  -9.215  13.510  1.00  0.00     0.031 A 
BRANCH  53  67
ATOM     67  C   UNL     1      12.417 -13.125  10.088  1.00  0.00    -0.014 A 
ATOM     68  C   UNL     1      13.500 -13.923  10.493  1.00  0.00     0.009 A 
ATOM     69  C   UNL     1      12.367 -12.770   8.726  1.00  0.00     0.009 A 
ATOM     70  C   UNL     1      14.527 -14.257   9.604  1.00  0.00     0.001 A 
ATOM     71  C   UNL     1      13.368 -13.138   7.826  1.00  0.00     0.001 A 
ATOM     72  C   UNL     1      14.466 -13.854   8.274  1.00  0.00     0.000 A 
ENDBRANCH  53  67
BRANCH  54  73
ATOM     73  C   UNL     1      14.066  -4.630   9.898  1.00  0.00    -0.014 A 
ATOM     74  C   UNL     1      15.460  -4.447   9.835  1.00  0.00     0.009 A 
ATOM     75  C   UNL     1      13.283  -3.960   8.942  1.00  0.00     0.009 A 
ATOM     76  C   UNL     1      16.045  -3.670   8.823  1.00  0.00     0.001 A 
ATOM     77  C   UNL     1      13.866  -3.179   7.937  1.00  0.00     0.001 A 
ATOM     78  C   UNL     1      15.248  -3.050   7.865  1.00  0.00     0.000 A 
ENDBRANCH  54  73
BRANCH  66  79
ATOM     79  C   UNL     1      13.690  -8.403  14.779  1.00  0.00    -0.014 A 
ATOM     80  C   UNL     1      12.936  -7.220  14.891  1.00  0.00     0.009 A 
ATOM     81  C   UNL     1      14.257  -8.940  15.944  1.00  0.00     0.009 A 
ATOM     82  C   UNL     1      12.787  -6.579  16.126  1.00  0.00     0.001 A 
ATOM     83  C   UNL     1      14.087  -8.315  17.180  1.00  0.00     0.001 A 
ATOM     84  C   UNL     1      13.360  -7.131  17.270  1.00  0.00     0.000 A 
ENDBRANCH  66  79
ENDBRANCH  40  41
ENDBRANCH  33  35
ENDBRANCH  32  33
ENDBRANCH  31  32
ENDBRANCH  30  31
ENDBRANCH  29  30
ENDBRANCH   1  29
TORSDOF 18
