REMARK SMILES Cc1ccc(NC(=O)c2cnn3c2NC2=C(C(=O)CCC2)[C@H]3c2ccc(C(=O)OCCOCCOC(=O)c3ccc(-c4c5nc(c(-c6ccccc6)c6ccc([nH]6)c(-c6ccccc6)c6nc(c(-c7ccccc7)c7ccc4[nH]7)C=C6)C=C5)cc3)cc2)cc1
REMARK SMILES IDX 31 1 30 2 29 3 27 4 28 5 26 6 23 7 24 8 87 9 25 10 86 11
REMARK SMILES IDX 22 12 9 13 10 14 13 15 11 16 12 17 14 18 15 19 16 21 21 22
REMARK SMILES IDX 17 23 20 24 18 25 19 26 7 27 6 28 8 30 5 31 1 32 2 33 3 34
REMARK SMILES IDX 89 35 4 36 88 37 32 38 33 39 34 40 35 41 36 42 37 43 38 44
REMARK SMILES IDX 39 45 85 46 40 47 84 48 41 49 42 50 43 51 78 52 44 53 83 54
REMARK SMILES IDX 77 55 79 56 45 57 82 58 76 59 75 60 46 62 68 63 53 64 67 65
REMARK SMILES IDX 54 66 57 67 66 68 80 69 55 70 56 71 65 73 81 74 58 75 47 76
REMARK SMILES IDX 48 77 52 78 49 79 51 80 50 81 69 82 70 83 74 84 71 85 73 86
REMARK SMILES IDX 72 87 59 88 60 89 64 90 61 91 63 92 62 93
REMARK H PARENT 14 20 6 29 79 61 57 72
REMARK Flexibility Score: inf
ROOT
ATOM      1  C   UNL     1       1.751  -2.151  -7.718  1.00  0.00     0.202 C 
ENDROOT
BRANCH   1   2
ATOM      2  C   UNL     1       0.012  -1.878  -7.191  1.00  0.00     0.261 C 
BRANCH   2   3
ATOM      3  O   UNL     1      -1.123  -3.259  -6.150  1.00  0.00    -0.460 OA
BRANCH   3   4
ATOM      4  C   UNL     1      -1.309  -4.624  -5.638  1.00  0.00     0.338 C 
ATOM      5  O   UNL     1      -1.181  -5.630  -6.359  1.00  0.00    -0.246 OA
BRANCH   4   6
ATOM      6  C   UNL     1      -1.492  -5.016  -4.199  1.00  0.00     0.060 A 
ATOM      7  C   UNL     1      -1.752  -6.069  -1.565  1.00  0.00    -0.019 A 
ATOM      8  C   UNL     1      -2.030  -6.878  -2.671  1.00  0.00     0.007 A 
ATOM      9  C   UNL     1      -1.073  -4.870  -1.810  1.00  0.00     0.007 A 
ATOM     10  C   UNL     1      -1.920  -6.343  -3.962  1.00  0.00     0.016 A 
ATOM     11  C   UNL     1      -1.036  -4.314  -3.095  1.00  0.00     0.016 A 
BRANCH   7  12
ATOM     12  C   UNL     1      -2.504  -6.258  -0.198  1.00  0.00     0.175 C 
ATOM     13  C   UNL     1      -3.604  -2.874  -0.041  1.00  0.00     0.102 A 
ATOM     14  C   UNL     1      -2.770  -3.015   1.111  1.00  0.00     0.151 A 
ATOM     15  C   UNL     1      -3.835  -4.179  -0.429  1.00  0.00     0.142 A 
ATOM     16  N   UNL     1      -2.300  -4.255   1.280  1.00  0.00    -0.178 NA
ATOM     17  N   UNL     1      -2.894  -4.919   0.277  1.00  0.00    -0.237 N 
ATOM     18  N   UNL     1      -4.628  -4.861  -1.319  1.00  0.00    -0.343 N 
ATOM     19  C   UNL     1      -4.747  -6.259  -1.208  1.00  0.00     0.026 C 
ATOM     20  H   UNL     1      -5.109  -4.376  -2.029  1.00  0.00     0.168 HD
ATOM     21  C   UNL     1      -3.851  -6.910  -0.424  1.00  0.00     0.044 C 
ATOM     22  C   UNL     1      -5.994  -6.974  -1.636  1.00  0.00     0.055 C 
ATOM     23  C   UNL     1      -4.519  -7.572   0.732  1.00  0.00     0.163 C 
ATOM     24  C   UNL     1      -6.721  -7.589  -0.437  1.00  0.00     0.014 C 
ATOM     25  O   UNL     1      -3.859  -8.149   1.589  1.00  0.00    -0.294 OA
ATOM     26  C   UNL     1      -6.012  -7.297   0.883  1.00  0.00     0.081 C 
BRANCH  13  27
ATOM     27  C   UNL     1      -4.125  -1.660  -0.630  1.00  0.00     0.261 C 
ATOM     28  N   UNL     1      -3.362  -0.502  -0.592  1.00  0.00    -0.322 N 
ATOM     29  H   UNL     1      -3.885   0.330  -0.659  1.00  0.00     0.170 HD
ATOM     30  O   UNL     1      -5.253  -1.614  -1.121  1.00  0.00    -0.269 OA
BRANCH  28  31
ATOM     31  C   UNL     1      -1.968  -0.303  -0.472  1.00  0.00     0.041 A 
ATOM     32  C   UNL     1       2.278   0.381   0.051  1.00  0.00     0.044 C 
ATOM     33  C   UNL     1       0.809   0.171  -0.169  1.00  0.00    -0.051 A 
ATOM     34  C   UNL     1       0.341  -1.082  -0.559  1.00  0.00     0.005 A 
ATOM     35  C   UNL     1      -0.121   1.195   0.040  1.00  0.00     0.005 A 
ATOM     36  C   UNL     1      -1.028  -1.296  -0.734  1.00  0.00     0.026 A 
ATOM     37  C   UNL     1      -1.497   0.963  -0.122  1.00  0.00     0.026 A 
ENDBRANCH  28  31
ENDBRANCH  13  27
ENDBRANCH   7  12
ENDBRANCH   4   6
ENDBRANCH   3   4
ENDBRANCH   2   3
ENDBRANCH   1   2
BRANCH   1  38
ATOM     38  O   UNL     1       2.288  -3.323  -8.447  1.00  0.00    -0.374 OA
BRANCH  38  39
ATOM     39  C   UNL     1       2.917  -4.396  -7.683  1.00  0.00     0.202 C 
BRANCH  39  40
ATOM     40  C   UNL     1       3.829  -5.350  -8.489  1.00  0.00     0.261 C 
BRANCH  40  41
ATOM     41  O   UNL     1       3.118  -6.121  -9.466  1.00  0.00    -0.460 OA
BRANCH  41  42
ATOM     42  C   UNL     1       2.618  -5.434 -10.520  1.00  0.00     0.338 C 
ATOM     43  O   UNL     1       3.200  -4.594 -11.181  1.00  0.00    -0.246 OA
BRANCH  42  44
ATOM     44  C   UNL     1       1.164  -5.745 -10.568  1.00  0.00     0.060 A 
ATOM     45  C   UNL     1       0.286  -4.811 -11.126  1.00  0.00     0.016 A 
ATOM     46  C   UNL     1       0.659  -6.852  -9.868  1.00  0.00     0.016 A 
ATOM     47  C   UNL     1      -1.091  -4.958 -10.926  1.00  0.00     0.010 A 
ATOM     48  C   UNL     1      -0.697  -6.947  -9.597  1.00  0.00     0.010 A 
ATOM     49  C   UNL     1      -1.575  -5.985 -10.095  1.00  0.00    -0.014 A 
BRANCH  49  50
ATOM     50  C   UNL     1      -3.002  -6.175  -9.792  1.00  0.00     0.031 A 
ATOM     51  C   UNL     1      -3.788  -6.841 -10.812  1.00  0.00     0.074 A 
ATOM     52  C   UNL     1      -3.633  -5.769  -8.668  1.00  0.00     0.049 A 
ATOM     53  N   UNL     1      -4.991  -6.512 -11.129  1.00  0.00    -0.248 NA
ATOM     54  C   UNL     1      -3.226  -7.913 -11.629  1.00  0.00     0.031 C 
ATOM     55  C   UNL     1      -4.961  -5.936  -8.113  1.00  0.00     0.029 A 
ATOM     56  N   UNL     1      -3.111  -4.921  -7.758  1.00  0.00    -0.354 N 
ATOM     57  C   UNL     1      -5.489  -7.658 -11.688  1.00  0.00     0.074 A 
ATOM     58  C   UNL     1      -4.330  -8.292 -12.273  1.00  0.00     0.031 C 
ATOM     59  C   UNL     1      -5.181  -4.979  -7.174  1.00  0.00     0.029 A 
ATOM     60  C   UNL     1      -4.017  -4.089  -7.133  1.00  0.00     0.049 A 
ATOM     61  H   UNL     1      -2.148  -4.898  -7.554  1.00  0.00     0.167 HD
ATOM     62  C   UNL     1      -6.692  -8.122 -11.228  1.00  0.00     0.031 A 
ATOM     63  C   UNL     1      -3.941  -2.716  -7.300  1.00  0.00     0.031 A 
ATOM     64  C   UNL     1      -7.418  -7.120 -10.390  1.00  0.00     0.049 A 
ATOM     65  C   UNL     1      -5.142  -2.320  -8.235  1.00  0.00     0.074 A 
ATOM     66  C   UNL     1      -8.065  -7.126  -9.159  1.00  0.00     0.029 A 
ATOM     67  N   UNL     1      -7.325  -5.760 -10.719  1.00  0.00    -0.354 N 
ATOM     68  N   UNL     1      -5.907  -3.228  -8.803  1.00  0.00    -0.248 NA
ATOM     69  C   UNL     1      -5.631  -0.985  -8.597  1.00  0.00     0.031 C 
ATOM     70  C   UNL     1      -8.349  -5.776  -8.772  1.00  0.00     0.029 A 
ATOM     71  C   UNL     1      -7.869  -4.934  -9.757  1.00  0.00     0.049 A 
ATOM     72  H   UNL     1      -6.913  -5.429 -11.550  1.00  0.00     0.167 HD
ATOM     73  C   UNL     1      -6.972  -2.691  -9.468  1.00  0.00     0.074 A 
ATOM     74  C   UNL     1      -6.716  -1.262  -9.364  1.00  0.00     0.031 C 
ATOM     75  C   UNL     1      -7.953  -3.488 -10.013  1.00  0.00     0.031 A 
BRANCH  62  76
ATOM     76  C   UNL     1      -7.033  -9.612 -11.297  1.00  0.00    -0.014 A 
ATOM     77  C   UNL     1      -8.108 -10.137 -10.565  1.00  0.00     0.009 A 
ATOM     78  C   UNL     1      -6.294 -10.574 -12.020  1.00  0.00     0.009 A 
ATOM     79  C   UNL     1      -8.377 -11.517 -10.505  1.00  0.00     0.001 A 
ATOM     80  C   UNL     1      -6.544 -11.951 -11.963  1.00  0.00     0.001 A 
ATOM     81  C   UNL     1      -7.587 -12.427 -11.194  1.00  0.00     0.000 A 
ENDBRANCH  62  76
BRANCH  63  82
ATOM     82  C   UNL     1      -2.422  -2.126  -7.229  1.00  0.00    -0.014 A 
ATOM     83  C   UNL     1      -1.761  -1.477  -5.695  1.00  0.00     0.009 A 
ATOM     84  C   UNL     1      -1.395  -3.219  -8.154  1.00  0.00     0.009 A 
ATOM     85  C   UNL     1      -0.179  -2.038  -4.997  1.00  0.00     0.001 A 
ATOM     86  C   UNL     1       0.102  -3.931  -7.478  1.00  0.00     0.001 A 
ATOM     87  C   UNL     1       0.754  -3.342  -5.845  1.00  0.00     0.000 A 
ENDBRANCH  63  82
BRANCH  75  88
ATOM     88  C   UNL     1      -9.146  -3.063 -10.854  1.00  0.00    -0.014 A 
ATOM     89  C   UNL     1      -9.753  -1.807 -10.830  1.00  0.00     0.009 A 
ATOM     90  C   UNL     1      -9.763  -4.032 -11.693  1.00  0.00     0.009 A 
ATOM     91  C   UNL     1     -10.862  -1.522 -11.650  1.00  0.00     0.001 A 
ATOM     92  C   UNL     1     -10.870  -3.762 -12.498  1.00  0.00     0.001 A 
ATOM     93  C   UNL     1     -11.412  -2.492 -12.488  1.00  0.00     0.000 A 
ENDBRANCH  75  88
ENDBRANCH  49  50
ENDBRANCH  42  44
ENDBRANCH  41  42
ENDBRANCH  40  41
ENDBRANCH  39  40
ENDBRANCH  38  39
ENDBRANCH   1  38
TORSDOF 17
