REMARK SMILES C[C@@H](CC(=O)OCCOCCOC(=O)c1ccc(-c2c3nc(c(-c4ccccc4)c4ccc([nH]4)c(-c4ccccc4)c4nc(c(-c5ccccc5)c5ccc2[nH]5)C=C4)C=C3)cc1)NC(=O)/C=C/c1cccnc1
REMARK SMILES IDX 8 1 7 2 6 3 4 4 5 5 3 6 2 7 1 8 63 9 64 10 65 12 66 13 67 14
REMARK SMILES IDX 68 15 69 16 73 17 70 18 72 19 71 20 9 21 10 22 11 23 12 24
REMARK SMILES IDX 13 25 14 26 15 27 16 28 62 29 17 30 61 31 18 32 19 33 20 34
REMARK SMILES IDX 55 35 21 36 60 37 54 38 56 39 22 40 59 41 53 42 52 43 23 45
REMARK SMILES IDX 45 46 30 47 44 48 31 49 34 50 43 51 57 52 32 53 33 54 42 56
REMARK SMILES IDX 58 57 35 58 24 59 25 60 29 61 26 62 28 63 27 64 46 65 47 66
REMARK SMILES IDX 51 67 48 68 50 69 49 70 36 71 37 72 41 73 38 74 40 75 39 76
REMARK H PARENT 63 11 56 44 34 55
REMARK Flexibility Score: inf
ROOT
ATOM      1  C   UNL     1      -0.789   3.414  -2.989  1.00  0.00     0.202 C 
ENDROOT
BRANCH   1   2
ATOM      2  C   UNL     1       0.642   3.397  -2.451  1.00  0.00     0.261 C 
BRANCH   2   3
ATOM      3  O   UNL     1       0.794   2.444  -1.381  1.00  0.00    -0.463 OA
BRANCH   3   4
ATOM      4  C   UNL     1       1.426   2.896  -0.273  1.00  0.00     0.307 C 
ATOM      5  O   UNL     1       1.880   4.029  -0.147  1.00  0.00    -0.252 OA
BRANCH   4   6
ATOM      6  C   UNL     1       1.570   1.879   0.835  1.00  0.00     0.147 C 
BRANCH   6   7
ATOM      7  C   UNL     1       0.941   0.481   0.747  1.00  0.00     0.090 C 
ATOM      8  C   UNL     1       1.234  -0.286  -0.540  1.00  0.00     0.031 C 
BRANCH   7   9
ATOM      9  N   UNL     1      -0.494   0.509   1.017  1.00  0.00    -0.350 N 
ATOM     10  C   UNL     1      -1.216   0.262   2.143  1.00  0.00     0.244 C 
ATOM     11  H   UNL     1      -1.043   0.753   0.237  1.00  0.00     0.164 HD
ATOM     12  O   UNL     1      -2.441   0.366   2.099  1.00  0.00    -0.270 OA
BRANCH  10  13
ATOM     13  C   UNL     1      -0.584  -0.258   3.380  1.00  0.00     0.072 C 
ATOM     14  C   UNL     1       0.539   0.199   3.955  1.00  0.00     0.015 C 
BRANCH  14  15
ATOM     15  C   UNL     1       1.189  -0.370   5.152  1.00  0.00    -0.007 A 
ATOM     16  C   UNL     1       0.793  -1.559   5.772  1.00  0.00     0.011 A 
ATOM     17  C   UNL     1       2.316   0.258   5.686  1.00  0.00     0.119 A 
ATOM     18  C   UNL     1       1.512  -2.058   6.860  1.00  0.00     0.021 A 
ATOM     19  N   UNL     1       3.037  -0.202   6.738  1.00  0.00    -0.264 NA
ATOM     20  C   UNL     1       2.617  -1.353   7.301  1.00  0.00     0.111 A 
ENDBRANCH  14  15
ENDBRANCH  10  13
ENDBRANCH   7   9
ENDBRANCH   6   7
ENDBRANCH   4   6
ENDBRANCH   3   4
ENDBRANCH   2   3
ENDBRANCH   1   2
BRANCH   1  21
ATOM     21  O   UNL     1      -1.769   3.923  -2.087  1.00  0.00    -0.374 OA
BRANCH  21  22
ATOM     22  C   UNL     1      -2.167   3.078  -1.003  1.00  0.00     0.202 C 
BRANCH  22  23
ATOM     23  C   UNL     1      -3.010   1.863  -1.410  1.00  0.00     0.261 C 
BRANCH  23  24
ATOM     24  O   UNL     1      -2.206   0.873  -2.089  1.00  0.00    -0.460 OA
BRANCH  24  25
ATOM     25  C   UNL     1      -2.788   0.347  -3.196  1.00  0.00     0.338 C 
ATOM     26  O   UNL     1      -3.934   0.512  -3.585  1.00  0.00    -0.246 OA
BRANCH  25  27
ATOM     27  C   UNL     1      -1.782  -0.350  -4.017  1.00  0.00     0.060 A 
ATOM     28  C   UNL     1      -1.418   0.229  -5.239  1.00  0.00     0.016 A 
ATOM     29  C   UNL     1      -1.292  -1.605  -3.654  1.00  0.00     0.016 A 
ATOM     30  C   UNL     1      -0.573  -0.456  -6.114  1.00  0.00     0.010 A 
ATOM     31  C   UNL     1      -0.452  -2.295  -4.539  1.00  0.00     0.010 A 
ATOM     32  C   UNL     1      -0.105  -1.735  -5.782  1.00  0.00    -0.014 A 
BRANCH  32  33
ATOM     33  C   UNL     1       0.683  -2.515  -6.770  1.00  0.00     0.031 A 
ATOM     34  C   UNL     1       0.002  -3.547  -7.626  1.00  0.00     0.074 A 
ATOM     35  C   UNL     1       2.001  -2.293  -6.919  1.00  0.00     0.049 A 
ATOM     36  N   UNL     1       0.521  -4.353  -8.519  1.00  0.00    -0.248 NA
ATOM     37  C   UNL     1      -1.453  -3.687  -7.460  1.00  0.00     0.031 C 
ATOM     38  C   UNL     1       2.777  -1.290  -6.192  1.00  0.00     0.029 A 
ATOM     39  N   UNL     1       2.921  -2.908  -7.732  1.00  0.00    -0.354 N 
ATOM     40  C   UNL     1      -0.541  -5.095  -9.021  1.00  0.00     0.074 A 
ATOM     41  C   UNL     1      -1.730  -4.659  -8.319  1.00  0.00     0.031 C 
ATOM     42  C   UNL     1       4.061  -1.365  -6.584  1.00  0.00     0.029 A 
ATOM     43  C   UNL     1       4.202  -2.444  -7.561  1.00  0.00     0.049 A 
ATOM     44  H   UNL     1       2.685  -3.614  -8.377  1.00  0.00     0.167 HD
ATOM     45  C   UNL     1      -0.529  -6.051  -9.982  1.00  0.00     0.031 A 
ATOM     46  C   UNL     1       5.362  -2.858  -8.105  1.00  0.00     0.031 A 
ATOM     47  C   UNL     1       0.648  -6.502 -10.674  1.00  0.00     0.049 A 
ATOM     48  C   UNL     1       5.363  -3.999  -9.086  1.00  0.00     0.074 A 
ATOM     49  C   UNL     1       0.746  -7.445 -11.684  1.00  0.00     0.029 A 
ATOM     50  N   UNL     1       1.934  -6.056 -10.418  1.00  0.00    -0.354 N 
ATOM     51  N   UNL     1       4.348  -4.670  -9.573  1.00  0.00    -0.248 NA
ATOM     52  C   UNL     1       6.674  -4.442  -9.587  1.00  0.00     0.031 C 
ATOM     53  C   UNL     1       2.099  -7.612 -11.998  1.00  0.00     0.029 A 
ATOM     54  C   UNL     1       2.837  -6.737 -11.219  1.00  0.00     0.049 A 
ATOM     55  H   UNL     1       2.171  -5.359  -9.765  1.00  0.00     0.167 HD
ATOM     56  C   UNL     1       4.895  -5.603 -10.445  1.00  0.00     0.074 A 
ATOM     57  C   UNL     1       6.329  -5.402 -10.434  1.00  0.00     0.031 C 
ATOM     58  C   UNL     1       4.263  -6.543 -11.189  1.00  0.00     0.031 A 
BRANCH  45  59
ATOM     59  C   UNL     1      -1.837  -6.706 -10.321  1.00  0.00    -0.014 A 
ATOM     60  C   UNL     1      -2.806  -6.042 -11.088  1.00  0.00     0.009 A 
ATOM     61  C   UNL     1      -2.079  -8.027  -9.913  1.00  0.00     0.009 A 
ATOM     62  C   UNL     1      -4.003  -6.681 -11.418  1.00  0.00     0.001 A 
ATOM     63  C   UNL     1      -3.267  -8.670 -10.262  1.00  0.00     0.001 A 
ATOM     64  C   UNL     1      -4.231  -7.994 -11.008  1.00  0.00     0.000 A 
ENDBRANCH  45  59
BRANCH  46  65
ATOM     65  C   UNL     1       6.641  -2.221  -7.697  1.00  0.00    -0.014 A 
ATOM     66  C   UNL     1       7.352  -1.405  -8.587  1.00  0.00     0.009 A 
ATOM     67  C   UNL     1       7.165  -2.450  -6.414  1.00  0.00     0.009 A 
ATOM     68  C   UNL     1       8.573  -0.843  -8.207  1.00  0.00     0.001 A 
ATOM     69  C   UNL     1       8.373  -1.867  -6.029  1.00  0.00     0.001 A 
ATOM     70  C   UNL     1       9.080  -1.071  -6.928  1.00  0.00     0.000 A 
ENDBRANCH  46  65
BRANCH  58  71
ATOM     71  C   UNL     1       5.114  -7.424 -12.058  1.00  0.00    -0.014 A 
ATOM     72  C   UNL     1       5.881  -8.460 -11.504  1.00  0.00     0.009 A 
ATOM     73  C   UNL     1       5.114  -7.245 -13.450  1.00  0.00     0.009 A 
ATOM     74  C   UNL     1       6.651  -9.286 -12.326  1.00  0.00     0.001 A 
ATOM     75  C   UNL     1       5.866  -8.088 -14.271  1.00  0.00     0.001 A 
ATOM     76  C   UNL     1       6.639  -9.102 -13.708  1.00  0.00     0.000 A 
ENDBRANCH  58  71
ENDBRANCH  32  33
ENDBRANCH  25  27
ENDBRANCH  24  25
ENDBRANCH  23  24
ENDBRANCH  22  23
ENDBRANCH  21  22
ENDBRANCH   1  21
TORSDOF 18
