REMARK SMILES [NH3+][C@H](Cn1nnc2ccccc21)C(=O)OCCOCCOC(=O)c1ccc(-c2c3nc(c(-c4ccccc4)c4ccc([nH]4)c(-c4ccccc4)c4nc(c(-c5ccccc5)c5ccc2[nH]5)C=C4)C=C3)cc1
REMARK SMILES IDX 18 1 17 2 16 3 15 4 13 5 14 6 2 7 1 8 3 12 4 13 5 14 12 15
REMARK SMILES IDX 6 16 7 17 11 18 8 19 10 20 9 21 19 22 20 23 21 24 22 25
REMARK SMILES IDX 23 26 24 27 25 28 71 29 26 30 70 31 27 32 28 33 29 34 64 35
REMARK SMILES IDX 30 36 69 37 63 38 65 39 31 40 68 41 62 42 61 43 32 45 54 46
REMARK SMILES IDX 39 47 53 48 40 49 43 50 52 51 66 52 41 53 42 54 51 56 67 57
REMARK SMILES IDX 44 58 33 59 34 60 38 61 35 62 37 63 36 64 55 65 56 66 60 67
REMARK SMILES IDX 57 68 59 69 58 70 45 71 46 72 50 73 47 74 49 75 48 76
REMARK H PARENT 1 9 1 10 1 11 65 44 43 55
REMARK Flexibility Score: inf
ROOT
ATOM      1  O   UNL     1      -3.046   1.644   1.398  1.00  0.00    -0.374 OA
ENDROOT
BRANCH   1   2
ATOM      2  C   UNL     1      -3.638   1.329   0.145  1.00  0.00     0.202 C 
BRANCH   2   3
ATOM      3  C   UNL     1      -2.861   1.598  -1.151  1.00  0.00     0.261 C 
BRANCH   3   4
ATOM      4  O   UNL     1      -1.493   1.164  -1.157  1.00  0.00    -0.459 OA
BRANCH   4   5
ATOM      5  C   UNL     1      -0.607   2.178  -0.928  1.00  0.00     0.366 C 
ATOM      6  O   UNL     1      -0.923   3.315  -0.596  1.00  0.00    -0.245 OA
BRANCH   5   7
ATOM      7  C   UNL     1       0.841   1.759  -1.169  1.00  0.00     0.313 C 
BRANCH   7   8
ATOM      8  N   UNL     1       1.108   1.720  -2.628  1.00  0.00    -0.344 N 
ATOM      9  H   UNL     1       0.827   2.606  -3.049  1.00  0.00     0.345 HD
ATOM     10  H   UNL     1       0.576   0.960  -3.051  1.00  0.00     0.345 HD
ATOM     11  H   UNL     1       2.104   1.569  -2.788  1.00  0.00     0.345 HD
ENDBRANCH   7   8
BRANCH   7  12
ATOM     12  C   UNL     1       1.232   0.463  -0.439  1.00  0.00     0.224 C 
BRANCH  12  13
ATOM     13  N   UNL     1       2.664   0.417  -0.193  1.00  0.00    -0.238 N 
ATOM     14  N   UNL     1       3.511   0.617  -1.223  1.00  0.00    -0.066 NA
ATOM     15  C   UNL     1       3.329   0.372   1.006  1.00  0.00     0.089 A 
ATOM     16  N   UNL     1       4.707   0.868  -0.713  1.00  0.00    -0.130 NA
ATOM     17  C   UNL     1       4.626   0.729   0.644  1.00  0.00     0.113 A 
ATOM     18  C   UNL     1       2.960   0.104   2.329  1.00  0.00     0.030 A 
ATOM     19  C   UNL     1       5.605   0.890   1.633  1.00  0.00     0.032 A 
ATOM     20  C   UNL     1       3.964   0.231   3.300  1.00  0.00     0.002 A 
ATOM     21  C   UNL     1       5.258   0.635   2.964  1.00  0.00     0.002 A 
ENDBRANCH  12  13
ENDBRANCH   7  12
ENDBRANCH   5   7
ENDBRANCH   4   5
ENDBRANCH   3   4
ENDBRANCH   2   3
ENDBRANCH   1   2
BRANCH   1  22
ATOM     22  C   UNL     1      -1.979   0.820   1.868  1.00  0.00     0.202 C 
BRANCH  22  23
ATOM     23  C   UNL     1      -2.257  -0.673   2.122  1.00  0.00     0.261 C 
BRANCH  23  24
ATOM     24  O   UNL     1      -2.510  -1.366   0.891  1.00  0.00    -0.460 OA
BRANCH  24  25
ATOM     25  C   UNL     1      -3.523  -2.274   0.943  1.00  0.00     0.338 C 
ATOM     26  O   UNL     1      -3.952  -2.851   1.928  1.00  0.00    -0.246 OA
BRANCH  25  27
ATOM     27  C   UNL     1      -4.257  -2.116  -0.327  1.00  0.00     0.060 A 
ATOM     28  C   UNL     1      -3.570  -2.090  -1.541  1.00  0.00     0.016 A 
ATOM     29  C   UNL     1      -5.584  -1.662  -0.233  1.00  0.00     0.016 A 
ATOM     30  C   UNL     1      -4.189  -1.517  -2.644  1.00  0.00     0.010 A 
ATOM     31  C   UNL     1      -6.187  -1.058  -1.332  1.00  0.00     0.010 A 
ATOM     32  C   UNL     1      -5.474  -0.952  -2.527  1.00  0.00    -0.014 A 
BRANCH  32  33
ATOM     33  C   UNL     1      -6.088  -0.439  -3.753  1.00  0.00     0.031 A 
ATOM     34  C   UNL     1      -6.357  -1.505  -4.755  1.00  0.00     0.074 A 
ATOM     35  C   UNL     1      -6.510   0.818  -4.000  1.00  0.00     0.049 A 
ATOM     36  N   UNL     1      -5.875  -1.621  -5.948  1.00  0.00    -0.248 NA
ATOM     37  C   UNL     1      -7.183  -2.641  -4.317  1.00  0.00     0.031 C 
ATOM     38  C   UNL     1      -6.642   1.944  -3.074  1.00  0.00     0.029 A 
ATOM     39  N   UNL     1      -7.011   1.321  -5.170  1.00  0.00    -0.354 N 
ATOM     40  C   UNL     1      -6.434  -2.783  -6.471  1.00  0.00     0.074 A 
ATOM     41  C   UNL     1      -7.134  -3.428  -5.389  1.00  0.00     0.031 C 
ATOM     42  C   UNL     1      -7.388   2.913  -3.658  1.00  0.00     0.029 A 
ATOM     43  C   UNL     1      -7.663   2.539  -5.036  1.00  0.00     0.049 A 
ATOM     44  H   UNL     1      -6.916   0.858  -6.033  1.00  0.00     0.167 HD
ATOM     45  C   UNL     1      -6.425  -3.067  -7.800  1.00  0.00     0.031 A 
ATOM     46  C   UNL     1      -8.427   3.152  -5.975  1.00  0.00     0.031 A 
ATOM     47  C   UNL     1      -5.451  -2.294  -8.518  1.00  0.00     0.049 A 
ATOM     48  C   UNL     1      -8.073   2.593  -7.298  1.00  0.00     0.074 A 
ATOM     49  C   UNL     1      -4.075  -2.196  -8.486  1.00  0.00     0.029 A 
ATOM     50  N   UNL     1      -5.892  -1.200  -9.219  1.00  0.00    -0.354 N 
ATOM     51  N   UNL     1      -6.939   2.799  -7.899  1.00  0.00    -0.248 NA
ATOM     52  C   UNL     1      -8.869   1.494  -7.819  1.00  0.00     0.031 C 
ATOM     53  C   UNL     1      -3.795  -0.825  -8.754  1.00  0.00     0.029 A 
ATOM     54  C   UNL     1      -5.013  -0.177  -8.971  1.00  0.00     0.049 A 
ATOM     55  H   UNL     1      -6.691  -1.157  -9.793  1.00  0.00     0.167 HD
ATOM     56  C   UNL     1      -6.679   1.617  -8.573  1.00  0.00     0.074 A 
ATOM     57  C   UNL     1      -7.952   0.902  -8.586  1.00  0.00     0.031 C 
ATOM     58  C   UNL     1      -5.399   1.209  -8.813  1.00  0.00     0.031 A 
BRANCH  45  59
ATOM     59  C   UNL     1      -7.528  -3.827  -8.488  1.00  0.00    -0.014 A 
ATOM     60  C   UNL     1      -8.799  -4.024  -7.913  1.00  0.00     0.009 A 
ATOM     61  C   UNL     1      -7.395  -4.146  -9.851  1.00  0.00     0.009 A 
ATOM     62  C   UNL     1      -9.879  -4.516  -8.649  1.00  0.00     0.001 A 
ATOM     63  C   UNL     1      -8.488  -4.596 -10.602  1.00  0.00     0.001 A 
ATOM     64  C   UNL     1      -9.729  -4.781 -10.001  1.00  0.00     0.000 A 
ENDBRANCH  45  59
BRANCH  46  65
ATOM     65  C   UNL     1      -9.669   3.938  -5.798  1.00  0.00    -0.014 A 
ATOM     66  C   UNL     1     -10.535   3.647  -4.729  1.00  0.00     0.009 A 
ATOM     67  C   UNL     1     -10.164   4.739  -6.842  1.00  0.00     0.009 A 
ATOM     68  C   UNL     1     -11.861   4.091  -4.729  1.00  0.00     0.001 A 
ATOM     69  C   UNL     1     -11.494   5.182  -6.843  1.00  0.00     0.001 A 
ATOM     70  C   UNL     1     -12.346   4.842  -5.795  1.00  0.00     0.000 A 
ENDBRANCH  46  65
BRANCH  58  71
ATOM     71  C   UNL     1      -4.274   2.197  -8.598  1.00  0.00    -0.014 A 
ATOM     72  C   UNL     1      -3.319   2.346  -9.617  1.00  0.00     0.009 A 
ATOM     73  C   UNL     1      -4.039   2.840  -7.370  1.00  0.00     0.009 A 
ATOM     74  C   UNL     1      -2.161   3.100  -9.413  1.00  0.00     0.001 A 
ATOM     75  C   UNL     1      -2.892   3.618  -7.176  1.00  0.00     0.001 A 
ATOM     76  C   UNL     1      -1.949   3.737  -8.193  1.00  0.00     0.000 A 
ENDBRANCH  58  71
ENDBRANCH  32  33
ENDBRANCH  25  27
ENDBRANCH  24  25
ENDBRANCH  23  24
ENDBRANCH  22  23
ENDBRANCH   1  22
TORSDOF 17
