REMARK SMILES O=C1CN(S(=O)(=O)c2ccc(CC(=O)OCCOCCOC(=O)c3ccc(-c4c5nc(c(-c6ccccc6)c6ccc([nH]6)c(-c6ccccc6)c6nc(c(-c7ccccc7)c7ccc4[nH]7)C=C6)C=C5)cc3)cc2)CCN1
REMARK SMILES IDX 17 1 16 2 15 3 13 4 14 5 12 6 11 7 8 8 9 9 73 10 10 11 72 12
REMARK SMILES IDX 5 13 6 14 7 15 4 16 1 17 2 18 3 19 76 20 75 21 74 23 18 24
REMARK SMILES IDX 19 25 20 26 21 27 22 28 23 29 24 30 25 31 71 32 26 33 70 34
REMARK SMILES IDX 27 35 28 36 29 37 64 38 30 39 69 40 63 41 65 42 31 43 68 44
REMARK SMILES IDX 62 45 61 46 32 48 54 49 39 50 53 51 40 52 43 53 52 54 66 55
REMARK SMILES IDX 41 56 42 57 51 59 67 60 44 61 33 62 34 63 38 64 35 65 37 66
REMARK SMILES IDX 36 67 55 68 56 69 60 70 57 71 59 72 58 73 45 74 46 75 50 76
REMARK SMILES IDX 47 77 49 78 48 79
REMARK H PARENT 76 22 65 47 43 58
REMARK Flexibility Score: inf
ROOT
ATOM      1  C   UNL     1      -0.351  -4.735   8.938  1.00  0.00     0.202 C 
ENDROOT
BRANCH   1   2
ATOM      2  C   UNL     1       0.931  -5.182   8.228  1.00  0.00     0.261 C 
BRANCH   2   3
ATOM      3  O   UNL     1       0.846  -5.099   6.793  1.00  0.00    -0.463 OA
BRANCH   3   4
ATOM      4  C   UNL     1       0.898  -6.290   6.138  1.00  0.00     0.310 C 
ATOM      5  O   UNL     1       1.083  -7.374   6.686  1.00  0.00    -0.252 OA
BRANCH   4   6
ATOM      6  C   UNL     1       0.735  -6.196   4.638  1.00  0.00     0.158 C 
BRANCH   6   7
ATOM      7  C   UNL     1       0.178  -4.925   4.032  1.00  0.00    -0.037 A 
ATOM      8  C   UNL     1      -0.818  -2.611   2.785  1.00  0.00     0.082 A 
ATOM      9  C   UNL     1      -1.691  -3.650   3.114  1.00  0.00     0.022 A 
ATOM     10  C   UNL     1       0.541  -2.710   3.100  1.00  0.00     0.022 A 
ATOM     11  C   UNL     1      -1.190  -4.804   3.731  1.00  0.00     0.006 A 
ATOM     12  C   UNL     1       1.036  -3.866   3.709  1.00  0.00     0.006 A 
BRANCH   8  13
ATOM     13  S   UNL     1      -1.455  -1.070   2.163  1.00  0.00     0.243 S 
ATOM     14  O   UNL     1      -0.602  -0.019   2.682  1.00  0.00    -0.207 OA
ATOM     15  O   UNL     1      -2.877  -1.043   2.423  1.00  0.00    -0.207 OA
BRANCH  13  16
ATOM     16  N   UNL     1      -1.264  -1.133   0.463  1.00  0.00    -0.187 NA
ATOM     17  O   UNL     1       2.191  -0.024   0.106  1.00  0.00    -0.274 OA
ATOM     18  C   UNL     1       0.964   0.001   0.034  1.00  0.00     0.235 C 
ATOM     19  C   UNL     1       0.131  -1.270  -0.044  1.00  0.00     0.202 C 
ATOM     20  N   UNL     1       0.299   1.194  -0.101  1.00  0.00    -0.354 N 
ATOM     21  C   UNL     1      -1.144   1.333  -0.001  1.00  0.00     0.132 C 
ATOM     22  H   UNL     1       0.831   2.003  -0.275  1.00  0.00     0.163 HD
ATOM     23  C   UNL     1      -1.911   0.025  -0.250  1.00  0.00     0.124 C 
ENDBRANCH  13  16
ENDBRANCH   8  13
ENDBRANCH   6   7
ENDBRANCH   4   6
ENDBRANCH   3   4
ENDBRANCH   2   3
ENDBRANCH   1   2
BRANCH   1  24
ATOM     24  O   UNL     1      -1.566  -5.400   8.608  1.00  0.00    -0.374 OA
BRANCH  24  25
ATOM     25  C   UNL     1      -2.136  -5.158   7.325  1.00  0.00     0.202 C 
BRANCH  25  26
ATOM     26  C   UNL     1      -2.771  -3.785   7.061  1.00  0.00     0.261 C 
BRANCH  26  27
ATOM     27  O   UNL     1      -1.850  -2.693   7.206  1.00  0.00    -0.460 OA
BRANCH  27  28
ATOM     28  C   UNL     1      -2.084  -1.912   8.290  1.00  0.00     0.338 C 
ATOM     29  O   UNL     1      -2.995  -2.016   9.094  1.00  0.00    -0.246 OA
BRANCH  28  30
ATOM     30  C   UNL     1      -0.962  -0.980   8.504  1.00  0.00     0.060 A 
ATOM     31  C   UNL     1      -0.397  -0.946   9.786  1.00  0.00     0.016 A 
ATOM     32  C   UNL     1      -0.544  -0.088   7.517  1.00  0.00     0.016 A 
ATOM     33  C   UNL     1       0.535   0.034  10.110  1.00  0.00     0.010 A 
ATOM     34  C   UNL     1       0.392   0.898   7.845  1.00  0.00     0.010 A 
ATOM     35  C   UNL     1       0.896   0.994   9.156  1.00  0.00    -0.014 A 
BRANCH  35  36
ATOM     36  C   UNL     1       1.658   2.189   9.589  1.00  0.00     0.031 A 
ATOM     37  C   UNL     1       0.920   3.483   9.804  1.00  0.00     0.074 A 
ATOM     38  C   UNL     1       2.977   2.111   9.840  1.00  0.00     0.049 A 
ATOM     39  N   UNL     1       1.381   4.649  10.179  1.00  0.00    -0.248 NA
ATOM     40  C   UNL     1      -0.532   3.460   9.563  1.00  0.00     0.031 C 
ATOM     41  C   UNL     1       3.791   0.903   9.719  1.00  0.00     0.029 A 
ATOM     42  N   UNL     1       3.861   3.075  10.254  1.00  0.00    -0.354 N 
ATOM     43  C   UNL     1       0.280   5.498  10.206  1.00  0.00     0.074 A 
ATOM     44  C   UNL     1      -0.864   4.724   9.779  1.00  0.00     0.031 C 
ATOM     45  C   UNL     1       5.059   1.198  10.051  1.00  0.00     0.029 A 
ATOM     46  C   UNL     1       5.151   2.621  10.373  1.00  0.00     0.049 A 
ATOM     47  H   UNL     1       3.596   4.003  10.447  1.00  0.00     0.167 HD
ATOM     48  C   UNL     1       0.225   6.804  10.562  1.00  0.00     0.031 A 
ATOM     49  C   UNL     1       6.280   3.283  10.688  1.00  0.00     0.031 A 
ATOM     50  C   UNL     1       1.367   7.575  10.975  1.00  0.00     0.049 A 
ATOM     51  C   UNL     1       6.205   4.753  11.007  1.00  0.00     0.074 A 
ATOM     52  C   UNL     1       1.417   8.901  11.366  1.00  0.00     0.029 A 
ATOM     53  N   UNL     1       2.664   7.088  11.042  1.00  0.00    -0.354 N 
ATOM     54  N   UNL     1       5.156   5.539  11.050  1.00  0.00    -0.248 NA
ATOM     55  C   UNL     1       7.472   5.423  11.333  1.00  0.00     0.031 C 
ATOM     56  C   UNL     1       2.753   9.234  11.610  1.00  0.00     0.029 A 
ATOM     57  C   UNL     1       3.525   8.095  11.443  1.00  0.00     0.049 A 
ATOM     58  H   UNL     1       2.932   6.164  10.836  1.00  0.00     0.167 HD
ATOM     59  C   UNL     1       5.630   6.785  11.445  1.00  0.00     0.074 A 
ATOM     60  C   UNL     1       7.059   6.645  11.639  1.00  0.00     0.031 C 
ATOM     61  C   UNL     1       4.944   7.939  11.635  1.00  0.00     0.031 A 
BRANCH  48  62
ATOM     62  C   UNL     1      -1.111   7.490  10.478  1.00  0.00    -0.014 A 
ATOM     63  C   UNL     1      -2.155   7.179  11.365  1.00  0.00     0.009 A 
ATOM     64  C   UNL     1      -1.321   8.486   9.510  1.00  0.00     0.009 A 
ATOM     65  C   UNL     1      -3.389   7.825  11.260  1.00  0.00     0.001 A 
ATOM     66  C   UNL     1      -2.545   9.152   9.429  1.00  0.00     0.001 A 
ATOM     67  C   UNL     1      -3.581   8.814  10.296  1.00  0.00     0.000 A 
ENDBRANCH  48  62
BRANCH  49  68
ATOM     68  C   UNL     1       7.584   2.568  10.706  1.00  0.00    -0.014 A 
ATOM     69  C   UNL     1       8.276   2.365  11.909  1.00  0.00     0.009 A 
ATOM     70  C   UNL     1       8.152   2.100   9.510  1.00  0.00     0.009 A 
ATOM     71  C   UNL     1       9.523   1.734  11.911  1.00  0.00     0.001 A 
ATOM     72  C   UNL     1       9.383   1.440   9.519  1.00  0.00     0.001 A 
ATOM     73  C   UNL     1      10.072   1.267  10.717  1.00  0.00     0.000 A 
ENDBRANCH  49  68
BRANCH  61  74
ATOM     74  C   UNL     1       5.720   9.129  12.131  1.00  0.00    -0.014 A 
ATOM     75  C   UNL     1       6.643   9.801  11.315  1.00  0.00     0.009 A 
ATOM     76  C   UNL     1       5.490   9.608  13.431  1.00  0.00     0.009 A 
ATOM     77  C   UNL     1       7.349  10.902  11.805  1.00  0.00     0.001 A 
ATOM     78  C   UNL     1       6.171  10.729  13.907  1.00  0.00     0.001 A 
ATOM     79  C   UNL     1       7.108  11.368  13.098  1.00  0.00     0.000 A 
ENDBRANCH  61  74
ENDBRANCH  35  36
ENDBRANCH  28  30
ENDBRANCH  27  28
ENDBRANCH  26  27
ENDBRANCH  25  26
ENDBRANCH  24  25
ENDBRANCH   1  24
TORSDOF 17
