REMARK SMILES NS(=O)(=O)c1ccc(N2N=C(C(=O)OCCOCCOC(=O)c3ccc(-c4c5nc(c(-c6ccccc6)c6ccc([nH]6)c(-c6ccccc6)c6nc(c(-c7ccccc7)c7ccc4[nH]7)C=C6)C=C5)cc3)C[C@H]2c2cccs2)cc1
REMARK SMILES IDX 16 1 15 2 14 3 12 4 13 5 11 6 9 7 10 8 72 9 71 10 8 11 5 12
REMARK SMILES IDX 6 13 79 14 7 15 78 16 2 17 3 18 4 19 1 20 73 23 74 24 77 25
REMARK SMILES IDX 75 26 76 27 17 28 18 29 19 30 20 31 21 32 22 33 23 34 24 35
REMARK SMILES IDX 70 36 25 37 69 38 26 39 27 40 28 41 63 42 29 43 68 44 62 45
REMARK SMILES IDX 64 46 30 47 67 48 61 49 60 50 31 52 53 53 38 54 52 55 39 56
REMARK SMILES IDX 42 57 51 58 65 59 40 60 41 61 50 63 66 64 43 65 32 66 33 67
REMARK SMILES IDX 37 68 34 69 36 70 35 71 54 72 55 73 59 74 56 75 58 76 57 77
REMARK SMILES IDX 44 78 45 79 49 80 46 81 48 82 47 83
REMARK H PARENT 1 21 1 22 64 51 42 62
REMARK Flexibility Score: inf
ROOT
ATOM      1  C   UNL     1      -0.393  -7.702  -9.750  1.00  0.00     0.202 C 
ENDROOT
BRANCH   1   2
ATOM      2  C   UNL     1       0.344  -6.386 -10.005  1.00  0.00     0.261 C 
BRANCH   2   3
ATOM      3  O   UNL     1       1.257  -6.115  -8.934  1.00  0.00    -0.459 OA
BRANCH   3   4
ATOM      4  C   UNL     1       1.103  -4.903  -8.366  1.00  0.00     0.354 C 
ATOM      5  O   UNL     1       0.493  -3.944  -8.798  1.00  0.00    -0.245 OA
BRANCH   4   6
ATOM      6  C   UNL     1       1.717  -4.920  -6.992  1.00  0.00     0.148 C 
ATOM      7  N   UNL     1       1.999  -4.558  -4.928  1.00  0.00    -0.256 N 
ATOM      8  N   UNL     1       1.115  -4.417  -5.959  1.00  0.00    -0.169 NA
ATOM      9  C   UNL     1       3.364  -4.840  -5.418  1.00  0.00     0.154 C 
ATOM     10  C   UNL     1       3.027  -5.590  -6.719  1.00  0.00     0.099 C 
BRANCH   7  11
ATOM     11  C   UNL     1       1.701  -3.913  -3.738  1.00  0.00     0.060 A 
ATOM     12  C   UNL     1       0.930  -2.620  -1.366  1.00  0.00     0.082 A 
ATOM     13  C   UNL     1       0.780  -4.004  -1.483  1.00  0.00     0.024 A 
ATOM     14  C   UNL     1       1.463  -1.876  -2.419  1.00  0.00     0.024 A 
ATOM     15  C   UNL     1       1.165  -4.642  -2.667  1.00  0.00     0.029 A 
ATOM     16  C   UNL     1       1.830  -2.525  -3.600  1.00  0.00     0.029 A 
BRANCH  12  17
ATOM     17  S   UNL     1       0.429  -1.846   0.140  1.00  0.00     0.238 S 
ATOM     18  O   UNL     1       1.088  -2.514   1.237  1.00  0.00    -0.207 OA
ATOM     19  O   UNL     1      -0.999  -1.636   0.095  1.00  0.00    -0.207 OA
BRANCH  17  20
ATOM     20  N   UNL     1       1.118  -0.313   0.082  1.00  0.00    -0.225 NA
ATOM     21  H   UNL     1       0.872   0.202   0.927  1.00  0.00     0.137 HD
ATOM     22  H   UNL     1       0.768   0.187  -0.735  1.00  0.00     0.137 HD
ENDBRANCH  17  20
ENDBRANCH  12  17
ENDBRANCH   7  11
BRANCH   9  23
ATOM     23  C   UNL     1       4.277  -3.631  -5.624  1.00  0.00     0.030 A 
ATOM     24  C   UNL     1       5.013  -2.972  -4.652  1.00  0.00     0.017 A 
ATOM     25  S   UNL     1       4.490  -2.869  -7.154  1.00  0.00    -0.147 S 
ATOM     26  C   UNL     1       5.732  -1.852  -5.163  1.00  0.00     0.012 A 
ATOM     27  C   UNL     1       5.554  -1.701  -6.518  1.00  0.00     0.065 A 
ENDBRANCH   9  23
ENDBRANCH   4   6
ENDBRANCH   3   4
ENDBRANCH   2   3
ENDBRANCH   1   2
BRANCH   1  28
ATOM     28  O   UNL     1      -1.170  -7.761  -8.555  1.00  0.00    -0.374 OA
BRANCH  28  29
ATOM     29  C   UNL     1      -0.484  -7.970  -7.319  1.00  0.00     0.202 C 
BRANCH  29  30
ATOM     30  C   UNL     1       0.024  -9.392  -7.046  1.00  0.00     0.261 C 
BRANCH  30  31
ATOM     31  O   UNL     1       1.066  -9.789  -7.957  1.00  0.00    -0.460 OA
BRANCH  31  32
ATOM     32  C   UNL     1       0.725 -10.786  -8.812  1.00  0.00     0.338 C 
ATOM     33  O   UNL     1      -0.321 -11.411  -8.846  1.00  0.00    -0.246 OA
BRANCH  32  34
ATOM     34  C   UNL     1       1.752 -10.913  -9.864  1.00  0.00     0.060 A 
ATOM     35  C   UNL     1       1.340 -10.785 -11.197  1.00  0.00     0.016 A 
ATOM     36  C   UNL     1       3.078 -11.220  -9.557  1.00  0.00     0.016 A 
ATOM     37  C   UNL     1       2.250 -10.991 -12.232  1.00  0.00     0.010 A 
ATOM     38  C   UNL     1       3.987 -11.437 -10.598  1.00  0.00     0.010 A 
ATOM     39  C   UNL     1       3.572 -11.348 -11.939  1.00  0.00    -0.014 A 
BRANCH  39  40
ATOM     40  C   UNL     1       4.496 -11.732 -13.033  1.00  0.00     0.031 A 
ATOM     41  C   UNL     1       4.754 -13.187 -13.304  1.00  0.00     0.074 A 
ATOM     42  C   UNL     1       5.102 -10.791 -13.779  1.00  0.00     0.049 A 
ATOM     43  N   UNL     1       5.567 -13.737 -14.170  1.00  0.00    -0.248 NA
ATOM     44  C   UNL     1       3.997 -14.150 -12.488  1.00  0.00     0.031 C 
ATOM     45  C   UNL     1       4.908  -9.348 -13.642  1.00  0.00     0.029 A 
ATOM     46  N   UNL     1       6.016 -10.914 -14.795  1.00  0.00    -0.354 N 
ATOM     47  C   UNL     1       5.428 -15.108 -13.997  1.00  0.00     0.074 A 
ATOM     48  C   UNL     1       4.474 -15.306 -12.927  1.00  0.00     0.031 C 
ATOM     49  C   UNL     1       5.694  -8.718 -14.531  1.00  0.00     0.029 A 
ATOM     50  C   UNL     1       6.469  -9.710 -15.273  1.00  0.00     0.049 A 
ATOM     51  H   UNL     1       6.318 -11.783 -15.147  1.00  0.00     0.167 HD
ATOM     52  C   UNL     1       6.039 -16.113 -14.669  1.00  0.00     0.031 A 
ATOM     53  C   UNL     1       7.422  -9.437 -16.185  1.00  0.00     0.031 A 
ATOM     54  C   UNL     1       7.000 -15.918 -15.722  1.00  0.00     0.049 A 
ATOM     55  C   UNL     1       8.145 -10.568 -16.864  1.00  0.00     0.074 A 
ATOM     56  C   UNL     1       7.653 -16.874 -16.482  1.00  0.00     0.029 A 
ATOM     57  N   UNL     1       7.456 -14.683 -16.155  1.00  0.00    -0.354 N 
ATOM     58  N   UNL     1       7.980 -11.861 -16.717  1.00  0.00    -0.248 NA
ATOM     59  C   UNL     1       9.183 -10.202 -17.839  1.00  0.00     0.031 C 
ATOM     60  C   UNL     1       8.549 -16.218 -17.333  1.00  0.00     0.029 A 
ATOM     61  C   UNL     1       8.409 -14.852 -17.146  1.00  0.00     0.049 A 
ATOM     62  H   UNL     1       7.148 -13.814 -15.810  1.00  0.00     0.167 HD
ATOM     63  C   UNL     1       8.875 -12.460 -17.595  1.00  0.00     0.074 A 
ATOM     64  C   UNL     1       9.570 -11.390 -18.281  1.00  0.00     0.031 C 
ATOM     65  C   UNL     1       9.099 -13.779 -17.814  1.00  0.00     0.031 A 
BRANCH  52  66
ATOM     66  C   UNL     1       5.713 -17.520 -14.253  1.00  0.00    -0.014 A 
ATOM     67  C   UNL     1       4.463 -18.095 -14.531  1.00  0.00     0.009 A 
ATOM     68  C   UNL     1       6.684 -18.291 -13.594  1.00  0.00     0.009 A 
ATOM     69  C   UNL     1       4.180 -19.401 -14.125  1.00  0.00     0.001 A 
ATOM     70  C   UNL     1       6.408 -19.606 -13.214  1.00  0.00     0.001 A 
ATOM     71  C   UNL     1       5.153 -20.156 -13.471  1.00  0.00     0.000 A 
ENDBRANCH  52  66
BRANCH  53  72
ATOM     72  C   UNL     1       7.774  -8.025 -16.486  1.00  0.00    -0.014 A 
ATOM     73  C   UNL     1       7.449  -7.452 -17.724  1.00  0.00     0.009 A 
ATOM     74  C   UNL     1       8.446  -7.244 -15.532  1.00  0.00     0.009 A 
ATOM     75  C   UNL     1       7.808  -6.131 -18.008  1.00  0.00     0.001 A 
ATOM     76  C   UNL     1       8.778  -5.916 -15.807  1.00  0.00     0.001 A 
ATOM     77  C   UNL     1       8.467  -5.364 -17.048  1.00  0.00     0.000 A 
ENDBRANCH  53  72
BRANCH  65  78
ATOM     78  C   UNL     1      10.121 -14.142 -18.856  1.00  0.00    -0.014 A 
ATOM     79  C   UNL     1      11.495 -13.974 -18.619  1.00  0.00     0.009 A 
ATOM     80  C   UNL     1       9.705 -14.705 -20.073  1.00  0.00     0.009 A 
ATOM     81  C   UNL     1      12.428 -14.337 -19.592  1.00  0.00     0.001 A 
ATOM     82  C   UNL     1      10.642 -15.092 -21.032  1.00  0.00     0.001 A 
ATOM     83  C   UNL     1      12.002 -14.900 -20.795  1.00  0.00     0.000 A 
ENDBRANCH  65  78
ENDBRANCH  39  40
ENDBRANCH  32  34
ENDBRANCH  31  32
ENDBRANCH  30  31
ENDBRANCH  29  30
ENDBRANCH  28  29
ENDBRANCH   1  28
TORSDOF 18
