REMARK SMILES COc1cccc([C@H]2CC(c3ccc(S(C)(=O)=O)cc3)=NN2c2ccc(C(=O)OCCOCCOC(=O)c3ccc(-c4c5nc(c(-c6ccccc6)c6ccc([nH]6)c(-c6ccccc6)c6nc(c(-c7ccccc7)c7ccc4[nH]7)C=C6)C=C5)cc3)cc2)c1
REMARK SMILES IDX 31 1 30 2 29 3 27 4 28 5 26 6 23 7 24 8 87 9 25 10 86 11
REMARK SMILES IDX 22 12 8 13 9 14 10 15 21 16 7 17 3 18 4 19 88 20 5 21 6 22
REMARK SMILES IDX 2 23 1 24 11 25 12 26 20 27 13 28 19 29 14 30 15 31 16 32
REMARK SMILES IDX 17 33 18 34 32 35 33 36 34 37 35 38 36 39 37 40 38 41 39 42
REMARK SMILES IDX 85 43 40 44 84 45 41 46 42 47 43 48 78 49 44 50 83 51 77 52
REMARK SMILES IDX 79 53 45 54 82 55 76 56 75 57 46 59 68 60 53 61 67 62 54 63
REMARK SMILES IDX 57 64 66 65 80 66 55 67 56 68 65 70 81 71 58 72 47 73 48 74
REMARK SMILES IDX 52 75 49 76 51 77 50 78 69 79 70 80 74 81 71 82 73 83 72 84
REMARK SMILES IDX 59 85 60 86 64 87 61 88 63 89 62 90
REMARK H PARENT 79 58 57 69
REMARK Flexibility Score: inf
ROOT
ATOM      1  C   UNL     1       4.316 -10.262  -3.169  1.00  0.00     0.202 C 
ENDROOT
BRANCH   1   2
ATOM      2  C   UNL     1       3.067  -9.468  -3.564  1.00  0.00     0.261 C 
BRANCH   2   3
ATOM      3  O   UNL     1       3.393  -8.099  -3.854  1.00  0.00    -0.460 OA
BRANCH   3   4
ATOM      4  C   UNL     1       2.955  -7.203  -2.937  1.00  0.00     0.338 C 
ATOM      5  O   UNL     1       2.216  -7.430  -1.989  1.00  0.00    -0.246 OA
BRANCH   4   6
ATOM      6  C   UNL     1       3.612  -5.894  -3.141  1.00  0.00     0.060 A 
ATOM      7  C   UNL     1       4.691  -3.310  -3.393  1.00  0.00     0.060 A 
ATOM      8  C   UNL     1       4.491  -3.879  -2.129  1.00  0.00     0.029 A 
ATOM      9  C   UNL     1       4.423  -4.092  -4.528  1.00  0.00     0.029 A 
ATOM     10  C   UNL     1       3.929  -5.149  -2.001  1.00  0.00     0.018 A 
ATOM     11  C   UNL     1       3.902  -5.386  -4.410  1.00  0.00     0.018 A 
BRANCH   7  12
ATOM     12  N   UNL     1       5.049  -1.967  -3.515  1.00  0.00    -0.257 N 
ATOM     13  C   UNL     1       4.154  -0.999  -4.167  1.00  0.00     0.144 C 
ATOM     14  C   UNL     1       4.764   0.348  -3.768  1.00  0.00     0.091 C 
ATOM     15  C   UNL     1       5.830  -0.115  -2.817  1.00  0.00     0.071 C 
ATOM     16  N   UNL     1       5.956  -1.397  -2.674  1.00  0.00    -0.176 NA
BRANCH  13  17
ATOM     17  C   UNL     1       2.699  -1.149  -3.731  1.00  0.00    -0.019 A 
ATOM     18  C   UNL     1       0.963  -1.155  -2.017  1.00  0.00     0.119 A 
ATOM     19  C   UNL     1       0.035  -1.590  -2.961  1.00  0.00     0.046 A 
ATOM     20  C   UNL     1       2.293  -0.954  -2.396  1.00  0.00     0.052 A 
ATOM     21  C   UNL     1       0.417  -1.788  -4.286  1.00  0.00     0.004 A 
ATOM     22  C   UNL     1       1.739  -1.564  -4.670  1.00  0.00     0.006 A 
BRANCH  18  23
ATOM     23  O   UNL     1       0.481  -1.016  -0.744  1.00  0.00    -0.497 OA
ATOM     24  C   UNL     1       1.085   0.020   0.022  1.00  0.00     0.278 C 
ENDBRANCH  18  23
ENDBRANCH  13  17
BRANCH  15  25
ATOM     25  C   UNL     1       6.713   0.857  -2.160  1.00  0.00    -0.002 A 
ATOM     26  C   UNL     1       8.094   0.736  -2.352  1.00  0.00     0.011 A 
ATOM     27  C   UNL     1       6.184   1.900  -1.395  1.00  0.00     0.011 A 
ATOM     28  C   UNL     1       8.956   1.681  -1.794  1.00  0.00     0.021 A 
ATOM     29  C   UNL     1       7.047   2.832  -0.813  1.00  0.00     0.021 A 
ATOM     30  C   UNL     1       8.427   2.718  -1.018  1.00  0.00     0.067 A 
BRANCH  30  31
ATOM     31  S   UNL     1       9.531   3.926  -0.321  1.00  0.00     0.175 S 
ATOM     32  C   UNL     1      10.579   2.988   0.760  1.00  0.00     0.163 C 
ATOM     33  O   UNL     1      10.336   4.434  -1.415  1.00  0.00    -0.224 OA
ATOM     34  O   UNL     1       8.739   4.818   0.503  1.00  0.00    -0.224 OA
ENDBRANCH  30  31
ENDBRANCH  15  25
ENDBRANCH   7  12
ENDBRANCH   4   6
ENDBRANCH   3   4
ENDBRANCH   2   3
ENDBRANCH   1   2
BRANCH   1  35
ATOM     35  O   UNL     1       4.945  -9.858  -1.953  1.00  0.00    -0.374 OA
BRANCH  35  36
ATOM     36  C   UNL     1       5.854  -8.758  -2.036  1.00  0.00     0.202 C 
BRANCH  36  37
ATOM     37  C   UNL     1       7.269  -9.108  -2.510  1.00  0.00     0.261 C 
BRANCH  37  38
ATOM     38  O   UNL     1       7.279  -9.486  -3.900  1.00  0.00    -0.460 OA
BRANCH  38  39
ATOM     39  C   UNL     1       7.536 -10.792  -4.137  1.00  0.00     0.338 C 
ATOM     40  O   UNL     1       7.860 -11.646  -3.323  1.00  0.00    -0.246 OA
BRANCH  39  41
ATOM     41  C   UNL     1       7.202 -11.123  -5.535  1.00  0.00     0.060 A 
ATOM     42  C   UNL     1       6.388 -12.241  -5.757  1.00  0.00     0.016 A 
ATOM     43  C   UNL     1       7.719 -10.397  -6.611  1.00  0.00     0.016 A 
ATOM     44  C   UNL     1       6.128 -12.669  -7.057  1.00  0.00     0.010 A 
ATOM     45  C   UNL     1       7.464 -10.833  -7.916  1.00  0.00     0.010 A 
ATOM     46  C   UNL     1       6.696 -11.990  -8.143  1.00  0.00    -0.014 A 
BRANCH  46  47
ATOM     47  C   UNL     1       6.601 -12.574  -9.502  1.00  0.00     0.031 A 
ATOM     48  C   UNL     1       7.760 -13.367 -10.040  1.00  0.00     0.074 A 
ATOM     49  C   UNL     1       5.486 -12.427 -10.239  1.00  0.00     0.049 A 
ATOM     50  N   UNL     1       7.896 -13.952 -11.203  1.00  0.00    -0.248 NA
ATOM     51  C   UNL     1       8.920 -13.524  -9.147  1.00  0.00     0.031 C 
ATOM     52  C   UNL     1       4.279 -11.720  -9.816  1.00  0.00     0.029 A 
ATOM     53  N   UNL     1       5.195 -12.868 -11.505  1.00  0.00    -0.354 N 
ATOM     54  C   UNL     1       9.155 -14.540 -11.184  1.00  0.00     0.074 A 
ATOM     55  C   UNL     1       9.754 -14.219  -9.906  1.00  0.00     0.031 C 
ATOM     56  C   UNL     1       3.375 -11.771 -10.811  1.00  0.00     0.029 A 
ATOM     57  C   UNL     1       3.952 -12.487 -11.947  1.00  0.00     0.049 A 
ATOM     58  H   UNL     1       5.817 -13.407 -12.045  1.00  0.00     0.167 HD
ATOM     59  C   UNL     1       9.757 -15.285 -12.141  1.00  0.00     0.031 A 
ATOM     60  C   UNL     1       3.355 -12.679 -13.139  1.00  0.00     0.031 A 
ATOM     61  C   UNL     1       9.172 -15.595 -13.417  1.00  0.00     0.049 A 
ATOM     62  C   UNL     1       4.077 -13.443 -14.216  1.00  0.00     0.074 A 
ATOM     63  C   UNL     1       9.700 -16.355 -14.447  1.00  0.00     0.029 A 
ATOM     64  N   UNL     1       7.929 -15.153 -13.842  1.00  0.00    -0.354 N 
ATOM     65  N   UNL     1       5.256 -14.015 -14.176  1.00  0.00    -0.248 NA
ATOM     66  C   UNL     1       3.380 -13.593 -15.502  1.00  0.00     0.031 C 
ATOM     67  C   UNL     1       8.797 -16.330 -15.515  1.00  0.00     0.029 A 
ATOM     68  C   UNL     1       7.684 -15.600 -15.129  1.00  0.00     0.049 A 
ATOM     69  H   UNL     1       7.312 -14.602 -13.307  1.00  0.00     0.167 HD
ATOM     70  C   UNL     1       5.430 -14.613 -15.418  1.00  0.00     0.074 A 
ATOM     71  C   UNL     1       4.231 -14.346 -16.184  1.00  0.00     0.031 C 
ATOM     72  C   UNL     1       6.488 -15.324 -15.880  1.00  0.00     0.031 A 
BRANCH  59  73
ATOM     73  C   UNL     1      11.142 -15.790 -11.850  1.00  0.00    -0.014 A 
ATOM     74  C   UNL     1      11.360 -16.830 -10.933  1.00  0.00     0.009 A 
ATOM     75  C   UNL     1      12.240 -15.236 -12.525  1.00  0.00     0.009 A 
ATOM     76  C   UNL     1      12.656 -17.284 -10.676  1.00  0.00     0.001 A 
ATOM     77  C   UNL     1      13.531 -15.708 -12.285  1.00  0.00     0.001 A 
ATOM     78  C   UNL     1      13.739 -16.725 -11.354  1.00  0.00     0.000 A 
ENDBRANCH  59  73
BRANCH  60  79
ATOM     79  C   UNL     1       2.001 -12.122 -13.390  1.00  0.00    -0.014 A 
ATOM     80  C   UNL     1       0.889 -12.968 -13.511  1.00  0.00     0.009 A 
ATOM     81  C   UNL     1       1.819 -10.737 -13.531  1.00  0.00     0.009 A 
ATOM     82  C   UNL     1      -0.374 -12.441 -13.791  1.00  0.00     0.001 A 
ATOM     83  C   UNL     1       0.551 -10.210 -13.784  1.00  0.00     0.001 A 
ATOM     84  C   UNL     1      -0.542 -11.063 -13.923  1.00  0.00     0.000 A 
ENDBRANCH  60  79
BRANCH  72  85
ATOM     85  C   UNL     1       6.382 -15.892 -17.268  1.00  0.00    -0.014 A 
ATOM     86  C   UNL     1       6.485 -15.070 -18.401  1.00  0.00     0.009 A 
ATOM     87  C   UNL     1       6.220 -17.275 -17.442  1.00  0.00     0.009 A 
ATOM     88  C   UNL     1       6.397 -15.621 -19.681  1.00  0.00     0.001 A 
ATOM     89  C   UNL     1       6.159 -17.826 -18.722  1.00  0.00     0.001 A 
ATOM     90  C   UNL     1       6.239 -16.998 -19.841  1.00  0.00     0.000 A 
ENDBRANCH  72  85
ENDBRANCH  46  47
ENDBRANCH  39  41
ENDBRANCH  38  39
ENDBRANCH  37  38
ENDBRANCH  36  37
ENDBRANCH  35  36
ENDBRANCH   1  35
TORSDOF 19
