REMARK SMILES CC[C@H](C(=O)OCCOCCOC(=O)c1ccc(-c2c3nc(c(-c4ccccc4)c4ccc([nH]4)c(-c4ccccc4)c4nc(c(-c5ccccc5)c5ccc2[nH]5)C=C4)C=C3)cc1)N(C)C(=O)[C@H]1CC[C@@H](C[NH3+])CC1
REMARK SMILES IDX 7 1 6 2 4 3 5 4 3 5 2 6 1 7 63 8 64 9 65 10 66 11 67 12
REMARK SMILES IDX 74 13 68 14 73 15 69 16 70 17 71 18 72 19 8 23 9 24 10 25
REMARK SMILES IDX 11 26 12 27 13 28 14 29 15 30 16 31 62 32 17 33 61 34 18 35
REMARK SMILES IDX 19 36 20 37 55 38 21 39 60 40 54 41 56 42 22 43 59 44 53 45
REMARK SMILES IDX 52 46 23 48 45 49 30 50 44 51 31 52 34 53 43 54 57 55 32 56
REMARK SMILES IDX 33 57 42 59 58 60 35 61 24 62 25 63 29 64 26 65 28 66 27 67
REMARK SMILES IDX 46 68 47 69 51 70 48 71 50 72 49 73 36 74 37 75 41 76 38 77
REMARK SMILES IDX 40 78 39 79
REMARK H PARENT 72 20 72 21 72 22 56 47 34 58
REMARK Flexibility Score: inf
ROOT
ATOM      1  C   UNL     1      -0.432   1.478   0.281  1.00  0.00     0.261 C 
ENDROOT
BRANCH   1   2
ATOM      2  O   UNL     1       0.065   0.296  -0.370  1.00  0.00    -0.462 OA
BRANCH   2   3
ATOM      3  C   UNL     1      -0.401   0.097  -1.641  1.00  0.00     0.328 C 
ATOM      4  O   UNL     1      -1.212   0.833  -2.191  1.00  0.00    -0.250 OA
BRANCH   3   5
ATOM      5  C   UNL     1       0.386  -1.049  -2.338  1.00  0.00     0.194 C 
BRANCH   5   6
ATOM      6  C   UNL     1       0.207  -2.493  -1.833  1.00  0.00     0.034 C 
ATOM      7  C   UNL     1      -0.310  -2.651  -0.415  1.00  0.00     0.007 C 
ENDBRANCH   5   6
BRANCH   5   8
ATOM      8  N   UNL     1       0.190  -0.929  -3.805  1.00  0.00    -0.332 N 
ATOM      9  C   UNL     1       1.305  -0.447  -4.605  1.00  0.00     0.147 C 
BRANCH   8  10
ATOM     10  C   UNL     1      -1.105  -1.125  -4.284  1.00  0.00     0.226 C 
ATOM     11  O   UNL     1      -1.967  -1.652  -3.574  1.00  0.00    -0.275 OA
BRANCH  10  12
ATOM     12  C   UNL     1      -1.471  -0.582  -5.669  1.00  0.00     0.078 C 
ATOM     13  C   UNL     1      -2.755  -1.273  -6.161  1.00  0.00     0.014 C 
ATOM     14  C   UNL     1      -1.656   0.944  -5.594  1.00  0.00     0.014 C 
ATOM     15  C   UNL     1      -3.300  -0.658  -7.445  1.00  0.00     0.010 C 
ATOM     16  C   UNL     1      -2.221   1.529  -6.888  1.00  0.00     0.010 C 
ATOM     17  C   UNL     1      -3.533   0.857  -7.323  1.00  0.00     0.044 C 
BRANCH  17  18
ATOM     18  C   UNL     1      -4.726   1.162  -6.392  1.00  0.00     0.262 C 
BRANCH  18  19
ATOM     19  N   UNL     1      -5.087   2.578  -6.405  1.00  0.00    -0.357 N 
ATOM     20  H   UNL     1      -4.298   3.133  -6.073  1.00  0.00     0.344 HD
ATOM     21  H   UNL     1      -5.891   2.730  -5.795  1.00  0.00     0.344 HD
ATOM     22  H   UNL     1      -5.324   2.860  -7.356  1.00  0.00     0.344 HD
ENDBRANCH  18  19
ENDBRANCH  17  18
ENDBRANCH  10  12
ENDBRANCH   8  10
ENDBRANCH   5   8
ENDBRANCH   3   5
ENDBRANCH   2   3
ENDBRANCH   1   2
BRANCH   1  23
ATOM     23  C   UNL     1       0.670   2.524   0.477  1.00  0.00     0.202 C 
BRANCH  23  24
ATOM     24  O   UNL     1       1.230   3.096  -0.704  1.00  0.00    -0.374 OA
BRANCH  24  25
ATOM     25  C   UNL     1       2.172   2.318  -1.440  1.00  0.00     0.202 C 
BRANCH  25  26
ATOM     26  C   UNL     1       3.578   2.189  -0.844  1.00  0.00     0.261 C 
BRANCH  26  27
ATOM     27  O   UNL     1       3.580   1.434   0.382  1.00  0.00    -0.460 OA
BRANCH  27  28
ATOM     28  C   UNL     1       3.949   2.141   1.476  1.00  0.00     0.338 C 
ATOM     29  O   UNL     1       4.350   3.296   1.513  1.00  0.00    -0.246 OA
BRANCH  28  30
ATOM     30  C   UNL     1       3.647   1.385   2.703  1.00  0.00     0.060 A 
ATOM     31  C   UNL     1       2.835   2.009   3.659  1.00  0.00     0.016 A 
ATOM     32  C   UNL     1       4.231   0.145   2.966  1.00  0.00     0.016 A 
ATOM     33  C   UNL     1       2.653   1.422   4.908  1.00  0.00     0.010 A 
ATOM     34  C   UNL     1       4.056  -0.439   4.227  1.00  0.00     0.010 A 
ATOM     35  C   UNL     1       3.300   0.219   5.215  1.00  0.00    -0.014 A 
BRANCH  35  36
ATOM     36  C   UNL     1       3.311  -0.253   6.620  1.00  0.00     0.031 A 
ATOM     37  C   UNL     1       4.489   0.085   7.494  1.00  0.00     0.074 A 
ATOM     38  C   UNL     1       2.263  -0.921   7.130  1.00  0.00     0.049 A 
ATOM     39  N   UNL     1       4.688  -0.189   8.758  1.00  0.00    -0.248 NA
ATOM     40  C   UNL     1       5.585   0.836   6.859  1.00  0.00     0.031 C 
ATOM     41  C   UNL     1       1.046  -1.271   6.401  1.00  0.00     0.029 A 
ATOM     42  N   UNL     1       2.056  -1.415   8.393  1.00  0.00    -0.354 N 
ATOM     43  C   UNL     1       5.928   0.355   9.070  1.00  0.00     0.074 A 
ATOM     44  C   UNL     1       6.448   0.948   7.858  1.00  0.00     0.031 C 
ATOM     45  C   UNL     1       0.215  -1.925   7.231  1.00  0.00     0.029 A 
ATOM     46  C   UNL     1       0.852  -2.057   8.541  1.00  0.00     0.049 A 
ATOM     47  H   UNL     1       2.709  -1.319   9.123  1.00  0.00     0.167 HD
ATOM     48  C   UNL     1       6.573   0.369  10.261  1.00  0.00     0.031 A 
ATOM     49  C   UNL     1       0.326  -2.684   9.610  1.00  0.00     0.031 A 
ATOM     50  C   UNL     1       6.069  -0.233  11.466  1.00  0.00     0.049 A 
ATOM     51  C   UNL     1       1.094  -2.716  10.903  1.00  0.00     0.074 A 
ATOM     52  C   UNL     1       6.648  -0.266  12.723  1.00  0.00     0.029 A 
ATOM     53  N   UNL     1       4.866  -0.914  11.560  1.00  0.00    -0.354 N 
ATOM     54  N   UNL     1       2.254  -2.178  11.190  1.00  0.00    -0.248 NA
ATOM     55  C   UNL     1       0.471  -3.437  12.023  1.00  0.00     0.031 C 
ATOM     56  C   UNL     1       5.815  -1.008  13.568  1.00  0.00     0.029 A 
ATOM     57  C   UNL     1       4.695  -1.393  12.848  1.00  0.00     0.049 A 
ATOM     58  H   UNL     1       4.228  -1.040  10.822  1.00  0.00     0.167 HD
ATOM     59  C   UNL     1       2.488  -2.472  12.527  1.00  0.00     0.074 A 
ATOM     60  C   UNL     1       1.343  -3.224  12.998  1.00  0.00     0.031 C 
ATOM     61  C   UNL     1       3.554  -2.145  13.299  1.00  0.00     0.031 A 
BRANCH  48  62
ATOM     62  C   UNL     1       7.919   1.035  10.303  1.00  0.00    -0.014 A 
ATOM     63  C   UNL     1       8.039   2.433  10.256  1.00  0.00     0.009 A 
ATOM     64  C   UNL     1       9.080   0.255  10.414  1.00  0.00     0.009 A 
ATOM     65  C   UNL     1       9.299   3.034  10.285  1.00  0.00     0.001 A 
ATOM     66  C   UNL     1      10.336   0.860  10.466  1.00  0.00     0.001 A 
ATOM     67  C   UNL     1      10.446   2.248  10.393  1.00  0.00     0.000 A 
ENDBRANCH  48  62
BRANCH  49  68
ATOM     68  C   UNL     1      -1.000  -3.345   9.504  1.00  0.00    -0.014 A 
ATOM     69  C   UNL     1      -2.121  -2.807  10.154  1.00  0.00     0.009 A 
ATOM     70  C   UNL     1      -1.145  -4.529   8.765  1.00  0.00     0.009 A 
ATOM     71  C   UNL     1      -3.356  -3.455  10.083  1.00  0.00     0.001 A 
ATOM     72  C   UNL     1      -2.386  -5.161   8.675  1.00  0.00     0.001 A 
ATOM     73  C   UNL     1      -3.489  -4.628   9.341  1.00  0.00     0.000 A 
ENDBRANCH  49  68
BRANCH  61  74
ATOM     74  C   UNL     1       3.515  -2.575  14.738  1.00  0.00    -0.014 A 
ATOM     75  C   UNL     1       3.705  -3.917  15.102  1.00  0.00     0.009 A 
ATOM     76  C   UNL     1       3.314  -1.618  15.744  1.00  0.00     0.009 A 
ATOM     77  C   UNL     1       3.659  -4.297  16.445  1.00  0.00     0.001 A 
ATOM     78  C   UNL     1       3.294  -1.996  17.087  1.00  0.00     0.001 A 
ATOM     79  C   UNL     1       3.456  -3.336  17.436  1.00  0.00     0.000 A 
ENDBRANCH  61  74
ENDBRANCH  35  36
ENDBRANCH  28  30
ENDBRANCH  27  28
ENDBRANCH  26  27
ENDBRANCH  25  26
ENDBRANCH  24  25
ENDBRANCH  23  24
ENDBRANCH   1  23
TORSDOF 20
