REMARK SMILES Nc1nccc(N2CCC[C@@](Cc3ccc(F)cc3F)(C(=O)OCCOCCOC(=O)c3ccc(-c4c5nc(c(-c6ccccc6)c6ccc([nH]6)c(-c6ccccc6)c6nc(c(-c7ccccc7)c7ccc4[nH]7)C=C6)C=C5)cc3)C2)n1
REMARK SMILES IDX 26 1 25 2 24 3 23 4 21 5 22 6 11 7 7 8 8 9 80 10 9 11 10 12
REMARK SMILES IDX 6 13 2 14 3 15 81 16 4 17 5 18 1 19 12 22 13 23 14 24 19 25
REMARK SMILES IDX 15 26 18 27 20 28 16 29 17 30 27 31 28 32 29 33 30 34 31 35
REMARK SMILES IDX 32 36 33 37 79 38 34 39 78 40 35 41 36 42 37 43 72 44 38 45
REMARK SMILES IDX 77 46 71 47 73 48 39 49 76 50 70 51 69 52 40 54 62 55 47 56
REMARK SMILES IDX 61 57 48 58 51 59 60 60 74 61 49 62 50 63 59 65 75 66 52 67
REMARK SMILES IDX 41 68 42 69 46 70 43 71 45 72 44 73 63 74 64 75 68 76 65 77
REMARK SMILES IDX 67 78 66 79 53 80 54 81 58 82 55 83 57 84 56 85
REMARK H PARENT 1 20 1 21 73 53 51 64
REMARK Flexibility Score: inf
ROOT
ATOM      1  O   UNL     1       0.572  -7.100  -3.553  1.00  0.00    -0.374 OA
ENDROOT
BRANCH   1   2
ATOM      2  C   UNL     1       1.631  -7.216  -4.494  1.00  0.00     0.202 C 
BRANCH   2   3
ATOM      3  C   UNL     1       2.525  -5.991  -4.715  1.00  0.00     0.261 C 
BRANCH   3   4
ATOM      4  O   UNL     1       2.958  -5.347  -3.505  1.00  0.00    -0.463 OA
BRANCH   4   5
ATOM      5  C   UNL     1       2.455  -4.097  -3.312  1.00  0.00     0.314 C 
ATOM      6  O   UNL     1       1.701  -3.535  -4.101  1.00  0.00    -0.252 OA
BRANCH   5   7
ATOM      7  C   UNL     1       2.980  -3.409  -2.054  1.00  0.00     0.090 C 
ATOM      8  N   UNL     1       2.099  -2.052  -0.215  1.00  0.00    -0.355 N 
ATOM      9  C   UNL     1       2.577  -2.894   0.871  1.00  0.00     0.118 C 
ATOM     10  C   UNL     1       1.723  -2.740  -1.447  1.00  0.00     0.137 C 
ATOM     11  C   UNL     1       3.804  -3.668   0.380  1.00  0.00     0.023 C 
ATOM     12  C   UNL     1       3.571  -4.356  -0.976  1.00  0.00     0.023 C 
BRANCH   8  13
ATOM     13  C   UNL     1       1.275  -0.983   0.121  1.00  0.00     0.134 A 
ATOM     14  C   UNL     1      -0.797  -0.017   0.213  1.00  0.00     0.221 A 
ATOM     15  N   UNL     1      -0.312   1.198   0.484  1.00  0.00    -0.222 NA
ATOM     16  N   UNL     1      -0.058  -1.112   0.016  1.00  0.00    -0.196 NA
ATOM     17  C   UNL     1       1.024   1.293   0.581  1.00  0.00     0.119 A 
ATOM     18  C   UNL     1       1.868   0.224   0.426  1.00  0.00     0.067 A 
BRANCH  14  19
ATOM     19  N   UNL     1      -2.152  -0.138   0.105  1.00  0.00    -0.368 N 
ATOM     20  H   UNL     1      -2.729   0.647   0.244  1.00  0.00     0.159 HD
ATOM     21  H   UNL     1      -2.552  -1.011  -0.112  1.00  0.00     0.159 HD
ENDBRANCH  14  19
ENDBRANCH   8  13
BRANCH   7  22
ATOM     22  C   UNL     1       3.979  -2.304  -2.514  1.00  0.00     0.059 C 
BRANCH  22  23
ATOM     23  C   UNL     1       5.293  -2.806  -3.074  1.00  0.00    -0.011 A 
ATOM     24  C   UNL     1       5.371  -3.324  -4.375  1.00  0.00     0.010 A 
ATOM     25  C   UNL     1       6.460  -2.772  -2.298  1.00  0.00     0.129 A 
ATOM     26  C   UNL     1       6.575  -3.842  -4.856  1.00  0.00     0.040 A 
ATOM     27  C   UNL     1       7.664  -3.277  -2.773  1.00  0.00     0.078 A 
ATOM     28  F   UNL     1       6.432  -2.248  -1.066  1.00  0.00    -0.207 F 
ATOM     29  C   UNL     1       7.706  -3.820  -4.048  1.00  0.00     0.126 A 
ATOM     30  F   UNL     1       8.856  -4.324  -4.513  1.00  0.00    -0.207 F 
ENDBRANCH  22  23
ENDBRANCH   7  22
ENDBRANCH   5   7
ENDBRANCH   4   5
ENDBRANCH   3   4
ENDBRANCH   2   3
ENDBRANCH   1   2
BRANCH   1  31
ATOM     31  C   UNL     1       0.911  -7.033  -2.168  1.00  0.00     0.202 C 
BRANCH  31  32
ATOM     32  C   UNL     1       1.705  -8.204  -1.574  1.00  0.00     0.261 C 
BRANCH  32  33
ATOM     33  O   UNL     1       3.047  -8.294  -2.097  1.00  0.00    -0.460 OA
BRANCH  33  34
ATOM     34  C   UNL     1       3.391  -9.524  -2.551  1.00  0.00     0.338 C 
ATOM     35  O   UNL     1       2.721 -10.545  -2.505  1.00  0.00    -0.246 OA
BRANCH  34  36
ATOM     36  C   UNL     1       4.668  -9.479  -3.282  1.00  0.00     0.060 A 
ATOM     37  C   UNL     1       4.652  -9.785  -4.649  1.00  0.00     0.016 A 
ATOM     38  C   UNL     1       5.878  -9.313  -2.606  1.00  0.00     0.016 A 
ATOM     39  C   UNL     1       5.851  -9.975  -5.336  1.00  0.00     0.010 A 
ATOM     40  C   UNL     1       7.080  -9.512  -3.295  1.00  0.00     0.010 A 
ATOM     41  C   UNL     1       7.071  -9.883  -4.652  1.00  0.00    -0.014 A 
BRANCH  41  42
ATOM     42  C   UNL     1       8.320 -10.313  -5.327  1.00  0.00     0.031 A 
ATOM     43  C   UNL     1       8.841 -11.706  -5.100  1.00  0.00     0.074 A 
ATOM     44  C   UNL     1       8.971  -9.483  -6.160  1.00  0.00     0.049 A 
ATOM     45  N   UNL     1       9.913 -12.280  -5.587  1.00  0.00    -0.248 NA
ATOM     46  C   UNL     1       8.048 -12.567  -4.207  1.00  0.00     0.031 C 
ATOM     47  C   UNL     1       8.557  -8.122  -6.491  1.00  0.00     0.029 A 
ATOM     48  N   UNL     1      10.127  -9.671  -6.875  1.00  0.00    -0.354 N 
ATOM     49  C   UNL     1       9.923 -13.566  -5.062  1.00  0.00     0.074 A 
ATOM     50  C   UNL     1       8.767 -13.680  -4.198  1.00  0.00     0.031 C 
ATOM     51  C   UNL     1       9.455  -7.590  -7.339  1.00  0.00     0.029 A 
ATOM     52  C   UNL     1      10.516  -8.565  -7.587  1.00  0.00     0.049 A 
ATOM     53  H   UNL     1      10.629 -10.518  -6.877  1.00  0.00     0.167 HD
ATOM     54  C   UNL     1      10.810 -14.567  -5.282  1.00  0.00     0.031 A 
ATOM     55  C   UNL     1      11.614  -8.353  -8.338  1.00  0.00     0.031 A 
ATOM     56  C   UNL     1      11.973 -14.456  -6.120  1.00  0.00     0.049 A 
ATOM     57  C   UNL     1      12.625  -9.453  -8.509  1.00  0.00     0.074 A 
ATOM     58  C   UNL     1      12.924 -15.420  -6.410  1.00  0.00     0.029 A 
ATOM     59  N   UNL     1      12.351 -13.306  -6.794  1.00  0.00    -0.354 N 
ATOM     60  N   UNL     1      12.608 -10.672  -8.029  1.00  0.00    -0.248 NA
ATOM     61  C   UNL     1      13.806  -9.146  -9.331  1.00  0.00     0.031 C 
ATOM     62  C   UNL     1      13.903 -14.837  -7.223  1.00  0.00     0.029 A 
ATOM     63  C   UNL     1      13.535 -13.526  -7.477  1.00  0.00     0.049 A 
ATOM     64  H   UNL     1      11.851 -12.458  -6.788  1.00  0.00     0.167 HD
ATOM     65  C   UNL     1      13.764 -11.282  -8.501  1.00  0.00     0.074 A 
ATOM     66  C   UNL     1      14.451 -10.304  -9.319  1.00  0.00     0.031 C 
ATOM     67  C   UNL     1      14.214 -12.541  -8.277  1.00  0.00     0.031 A 
BRANCH  54  68
ATOM     68  C   UNL     1      10.564 -15.867  -4.570  1.00  0.00    -0.014 A 
ATOM     69  C   UNL     1       9.536 -16.732  -4.974  1.00  0.00     0.009 A 
ATOM     70  C   UNL     1      11.383 -16.238  -3.492  1.00  0.00     0.009 A 
ATOM     71  C   UNL     1       9.310 -17.928  -4.289  1.00  0.00     0.001 A 
ATOM     72  C   UNL     1      11.169 -17.445  -2.824  1.00  0.00     0.001 A 
ATOM     73  C   UNL     1      10.128 -18.285  -3.217  1.00  0.00     0.000 A 
ENDBRANCH  54  68
BRANCH  55  74
ATOM     74  C   UNL     1      11.828  -7.024  -8.965  1.00  0.00    -0.014 A 
ATOM     75  C   UNL     1      11.684  -6.853 -10.350  1.00  0.00     0.009 A 
ATOM     76  C   UNL     1      12.175  -5.918  -8.174  1.00  0.00     0.009 A 
ATOM     77  C   UNL     1      11.899  -5.601 -10.931  1.00  0.00     0.001 A 
ATOM     78  C   UNL     1      12.366  -4.663  -8.754  1.00  0.00     0.001 A 
ATOM     79  C   UNL     1      12.234  -4.507 -10.133  1.00  0.00     0.000 A 
ENDBRANCH  55  74
BRANCH  67  80
ATOM     80  C   UNL     1      15.504 -12.937  -8.938  1.00  0.00    -0.014 A 
ATOM     81  C   UNL     1      16.738 -12.472  -8.457  1.00  0.00     0.009 A 
ATOM     82  C   UNL     1      15.487 -13.820 -10.029  1.00  0.00     0.009 A 
ATOM     83  C   UNL     1      17.928 -12.862  -9.075  1.00  0.00     0.001 A 
ATOM     84  C   UNL     1      16.680 -14.226 -10.630  1.00  0.00     0.001 A 
ATOM     85  C   UNL     1      17.898 -13.741 -10.157  1.00  0.00     0.000 A 
ENDBRANCH  67  80
ENDBRANCH  41  42
ENDBRANCH  34  36
ENDBRANCH  33  34
ENDBRANCH  32  33
ENDBRANCH  31  32
ENDBRANCH   1  31
TORSDOF 18
