REMARK SMILES O=C(CC[N@H+]1CCC[C@H](c2nccn2Cc2cscn2)C1)OCCOCCOC(=O)c1ccc(-c2c3nc(c(-c4ccccc4)c4ccc([nH]4)c(-c4ccccc4)c4nc(c(-c5ccccc5)c5ccc2[nH]5)C=C4)C=C3)cc1
REMARK SMILES IDX 23 1 22 2 2 3 1 4 3 5 4 6 5 7 6 8 21 9 7 11 9 12 8 13 10 14
REMARK SMILES IDX 11 15 14 16 12 17 13 18 15 19 16 20 17 21 20 22 18 23 19 24
REMARK SMILES IDX 24 25 25 26 26 27 27 28 28 29 29 30 30 31 31 32 32 33 78 34
REMARK SMILES IDX 33 35 77 36 34 37 35 38 36 39 71 40 37 41 76 42 70 43 72 44
REMARK SMILES IDX 38 45 75 46 69 47 68 48 39 50 61 51 46 52 60 53 47 54 50 55
REMARK SMILES IDX 59 56 73 57 48 58 49 59 58 61 74 62 51 63 40 64 41 65 45 66
REMARK SMILES IDX 42 67 44 68 43 69 62 70 63 71 67 72 64 73 66 74 65 75 52 76
REMARK SMILES IDX 53 77 57 78 54 79 56 80 55 81
REMARK H PARENT 5 10 72 49 50 60
REMARK Flexibility Score: inf
ROOT
ATOM      1  C   UNL     1       2.388   1.141  -0.779  1.00  0.00     0.261 C 
ENDROOT
BRANCH   1   2
ATOM      2  O   UNL     1       1.525   0.176  -0.170  1.00  0.00    -0.463 OA
BRANCH   2   3
ATOM      3  C   UNL     1       1.691  -1.140  -0.442  1.00  0.00     0.311 C 
ATOM      4  O   UNL     1       0.826  -1.761  -1.051  1.00  0.00    -0.252 OA
BRANCH   3   5
ATOM      5  C   UNL     1       2.838  -1.837   0.262  1.00  0.00     0.184 C 
BRANCH   5   6
ATOM      6  C   UNL     1       3.670  -2.720  -0.691  1.00  0.00     0.274 C 
BRANCH   6   7
ATOM      7  N   UNL     1       4.940  -2.172  -1.243  1.00  0.00    -0.334 N 
ATOM      8  C   UNL     1       5.302  -2.849  -2.497  1.00  0.00     0.262 C 
ATOM      9  C   UNL     1       4.890  -0.740  -1.454  1.00  0.00     0.273 C 
ATOM     10  H   UNL     1       5.657  -2.351  -0.540  1.00  0.00     0.348 HD
ATOM     11  C   UNL     1       6.564  -2.258  -3.144  1.00  0.00     0.062 C 
ATOM     12  C   UNL     1       6.100  -0.034  -2.034  1.00  0.00     0.111 C 
ATOM     13  C   UNL     1       6.480  -0.744  -3.334  1.00  0.00     0.023 C 
BRANCH  12  14
ATOM     14  C   UNL     1       7.289   0.334  -1.165  1.00  0.00     0.117 A 
ATOM     15  N   UNL     1       8.237   1.104  -1.690  1.00  0.00    -0.241 NA
ATOM     16  N   UNL     1       7.548   0.151   0.188  1.00  0.00    -0.328 N 
ATOM     17  C   UNL     1       9.087   1.454  -0.688  1.00  0.00     0.131 A 
ATOM     18  C   UNL     1       8.680   0.890   0.486  1.00  0.00     0.108 A 
BRANCH  16  19
ATOM     19  C   UNL     1       6.815  -0.526   1.251  1.00  0.00     0.180 C 
BRANCH  19  20
ATOM     20  C   UNL     1       7.370  -1.883   1.554  1.00  0.00     0.071 A 
ATOM     21  C   UNL     1       8.576  -2.175   2.170  1.00  0.00     0.092 A 
ATOM     22  N   UNL     1       6.592  -3.001   1.281  1.00  0.00    -0.248 NA
ATOM     23  S   UNL     1       8.780  -3.872   2.315  1.00  0.00    -0.130 S 
ATOM     24  C   UNL     1       7.245  -4.096   1.591  1.00  0.00     0.175 A 
ENDBRANCH  19  20
ENDBRANCH  16  19
ENDBRANCH  12  14
ENDBRANCH   6   7
ENDBRANCH   5   6
ENDBRANCH   3   5
ENDBRANCH   2   3
ENDBRANCH   1   2
BRANCH   1  25
ATOM     25  C   UNL     1       3.467   1.683   0.155  1.00  0.00     0.202 C 
BRANCH  25  26
ATOM     26  O   UNL     1       3.649   1.032   1.409  1.00  0.00    -0.374 OA
BRANCH  26  27
ATOM     27  C   UNL     1       2.592   1.204   2.359  1.00  0.00     0.202 C 
BRANCH  27  28
ATOM     28  C   UNL     1       2.732   2.422   3.268  1.00  0.00     0.261 C 
BRANCH  28  29
ATOM     29  O   UNL     1       3.077   3.573   2.518  1.00  0.00    -0.460 OA
BRANCH  29  30
ATOM     30  C   UNL     1       4.389   3.734   2.216  1.00  0.00     0.338 C 
ATOM     31  O   UNL     1       5.354   3.162   2.700  1.00  0.00    -0.246 OA
BRANCH  30  32
ATOM     32  C   UNL     1       4.416   4.821   1.225  1.00  0.00     0.060 A 
ATOM     33  C   UNL     1       5.492   5.699   1.276  1.00  0.00     0.016 A 
ATOM     34  C   UNL     1       3.216   5.139   0.559  1.00  0.00     0.016 A 
ATOM     35  C   UNL     1       5.225   7.017   0.996  1.00  0.00     0.010 A 
ATOM     36  C   UNL     1       2.943   6.442   0.307  1.00  0.00     0.010 A 
ATOM     37  C   UNL     1       3.911   7.363   0.665  1.00  0.00    -0.014 A 
BRANCH  37  38
ATOM     38  C   UNL     1       3.493   8.731   0.739  1.00  0.00     0.031 A 
ATOM     39  C   UNL     1       3.568   9.404  -0.560  1.00  0.00     0.074 A 
ATOM     40  C   UNL     1       2.932   9.243   1.847  1.00  0.00     0.049 A 
ATOM     41  N   UNL     1       4.567  10.089  -0.999  1.00  0.00    -0.248 NA
ATOM     42  C   UNL     1       2.565   9.055  -1.581  1.00  0.00     0.031 C 
ATOM     43  C   UNL     1       2.469   8.559   3.057  1.00  0.00     0.029 A 
ATOM     44  N   UNL     1       2.570  10.527   2.061  1.00  0.00    -0.354 N 
ATOM     45  C   UNL     1       4.190  10.464  -2.276  1.00  0.00     0.074 A 
ATOM     46  C   UNL     1       3.152   9.549  -2.670  1.00  0.00     0.031 C 
ATOM     47  C   UNL     1       1.698   9.412   3.776  1.00  0.00     0.029 A 
ATOM     48  C   UNL     1       1.725  10.720   3.140  1.00  0.00     0.049 A 
ATOM     49  H   UNL     1       2.882  11.268   1.493  1.00  0.00     0.167 HD
ATOM     50  C   UNL     1       4.471  11.708  -2.745  1.00  0.00     0.031 A 
ATOM     51  C   UNL     1       1.052  11.866   3.408  1.00  0.00     0.031 A 
ATOM     52  C   UNL     1       5.413  12.393  -1.889  1.00  0.00     0.049 A 
ATOM     53  C   UNL     1       1.704  12.956   2.633  1.00  0.00     0.074 A 
ATOM     54  C   UNL     1       6.692  12.126  -1.440  1.00  0.00     0.029 A 
ATOM     55  N   UNL     1       4.890  13.329  -1.024  1.00  0.00    -0.354 N 
ATOM     56  N   UNL     1       2.902  13.402   2.888  1.00  0.00    -0.248 NA
ATOM     57  C   UNL     1       1.221  13.226   1.284  1.00  0.00     0.031 C 
ATOM     58  C   UNL     1       6.717  12.582  -0.089  1.00  0.00     0.029 A 
ATOM     59  C   UNL     1       5.480  13.162   0.203  1.00  0.00     0.049 A 
ATOM     60  H   UNL     1       4.209  14.003  -1.248  1.00  0.00     0.167 HD
ATOM     61  C   UNL     1       3.484  13.600   1.642  1.00  0.00     0.074 A 
ATOM     62  C   UNL     1       2.369  13.584   0.698  1.00  0.00     0.031 C 
ATOM     63  C   UNL     1       4.832  13.455   1.465  1.00  0.00     0.031 A 
BRANCH  50  64
ATOM     64  C   UNL     1       3.554  12.454  -3.680  1.00  0.00    -0.014 A 
ATOM     65  C   UNL     1       3.978  13.700  -4.163  1.00  0.00     0.009 A 
ATOM     66  C   UNL     1       2.204  12.115  -3.903  1.00  0.00     0.009 A 
ATOM     67  C   UNL     1       3.080  14.584  -4.770  1.00  0.00     0.001 A 
ATOM     68  C   UNL     1       1.316  12.974  -4.550  1.00  0.00     0.001 A 
ATOM     69  C   UNL     1       1.749  14.223  -4.958  1.00  0.00     0.000 A 
ENDBRANCH  50  64
BRANCH  51  70
ATOM     70  C   UNL     1      -0.276  12.034   4.035  1.00  0.00    -0.014 A 
ATOM     71  C   UNL     1      -0.695  13.294   4.489  1.00  0.00     0.009 A 
ATOM     72  C   UNL     1      -1.243  11.016   3.942  1.00  0.00     0.009 A 
ATOM     73  C   UNL     1      -2.041  13.538   4.794  1.00  0.00     0.001 A 
ATOM     74  C   UNL     1      -2.585  11.258   4.251  1.00  0.00     0.001 A 
ATOM     75  C   UNL     1      -2.987  12.525   4.661  1.00  0.00     0.000 A 
ENDBRANCH  51  70
BRANCH  63  76
ATOM     76  C   UNL     1       5.693  13.345   2.702  1.00  0.00    -0.014 A 
ATOM     77  C   UNL     1       5.566  12.306   3.642  1.00  0.00     0.009 A 
ATOM     78  C   UNL     1       6.762  14.241   2.845  1.00  0.00     0.009 A 
ATOM     79  C   UNL     1       6.464  12.191   4.709  1.00  0.00     0.001 A 
ATOM     80  C   UNL     1       7.671  14.113   3.897  1.00  0.00     0.001 A 
ATOM     81  C   UNL     1       7.519  13.092   4.832  1.00  0.00     0.000 A 
ENDBRANCH  63  76
ENDBRANCH  37  38
ENDBRANCH  30  32
ENDBRANCH  29  30
ENDBRANCH  28  29
ENDBRANCH  27  28
ENDBRANCH  26  27
ENDBRANCH  25  26
ENDBRANCH   1  25
TORSDOF 19
