REMARK SMILES C[NH2+][C@]1(C(=O)OCCOCCOC(=O)c2ccc(-c3c4nc(c(-c5ccccc5)c5ccc([nH]5)c(-c5ccccc5)c5nc(c(-c6ccccc6)c6ccc3[nH]6)C=C5)C=C4)cc2)CC[C@@H](OCCCc2ccccc2)C1
REMARK SMILES IDX 7 1 6 2 4 3 5 4 3 5 63 6 76 7 64 8 65 9 2 10 1 11 66 14
REMARK SMILES IDX 67 15 68 16 69 17 70 18 71 19 75 20 72 21 74 22 73 23 8 24
REMARK SMILES IDX 9 25 10 26 11 27 12 28 13 29 14 30 15 31 16 32 62 33 17 34
REMARK SMILES IDX 61 35 18 36 19 37 20 38 55 39 21 40 60 41 54 42 56 43 22 44
REMARK SMILES IDX 59 45 53 46 52 47 23 49 45 50 30 51 44 52 31 53 34 54 43 55
REMARK SMILES IDX 57 56 32 57 33 58 42 60 58 61 35 62 24 63 25 64 29 65 26 66
REMARK SMILES IDX 28 67 27 68 46 69 47 70 51 71 48 72 50 73 49 74 36 75 37 76
REMARK SMILES IDX 41 77 38 78 40 79 39 80
REMARK H PARENT 2 12 2 13 56 48 34 59
REMARK Flexibility Score: inf
ROOT
ATOM      1  C   UNL     1       2.848   1.367  -0.559  1.00  0.00     0.261 C 
ENDROOT
BRANCH   1   2
ATOM      2  O   UNL     1       1.161   1.134  -0.426  1.00  0.00    -0.459 OA
BRANCH   2   3
ATOM      3  C   UNL     1      -0.377   0.247   0.193  1.00  0.00     0.368 C 
ATOM      4  O   UNL     1      -0.428  -0.965   0.582  1.00  0.00    -0.245 OA
BRANCH   3   5
ATOM      5  C   UNL     1      -1.867   1.018   0.702  1.00  0.00     0.196 C 
ATOM      6  C   UNL     1      -2.620   2.327   0.317  1.00  0.00     0.084 C 
ATOM      7  C   UNL     1      -2.894  -0.071   0.175  1.00  0.00     0.113 C 
ATOM      8  C   UNL     1      -4.077   1.984   0.051  1.00  0.00     0.039 C 
ATOM      9  C   UNL     1      -3.989   0.622  -0.612  1.00  0.00     0.125 C 
BRANCH   5  10
ATOM     10  N   UNL     1      -1.918   0.771   2.209  1.00  0.00    -0.334 N 
ATOM     11  C   UNL     1      -2.172   1.872   3.114  1.00  0.00     0.331 C 
ATOM     12  H   UNL     1      -2.653   0.083   2.371  1.00  0.00     0.347 HD
ATOM     13  H   UNL     1      -0.962   0.498   2.435  1.00  0.00     0.347 HD
ENDBRANCH   5  10
BRANCH   9  14
ATOM     14  O   UNL     1      -3.790   0.908  -1.991  1.00  0.00    -0.378 OA
BRANCH  14  15
ATOM     15  C   UNL     1      -2.892   0.167  -2.790  1.00  0.00     0.161 C 
BRANCH  15  16
ATOM     16  C   UNL     1      -2.053   1.169  -3.588  1.00  0.00     0.033 C 
BRANCH  16  17
ATOM     17  C   UNL     1      -1.090   2.097  -2.810  1.00  0.00     0.038 C 
BRANCH  17  18
ATOM     18  C   UNL     1      -0.228   1.542  -1.688  1.00  0.00    -0.048 A 
ATOM     19  C   UNL     1       0.550  -0.077  -1.820  1.00  0.00     0.004 A 
ATOM     20  C   UNL     1      -0.035   2.522  -0.166  1.00  0.00     0.004 A 
ATOM     21  C   UNL     1       1.488  -0.777  -0.440  1.00  0.00     0.000 A 
ATOM     22  C   UNL     1       0.768   1.774   1.284  1.00  0.00     0.000 A 
ATOM     23  C   UNL     1       1.555   0.125   1.154  1.00  0.00     0.000 A 
ENDBRANCH  17  18
ENDBRANCH  16  17
ENDBRANCH  15  16
ENDBRANCH  14  15
ENDBRANCH   9  14
ENDBRANCH   3   5
ENDBRANCH   2   3
ENDBRANCH   1   2
BRANCH   1  24
ATOM     24  C   UNL     1       3.596   2.153   0.601  1.00  0.00     0.202 C 
BRANCH  24  25
ATOM     25  O   UNL     1       3.537   1.717   1.956  1.00  0.00    -0.374 OA
BRANCH  25  26
ATOM     26  C   UNL     1       3.115   2.520   3.073  1.00  0.00     0.202 C 
BRANCH  26  27
ATOM     27  C   UNL     1       2.453   3.934   3.064  1.00  0.00     0.261 C 
BRANCH  27  28
ATOM     28  O   UNL     1       2.466   4.655   1.838  1.00  0.00    -0.460 OA
BRANCH  28  29
ATOM     29  C   UNL     1       3.607   5.342   1.630  1.00  0.00     0.338 C 
ATOM     30  O   UNL     1       4.527   5.495   2.429  1.00  0.00    -0.246 OA
BRANCH  29  31
ATOM     31  C   UNL     1       3.723   5.661   0.197  1.00  0.00     0.060 A 
ATOM     32  C   UNL     1       4.897   5.238  -0.437  1.00  0.00     0.016 A 
ATOM     33  C   UNL     1       2.722   6.323  -0.519  1.00  0.00     0.016 A 
ATOM     34  C   UNL     1       5.113   5.539  -1.774  1.00  0.00     0.010 A 
ATOM     35  C   UNL     1       2.952   6.650  -1.861  1.00  0.00     0.010 A 
ATOM     36  C   UNL     1       4.169   6.299  -2.474  1.00  0.00    -0.014 A 
BRANCH  36  37
ATOM     37  C   UNL     1       4.597   6.918  -3.750  1.00  0.00     0.031 A 
ATOM     38  C   UNL     1       5.149   8.317  -3.703  1.00  0.00     0.074 A 
ATOM     39  C   UNL     1       4.611   6.222  -4.899  1.00  0.00     0.049 A 
ATOM     40  N   UNL     1       5.648   9.046  -4.668  1.00  0.00    -0.248 NA
ATOM     41  C   UNL     1       5.152   8.977  -2.386  1.00  0.00     0.031 C 
ATOM     42  C   UNL     1       4.180   4.835  -5.058  1.00  0.00     0.029 A 
ATOM     43  N   UNL     1       5.025   6.595  -6.153  1.00  0.00    -0.354 N 
ATOM     44  C   UNL     1       6.021  10.246  -4.075  1.00  0.00     0.074 A 
ATOM     45  C   UNL     1       5.662  10.162  -2.678  1.00  0.00     0.031 C 
ATOM     46  C   UNL     1       4.354   4.471  -6.341  1.00  0.00     0.029 A 
ATOM     47  C   UNL     1       4.877   5.609  -7.097  1.00  0.00     0.049 A 
ATOM     48  H   UNL     1       5.394   7.485  -6.357  1.00  0.00     0.167 HD
ATOM     49  C   UNL     1       6.616  11.322  -4.641  1.00  0.00     0.031 A 
ATOM     50  C   UNL     1       5.120   5.631  -8.422  1.00  0.00     0.031 A 
ATOM     51  C   UNL     1       6.955  11.415  -6.035  1.00  0.00     0.049 A 
ATOM     52  C   UNL     1       5.679   6.883  -9.050  1.00  0.00     0.074 A 
ATOM     53  C   UNL     1       7.555  12.466  -6.706  1.00  0.00     0.029 A 
ATOM     54  N   UNL     1       6.713  10.425  -6.973  1.00  0.00    -0.354 N 
ATOM     55  N   UNL     1       6.040   8.007  -8.479  1.00  0.00    -0.248 NA
ATOM     56  C   UNL     1       5.873   6.862 -10.508  1.00  0.00     0.031 C 
ATOM     57  C   UNL     1       7.612  12.139  -8.064  1.00  0.00     0.029 A 
ATOM     58  C   UNL     1       7.119  10.854  -8.226  1.00  0.00     0.049 A 
ATOM     59  H   UNL     1       6.311   9.547  -6.779  1.00  0.00     0.167 HD
ATOM     60  C   UNL     1       6.531   8.813  -9.501  1.00  0.00     0.074 A 
ATOM     61  C   UNL     1       6.438   8.041 -10.723  1.00  0.00     0.031 C 
ATOM     62  C   UNL     1       7.020  10.076  -9.434  1.00  0.00     0.031 A 
BRANCH  49  63
ATOM     63  C   UNL     1       6.887  12.505  -3.755  1.00  0.00    -0.014 A 
ATOM     64  C   UNL     1       7.873  12.466  -2.757  1.00  0.00     0.009 A 
ATOM     65  C   UNL     1       6.153  13.688  -3.939  1.00  0.00     0.009 A 
ATOM     66  C   UNL     1       8.094  13.577  -1.939  1.00  0.00     0.001 A 
ATOM     67  C   UNL     1       6.398  14.806  -3.142  1.00  0.00     0.001 A 
ATOM     68  C   UNL     1       7.361  14.747  -2.136  1.00  0.00     0.000 A 
ENDBRANCH  49  63
BRANCH  50  69
ATOM     69  C   UNL     1       4.805   4.444  -9.261  1.00  0.00    -0.014 A 
ATOM     70  C   UNL     1       5.822   3.718  -9.899  1.00  0.00     0.009 A 
ATOM     71  C   UNL     1       3.471   4.053  -9.459  1.00  0.00     0.009 A 
ATOM     72  C   UNL     1       5.508   2.647 -10.740  1.00  0.00     0.001 A 
ATOM     73  C   UNL     1       3.161   2.962 -10.273  1.00  0.00     0.001 A 
ATOM     74  C   UNL     1       4.179   2.267 -10.922  1.00  0.00     0.000 A 
ENDBRANCH  50  69
BRANCH  62  75
ATOM     75  C   UNL     1       7.532  10.693 -10.708  1.00  0.00    -0.014 A 
ATOM     76  C   UNL     1       6.663  11.074 -11.742  1.00  0.00     0.009 A 
ATOM     77  C   UNL     1       8.907  10.942 -10.852  1.00  0.00     0.009 A 
ATOM     78  C   UNL     1       7.165  11.657 -12.908  1.00  0.00     0.001 A 
ATOM     79  C   UNL     1       9.401  11.557 -12.003  1.00  0.00     0.001 A 
ATOM     80  C   UNL     1       8.531  11.904 -13.034  1.00  0.00     0.000 A 
ENDBRANCH  62  75
ENDBRANCH  36  37
ENDBRANCH  29  31
ENDBRANCH  28  29
ENDBRANCH  27  28
ENDBRANCH  26  27
ENDBRANCH  25  26
ENDBRANCH  24  25
ENDBRANCH   1  24
TORSDOF 20
