REMARK SMILES O=C(CCC(=O)N1Cc2[nH]cnc2C[C@H]1C(=O)NCc1ccccc1)OCCOCCOC(=O)c1ccc(-c2c3nc(c(-c4ccccc4)c4ccc([nH]4)c(-c4ccccc4)c4nc(c(-c5ccccc5)c5ccc2[nH]5)C=C4)C=C3)cc1
REMARK SMILES IDX 27 1 26 2 2 3 1 4 3 5 4 6 5 7 6 8 7 9 8 10 15 11 9 12 14 13
REMARK SMILES IDX 10 14 13 15 11 16 12 18 16 19 17 20 18 21 19 23 20 24 21 25
REMARK SMILES IDX 25 26 22 27 24 28 23 29 28 30 29 31 30 32 31 33 32 34 33 35
REMARK SMILES IDX 34 36 35 37 36 38 82 39 37 40 81 41 38 42 39 43 40 44 75 45
REMARK SMILES IDX 41 46 80 47 74 48 76 49 42 50 79 51 73 52 72 53 43 55 65 56
REMARK SMILES IDX 50 57 64 58 51 59 54 60 63 61 77 62 52 63 53 64 62 66 78 67
REMARK SMILES IDX 55 68 44 69 45 70 49 71 46 72 48 73 47 74 66 75 67 76 71 77
REMARK SMILES IDX 68 78 70 79 69 80 56 81 57 82 61 83 58 84 60 85 59 86
REMARK H PARENT 10 17 18 22 76 54 54 65
REMARK Flexibility Score: inf
ROOT
ATOM      1  C   UNL     1       5.012  -0.072  -1.078  1.00  0.00     0.261 C 
ENDROOT
BRANCH   1   2
ATOM      2  O   UNL     1       3.656  -0.427  -0.751  1.00  0.00    -0.463 OA
BRANCH   2   3
ATOM      3  C   UNL     1       2.623   0.442  -0.689  1.00  0.00     0.306 C 
ATOM      4  O   UNL     1       1.467   0.025  -0.723  1.00  0.00    -0.252 OA
BRANCH   3   5
ATOM      5  C   UNL     1       2.916   1.895  -0.457  1.00  0.00     0.132 C 
BRANCH   5   6
ATOM      6  C   UNL     1       3.057   2.195   1.026  1.00  0.00     0.112 C 
BRANCH   6   7
ATOM      7  C   UNL     1       4.342   1.658   1.624  1.00  0.00     0.224 C 
ATOM      8  O   UNL     1       5.384   2.291   1.417  1.00  0.00    -0.275 OA
BRANCH   7   9
ATOM      9  N   UNL     1       4.349   0.474   2.356  1.00  0.00    -0.324 N 
ATOM     10  C   UNL     1       5.639   0.149   2.995  1.00  0.00     0.176 C 
ATOM     11  C   UNL     1       3.172  -0.457   2.518  1.00  0.00     0.180 C 
ATOM     12  C   UNL     1       5.737  -1.290   3.278  1.00  0.00     0.058 A 
ATOM     13  C   UNL     1       3.488  -1.968   2.432  1.00  0.00     0.093 C 
ATOM     14  N   UNL     1       6.770  -1.940   3.892  1.00  0.00    -0.347 N 
ATOM     15  C   UNL     1       4.799  -2.257   3.033  1.00  0.00     0.066 A 
ATOM     16  C   UNL     1       6.405  -3.257   3.997  1.00  0.00     0.197 A 
ATOM     17  H   UNL     1       7.615  -1.539   4.200  1.00  0.00     0.167 HD
ATOM     18  N   UNL     1       5.209  -3.475   3.492  1.00  0.00    -0.242 NA
BRANCH  11  19
ATOM     19  C   UNL     1       2.096  -0.092   3.570  1.00  0.00     0.243 C 
ATOM     20  O   UNL     1       1.113   0.583   3.232  1.00  0.00    -0.273 OA
ATOM     21  N   UNL     1       2.143  -0.396   4.884  1.00  0.00    -0.350 N 
ATOM     22  H   UNL     1       1.286  -0.277   5.354  1.00  0.00     0.163 HD
BRANCH  21  23
ATOM     23  C   UNL     1       3.214  -0.863   5.728  1.00  0.00     0.151 C 
BRANCH  23  24
ATOM     24  C   UNL     1       4.076   0.253   6.267  1.00  0.00    -0.029 A 
ATOM     25  C   UNL     1       5.086  -0.064   7.188  1.00  0.00     0.005 A 
ATOM     26  C   UNL     1       3.920   1.597   5.885  1.00  0.00     0.005 A 
ATOM     27  C   UNL     1       5.917   0.932   7.706  1.00  0.00     0.000 A 
ATOM     28  C   UNL     1       4.760   2.588   6.392  1.00  0.00     0.000 A 
ATOM     29  C   UNL     1       5.756   2.256   7.304  1.00  0.00     0.000 A 
ENDBRANCH  23  24
ENDBRANCH  21  23
ENDBRANCH  11  19
ENDBRANCH   7   9
ENDBRANCH   6   7
ENDBRANCH   5   6
ENDBRANCH   3   5
ENDBRANCH   2   3
ENDBRANCH   1   2
BRANCH   1  30
ATOM     30  C   UNL     1       5.511  -0.818  -2.313  1.00  0.00     0.202 C 
BRANCH  30  31
ATOM     31  O   UNL     1       4.834  -0.612  -3.550  1.00  0.00    -0.374 OA
BRANCH  31  32
ATOM     32  C   UNL     1       3.428  -0.815  -3.657  1.00  0.00     0.202 C 
BRANCH  32  33
ATOM     33  C   UNL     1       2.853  -2.215  -3.453  1.00  0.00     0.261 C 
BRANCH  33  34
ATOM     34  O   UNL     1       3.132  -2.764  -2.170  1.00  0.00    -0.460 OA
BRANCH  34  35
ATOM     35  C   UNL     1       4.149  -3.645  -2.169  1.00  0.00     0.338 C 
ATOM     36  O   UNL     1       4.938  -3.855  -3.088  1.00  0.00    -0.246 OA
BRANCH  35  37
ATOM     37  C   UNL     1       4.110  -4.483  -0.964  1.00  0.00     0.060 A 
ATOM     38  C   UNL     1       5.129  -5.435  -0.903  1.00  0.00     0.016 A 
ATOM     39  C   UNL     1       2.870  -4.675  -0.337  1.00  0.00     0.016 A 
ATOM     40  C   UNL     1       4.775  -6.716  -0.561  1.00  0.00     0.010 A 
ATOM     41  C   UNL     1       2.523  -5.958   0.019  1.00  0.00     0.010 A 
ATOM     42  C   UNL     1       3.439  -6.976  -0.235  1.00  0.00    -0.014 A 
BRANCH  42  43
ATOM     43  C   UNL     1       3.030  -8.364  -0.279  1.00  0.00     0.031 A 
ATOM     44  C   UNL     1       3.534  -9.198   0.824  1.00  0.00     0.074 A 
ATOM     45  C   UNL     1       2.228  -8.860  -1.240  1.00  0.00     0.049 A 
ATOM     46  N   UNL     1       4.300 -10.235   0.753  1.00  0.00    -0.248 NA
ATOM     47  C   UNL     1       3.199  -8.762   2.184  1.00  0.00     0.031 C 
ATOM     48  C   UNL     1       1.430  -8.122  -2.223  1.00  0.00     0.029 A 
ATOM     49  N   UNL     1       1.873 -10.158  -1.454  1.00  0.00    -0.354 N 
ATOM     50  C   UNL     1       4.420 -10.688   2.059  1.00  0.00     0.074 A 
ATOM     51  C   UNL     1       3.828  -9.684   2.908  1.00  0.00     0.031 C 
ATOM     52  C   UNL     1       0.516  -8.960  -2.762  1.00  0.00     0.029 A 
ATOM     53  C   UNL     1       0.755 -10.303  -2.258  1.00  0.00     0.049 A 
ATOM     54  H   UNL     1       2.365 -10.920  -1.074  1.00  0.00     0.167 HD
ATOM     55  C   UNL     1       4.798 -11.960   2.345  1.00  0.00     0.031 A 
ATOM     56  C   UNL     1       0.027 -11.432  -2.424  1.00  0.00     0.031 A 
ATOM     57  C   UNL     1       5.485 -12.598   1.256  1.00  0.00     0.049 A 
ATOM     58  C   UNL     1       0.849 -12.585  -1.994  1.00  0.00     0.074 A 
ATOM     59  C   UNL     1       6.638 -12.335   0.543  1.00  0.00     0.029 A 
ATOM     60  N   UNL     1       4.799 -13.537   0.526  1.00  0.00    -0.354 N 
ATOM     61  N   UNL     1       1.883 -13.029  -2.649  1.00  0.00    -0.248 NA
ATOM     62  C   UNL     1       0.741 -13.048  -0.619  1.00  0.00     0.031 C 
ATOM     63  C   UNL     1       6.377 -12.794  -0.781  1.00  0.00     0.029 A 
ATOM     64  C   UNL     1       5.081 -13.312  -0.797  1.00  0.00     0.049 A 
ATOM     65  H   UNL     1       4.213 -14.242   0.886  1.00  0.00     0.167 HD
ATOM     66  C   UNL     1       2.761 -13.474  -1.671  1.00  0.00     0.074 A 
ATOM     67  C   UNL     1       1.953 -13.588  -0.463  1.00  0.00     0.031 C 
ATOM     68  C   UNL     1       4.113 -13.435  -1.866  1.00  0.00     0.031 A 
BRANCH  55  69
ATOM     69  C   UNL     1       4.195 -12.727   3.490  1.00  0.00    -0.014 A 
ATOM     70  C   UNL     1       4.716 -13.988   3.819  1.00  0.00     0.009 A 
ATOM     71  C   UNL     1       2.966 -12.369   4.082  1.00  0.00     0.009 A 
ATOM     72  C   UNL     1       4.017 -14.861   4.661  1.00  0.00     0.001 A 
ATOM     73  C   UNL     1       2.291 -13.217   4.960  1.00  0.00     0.001 A 
ATOM     74  C   UNL     1       2.806 -14.476   5.230  1.00  0.00     0.000 A 
ENDBRANCH  55  69
BRANCH  56  75
ATOM     75  C   UNL     1      -1.422 -11.543  -2.685  1.00  0.00    -0.014 A 
ATOM     76  C   UNL     1      -1.976 -12.735  -3.171  1.00  0.00     0.009 A 
ATOM     77  C   UNL     1      -2.304 -10.547  -2.226  1.00  0.00     0.009 A 
ATOM     78  C   UNL     1      -3.364 -12.931  -3.176  1.00  0.00     0.001 A 
ATOM     79  C   UNL     1      -3.688 -10.737  -2.239  1.00  0.00     0.001 A 
ATOM     80  C   UNL     1      -4.217 -11.936  -2.702  1.00  0.00     0.000 A 
ENDBRANCH  56  75
BRANCH  68  81
ATOM     81  C   UNL     1       4.613 -13.171  -3.265  1.00  0.00    -0.014 A 
ATOM     82  C   UNL     1       4.310 -11.989  -3.963  1.00  0.00     0.009 A 
ATOM     83  C   UNL     1       5.524 -14.068  -3.841  1.00  0.00     0.009 A 
ATOM     84  C   UNL     1       4.868 -11.732  -5.218  1.00  0.00     0.001 A 
ATOM     85  C   UNL     1       6.100 -13.801  -5.087  1.00  0.00     0.001 A 
ATOM     86  C   UNL     1       5.766 -12.637  -5.778  1.00  0.00     0.000 A 
ENDBRANCH  68  81
ENDBRANCH  42  43
ENDBRANCH  35  37
ENDBRANCH  34  35
ENDBRANCH  33  34
ENDBRANCH  32  33
ENDBRANCH  31  32
ENDBRANCH  30  31
ENDBRANCH   1  30
TORSDOF 20
