REMARK SMILES COc1ccc2c(c1)CCN=C2C[C@H]1CN(C(=O)c2ccco2)CC[C@H]1CC(=O)OCCOCCOC(=O)c1ccc(-c2c3nc(c(-c4ccccc4)c4ccc([nH]4)c(-c4ccccc4)c4nc(c(-c5ccccc5)c5ccc2[nH]5)C=C4)C=C3)cc1
REMARK SMILES IDX 32 1 31 2 30 3 28 4 29 5 27 6 26 7 14 8 15 9 16 10 25 11
REMARK SMILES IDX 24 12 13 13 12 14 3 15 4 16 8 17 5 18 7 19 6 20 9 21 10 22
REMARK SMILES IDX 11 23 2 24 1 25 17 26 18 27 19 28 20 29 23 30 21 31 22 32
REMARK SMILES IDX 33 33 34 34 35 35 36 36 37 37 38 38 39 39 40 40 86 41 41 42
REMARK SMILES IDX 85 43 42 44 43 45 44 46 79 47 45 48 84 49 78 50 80 51 46 52
REMARK SMILES IDX 83 53 77 54 76 55 47 57 69 58 54 59 68 60 55 61 58 62 67 63
REMARK SMILES IDX 81 64 56 65 57 66 66 68 82 69 59 70 48 71 49 72 53 73 50 74
REMARK SMILES IDX 52 75 51 76 70 77 71 78 75 79 72 80 74 81 73 82 60 83 61 84
REMARK SMILES IDX 65 85 62 86 64 87 63 88
REMARK H PARENT 80 56 58 67
REMARK Flexibility Score: inf
ROOT
ATOM      1  C   UNL     1       5.408   6.001   8.943  1.00  0.00     0.202 C 
ENDROOT
BRANCH   1   2
ATOM      2  C   UNL     1       4.298   5.040   8.510  1.00  0.00     0.261 C 
BRANCH   2   3
ATOM      3  O   UNL     1       3.763   5.497   7.260  1.00  0.00    -0.463 OA
BRANCH   3   4
ATOM      4  C   UNL     1       2.434   5.748   7.216  1.00  0.00     0.306 C 
ATOM      5  O   UNL     1       1.628   5.394   8.067  1.00  0.00    -0.252 OA
BRANCH   4   6
ATOM      6  C   UNL     1       2.057   6.648   6.054  1.00  0.00     0.126 C 
BRANCH   6   7
ATOM      7  C   UNL     1       3.112   6.969   4.960  1.00  0.00     0.007 C 
ATOM      8  C   UNL     1       3.864   5.760   4.343  1.00  0.00     0.018 C 
ATOM      9  C   UNL     1       4.753   6.251   3.196  1.00  0.00     0.124 C 
ATOM     10  N   UNL     1       3.941   6.836   2.153  1.00  0.00    -0.336 N 
ATOM     11  C   UNL     1       2.517   7.949   3.908  1.00  0.00     0.026 C 
ATOM     12  C   UNL     1       3.238   8.050   2.553  1.00  0.00     0.120 C 
BRANCH   8  13
ATOM     13  C   UNL     1       3.063   4.479   4.000  1.00  0.00     0.062 C 
BRANCH  13  14
ATOM     14  C   UNL     1       1.799   4.593   3.143  1.00  0.00     0.043 C 
ATOM     15  C   UNL     1       0.772   1.660   0.198  1.00  0.00     0.119 A 
ATOM     16  C   UNL     1       2.114   1.827   0.540  1.00  0.00     0.047 A 
ATOM     17  C   UNL     1      -0.200   2.490   0.744  1.00  0.00     0.050 A 
ATOM     18  C   UNL     1       2.482   2.786   1.486  1.00  0.00     0.014 A 
ATOM     19  C   UNL     1       0.161   3.457   1.685  1.00  0.00    -0.033 A 
ATOM     20  C   UNL     1       1.506   3.589   2.077  1.00  0.00    -0.001 A 
ATOM     21  C   UNL     1      -0.887   4.315   2.332  1.00  0.00     0.060 C 
ATOM     22  C   UNL     1      -0.286   5.655   2.708  1.00  0.00     0.147 C 
ATOM     23  N   UNL     1       0.944   5.498   3.475  1.00  0.00    -0.289 NA
BRANCH  15  24
ATOM     24  O   UNL     1       0.345   0.726  -0.705  1.00  0.00    -0.497 OA
ATOM     25  C   UNL     1       0.794  -0.585  -0.366  1.00  0.00     0.278 C 
ENDBRANCH  15  24
ENDBRANCH  13  14
ENDBRANCH   8  13
BRANCH  10  26
ATOM     26  C   UNL     1       3.868   6.147   0.935  1.00  0.00     0.289 C 
ATOM     27  O   UNL     1       4.564   5.142   0.765  1.00  0.00    -0.265 OA
BRANCH  26  28
ATOM     28  C   UNL     1       2.938   6.566  -0.091  1.00  0.00     0.191 A 
ATOM     29  C   UNL     1       2.631   7.769  -0.700  1.00  0.00     0.056 A 
ATOM     30  O   UNL     1       2.215   5.569  -0.696  1.00  0.00    -0.459 OA
ATOM     31  C   UNL     1       1.661   7.489  -1.698  1.00  0.00     0.043 A 
ATOM     32  C   UNL     1       1.442   6.134  -1.651  1.00  0.00     0.196 A 
ENDBRANCH  26  28
ENDBRANCH  10  26
ENDBRANCH   6   7
ENDBRANCH   4   6
ENDBRANCH   3   4
ENDBRANCH   2   3
ENDBRANCH   1   2
BRANCH   1  33
ATOM     33  O   UNL     1       4.979   7.297   9.371  1.00  0.00    -0.374 OA
BRANCH  33  34
ATOM     34  C   UNL     1       4.540   8.214   8.371  1.00  0.00     0.202 C 
BRANCH  34  35
ATOM     35  C   UNL     1       5.629   8.980   7.612  1.00  0.00     0.261 C 
BRANCH  35  36
ATOM     36  O   UNL     1       6.520   8.105   6.898  1.00  0.00    -0.460 OA
BRANCH  36  37
ATOM     37  C   UNL     1       7.742   7.985   7.463  1.00  0.00     0.338 C 
ATOM     38  O   UNL     1       8.174   8.602   8.432  1.00  0.00    -0.246 OA
BRANCH  37  39
ATOM     39  C   UNL     1       8.490   6.868   6.865  1.00  0.00     0.060 A 
ATOM     40  C   UNL     1       9.049   5.936   7.748  1.00  0.00     0.016 A 
ATOM     41  C   UNL     1       8.731   6.780   5.491  1.00  0.00     0.016 A 
ATOM     42  C   UNL     1       9.910   4.954   7.272  1.00  0.00     0.010 A 
ATOM     43  C   UNL     1       9.602   5.792   5.014  1.00  0.00     0.010 A 
ATOM     44  C   UNL     1      10.229   4.904   5.909  1.00  0.00    -0.014 A 
BRANCH  44  45
ATOM     45  C   UNL     1      11.336   4.023   5.463  1.00  0.00     0.031 A 
ATOM     46  C   UNL     1      12.698   4.619   5.230  1.00  0.00     0.074 A 
ATOM     47  C   UNL     1      11.150   2.698   5.338  1.00  0.00     0.049 A 
ATOM     48  N   UNL     1      13.808   4.030   4.860  1.00  0.00    -0.248 NA
ATOM     49  C   UNL     1      12.829   6.069   5.448  1.00  0.00     0.031 C 
ATOM     50  C   UNL     1       9.896   1.991   5.592  1.00  0.00     0.029 A 
ATOM     51  N   UNL     1      12.028   1.709   4.970  1.00  0.00    -0.354 N 
ATOM     52  C   UNL     1      14.765   5.036   4.796  1.00  0.00     0.074 A 
ATOM     53  C   UNL     1      14.100   6.275   5.136  1.00  0.00     0.031 C 
ATOM     54  C   UNL     1      10.086   0.678   5.374  1.00  0.00     0.029 A 
ATOM     55  C   UNL     1      11.462   0.459   4.932  1.00  0.00     0.049 A 
ATOM     56  H   UNL     1      12.973   1.880   4.754  1.00  0.00     0.167 HD
ATOM     57  C   UNL     1      16.080   4.937   4.490  1.00  0.00     0.031 A 
ATOM     58  C   UNL     1      11.989  -0.725   4.566  1.00  0.00     0.031 A 
ATOM     59  C   UNL     1      16.741   3.708   4.140  1.00  0.00     0.049 A 
ATOM     60  C   UNL     1      13.430  -0.793   4.138  1.00  0.00     0.074 A 
ATOM     61  C   UNL     1      18.074   3.506   3.825  1.00  0.00     0.029 A 
ATOM     62  N   UNL     1      16.116   2.475   4.050  1.00  0.00    -0.354 N 
ATOM     63  N   UNL     1      14.329   0.161   4.102  1.00  0.00    -0.248 NA
ATOM     64  C   UNL     1      13.930  -2.106   3.705  1.00  0.00     0.031 C 
ATOM     65  C   UNL     1      18.243   2.159   3.487  1.00  0.00     0.029 A 
ATOM     66  C   UNL     1      17.029   1.512   3.651  1.00  0.00     0.049 A 
ATOM     67  H   UNL     1      15.165   2.308   4.241  1.00  0.00     0.167 HD
ATOM     68  C   UNL     1      15.503  -0.440   3.667  1.00  0.00     0.074 A 
ATOM     69  C   UNL     1      15.207  -1.844   3.469  1.00  0.00     0.031 C 
ATOM     70  C   UNL     1      16.719   0.120   3.452  1.00  0.00     0.031 A 
BRANCH  57  71
ATOM     71  C   UNL     1      16.886   6.206   4.484  1.00  0.00    -0.014 A 
ATOM     72  C   UNL     1      17.227   6.862   5.677  1.00  0.00     0.009 A 
ATOM     73  C   UNL     1      17.342   6.733   3.265  1.00  0.00     0.009 A 
ATOM     74  C   UNL     1      17.980   8.039   5.646  1.00  0.00     0.001 A 
ATOM     75  C   UNL     1      18.117   7.893   3.239  1.00  0.00     0.001 A 
ATOM     76  C   UNL     1      18.428   8.550   4.428  1.00  0.00     0.000 A 
ENDBRANCH  57  71
BRANCH  58  77
ATOM     77  C   UNL     1      11.141  -1.945   4.559  1.00  0.00    -0.014 A 
ATOM     78  C   UNL     1      11.365  -2.982   5.478  1.00  0.00     0.009 A 
ATOM     79  C   UNL     1      10.111  -2.087   3.615  1.00  0.00     0.009 A 
ATOM     80  C   UNL     1      10.591  -4.144   5.436  1.00  0.00     0.001 A 
ATOM     81  C   UNL     1       9.320  -3.236   3.594  1.00  0.00     0.001 A 
ATOM     82  C   UNL     1       9.566  -4.268   4.498  1.00  0.00     0.000 A 
ENDBRANCH  58  77
BRANCH  70  83
ATOM     83  C   UNL     1      17.828  -0.791   3.006  1.00  0.00    -0.014 A 
ATOM     84  C   UNL     1      17.859  -1.320   1.706  1.00  0.00     0.009 A 
ATOM     85  C   UNL     1      18.879  -1.091   3.887  1.00  0.00     0.009 A 
ATOM     86  C   UNL     1      18.903  -2.159   1.310  1.00  0.00     0.001 A 
ATOM     87  C   UNL     1      19.936  -1.906   3.479  1.00  0.00     0.001 A 
ATOM     88  C   UNL     1      19.943  -2.447   2.194  1.00  0.00     0.000 A 
ENDBRANCH  70  83
ENDBRANCH  44  45
ENDBRANCH  37  39
ENDBRANCH  36  37
ENDBRANCH  35  36
ENDBRANCH  34  35
ENDBRANCH  33  34
ENDBRANCH   1  33
TORSDOF 20
