REMARK SMILES CS(=O)(=O)c1ccc(-n2nc(C(F)(F)F)cc2-c2ccc(CC(=O)OCCOCCOC(=O)c3ccc(-c4c5nc(c(-c6ccccc6)c6ccc([nH]6)c(-c6ccccc6)c6nc(c(-c7ccccc7)c7ccc4[nH]7)C=C6)C=C5)cc3)cc2)cc1
REMARK SMILES IDX 27 1 26 2 25 3 23 4 24 5 22 6 21 7 18 8 19 9 83 10 20 11
REMARK SMILES IDX 82 12 17 13 9 14 10 15 11 16 16 17 8 18 5 19 6 20 85 21 7 22
REMARK SMILES IDX 84 23 2 24 1 25 3 26 4 27 12 28 13 29 14 30 15 31 28 32
REMARK SMILES IDX 29 33 30 34 31 35 32 36 33 37 34 38 35 39 81 40 36 41 80 42
REMARK SMILES IDX 37 43 38 44 39 45 74 46 40 47 79 48 73 49 75 50 41 51 78 52
REMARK SMILES IDX 72 53 71 54 42 56 64 57 49 58 63 59 50 60 53 61 62 62 76 63
REMARK SMILES IDX 51 64 52 65 61 67 77 68 54 69 43 70 44 71 48 72 45 73 47 74
REMARK SMILES IDX 46 75 65 76 66 77 70 78 67 79 69 80 68 81 55 82 56 83 60 84
REMARK SMILES IDX 57 85 59 86 58 87
REMARK H PARENT 75 55 53 66
REMARK Flexibility Score: inf
ROOT
ATOM      1  C   UNL     1       7.095  -0.147   0.665  1.00  0.00     0.202 C 
ENDROOT
BRANCH   1   2
ATOM      2  C   UNL     1       7.174   0.139   2.172  1.00  0.00     0.261 C 
BRANCH   2   3
ATOM      3  O   UNL     1       6.981   1.506   2.576  1.00  0.00    -0.463 OA
BRANCH   3   4
ATOM      4  C   UNL     1       8.135   2.198   2.790  1.00  0.00     0.310 C 
ATOM      5  O   UNL     1       9.259   1.740   2.607  1.00  0.00    -0.252 OA
BRANCH   4   6
ATOM      6  C   UNL     1       7.939   3.568   3.390  1.00  0.00     0.158 C 
BRANCH   6   7
ATOM      7  C   UNL     1       6.671   4.334   3.095  1.00  0.00    -0.037 A 
ATOM      8  C   UNL     1       4.429   5.994   2.657  1.00  0.00     0.000 A 
ATOM      9  C   UNL     1       5.453   5.907   1.705  1.00  0.00     0.010 A 
ATOM     10  C   UNL     1       4.539   5.247   3.835  1.00  0.00     0.010 A 
ATOM     11  C   UNL     1       6.554   5.077   1.914  1.00  0.00     0.005 A 
ATOM     12  C   UNL     1       5.648   4.420   4.049  1.00  0.00     0.005 A 
BRANCH   8  13
ATOM     13  C   UNL     1       3.284   6.879   2.432  1.00  0.00     0.075 A 
ATOM     14  N   UNL     1       2.581   7.037   1.234  1.00  0.00    -0.233 N 
ATOM     15  N   UNL     1       1.744   8.113   1.292  1.00  0.00    -0.163 NA
ATOM     16  C   UNL     1       1.786   8.533   2.571  1.00  0.00     0.167 A 
ATOM     17  C   UNL     1       2.735   7.792   3.310  1.00  0.00     0.064 A 
BRANCH  14  18
ATOM     18  C   UNL     1       2.558   6.180   0.086  1.00  0.00     0.065 A 
ATOM     19  C   UNL     1       2.117   4.389  -2.051  1.00  0.00     0.067 A 
ATOM     20  C   UNL     1       2.581   3.923  -0.830  1.00  0.00     0.022 A 
ATOM     21  C   UNL     1       1.915   5.761  -2.229  1.00  0.00     0.022 A 
ATOM     22  C   UNL     1       2.828   4.813   0.224  1.00  0.00     0.030 A 
ATOM     23  C   UNL     1       2.118   6.653  -1.159  1.00  0.00     0.030 A 
BRANCH  19  24
ATOM     24  S   UNL     1       1.660   3.259  -3.351  1.00  0.00     0.175 S 
ATOM     25  C   UNL     1       1.342   1.675  -2.617  1.00  0.00     0.163 C 
ATOM     26  O   UNL     1       2.834   3.126  -4.189  1.00  0.00    -0.224 OA
ATOM     27  O   UNL     1       0.398   3.735  -3.884  1.00  0.00    -0.224 OA
ENDBRANCH  19  24
ENDBRANCH  14  18
BRANCH  16  28
ATOM     28  C   UNL     1       0.945   9.656   3.121  1.00  0.00     0.435 C 
ATOM     29  F   UNL     1       0.777  10.682   2.249  1.00  0.00    -0.164 F 
ATOM     30  F   UNL     1      -0.295   9.229   3.484  1.00  0.00    -0.164 F 
ATOM     31  F   UNL     1       1.498  10.193   4.245  1.00  0.00    -0.164 F 
ENDBRANCH  16  28
ENDBRANCH   8  13
ENDBRANCH   6   7
ENDBRANCH   4   6
ENDBRANCH   3   4
ENDBRANCH   2   3
ENDBRANCH   1   2
BRANCH   1  32
ATOM     32  O   UNL     1       7.581   0.835  -0.233  1.00  0.00    -0.374 OA
BRANCH  32  33
ATOM     33  C   UNL     1       6.853   2.050  -0.338  1.00  0.00     0.202 C 
BRANCH  33  34
ATOM     34  C   UNL     1       5.343   1.964  -0.515  1.00  0.00     0.261 C 
BRANCH  34  35
ATOM     35  O   UNL     1       4.625   1.619   0.689  1.00  0.00    -0.460 OA
BRANCH  35  36
ATOM     36  C   UNL     1       3.786   0.555   0.591  1.00  0.00     0.338 C 
ATOM     37  O   UNL     1       3.889  -0.382  -0.189  1.00  0.00    -0.246 OA
BRANCH  36  38
ATOM     38  C   UNL     1       2.507   0.886   1.256  1.00  0.00     0.060 A 
ATOM     39  C   UNL     1       1.370   0.357   0.640  1.00  0.00     0.016 A 
ATOM     40  C   UNL     1       2.395   1.942   2.170  1.00  0.00     0.016 A 
ATOM     41  C   UNL     1       0.172   1.041   0.746  1.00  0.00     0.010 A 
ATOM     42  C   UNL     1       1.181   2.623   2.278  1.00  0.00     0.010 A 
ATOM     43  C   UNL     1       0.100   2.229   1.488  1.00  0.00    -0.014 A 
BRANCH  43  44
ATOM     44  C   UNL     1      -1.196   2.914   1.512  1.00  0.00     0.031 A 
ATOM     45  C   UNL     1      -2.233   2.113   2.158  1.00  0.00     0.074 A 
ATOM     46  C   UNL     1      -1.533   4.102   0.966  1.00  0.00     0.049 A 
ATOM     47  N   UNL     1      -3.202   1.527   1.541  1.00  0.00    -0.248 NA
ATOM     48  C   UNL     1      -2.108   1.804   3.584  1.00  0.00     0.031 C 
ATOM     49  C   UNL     1      -0.614   5.006   0.316  1.00  0.00     0.029 A 
ATOM     50  N   UNL     1      -2.725   4.786   0.885  1.00  0.00    -0.354 N 
ATOM     51  C   UNL     1      -3.981   1.009   2.551  1.00  0.00     0.074 A 
ATOM     52  C   UNL     1      -3.180   1.030   3.755  1.00  0.00     0.031 C 
ATOM     53  C   UNL     1      -1.188   6.199   0.078  1.00  0.00     0.029 A 
ATOM     54  C   UNL     1      -2.588   6.099   0.432  1.00  0.00     0.049 A 
ATOM     55  H   UNL     1      -3.592   4.386   1.123  1.00  0.00     0.167 HD
ATOM     56  C   UNL     1      -5.327   1.008   2.408  1.00  0.00     0.031 A 
ATOM     57  C   UNL     1      -3.516   7.069   0.245  1.00  0.00     0.031 A 
ATOM     58  C   UNL     1      -5.765   1.091   1.038  1.00  0.00     0.049 A 
ATOM     59  C   UNL     1      -4.799   6.420  -0.065  1.00  0.00     0.074 A 
ATOM     60  C   UNL     1      -5.835   0.243  -0.046  1.00  0.00     0.029 A 
ATOM     61  N   UNL     1      -5.941   2.362   0.562  1.00  0.00    -0.354 N 
ATOM     62  N   UNL     1      -5.054   5.865  -1.215  1.00  0.00    -0.248 NA
ATOM     63  C   UNL     1      -5.763   6.150   0.995  1.00  0.00     0.031 C 
ATOM     64  C   UNL     1      -5.996   1.060  -1.205  1.00  0.00     0.029 A 
ATOM     65  C   UNL     1      -6.015   2.392  -0.809  1.00  0.00     0.049 A 
ATOM     66  H   UNL     1      -6.007   3.160   1.135  1.00  0.00     0.167 HD
ATOM     67  C   UNL     1      -5.925   4.846  -0.899  1.00  0.00     0.074 A 
ATOM     68  C   UNL     1      -6.470   5.183   0.407  1.00  0.00     0.031 C 
ATOM     69  C   UNL     1      -5.842   3.639  -1.523  1.00  0.00     0.031 A 
BRANCH  56  70
ATOM     70  C   UNL     1      -6.192   1.479   3.541  1.00  0.00    -0.014 A 
ATOM     71  C   UNL     1      -7.559   1.191   3.523  1.00  0.00     0.009 A 
ATOM     72  C   UNL     1      -5.738   2.421   4.493  1.00  0.00     0.009 A 
ATOM     73  C   UNL     1      -8.428   1.802   4.434  1.00  0.00     0.001 A 
ATOM     74  C   UNL     1      -6.593   2.998   5.428  1.00  0.00     0.001 A 
ATOM     75  C   UNL     1      -7.945   2.695   5.390  1.00  0.00     0.000 A 
ENDBRANCH  56  70
BRANCH  57  76
ATOM     76  C   UNL     1      -3.352   8.540   0.198  1.00  0.00    -0.014 A 
ATOM     77  C   UNL     1      -4.320   9.364  -0.399  1.00  0.00     0.009 A 
ATOM     78  C   UNL     1      -2.353   9.163   0.964  1.00  0.00     0.009 A 
ATOM     79  C   UNL     1      -4.315  10.751  -0.195  1.00  0.00     0.001 A 
ATOM     80  C   UNL     1      -2.344  10.549   1.163  1.00  0.00     0.001 A 
ATOM     81  C   UNL     1      -3.336  11.341   0.599  1.00  0.00     0.000 A 
ENDBRANCH  57  76
BRANCH  69  82
ATOM     82  C   UNL     1      -5.351   3.620  -2.940  1.00  0.00    -0.014 A 
ATOM     83  C   UNL     1      -4.040   3.952  -3.316  1.00  0.00     0.009 A 
ATOM     84  C   UNL     1      -6.253   3.221  -3.940  1.00  0.00     0.009 A 
ATOM     85  C   UNL     1      -3.651   3.904  -4.660  1.00  0.00     0.001 A 
ATOM     86  C   UNL     1      -5.862   3.161  -5.279  1.00  0.00     0.001 A 
ATOM     87  C   UNL     1      -4.562   3.507  -5.639  1.00  0.00     0.000 A 
ENDBRANCH  69  82
ENDBRANCH  43  44
ENDBRANCH  36  38
ENDBRANCH  35  36
ENDBRANCH  34  35
ENDBRANCH  33  34
ENDBRANCH  32  33
ENDBRANCH   1  32
TORSDOF 19
