REMARK SMILES O=C(OCCOCCOC(=O)c1cc(SCC(=O)N2CCOCC2)ccn1)c1ccc(-c2c3nc(c(-c4ccccc4)c4ccc([nH]4)c(-c4ccccc4)c4nc(c(-c5ccccc5)c5ccc2[nH]5)C=C4)C=C3)cc1
REMARK SMILES IDX 7 1 6 2 5 3 4 4 3 5 2 6 1 7 28 8 29 9 75 10 30 11 74 12
REMARK SMILES IDX 31 13 32 14 33 15 68 16 34 17 73 18 67 19 69 20 35 21 72 22
REMARK SMILES IDX 66 23 65 24 36 26 58 27 43 28 57 29 44 30 47 31 56 32 70 33
REMARK SMILES IDX 45 34 46 35 55 37 71 38 48 39 37 40 38 41 42 42 39 43 41 44
REMARK SMILES IDX 40 45 59 46 60 47 64 48 61 49 63 50 62 51 49 52 50 53 54 54
REMARK SMILES IDX 51 55 53 56 52 57 8 58 9 59 10 60 11 61 12 62 13 63 27 64
REMARK SMILES IDX 14 65 26 66 25 67 15 68 16 69 17 70 18 71 19 72 20 73 24 74
REMARK SMILES IDX 21 75 23 76 22 77
REMARK H PARENT 69 25 47 36
REMARK Flexibility Score: inf
ROOT
ATOM      1  C   UNL     1       2.624   2.162  -0.656  1.00  0.00     0.202 C 
ENDROOT
BRANCH   1   2
ATOM      2  O   UNL     1       3.926   1.572  -0.656  1.00  0.00    -0.374 OA
BRANCH   2   3
ATOM      3  C   UNL     1       4.192   0.637  -1.700  1.00  0.00     0.202 C 
BRANCH   3   4
ATOM      4  C   UNL     1       3.931  -0.813  -1.288  1.00  0.00     0.261 C 
BRANCH   4   5
ATOM      5  O   UNL     1       2.566  -0.976  -0.868  1.00  0.00    -0.460 OA
BRANCH   5   6
ATOM      6  C   UNL     1       2.063  -1.014   0.387  1.00  0.00     0.338 C 
ATOM      7  O   UNL     1       0.852  -1.191   0.519  1.00  0.00    -0.246 OA
BRANCH   6   8
ATOM      8  C   UNL     1       2.879  -0.872   1.636  1.00  0.00     0.060 A 
ATOM      9  C   UNL     1       4.110  -0.221   1.737  1.00  0.00     0.016 A 
ATOM     10  C   UNL     1       2.302  -1.361   2.824  1.00  0.00     0.016 A 
ATOM     11  C   UNL     1       4.767  -0.087   2.954  1.00  0.00     0.010 A 
ATOM     12  C   UNL     1       2.941  -1.207   4.058  1.00  0.00     0.010 A 
ATOM     13  C   UNL     1       4.186  -0.576   4.120  1.00  0.00    -0.014 A 
BRANCH  13  14
ATOM     14  C   UNL     1       4.957  -0.478   5.370  1.00  0.00     0.031 A 
ATOM     15  C   UNL     1       5.699  -1.686   5.848  1.00  0.00     0.074 A 
ATOM     16  C   UNL     1       5.088   0.715   5.975  1.00  0.00     0.049 A 
ATOM     17  N   UNL     1       6.459  -1.824   6.901  1.00  0.00    -0.248 NA
ATOM     18  C   UNL     1       5.586  -2.897   5.018  1.00  0.00     0.031 C 
ATOM     19  C   UNL     1       4.493   1.969   5.505  1.00  0.00     0.029 A 
ATOM     20  N   UNL     1       5.794   1.076   7.090  1.00  0.00    -0.354 N 
ATOM     21  C   UNL     1       6.903  -3.139   6.868  1.00  0.00     0.074 A 
ATOM     22  C   UNL     1       6.323  -3.760   5.698  1.00  0.00     0.031 C 
ATOM     23  C   UNL     1       4.884   2.968   6.313  1.00  0.00     0.029 A 
ATOM     24  C   UNL     1       5.707   2.416   7.383  1.00  0.00     0.049 A 
ATOM     25  H   UNL     1       6.313   0.438   7.631  1.00  0.00     0.167 HD
ATOM     26  C   UNL     1       7.715  -3.770   7.746  1.00  0.00     0.031 A 
ATOM     27  C   UNL     1       6.222   3.106   8.417  1.00  0.00     0.031 A 
ATOM     28  C   UNL     1       8.257  -3.139   8.917  1.00  0.00     0.049 A 
ATOM     29  C   UNL     1       7.036   2.357   9.434  1.00  0.00     0.074 A 
ATOM     30  C   UNL     1       9.027  -3.692   9.923  1.00  0.00     0.029 A 
ATOM     31  N   UNL     1       8.074  -1.800   9.236  1.00  0.00    -0.354 N 
ATOM     32  N   UNL     1       7.402   1.096   9.431  1.00  0.00    -0.248 NA
ATOM     33  C   UNL     1       7.497   3.117  10.602  1.00  0.00     0.031 C 
ATOM     34  C   UNL     1       9.274  -2.695  10.874  1.00  0.00     0.029 A 
ATOM     35  C   UNL     1       8.700  -1.511  10.434  1.00  0.00     0.049 A 
ATOM     36  H   UNL     1       7.574  -1.153   8.689  1.00  0.00     0.167 HD
ATOM     37  C   UNL     1       8.144   0.912  10.589  1.00  0.00     0.074 A 
ATOM     38  C   UNL     1       8.195   2.199  11.258  1.00  0.00     0.031 C 
ATOM     39  C   UNL     1       8.724  -0.216  11.066  1.00  0.00     0.031 A 
BRANCH  26  40
ATOM     40  C   UNL     1       7.980  -5.226   7.495  1.00  0.00    -0.014 A 
ATOM     41  C   UNL     1       8.830  -5.650   6.461  1.00  0.00     0.009 A 
ATOM     42  C   UNL     1       7.331  -6.190   8.281  1.00  0.00     0.009 A 
ATOM     43  C   UNL     1       8.991  -7.012   6.195  1.00  0.00     0.001 A 
ATOM     44  C   UNL     1       7.512  -7.550   8.027  1.00  0.00     0.001 A 
ATOM     45  C   UNL     1       8.332  -7.960   6.977  1.00  0.00     0.000 A 
ENDBRANCH  26  40
BRANCH  27  46
ATOM     46  C   UNL     1       5.941   4.559   8.566  1.00  0.00    -0.014 A 
ATOM     47  C   UNL     1       6.966   5.510   8.455  1.00  0.00     0.009 A 
ATOM     48  C   UNL     1       4.634   5.004   8.829  1.00  0.00     0.009 A 
ATOM     49  C   UNL     1       6.692   6.871   8.624  1.00  0.00     0.001 A 
ATOM     50  C   UNL     1       4.357   6.366   8.967  1.00  0.00     0.001 A 
ATOM     51  C   UNL     1       5.388   7.298   8.874  1.00  0.00     0.000 A 
ENDBRANCH  27  46
BRANCH  39  52
ATOM     52  C   UNL     1       9.476  -0.094  12.358  1.00  0.00    -0.014 A 
ATOM     53  C   UNL     1       8.797   0.012  13.581  1.00  0.00     0.009 A 
ATOM     54  C   UNL     1      10.878  -0.135  12.351  1.00  0.00     0.009 A 
ATOM     55  C   UNL     1       9.513   0.102  14.775  1.00  0.00     0.001 A 
ATOM     56  C   UNL     1      11.590  -0.071  13.549  1.00  0.00     0.001 A 
ATOM     57  C   UNL     1      10.907   0.055  14.758  1.00  0.00     0.000 A 
ENDBRANCH  39  52
ENDBRANCH  13  14
ENDBRANCH   6   8
ENDBRANCH   5   6
ENDBRANCH   4   5
ENDBRANCH   3   4
ENDBRANCH   2   3
ENDBRANCH   1   2
BRANCH   1  58
ATOM     58  C   UNL     1       2.771   3.684  -0.576  1.00  0.00     0.261 C 
BRANCH  58  59
ATOM     59  O   UNL     1       3.413   4.141  -1.776  1.00  0.00    -0.459 OA
BRANCH  59  60
ATOM     60  C   UNL     1       4.774   4.110  -1.760  1.00  0.00     0.357 C 
ATOM     61  O   UNL     1       5.500   4.140  -0.781  1.00  0.00    -0.244 OA
BRANCH  60  62
ATOM     62  C   UNL     1       5.202   3.832  -3.159  1.00  0.00     0.149 A 
ATOM     63  C   UNL     1       4.559   4.462  -4.215  1.00  0.00     0.051 A 
ATOM     64  N   UNL     1       6.132   2.853  -3.316  1.00  0.00    -0.249 NA
ATOM     65  C   UNL     1       4.837   4.030  -5.504  1.00  0.00     0.012 A 
ATOM     66  C   UNL     1       6.400   2.468  -4.576  1.00  0.00     0.113 A 
ATOM     67  C   UNL     1       5.779   3.013  -5.685  1.00  0.00     0.035 A 
BRANCH  65  68
ATOM     68  S   UNL     1       4.087   4.696  -6.972  1.00  0.00    -0.116 SA
BRANCH  68  69
ATOM     69  C   UNL     1       2.540   5.448  -6.406  1.00  0.00     0.175 C 
BRANCH  69  70
ATOM     70  C   UNL     1       1.567   4.592  -5.605  1.00  0.00     0.233 C 
ATOM     71  O   UNL     1       1.250   4.962  -4.468  1.00  0.00    -0.274 OA
ATOM     72  N   UNL     1       0.880   3.568  -6.225  1.00  0.00    -0.337 N 
ATOM     73  C   UNL     1       1.320   2.747  -7.350  1.00  0.00     0.148 C 
ATOM     74  C   UNL     1      -0.545   3.395  -5.936  1.00  0.00     0.148 C 
ATOM     75  C   UNL     1       0.504   3.099  -8.591  1.00  0.00     0.181 C 
ATOM     76  C   UNL     1      -1.338   3.727  -7.215  1.00  0.00     0.181 C 
ATOM     77  O   UNL     1      -0.901   2.928  -8.332  1.00  0.00    -0.378 OA
ENDBRANCH  69  70
ENDBRANCH  68  69
ENDBRANCH  65  68
ENDBRANCH  60  62
ENDBRANCH  59  60
ENDBRANCH  58  59
ENDBRANCH   1  58
TORSDOF 17
