REMARK SMILES O=C(Cc1ccc(=O)n(C(F)F)c1)OCCOCCOC(=O)c1ccc(-c2c3nc(c(-c4ccccc4)c4ccc([nH]4)c(-c4ccccc4)c4nc(c(-c5ccccc5)c5ccc2[nH]5)C=C4)C=C3)cc1
REMARK SMILES IDX 17 1 16 2 15 3 14 4 2 5 1 6 3 7 4 8 5 9 13 10 6 11 9 12 7 13
REMARK SMILES IDX 8 14 10 15 11 16 12 17 18 18 19 19 20 20 21 21 22 22 23 23
REMARK SMILES IDX 24 24 70 25 25 26 69 27 26 28 27 29 28 30 63 31 29 32 68 33
REMARK SMILES IDX 62 34 64 35 30 36 67 37 61 38 60 39 31 41 53 42 38 43 52 44
REMARK SMILES IDX 39 45 42 46 51 47 65 48 40 49 41 50 50 52 66 53 43 54 32 55
REMARK SMILES IDX 33 56 37 57 34 58 36 59 35 60 54 61 55 62 59 63 56 64 58 65
REMARK SMILES IDX 57 66 44 67 45 68 49 69 46 70 48 71 47 72
REMARK H PARENT 64 40 42 51
REMARK Flexibility Score: inf
ROOT
ATOM      1  O   UNL     1       4.091   1.586   0.679  1.00  0.00    -0.374 OA
ENDROOT
BRANCH   1   2
ATOM      2  C   UNL     1       4.396   1.179  -0.653  1.00  0.00     0.202 C 
BRANCH   2   3
ATOM      3  C   UNL     1       3.903  -0.213  -1.025  1.00  0.00     0.261 C 
BRANCH   3   4
ATOM      4  O   UNL     1       2.502  -0.398  -0.768  1.00  0.00    -0.463 OA
BRANCH   4   5
ATOM      5  C   UNL     1       1.970  -0.902   0.369  1.00  0.00     0.310 C 
ATOM      6  O   UNL     1       0.762  -1.143   0.410  1.00  0.00    -0.252 OA
BRANCH   5   7
ATOM      7  C   UNL     1       2.838  -1.149   1.594  1.00  0.00     0.159 C 
BRANCH   7   8
ATOM      8  C   UNL     1       3.737  -2.342   1.467  1.00  0.00    -0.020 A 
ATOM      9  C   UNL     1       5.172  -2.131   1.448  1.00  0.00     0.011 A 
ATOM     10  C   UNL     1       3.265  -3.594   1.358  1.00  0.00     0.099 A 
ATOM     11  C   UNL     1       6.003  -3.130   1.133  1.00  0.00     0.072 A 
ATOM     12  N   UNL     1       4.113  -4.661   1.123  1.00  0.00    -0.258 N 
ATOM     13  C   UNL     1       5.472  -4.500   0.897  1.00  0.00     0.254 A 
ATOM     14  O   UNL     1       6.252  -5.376   0.541  1.00  0.00    -0.269 OA
BRANCH  12  15
ATOM     15  C   UNL     1       3.578  -5.990   0.996  1.00  0.00     0.451 C 
ATOM     16  F   UNL     1       3.599  -6.396  -0.296  1.00  0.00    -0.185 F 
ATOM     17  F   UNL     1       4.289  -6.880   1.730  1.00  0.00    -0.185 F 
ENDBRANCH  12  15
ENDBRANCH   7   8
ENDBRANCH   5   7
ENDBRANCH   4   5
ENDBRANCH   3   4
ENDBRANCH   2   3
ENDBRANCH   1   2
BRANCH   1  18
ATOM     18  C   UNL     1       2.876   2.340   0.807  1.00  0.00     0.202 C 
BRANCH  18  19
ATOM     19  C   UNL     1       3.063   3.850   0.622  1.00  0.00     0.261 C 
BRANCH  19  20
ATOM     20  O   UNL     1       3.361   4.151  -0.750  1.00  0.00    -0.460 OA
BRANCH  20  21
ATOM     21  C   UNL     1       4.671   4.345  -1.040  1.00  0.00     0.338 C 
ATOM     22  O   UNL     1       5.589   4.481  -0.249  1.00  0.00    -0.246 OA
BRANCH  21  23
ATOM     23  C   UNL     1       4.865   4.116  -2.491  1.00  0.00     0.060 A 
ATOM     24  C   UNL     1       3.886   4.460  -3.429  1.00  0.00     0.016 A 
ATOM     25  C   UNL     1       6.038   3.466  -2.902  1.00  0.00     0.016 A 
ATOM     26  C   UNL     1       4.097   4.179  -4.779  1.00  0.00     0.010 A 
ATOM     27  C   UNL     1       6.250   3.188  -4.252  1.00  0.00     0.010 A 
ATOM     28  C   UNL     1       5.291   3.566  -5.201  1.00  0.00    -0.014 A 
BRANCH  28  29
ATOM     29  C   UNL     1       5.612   3.517  -6.645  1.00  0.00     0.031 A 
ATOM     30  C   UNL     1       5.493   2.262  -7.449  1.00  0.00     0.074 A 
ATOM     31  C   UNL     1       6.022   4.663  -7.221  1.00  0.00     0.049 A 
ATOM     32  N   UNL     1       5.635   2.107  -8.740  1.00  0.00    -0.248 NA
ATOM     33  C   UNL     1       5.178   1.024  -6.721  1.00  0.00     0.031 C 
ATOM     34  C   UNL     1       6.193   5.935  -6.515  1.00  0.00     0.029 A 
ATOM     35  N   UNL     1       6.345   4.954  -8.520  1.00  0.00    -0.354 N 
ATOM     36  C   UNL     1       5.406   0.761  -8.989  1.00  0.00     0.074 A 
ATOM     37  C   UNL     1       5.160   0.133  -7.706  1.00  0.00     0.031 C 
ATOM     38  C   UNL     1       6.547   6.880  -7.397  1.00  0.00     0.029 A 
ATOM     39  C   UNL     1       6.661   6.276  -8.720  1.00  0.00     0.049 A 
ATOM     40  H   UNL     1       6.351   4.282  -9.239  1.00  0.00     0.167 HD
ATOM     41  C   UNL     1       5.389   0.121 -10.182  1.00  0.00     0.031 A 
ATOM     42  C   UNL     1       6.995   6.936  -9.844  1.00  0.00     0.031 A 
ATOM     43  C   UNL     1       5.667   0.758 -11.445  1.00  0.00     0.049 A 
ATOM     44  C   UNL     1       7.015   6.190 -11.145  1.00  0.00     0.074 A 
ATOM     45  C   UNL     1       5.640   0.199 -12.712  1.00  0.00     0.029 A 
ATOM     46  N   UNL     1       6.037   2.086 -11.603  1.00  0.00    -0.354 N 
ATOM     47  N   UNL     1       6.716   4.935 -11.377  1.00  0.00    -0.248 NA
ATOM     48  C   UNL     1       7.403   6.949 -12.341  1.00  0.00     0.031 C 
ATOM     49  C   UNL     1       6.063   1.167 -13.626  1.00  0.00     0.029 A 
ATOM     50  C   UNL     1       6.277   2.353 -12.941  1.00  0.00     0.049 A 
ATOM     51  H   UNL     1       6.116   2.741 -10.873  1.00  0.00     0.167 HD
ATOM     52  C   UNL     1       6.860   4.756 -12.745  1.00  0.00     0.074 A 
ATOM     53  C   UNL     1       7.254   6.038 -13.295  1.00  0.00     0.031 C 
ATOM     54  C   UNL     1       6.680   3.630 -13.476  1.00  0.00     0.031 A 
BRANCH  41  55
ATOM     55  C   UNL     1       5.054  -1.347 -10.200  1.00  0.00    -0.014 A 
ATOM     56  C   UNL     1       6.023  -2.284 -10.597  1.00  0.00     0.009 A 
ATOM     57  C   UNL     1       3.748  -1.792  -9.942  1.00  0.00     0.009 A 
ATOM     58  C   UNL     1       5.687  -3.631 -10.751  1.00  0.00     0.001 A 
ATOM     59  C   UNL     1       3.422  -3.144 -10.069  1.00  0.00     0.001 A 
ATOM     60  C   UNL     1       4.388  -4.060 -10.484  1.00  0.00     0.000 A 
ENDBRANCH  41  55
BRANCH  42  61
ATOM     61  C   UNL     1       7.282   8.392  -9.770  1.00  0.00    -0.014 A 
ATOM     62  C   UNL     1       8.417   8.863  -9.089  1.00  0.00     0.009 A 
ATOM     63  C   UNL     1       6.383   9.322 -10.312  1.00  0.00     0.009 A 
ATOM     64  C   UNL     1       8.631  10.233  -8.927  1.00  0.00     0.001 A 
ATOM     65  C   UNL     1       6.617  10.693 -10.176  1.00  0.00     0.001 A 
ATOM     66  C   UNL     1       7.733  11.146  -9.475  1.00  0.00     0.000 A 
ENDBRANCH  42  61
BRANCH  54  67
ATOM     67  C   UNL     1       6.903   3.715 -14.962  1.00  0.00    -0.014 A 
ATOM     68  C   UNL     1       5.817   3.563 -15.840  1.00  0.00     0.009 A 
ATOM     69  C   UNL     1       8.195   3.838 -15.494  1.00  0.00     0.009 A 
ATOM     70  C   UNL     1       6.022   3.510 -17.219  1.00  0.00     0.001 A 
ATOM     71  C   UNL     1       8.394   3.816 -16.876  1.00  0.00     0.001 A 
ATOM     72  C   UNL     1       7.310   3.640 -17.736  1.00  0.00     0.000 A 
ENDBRANCH  54  67
ENDBRANCH  28  29
ENDBRANCH  21  23
ENDBRANCH  20  21
ENDBRANCH  19  20
ENDBRANCH  18  19
ENDBRANCH   1  18
TORSDOF 16
