REMARK SMILES CC(C)C[C@H](CNC(=O)c1ccc(O)cc1O)C(=O)OCCOCCOC(=O)c1ccc(-c2c3nc(c(-c4ccccc4)c4ccc([nH]4)c(-c4ccccc4)c4nc(c(-c5ccccc5)c5ccc2[nH]5)C=C4)C=C3)cc1
REMARK SMILES IDX 22 1 21 2 20 3 18 4 19 5 5 6 4 7 2 8 1 9 3 10 6 11 7 12 8 13
REMARK SMILES IDX 9 15 10 16 11 17 16 18 12 19 15 20 13 21 17 22 14 24 23 26
REMARK SMILES IDX 24 27 25 28 26 29 27 30 28 31 29 32 30 33 76 34 31 35 75 36
REMARK SMILES IDX 32 37 33 38 34 39 69 40 35 41 74 42 68 43 70 44 36 45 73 46
REMARK SMILES IDX 67 47 66 48 37 50 59 51 44 52 58 53 45 54 48 55 57 56 71 57
REMARK SMILES IDX 46 58 47 59 56 61 72 62 49 63 38 64 39 65 43 66 40 67 42 68
REMARK SMILES IDX 41 69 60 70 61 71 65 72 62 73 64 74 63 75 50 76 51 77 55 78
REMARK SMILES IDX 52 79 54 80 53 81
REMARK H PARENT 7 14 17 23 14 25 70 49 48 60
REMARK Flexibility Score: inf
ROOT
ATOM      1  C   UNL     1      -5.868   0.948  -0.367  1.00  0.00     0.202 C 
ENDROOT
BRANCH   1   2
ATOM      2  C   UNL     1      -5.067   2.215  -0.061  1.00  0.00     0.261 C 
BRANCH   2   3
ATOM      3  O   UNL     1      -3.680   2.076  -0.422  1.00  0.00    -0.463 OA
BRANCH   3   4
ATOM      4  C   UNL     1      -2.792   2.166   0.604  1.00  0.00     0.310 C 
ATOM      5  O   UNL     1      -3.090   2.373   1.774  1.00  0.00    -0.252 OA
BRANCH   4   6
ATOM      6  C   UNL     1      -1.353   2.022   0.158  1.00  0.00     0.118 C 
BRANCH   6   7
ATOM      7  C   UNL     1      -0.600   3.362   0.116  1.00  0.00     0.020 C 
BRANCH   7   8
ATOM      8  C   UNL     1      -1.184   4.504  -0.739  1.00  0.00    -0.017 C 
ATOM      9  C   UNL     1      -2.320   5.253  -0.033  1.00  0.00     0.007 C 
ATOM     10  C   UNL     1      -0.066   5.505  -1.056  1.00  0.00     0.007 C 
ENDBRANCH   7   8
ENDBRANCH   6   7
BRANCH   6  11
ATOM     11  C   UNL     1      -1.086   1.099  -1.041  1.00  0.00     0.131 C 
BRANCH  11  12
ATOM     12  N   UNL     1      -1.640   1.524  -2.312  1.00  0.00    -0.351 N 
ATOM     13  C   UNL     1      -1.015   1.876  -3.479  1.00  0.00     0.255 C 
ATOM     14  H   UNL     1      -2.623   1.566  -2.341  1.00  0.00     0.163 HD
ATOM     15  O   UNL     1      -1.659   2.389  -4.393  1.00  0.00    -0.269 OA
BRANCH  13  16
ATOM     16  C   UNL     1       0.446   1.738  -3.645  1.00  0.00     0.081 A 
ATOM     17  C   UNL     1       1.105   0.535  -3.357  1.00  0.00     0.021 A 
ATOM     18  C   UNL     1       1.175   2.822  -4.151  1.00  0.00     0.132 A 
ATOM     19  C   UNL     1       2.495   0.450  -3.493  1.00  0.00     0.047 A 
ATOM     20  C   UNL     1       2.559   2.743  -4.275  1.00  0.00     0.093 A 
ATOM     21  C   UNL     1       3.209   1.560  -3.937  1.00  0.00     0.119 A 
BRANCH  18  22
ATOM     22  O   UNL     1       0.580   3.990  -4.547  1.00  0.00    -0.507 OA
ATOM     23  H   UNL     1      -0.350   4.087  -4.482  1.00  0.00     0.293 HD
ENDBRANCH  18  22
BRANCH  21  24
ATOM     24  O   UNL     1       4.566   1.523  -4.072  1.00  0.00    -0.508 OA
ATOM     25  H   UNL     1       5.036   0.742  -3.853  1.00  0.00     0.293 HD
ENDBRANCH  21  24
ENDBRANCH  13  16
ENDBRANCH  11  12
ENDBRANCH   6  11
ENDBRANCH   4   6
ENDBRANCH   3   4
ENDBRANCH   2   3
ENDBRANCH   1   2
BRANCH   1  26
ATOM     26  O   UNL     1      -5.509  -0.222   0.364  1.00  0.00    -0.374 OA
BRANCH  26  27
ATOM     27  C   UNL     1      -4.314  -0.899  -0.019  1.00  0.00     0.202 C 
BRANCH  27  28
ATOM     28  C   UNL     1      -4.372  -1.716  -1.316  1.00  0.00     0.261 C 
BRANCH  28  29
ATOM     29  O   UNL     1      -4.552  -0.888  -2.480  1.00  0.00    -0.460 OA
BRANCH  29  30
ATOM     30  C   UNL     1      -5.707  -1.104  -3.156  1.00  0.00     0.338 C 
ATOM     31  O   UNL     1      -6.558  -1.950  -2.920  1.00  0.00    -0.246 OA
BRANCH  30  32
ATOM     32  C   UNL     1      -5.916  -0.048  -4.162  1.00  0.00     0.060 A 
ATOM     33  C   UNL     1      -7.084   0.720  -4.068  1.00  0.00     0.016 A 
ATOM     34  C   UNL     1      -5.033   0.129  -5.228  1.00  0.00     0.016 A 
ATOM     35  C   UNL     1      -7.389   1.652  -5.059  1.00  0.00     0.010 A 
ATOM     36  C   UNL     1      -5.350   1.053  -6.229  1.00  0.00     0.010 A 
ATOM     37  C   UNL     1      -6.540   1.801  -6.162  1.00  0.00    -0.014 A 
BRANCH  37  38
ATOM     38  C   UNL     1      -6.935   2.672  -7.295  1.00  0.00     0.031 A 
ATOM     39  C   UNL     1      -7.573   2.060  -8.511  1.00  0.00     0.074 A 
ATOM     40  C   UNL     1      -6.713   3.997  -7.244  1.00  0.00     0.049 A 
ATOM     41  N   UNL     1      -7.913   2.627  -9.640  1.00  0.00    -0.248 NA
ATOM     42  C   UNL     1      -7.866   0.619  -8.447  1.00  0.00     0.031 C 
ATOM     43  C   UNL     1      -6.137   4.715  -6.108  1.00  0.00     0.029 A 
ATOM     44  N   UNL     1      -6.929   4.972  -8.186  1.00  0.00    -0.354 N 
ATOM     45  C   UNL     1      -8.442   1.613 -10.427  1.00  0.00     0.074 A 
ATOM     46  C   UNL     1      -8.374   0.393  -9.651  1.00  0.00     0.031 C 
ATOM     47  C   UNL     1      -6.018   6.014  -6.430  1.00  0.00     0.029 A 
ATOM     48  C   UNL     1      -6.472   6.210  -7.805  1.00  0.00     0.049 A 
ATOM     49  H   UNL     1      -7.368   4.800  -9.050  1.00  0.00     0.167 HD
ATOM     50  C   UNL     1      -8.935   1.692 -11.686  1.00  0.00     0.031 A 
ATOM     51  C   UNL     1      -6.390   7.360  -8.501  1.00  0.00     0.031 A 
ATOM     52  C   UNL     1      -8.999   2.902 -12.459  1.00  0.00     0.049 A 
ATOM     53  C   UNL     1      -6.867   7.399  -9.929  1.00  0.00     0.074 A 
ATOM     54  C   UNL     1      -9.532   3.088 -13.724  1.00  0.00     0.029 A 
ATOM     55  N   UNL     1      -8.500   4.127 -12.049  1.00  0.00    -0.354 N 
ATOM     56  N   UNL     1      -7.418   6.447 -10.642  1.00  0.00    -0.248 NA
ATOM     57  C   UNL     1      -6.705   8.671 -10.648  1.00  0.00     0.031 C 
ATOM     58  C   UNL     1      -9.298   4.414 -14.104  1.00  0.00     0.029 A 
ATOM     59  C   UNL     1      -8.669   5.064 -13.055  1.00  0.00     0.049 A 
ATOM     60  H   UNL     1      -8.087   4.305 -11.174  1.00  0.00     0.167 HD
ATOM     61  C   UNL     1      -7.683   7.009 -11.885  1.00  0.00     0.074 A 
ATOM     62  C   UNL     1      -7.251   8.390 -11.823  1.00  0.00     0.031 C 
ATOM     63  C   UNL     1      -8.232   6.432 -12.980  1.00  0.00     0.031 A 
BRANCH  50  64
ATOM     64  C   UNL     1      -9.411   0.423 -12.332  1.00  0.00    -0.014 A 
ATOM     65  C   UNL     1     -10.634  -0.164 -11.977  1.00  0.00     0.009 A 
ATOM     66  C   UNL     1      -8.652  -0.152 -13.365  1.00  0.00     0.009 A 
ATOM     67  C   UNL     1     -11.080  -1.314 -12.633  1.00  0.00     0.001 A 
ATOM     68  C   UNL     1      -9.111  -1.288 -14.032  1.00  0.00     0.001 A 
ATOM     69  C   UNL     1     -10.322  -1.871 -13.663  1.00  0.00     0.000 A 
ENDBRANCH  50  64
BRANCH  51  70
ATOM     70  C   UNL     1      -5.771   8.562  -7.885  1.00  0.00    -0.014 A 
ATOM     71  C   UNL     1      -6.542   9.693  -7.580  1.00  0.00     0.009 A 
ATOM     72  C   UNL     1      -4.389   8.595  -7.635  1.00  0.00     0.009 A 
ATOM     73  C   UNL     1      -5.938  10.841  -7.061  1.00  0.00     0.001 A 
ATOM     74  C   UNL     1      -3.793   9.733  -7.090  1.00  0.00     0.001 A 
ATOM     75  C   UNL     1      -4.565  10.859  -6.814  1.00  0.00     0.000 A 
ENDBRANCH  51  70
BRANCH  63  76
ATOM     76  C   UNL     1      -8.416   7.294 -14.197  1.00  0.00    -0.014 A 
ATOM     77  C   UNL     1      -7.324   7.654 -15.001  1.00  0.00     0.009 A 
ATOM     78  C   UNL     1      -9.705   7.704 -14.573  1.00  0.00     0.009 A 
ATOM     79  C   UNL     1      -7.517   8.427 -16.147  1.00  0.00     0.001 A 
ATOM     80  C   UNL     1      -9.898   8.455 -15.733  1.00  0.00     0.001 A 
ATOM     81  C   UNL     1      -8.803   8.822 -16.515  1.00  0.00     0.000 A 
ENDBRANCH  63  76
ENDBRANCH  37  38
ENDBRANCH  30  32
ENDBRANCH  29  30
ENDBRANCH  28  29
ENDBRANCH  27  28
ENDBRANCH  26  27
ENDBRANCH   1  26
TORSDOF 21
