REMARK SMILES O=C1O[C@@H](c2ccc(O)c(O)c2)[C@H](C(=O)OCCOCCOC(=O)c2ccc(-c3c4nc(c(-c5ccccc5)c5ccc([nH]5)c(-c5ccccc5)c5nc(c(-c6ccccc6)c6ccc3[nH]6)C=C5)C=C4)cc2)/C1=C\c1ccc(O)c(O)c1
REMARK SMILES IDX 19 1 18 2 17 3 16 4 14 5 15 6 13 7 1 8 2 9 3 10 73 11 4 12
REMARK SMILES IDX 74 13 5 14 6 15 12 16 7 17 10 18 8 19 11 20 9 22 75 24 76 25
REMARK SMILES IDX 82 26 77 27 80 28 78 29 81 30 79 32 20 34 21 35 22 36 23 37
REMARK SMILES IDX 24 38 25 39 26 40 72 41 27 42 71 43 28 44 29 45 30 46 65 47
REMARK SMILES IDX 31 48 70 49 64 50 66 51 32 52 69 53 63 54 62 55 33 57 55 58
REMARK SMILES IDX 40 59 54 60 41 61 44 62 53 63 67 64 42 65 43 66 52 68 68 69
REMARK SMILES IDX 45 70 34 71 35 72 39 73 36 74 38 75 37 76 56 77 57 78 61 79
REMARK SMILES IDX 58 80 60 81 59 82 46 83 47 84 51 85 48 86 50 87 49 88
REMARK H PARENT 11 21 9 23 81 31 79 33 66 56 44 67
REMARK Flexibility Score: inf
ROOT
ATOM      1  O   UNL     1       1.852   3.568   3.753  1.00  0.00    -0.374 OA
ENDROOT
BRANCH   1   2
ATOM      2  C   UNL     1       2.769   2.541   4.108  1.00  0.00     0.202 C 
BRANCH   2   3
ATOM      3  C   UNL     1       2.408   1.096   3.766  1.00  0.00     0.261 C 
BRANCH   3   4
ATOM      4  O   UNL     1       2.347   0.907   2.342  1.00  0.00    -0.463 OA
BRANCH   4   5
ATOM      5  C   UNL     1       1.111   0.591   1.857  1.00  0.00     0.317 C 
ATOM      6  O   UNL     1       0.142   0.307   2.547  1.00  0.00    -0.251 OA
BRANCH   5   7
ATOM      7  C   UNL     1       1.112   0.688   0.340  1.00  0.00     0.182 C 
ATOM      8  O   UNL     1      -1.854  -1.091  -0.445  1.00  0.00    -0.247 OA
ATOM      9  C   UNL     1      -0.715  -0.685  -0.288  1.00  0.00     0.335 C 
ATOM     10  O   UNL     1       0.402  -1.463  -0.231  1.00  0.00    -0.453 OA
ATOM     11  C   UNL     1      -0.296   0.726  -0.139  1.00  0.00     0.056 C 
ATOM     12  C   UNL     1       1.587  -0.643  -0.209  1.00  0.00     0.226 C 
ATOM     13  C   UNL     1      -1.134   1.737  -0.417  1.00  0.00     0.020 C 
BRANCH  12  14
ATOM     14  C   UNL     1       2.242  -0.574  -1.585  1.00  0.00    -0.002 A 
ATOM     15  C   UNL     1       3.359   0.258  -1.811  1.00  0.00     0.012 A 
ATOM     16  C   UNL     1       1.794  -1.387  -2.640  1.00  0.00     0.057 A 
ATOM     17  C   UNL     1       3.993   0.296  -3.061  1.00  0.00     0.050 A 
ATOM     18  C   UNL     1       2.430  -1.345  -3.874  1.00  0.00     0.157 A 
ATOM     19  C   UNL     1       3.520  -0.510  -4.088  1.00  0.00     0.157 A 
BRANCH  18  20
ATOM     20  O   UNL     1       1.976  -2.150  -4.878  1.00  0.00    -0.504 OA
ATOM     21  H   UNL     1       2.394  -2.133  -5.717  1.00  0.00     0.293 HD
ENDBRANCH  18  20
BRANCH  19  22
ATOM     22  O   UNL     1       4.100  -0.529  -5.325  1.00  0.00    -0.504 OA
ATOM     23  H   UNL     1       4.837   0.020  -5.506  1.00  0.00     0.293 HD
ENDBRANCH  19  22
ENDBRANCH  12  14
BRANCH  13  24
ATOM     24  C   UNL     1      -0.820   3.167  -0.345  1.00  0.00    -0.021 A 
ATOM     25  C   UNL     1       0.083   3.753  -1.247  1.00  0.00     0.012 A 
ATOM     26  C   UNL     1      -1.478   3.978   0.588  1.00  0.00     0.058 A 
ATOM     27  C   UNL     1       0.347   5.129  -1.207  1.00  0.00     0.051 A 
ATOM     28  C   UNL     1      -1.203   5.342   0.627  1.00  0.00     0.157 A 
ATOM     29  C   UNL     1      -0.292   5.915  -0.256  1.00  0.00     0.157 A 
BRANCH  28  30
ATOM     30  O   UNL     1      -1.814   6.117   1.571  1.00  0.00    -0.504 OA
ATOM     31  H   UNL     1      -1.637   7.037   1.607  1.00  0.00     0.293 HD
ENDBRANCH  28  30
BRANCH  29  32
ATOM     32  O   UNL     1      -0.044   7.253  -0.134  1.00  0.00    -0.504 OA
ATOM     33  H   UNL     1       0.564   7.671  -0.712  1.00  0.00     0.293 HD
ENDBRANCH  29  32
ENDBRANCH  13  24
ENDBRANCH   5   7
ENDBRANCH   4   5
ENDBRANCH   3   4
ENDBRANCH   2   3
ENDBRANCH   1   2
BRANCH   1  34
ATOM     34  C   UNL     1       1.672   3.887   2.379  1.00  0.00     0.202 C 
BRANCH  34  35
ATOM     35  C   UNL     1       2.770   4.664   1.641  1.00  0.00     0.261 C 
BRANCH  35  36
ATOM     36  O   UNL     1       4.078   4.105   1.794  1.00  0.00    -0.460 OA
BRANCH  36  37
ATOM     37  C   UNL     1       4.844   4.757   2.704  1.00  0.00     0.338 C 
ATOM     38  O   UNL     1       4.569   5.761   3.335  1.00  0.00    -0.246 OA
BRANCH  37  39
ATOM     39  C   UNL     1       6.049   3.957   2.963  1.00  0.00     0.060 A 
ATOM     40  C   UNL     1       6.270   3.511   4.272  1.00  0.00     0.016 A 
ATOM     41  C   UNL     1       6.964   3.690   1.945  1.00  0.00     0.016 A 
ATOM     42  C   UNL     1       7.432   2.815   4.579  1.00  0.00     0.010 A 
ATOM     43  C   UNL     1       8.138   3.007   2.258  1.00  0.00     0.010 A 
ATOM     44  C   UNL     1       8.388   2.596   3.580  1.00  0.00    -0.014 A 
BRANCH  44  45
ATOM     45  C   UNL     1       9.723   2.078   3.941  1.00  0.00     0.031 A 
ATOM     46  C   UNL     1      10.863   3.049   4.050  1.00  0.00     0.074 A 
ATOM     47  C   UNL     1       9.913   0.766   4.158  1.00  0.00     0.049 A 
ATOM     48  N   UNL     1      12.133   2.816   4.246  1.00  0.00    -0.248 NA
ATOM     49  C   UNL     1      10.524   4.476   3.910  1.00  0.00     0.031 C 
ATOM     50  C   UNL     1       8.868  -0.257   4.134  1.00  0.00     0.029 A 
ATOM     51  N   UNL     1      11.062   0.071   4.428  1.00  0.00    -0.354 N 
ATOM     52  C   UNL     1      12.748   4.061   4.235  1.00  0.00     0.074 A 
ATOM     53  C   UNL     1      11.717   5.045   3.986  1.00  0.00     0.031 C 
ATOM     54  C   UNL     1       9.429  -1.455   4.365  1.00  0.00     0.029 A 
ATOM     55  C   UNL     1      10.874  -1.287   4.508  1.00  0.00     0.049 A 
ATOM     56  H   UNL     1      11.938   0.503   4.554  1.00  0.00     0.167 HD
ATOM     57  C   UNL     1      14.056   4.356   4.418  1.00  0.00     0.031 A 
ATOM     58  C   UNL     1      11.773  -2.279   4.645  1.00  0.00     0.031 A 
ATOM     59  C   UNL     1      15.073   3.368   4.652  1.00  0.00     0.049 A 
ATOM     60  C   UNL     1      13.234  -1.933   4.756  1.00  0.00     0.074 A 
ATOM     61  C   UNL     1      16.426   3.559   4.867  1.00  0.00     0.029 A 
ATOM     62  N   UNL     1      14.848   2.000   4.695  1.00  0.00    -0.354 N 
ATOM     63  N   UNL     1      13.805  -0.752   4.763  1.00  0.00    -0.248 NA
ATOM     64  C   UNL     1      14.174  -3.056   4.881  1.00  0.00     0.031 C 
ATOM     65  C   UNL     1      17.030   2.303   4.973  1.00  0.00     0.029 A 
ATOM     66  C   UNL     1      16.042   1.333   4.898  1.00  0.00     0.049 A 
ATOM     67  H   UNL     1      13.968   1.568   4.595  1.00  0.00     0.167 HD
ATOM     68  C   UNL     1      15.165  -0.988   4.929  1.00  0.00     0.074 A 
ATOM     69  C   UNL     1      15.331  -2.424   5.026  1.00  0.00     0.031 C 
ATOM     70  C   UNL     1      16.184  -0.097   5.000  1.00  0.00     0.031 A 
BRANCH  57  71
ATOM     71  C   UNL     1      14.463   5.799   4.324  1.00  0.00    -0.014 A 
ATOM     72  C   UNL     1      14.095   6.732   5.306  1.00  0.00     0.009 A 
ATOM     73  C   UNL     1      15.258   6.226   3.248  1.00  0.00     0.009 A 
ATOM     74  C   UNL     1      14.485   8.069   5.194  1.00  0.00     0.001 A 
ATOM     75  C   UNL     1      15.673   7.555   3.155  1.00  0.00     0.001 A 
ATOM     76  C   UNL     1      15.278   8.477   4.122  1.00  0.00     0.000 A 
ENDBRANCH  57  71
BRANCH  58  77
ATOM     77  C   UNL     1      11.322  -3.696   4.656  1.00  0.00    -0.014 A 
ATOM     78  C   UNL     1      11.426  -4.471   5.820  1.00  0.00     0.009 A 
ATOM     79  C   UNL     1      10.793  -4.284   3.495  1.00  0.00     0.009 A 
ATOM     80  C   UNL     1      11.036  -5.813   5.814  1.00  0.00     0.001 A 
ATOM     81  C   UNL     1      10.374  -5.615   3.501  1.00  0.00     0.001 A 
ATOM     82  C   UNL     1      10.505  -6.382   4.657  1.00  0.00     0.000 A 
ENDBRANCH  58  77
BRANCH  70  83
ATOM     83  C   UNL     1      17.565  -0.639   5.242  1.00  0.00    -0.014 A 
ATOM     84  C   UNL     1      18.271  -1.323   4.242  1.00  0.00     0.009 A 
ATOM     85  C   UNL     1      18.195  -0.393   6.473  1.00  0.00     0.009 A 
ATOM     86  C   UNL     1      19.573  -1.771   4.479  1.00  0.00     0.001 A 
ATOM     87  C   UNL     1      19.507  -0.812   6.696  1.00  0.00     0.001 A 
ATOM     88  C   UNL     1      20.192  -1.508   5.701  1.00  0.00     0.000 A 
ENDBRANCH  70  83
ENDBRANCH  44  45
ENDBRANCH  37  39
ENDBRANCH  36  37
ENDBRANCH  35  36
ENDBRANCH  34  35
ENDBRANCH   1  34
TORSDOF 20
