REMARK SMILES O=C(C[C@H]1C(=O)O[C@H]2[C@@H]3OC(=O)c4cc(O)c(O)c(O)c4-c4ccccc4C(=O)OC[C@H]2O[C@@H](OC(=O)c2cc(O)c(O)c(O)c2)[C@@H]3OC(=O)c2cc(O)c(O)c3c2[C@H]1[C@H](O)C(=O)O3)OCCOCCOC(=O)c1ccc(-c2c3nc(c(-c4ccccc4)c4ccc([nH]4)c(-c4ccccc4)c4nc(c(-c5ccccc5)c5ccc2[nH]5)C=C4)C=C3)cc1
REMARK SMILES IDX 3 1 2 2 1 3 65 4 66 5 67 6 68 7 69 8 70 9 71 10 72 11 73 12
REMARK SMILES IDX 74 13 75 14 121 15 76 16 120 17 77 18 78 19 79 20 114 21
REMARK SMILES IDX 80 22 119 23 113 24 115 25 81 26 118 27 112 28 111 29 82 31
REMARK SMILES IDX 104 32 89 33 103 34 90 35 93 36 102 37 116 38 91 39 92 40
REMARK SMILES IDX 101 42 117 43 94 44 83 45 84 46 88 47 85 48 87 49 86 50
REMARK SMILES IDX 105 51 106 52 110 53 107 54 109 55 108 56 95 57 96 58 100 59
REMARK SMILES IDX 97 60 99 61 98 62 4 63 59 65 58 66 60 67 51 68 57 69 62 70
REMARK SMILES IDX 52 71 55 72 64 73 63 74 53 75 61 76 49 78 50 79 48 80 47 81
REMARK SMILES IDX 9 82 34 83 8 84 33 85 32 86 10 88 11 89 12 90 13 91 14 92
REMARK SMILES IDX 21 93 15 94 19 95 17 96 22 97 23 98 27 99 24 100 26 101
REMARK SMILES IDX 25 102 28 103 29 104 30 105 31 106 16 108 20 110 18 112
REMARK SMILES IDX 35 114 36 115 37 116 38 117 39 118 46 119 40 120 44 121
REMARK SMILES IDX 42 122 41 123 45 125 43 127 7 129 5 130 6 131 56 133 54 135
REMARK H PARENT 115 30 93 41 61 77 16 109 20 111 18 113 41 124 45 126 43 128
REMARK H PARENT 56 134 54 136
REMARK Flexibility Score: 170.00
ROOT
ATOM      1  C   UNL     1       3.934   0.715   0.411  1.00  0.00     0.138 C 
ENDROOT
BRANCH   1   2
ATOM      2  C   UNL     1       2.372   0.798   0.762  1.00  0.00     0.306 C 
ATOM      3  O   UNL     1       1.962   0.809   1.916  1.00  0.00    -0.252 OA
BRANCH   2   4
ATOM      4  O   UNL     1       1.544   0.714  -0.343  1.00  0.00    -0.463 OA
BRANCH   4   5
ATOM      5  C   UNL     1       0.289  -0.030  -0.221  1.00  0.00     0.261 C 
BRANCH   5   6
ATOM      6  C   UNL     1      -0.647  -0.059  -1.492  1.00  0.00     0.202 C 
BRANCH   6   7
ATOM      7  O   UNL     1       0.005  -0.409  -2.707  1.00  0.00    -0.374 OA
BRANCH   7   8
ATOM      8  C   UNL     1      -0.627  -0.338  -4.010  1.00  0.00     0.202 C 
BRANCH   8   9
ATOM      9  C   UNL     1      -1.583   0.829  -4.366  1.00  0.00     0.261 C 
BRANCH   9  10
ATOM     10  O   UNL     1      -2.909   0.657  -3.889  1.00  0.00    -0.460 OA
BRANCH  10  11
ATOM     11  C   UNL     1      -3.372  -0.603  -4.007  1.00  0.00     0.338 C 
ATOM     12  O   UNL     1      -3.264  -1.347  -4.962  1.00  0.00    -0.246 OA
BRANCH  11  13
ATOM     13  C   UNL     1      -3.671  -0.998  -2.624  1.00  0.00     0.060 A 
ATOM     14  C   UNL     1      -4.130  -0.033  -1.714  1.00  0.00     0.016 A 
ATOM     15  C   UNL     1      -3.348  -2.298  -2.215  1.00  0.00     0.016 A 
ATOM     16  C   UNL     1      -4.366  -0.396  -0.405  1.00  0.00     0.010 A 
ATOM     17  C   UNL     1      -3.616  -2.676  -0.907  1.00  0.00     0.010 A 
ATOM     18  C   UNL     1      -4.212  -1.744  -0.044  1.00  0.00    -0.014 A 
BRANCH  18  19
ATOM     19  C   UNL     1      -5.104  -2.231   1.016  1.00  0.00     0.031 A 
ATOM     20  C   UNL     1      -4.632  -2.450   2.401  1.00  0.00     0.074 A 
ATOM     21  C   UNL     1      -6.389  -2.379   0.638  1.00  0.00     0.049 A 
ATOM     22  N   UNL     1      -5.356  -2.668   3.462  1.00  0.00    -0.248 NA
ATOM     23  C   UNL     1      -3.182  -2.428   2.636  1.00  0.00     0.031 C 
ATOM     24  C   UNL     1      -6.885  -2.175  -0.732  1.00  0.00     0.029 A 
ATOM     25  N   UNL     1      -7.516  -2.671   1.351  1.00  0.00    -0.354 N 
ATOM     26  C   UNL     1      -4.454  -2.800   4.504  1.00  0.00     0.074 A 
ATOM     27  C   UNL     1      -3.126  -2.672   3.941  1.00  0.00     0.031 C 
ATOM     28  C   UNL     1      -8.217  -2.266  -0.742  1.00  0.00     0.029 A 
ATOM     29  C   UNL     1      -8.665  -2.590   0.601  1.00  0.00     0.049 A 
ATOM     30  H   UNL     1      -7.506  -2.915   2.304  1.00  0.00     0.167 HD
ATOM     31  C   UNL     1      -4.744  -3.004   5.808  1.00  0.00     0.031 A 
ATOM     32  C   UNL     1      -9.950  -2.739   0.962  1.00  0.00     0.031 A 
ATOM     33  C   UNL     1      -6.091  -3.154   6.299  1.00  0.00     0.049 A 
ATOM     34  C   UNL     1     -10.225  -2.985   2.412  1.00  0.00     0.074 A 
ATOM     35  C   UNL     1      -6.510  -3.346   7.602  1.00  0.00     0.029 A 
ATOM     36  N   UNL     1      -7.234  -3.140   5.507  1.00  0.00    -0.354 N 
ATOM     37  N   UNL     1      -9.373  -3.038   3.408  1.00  0.00    -0.248 NA
ATOM     38  C   UNL     1     -11.625  -3.175   2.797  1.00  0.00     0.031 C 
ATOM     39  C   UNL     1      -7.892  -3.535   7.588  1.00  0.00     0.029 A 
ATOM     40  C   UNL     1      -8.354  -3.358   6.291  1.00  0.00     0.049 A 
ATOM     41  H   UNL     1      -7.245  -2.996   4.533  1.00  0.00     0.167 HD
ATOM     42  C   UNL     1     -10.133  -3.242   4.547  1.00  0.00     0.074 A 
ATOM     43  C   UNL     1     -11.519  -3.281   4.115  1.00  0.00     0.031 C 
ATOM     44  C   UNL     1      -9.722  -3.389   5.829  1.00  0.00     0.031 A 
BRANCH  31  45
ATOM     45  C   UNL     1      -3.611  -3.091   6.790  1.00  0.00    -0.014 A 
ATOM     46  C   UNL     1      -3.387  -4.288   7.491  1.00  0.00     0.009 A 
ATOM     47  C   UNL     1      -2.842  -1.964   7.117  1.00  0.00     0.009 A 
ATOM     48  C   UNL     1      -2.443  -4.346   8.517  1.00  0.00     0.001 A 
ATOM     49  C   UNL     1      -1.876  -2.033   8.123  1.00  0.00     0.001 A 
ATOM     50  C   UNL     1      -1.688  -3.218   8.833  1.00  0.00     0.000 A 
ENDBRANCH  31  45
BRANCH  32  51
ATOM     51  C   UNL     1     -11.020  -2.590  -0.059  1.00  0.00    -0.014 A 
ATOM     52  C   UNL     1     -11.094  -3.473  -1.152  1.00  0.00     0.009 A 
ATOM     53  C   UNL     1     -11.914  -1.512  -0.006  1.00  0.00     0.009 A 
ATOM     54  C   UNL     1     -12.013  -3.262  -2.181  1.00  0.00     0.001 A 
ATOM     55  C   UNL     1     -12.861  -1.326  -1.018  1.00  0.00     0.001 A 
ATOM     56  C   UNL     1     -12.902  -2.192  -2.109  1.00  0.00     0.000 A 
ENDBRANCH  32  51
BRANCH  44  57
ATOM     57  C   UNL     1     -10.783  -3.590   6.874  1.00  0.00    -0.014 A 
ATOM     58  C   UNL     1     -10.963  -2.616   7.871  1.00  0.00     0.009 A 
ATOM     59  C   UNL     1     -11.514  -4.784   6.947  1.00  0.00     0.009 A 
ATOM     60  C   UNL     1     -11.831  -2.848   8.936  1.00  0.00     0.001 A 
ATOM     61  C   UNL     1     -12.415  -4.995   7.992  1.00  0.00     0.001 A 
ATOM     62  C   UNL     1     -12.560  -4.034   8.993  1.00  0.00     0.000 A 
ENDBRANCH  44  57
ENDBRANCH  18  19
ENDBRANCH  11  13
ENDBRANCH  10  11
ENDBRANCH   9  10
ENDBRANCH   8   9
ENDBRANCH   7   8
ENDBRANCH   6   7
ENDBRANCH   5   6
ENDBRANCH   4   5
ENDBRANCH   2   4
ENDBRANCH   1   2
BRANCH   1  63
ATOM     63  C   UNL     1       4.364  -0.704  -0.103  1.00  0.00     0.121 CG0
ATOM     64  G   UNL     1       3.204  -1.068  -0.931  1.00  0.00     0.000 G0
BRANCH  63  65
ATOM     65  C   UNL     1       5.428  -1.150  -1.186  1.00  0.00     0.079 C 
ATOM     66  C   UNL     1       6.889  -1.198  -0.933  1.00  0.00     0.021 A 
ATOM     67  C   UNL     1       5.226  -2.577  -1.895  1.00  0.00     0.232 C 
ATOM     68  C   UNL     1       7.781  -0.331  -1.604  1.00  0.00     0.071 A 
ATOM     69  C   UNL     1       7.372  -2.369  -0.331  1.00  0.00     0.180 A 
ATOM     70  C   UNL     1       5.380  -3.636  -0.810  1.00  0.00     0.341 C 
ATOM     71  C   UNL     1       9.155  -0.506  -1.408  1.00  0.00     0.066 A 
ATOM     72  C   UNL     1       8.726  -2.607  -0.243  1.00  0.00     0.201 A 
ATOM     73  O   UNL     1       6.495  -3.425   0.007  1.00  0.00    -0.420 OA
ATOM     74  O   UNL     1       4.655  -4.617  -0.701  1.00  0.00    -0.249 OA
ATOM     75  C   UNL     1       9.607  -1.644  -0.724  1.00  0.00     0.162 A 
BRANCH  67  76
ATOM     76  O   UNL     1       4.093  -2.693  -2.730  1.00  0.00    -0.381 OA
ATOM     77  H   UNL     1       3.288  -2.581  -2.200  1.00  0.00     0.211 HD
ENDBRANCH  67  76
BRANCH  68  78
ATOM     78  C   UNL     1       7.259   0.697  -2.585  1.00  0.00     0.339 C 
ATOM     79  O   UNL     1       7.426   1.893  -2.420  1.00  0.00    -0.246 OA
BRANCH  78  80
ATOM     80  O   UNL     1       6.438   0.106  -3.529  1.00  0.00    -0.448 OA
BRANCH  80  81
ATOM     81  C   UNL     1       5.380   0.880  -4.239  1.00  0.00     0.290 C 
ATOM     82  C   UNL     1       4.532   1.719  -3.328  1.00  0.00     0.267 C 
ATOM     83  C   UNL     1       4.316  -0.033  -4.952  1.00  0.00     0.357 C 
ATOM     84  C   UNL     1       3.353   0.944  -2.606  1.00  0.00     0.254 C 
ATOM     85  O   UNL     1       2.978   0.612  -4.980  1.00  0.00    -0.329 OA
ATOM     86  C   UNL     1       2.342   0.807  -3.680  1.00  0.00     0.205 CG1
ATOM     87  G   UNL     1       1.306   1.957  -3.376  1.00  0.00     0.000 G1
BRANCH  82  88
ATOM     88  O   UNL     1       3.977   2.936  -4.108  1.00  0.00    -0.450 OA
BRANCH  88  89
ATOM     89  C   UNL     1       3.427   3.178  -5.355  1.00  0.00     0.339 C 
ATOM     90  O   UNL     1       3.669   2.571  -6.384  1.00  0.00    -0.246 OA
BRANCH  89  91
ATOM     91  C   UNL     1       2.351   4.285  -5.325  1.00  0.00     0.075 A 
ATOM     92  C   UNL     1       1.089   4.070  -5.941  1.00  0.00     0.066 A 
ATOM     93  C   UNL     1       2.486   5.408  -4.462  1.00  0.00     0.043 A 
ATOM     94  C   UNL     1       0.032   4.967  -5.716  1.00  0.00     0.162 A 
ATOM     95  C   UNL     1       1.457   6.366  -4.388  1.00  0.00     0.170 A 
ATOM     96  C   UNL     1       0.234   6.135  -4.997  1.00  0.00     0.200 A 
BRANCH  93  97
ATOM     97  C   UNL     1       3.529   5.398  -3.434  1.00  0.00     0.001 A 
ATOM     98  C   UNL     1       4.843   5.711  -3.812  1.00  0.00     0.010 A 
ATOM     99  C   UNL     1       3.279   4.808  -2.156  1.00  0.00     0.068 A 
ATOM    100  C   UNL     1       5.894   5.448  -2.940  1.00  0.00     0.001 A 
ATOM    101  C   UNL     1       4.332   4.681  -1.243  1.00  0.00     0.016 A 
ATOM    102  C   UNL     1       5.638   4.975  -1.652  1.00  0.00     0.001 A 
BRANCH  99 103
ATOM    103  C   UNL     1       2.074   3.915  -1.899  1.00  0.00     0.338 C 
ATOM    104  O   UNL     1       1.616   3.635  -0.809  1.00  0.00    -0.246 OA
BRANCH 103 105
ATOM    105  O   UNL     1       1.871   3.261  -3.062  1.00  0.00    -0.459 OA
BRANCH 105 106
ATOM    106  C   UNL     1       1.306   1.957  -3.376  1.00  0.00     0.269 CG1
ATOM    107  G   UNL     1       2.342   0.807  -3.680  1.00  0.00     0.000 G1
ENDBRANCH 105 106
ENDBRANCH 103 105
ENDBRANCH  99 103
ENDBRANCH  93  97
BRANCH  94 108
ATOM    108  O   UNL     1      -1.233   4.672  -6.147  1.00  0.00    -0.504 OA
ATOM    109  H   UNL     1      -1.391   3.888  -6.634  1.00  0.00     0.293 HD
ENDBRANCH  94 108
BRANCH  95 110
ATOM    110  O   UNL     1       1.566   7.516  -3.647  1.00  0.00    -0.504 OA
ATOM    111  H   UNL     1       0.857   8.128  -3.625  1.00  0.00     0.293 HD
ENDBRANCH  95 110
BRANCH  96 112
ATOM    112  O   UNL     1      -0.799   7.019  -4.834  1.00  0.00    -0.502 OA
ATOM    113  H   UNL     1      -1.623   6.858  -5.249  1.00  0.00     0.293 HD
ENDBRANCH  96 112
ENDBRANCH  89  91
ENDBRANCH  88  89
ENDBRANCH  82  88
BRANCH  83 114
ATOM    114  O   UNL     1       4.856  -0.238  -6.276  1.00  0.00    -0.428 OA
BRANCH 114 115
ATOM    115  C   UNL     1       4.939  -1.528  -6.684  1.00  0.00     0.340 C 
ATOM    116  O   UNL     1       4.361  -2.482  -6.236  1.00  0.00    -0.246 OA
BRANCH 115 117
ATOM    117  C   UNL     1       6.111  -1.652  -7.590  1.00  0.00     0.067 A 
ATOM    118  C   UNL     1       6.284  -0.842  -8.718  1.00  0.00     0.066 A 
ATOM    119  C   UNL     1       7.064  -2.631  -7.252  1.00  0.00     0.066 A 
ATOM    120  C   UNL     1       7.410  -1.039  -9.513  1.00  0.00     0.162 A 
ATOM    121  C   UNL     1       8.191  -2.791  -8.050  1.00  0.00     0.162 A 
ATOM    122  C   UNL     1       8.355  -2.005  -9.183  1.00  0.00     0.200 A 
BRANCH 120 123
ATOM    123  O   UNL     1       7.588  -0.278 -10.633  1.00  0.00    -0.504 OA
ATOM    124  H   UNL     1       6.956   0.375 -10.861  1.00  0.00     0.293 HD
ENDBRANCH 120 123
BRANCH 121 125
ATOM    125  O   UNL     1       9.166  -3.703  -7.759  1.00  0.00    -0.504 OA
ATOM    126  H   UNL     1       9.913  -3.785  -8.319  1.00  0.00     0.293 HD
ENDBRANCH 121 125
BRANCH 122 127
ATOM    127  O   UNL     1       9.448  -2.174  -9.991  1.00  0.00    -0.502 OA
ATOM    128  H   UNL     1       9.553  -1.641 -10.755  1.00  0.00     0.293 HD
ENDBRANCH 122 127
ENDBRANCH 115 117
ENDBRANCH 114 115
ENDBRANCH  83 114
BRANCH  84 129
ATOM    129  O   UNL     1       3.261  -0.460  -2.155  1.00  0.00    -0.455 OA
BRANCH 129 130
ATOM    130  C   UNL     1       3.204  -1.068  -0.931  1.00  0.00     0.310 CG0
ATOM    131  O   UNL     1       2.490  -2.012  -0.618  1.00  0.00    -0.252 OA
ATOM    132  G   UNL     1       4.364  -0.704  -0.103  1.00  0.00     0.000 G0
ENDBRANCH 129 130
ENDBRANCH  84 129
ENDBRANCH  80  81
ENDBRANCH  78  80
ENDBRANCH  68  78
BRANCH  72 133
ATOM    133  O   UNL     1       9.218  -3.797   0.212  1.00  0.00    -0.502 OA
ATOM    134  H   UNL     1      10.144  -3.932   0.262  1.00  0.00     0.293 HD
ENDBRANCH  72 133
BRANCH  75 135
ATOM    135  O   UNL     1      10.950  -1.859  -0.593  1.00  0.00    -0.504 OA
ATOM    136  H   UNL     1      11.559  -1.222  -0.911  1.00  0.00     0.293 HD
ENDBRANCH  75 135
ENDBRANCH  63  65
ENDBRANCH   1  63
TORSDOF 27
