REMARK SMILES CC(C)c1ccc(NC(=O)C(=O)N/N=C/c2ccccc2C(=O)OCCOCCOC(=O)c2ccc(-c3c4nc(c(-c5ccccc5)c5ccc([nH]5)c(-c5ccccc5)c5nc(c(-c6ccccc6)c6ccc3[nH]6)C=C5)C=C4)cc2)cc1
REMARK SMILES IDX 25 1 24 2 22 3 23 4 21 5 16 6 17 7 18 8 20 9 19 10 15 11
REMARK SMILES IDX 14 12 13 13 11 14 12 15 9 17 8 18 10 20 7 21 4 22 5 23 82 24
REMARK SMILES IDX 6 25 81 26 2 27 1 28 3 29 26 30 27 31 28 32 29 33 30 34
REMARK SMILES IDX 31 35 32 36 33 37 34 38 80 39 35 40 79 41 36 42 37 43 38 44
REMARK SMILES IDX 73 45 39 46 78 47 72 48 74 49 40 50 77 51 71 52 70 53 41 55
REMARK SMILES IDX 63 56 48 57 62 58 49 59 52 60 61 61 75 62 50 63 51 64 60 66
REMARK SMILES IDX 76 67 53 68 42 69 43 70 47 71 44 72 46 73 45 74 64 75 65 76
REMARK SMILES IDX 69 77 66 78 68 79 67 80 54 81 55 82 59 83 56 84 58 85 57 86
REMARK H PARENT 13 16 8 19 74 54 52 65
REMARK Flexibility Score: inf
ROOT
ATOM      1  C   UNL     1      -8.360   6.420  -0.038  1.00  0.00     0.261 C 
ENDROOT
BRANCH   1   2
ATOM      2  O   UNL     1      -8.874   5.327   0.742  1.00  0.00    -0.460 OA
BRANCH   2   3
ATOM      3  C   UNL     1     -10.164   5.407   1.135  1.00  0.00     0.338 C 
ATOM      4  O   UNL     1     -10.886   6.388   1.023  1.00  0.00    -0.246 OA
BRANCH   3   5
ATOM      5  C   UNL     1     -10.675   4.087   1.601  1.00  0.00     0.068 A 
ATOM      6  C   UNL     1      -9.888   3.047   2.118  1.00  0.00     0.009 A 
ATOM      7  C   UNL     1     -10.467   1.849   2.551  1.00  0.00     0.010 A 
ATOM      8  C   UNL     1     -11.843   1.663   2.429  1.00  0.00     0.001 A 
ATOM      9  C   UNL     1     -12.058   3.878   1.481  1.00  0.00     0.016 A 
ATOM     10  C   UNL     1     -12.635   2.670   1.878  1.00  0.00     0.001 A 
BRANCH   6  11
ATOM     11  C   UNL     1      -8.430   3.087   2.044  1.00  0.00     0.142 C 
ATOM     12  N   UNL     1      -7.659   3.155   3.085  1.00  0.00    -0.180 NA
BRANCH  12  13
ATOM     13  N   UNL     1      -6.329   3.236   2.757  1.00  0.00    -0.239 N 
ATOM     14  C   UNL     1      -5.678   2.399   1.865  1.00  0.00     0.329 C 
ATOM     15  O   UNL     1      -4.847   2.847   1.086  1.00  0.00    -0.262 OA
ATOM     16  H   UNL     1      -5.796   3.943   3.188  1.00  0.00     0.194 HD
BRANCH  14  17
ATOM     17  C   UNL     1      -6.041   0.903   1.887  1.00  0.00     0.315 C 
ATOM     18  N   UNL     1      -5.066  -0.073   1.913  1.00  0.00    -0.318 N 
ATOM     19  H   UNL     1      -5.434  -0.987   1.912  1.00  0.00     0.170 HD
ATOM     20  O   UNL     1      -7.217   0.552   1.804  1.00  0.00    -0.263 OA
BRANCH  18  21
ATOM     21  C   UNL     1      -3.661  -0.045   1.940  1.00  0.00     0.041 A 
ATOM     22  C   UNL     1      -0.829  -0.172   1.764  1.00  0.00    -0.045 A 
ATOM     23  C   UNL     1      -1.485   1.012   2.115  1.00  0.00     0.006 A 
ATOM     24  C   UNL     1      -1.614  -1.310   1.544  1.00  0.00     0.006 A 
ATOM     25  C   UNL     1      -2.880   1.067   2.226  1.00  0.00     0.026 A 
ATOM     26  C   UNL     1      -3.010  -1.247   1.635  1.00  0.00     0.026 A 
BRANCH  22  27
ATOM     27  C   UNL     1       0.679  -0.255   1.587  1.00  0.00     0.013 C 
ATOM     28  C   UNL     1       1.033  -0.249   0.097  1.00  0.00     0.012 C 
ATOM     29  C   UNL     1       1.467   0.842   2.309  1.00  0.00     0.012 C 
ENDBRANCH  22  27
ENDBRANCH  18  21
ENDBRANCH  14  17
ENDBRANCH  12  13
ENDBRANCH   6  11
ENDBRANCH   3   5
ENDBRANCH   2   3
ENDBRANCH   1   2
BRANCH   1  30
ATOM     30  C   UNL     1      -7.986   5.929  -1.440  1.00  0.00     0.202 C 
BRANCH  30  31
ATOM     31  O   UNL     1      -9.088   5.522  -2.252  1.00  0.00    -0.374 OA
BRANCH  31  32
ATOM     32  C   UNL     1      -9.576   4.195  -2.051  1.00  0.00     0.202 C 
BRANCH  32  33
ATOM     33  C   UNL     1      -8.821   3.085  -2.791  1.00  0.00     0.261 C 
BRANCH  33  34
ATOM     34  O   UNL     1      -7.466   2.949  -2.328  1.00  0.00    -0.460 OA
BRANCH  34  35
ATOM     35  C   UNL     1      -6.526   3.410  -3.185  1.00  0.00     0.338 C 
ATOM     36  O   UNL     1      -6.702   3.866  -4.308  1.00  0.00    -0.246 OA
BRANCH  35  37
ATOM     37  C   UNL     1      -5.211   3.439  -2.526  1.00  0.00     0.060 A 
ATOM     38  C   UNL     1      -4.537   4.665  -2.470  1.00  0.00     0.016 A 
ATOM     39  C   UNL     1      -4.616   2.276  -2.035  1.00  0.00     0.016 A 
ATOM     40  C   UNL     1      -3.249   4.729  -1.940  1.00  0.00     0.010 A 
ATOM     41  C   UNL     1      -3.322   2.344  -1.506  1.00  0.00     0.010 A 
ATOM     42  C   UNL     1      -2.623   3.565  -1.474  1.00  0.00    -0.014 A 
BRANCH  42  43
ATOM     43  C   UNL     1      -1.199   3.602  -1.059  1.00  0.00     0.031 A 
ATOM     44  C   UNL     1      -0.158   3.001  -1.963  1.00  0.00     0.074 A 
ATOM     45  C   UNL     1      -0.833   4.155   0.112  1.00  0.00     0.049 A 
ATOM     46  N   UNL     1       1.131   2.871  -1.774  1.00  0.00    -0.248 NA
ATOM     47  C   UNL     1      -0.637   2.464  -3.247  1.00  0.00     0.031 C 
ATOM     48  C   UNL     1      -1.738   4.781   1.075  1.00  0.00     0.029 A 
ATOM     49  N   UNL     1       0.404   4.256   0.700  1.00  0.00    -0.354 N 
ATOM     50  C   UNL     1       1.610   2.209  -2.898  1.00  0.00     0.074 A 
ATOM     51  C   UNL     1       0.474   1.954  -3.757  1.00  0.00     0.031 C 
ATOM     52  C   UNL     1      -1.028   5.189   2.141  1.00  0.00     0.029 A 
ATOM     53  C   UNL     1       0.373   4.816   1.954  1.00  0.00     0.049 A 
ATOM     54  H   UNL     1       1.234   3.956   0.264  1.00  0.00     0.167 HD
ATOM     55  C   UNL     1       2.880   1.838  -3.188  1.00  0.00     0.031 A 
ATOM     56  C   UNL     1       1.355   4.973   2.863  1.00  0.00     0.031 A 
ATOM     57  C   UNL     1       4.005   2.058  -2.320  1.00  0.00     0.049 A 
ATOM     58  C   UNL     1       2.749   4.504   2.542  1.00  0.00     0.074 A 
ATOM     59  C   UNL     1       5.337   1.756  -2.543  1.00  0.00     0.029 A 
ATOM     60  N   UNL     1       3.928   2.620  -1.055  1.00  0.00    -0.354 N 
ATOM     61  N   UNL     1       3.201   3.935   1.451  1.00  0.00    -0.248 NA
ATOM     62  C   UNL     1       3.769   4.697   3.584  1.00  0.00     0.031 C 
ATOM     63  C   UNL     1       6.058   2.080  -1.389  1.00  0.00     0.029 A 
ATOM     64  C   UNL     1       5.184   2.645  -0.474  1.00  0.00     0.049 A 
ATOM     65  H   UNL     1       3.103   2.951  -0.633  1.00  0.00     0.167 HD
ATOM     66  C   UNL     1       4.558   3.729   1.663  1.00  0.00     0.074 A 
ATOM     67  C   UNL     1       4.860   4.247   2.981  1.00  0.00     0.031 C 
ATOM     68  C   UNL     1       5.473   3.164   0.838  1.00  0.00     0.031 A 
BRANCH  55  69
ATOM     69  C   UNL     1       3.109   1.122  -4.490  1.00  0.00    -0.014 A 
ATOM     70  C   UNL     1       2.989   1.789  -5.719  1.00  0.00     0.009 A 
ATOM     71  C   UNL     1       3.480  -0.232  -4.486  1.00  0.00     0.009 A 
ATOM     72  C   UNL     1       3.198   1.105  -6.919  1.00  0.00     0.001 A 
ATOM     73  C   UNL     1       3.718  -0.905  -5.685  1.00  0.00     0.001 A 
ATOM     74  C   UNL     1       3.568  -0.239  -6.901  1.00  0.00     0.000 A 
ENDBRANCH  55  69
BRANCH  56  75
ATOM     75  C   UNL     1       1.053   5.572   4.190  1.00  0.00    -0.014 A 
ATOM     76  C   UNL     1       1.542   6.844   4.526  1.00  0.00     0.009 A 
ATOM     77  C   UNL     1       0.299   4.862   5.137  1.00  0.00     0.009 A 
ATOM     78  C   UNL     1       1.303   7.381   5.793  1.00  0.00     0.001 A 
ATOM     79  C   UNL     1       0.037   5.415   6.393  1.00  0.00     0.001 A 
ATOM     80  C   UNL     1       0.547   6.669   6.723  1.00  0.00     0.000 A 
ENDBRANCH  56  75
BRANCH  68  81
ATOM     81  C   UNL     1       6.900   3.121   1.313  1.00  0.00    -0.014 A 
ATOM     82  C   UNL     1       7.308   2.247   2.332  1.00  0.00     0.009 A 
ATOM     83  C   UNL     1       7.858   3.942   0.698  1.00  0.00     0.009 A 
ATOM     84  C   UNL     1       8.641   2.221   2.748  1.00  0.00     0.001 A 
ATOM     85  C   UNL     1       9.195   3.893   1.094  1.00  0.00     0.001 A 
ATOM     86  C   UNL     1       9.584   3.039   2.125  1.00  0.00     0.000 A 
ENDBRANCH  68  81
ENDBRANCH  42  43
ENDBRANCH  35  37
ENDBRANCH  34  35
ENDBRANCH  33  34
ENDBRANCH  32  33
ENDBRANCH  31  32
ENDBRANCH  30  31
ENDBRANCH   1  30
TORSDOF 19
