REMARK SMILES C[C@H](CSc1ccc(C(=O)N(C)C)cn1)C(=O)OCCOCCOC(=O)c1ccc(-c2c3nc(c(-c4ccccc4)c4ccc([nH]4)c(-c4ccccc4)c4nc(c(-c5ccccc5)c5ccc2[nH]5)C=C4)C=C3)cc1
REMARK SMILES IDX 20 1 19 2 18 3 16 4 17 5 2 6 1 7 3 8 4 9 5 10 6 11 15 12
REMARK SMILES IDX 7 13 14 14 8 15 9 16 10 17 11 18 12 19 13 20 21 21 22 22
REMARK SMILES IDX 23 23 24 24 25 25 26 26 27 27 28 28 74 29 29 30 73 31 30 32
REMARK SMILES IDX 31 33 32 34 67 35 33 36 72 37 66 38 68 39 34 40 71 41 65 42
REMARK SMILES IDX 64 43 35 45 57 46 42 47 56 48 43 49 46 50 55 51 69 52 44 53
REMARK SMILES IDX 45 54 54 56 70 57 47 58 36 59 37 60 41 61 38 62 40 63 39 64
REMARK SMILES IDX 58 65 59 66 63 67 60 68 62 69 61 70 48 71 49 72 53 73 50 74
REMARK SMILES IDX 52 75 51 76
REMARK H PARENT 68 44 46 55
REMARK Flexibility Score: inf
ROOT
ATOM      1  C   UNL     1      -3.723  -0.723  -0.403  1.00  0.00     0.202 C 
ENDROOT
BRANCH   1   2
ATOM      2  C   UNL     1      -2.909  -1.873   0.195  1.00  0.00     0.261 C 
BRANCH   2   3
ATOM      3  O   UNL     1      -1.540  -1.470   0.365  1.00  0.00    -0.463 OA
BRANCH   3   4
ATOM      4  C   UNL     1      -0.603  -2.366  -0.033  1.00  0.00     0.309 C 
ATOM      5  O   UNL     1      -0.844  -3.542  -0.281  1.00  0.00    -0.252 OA
BRANCH   4   6
ATOM      6  C   UNL     1       0.750  -1.710  -0.309  1.00  0.00     0.106 C 
ATOM      7  C   UNL     1       1.896  -2.713  -0.125  1.00  0.00     0.021 C 
BRANCH   6   8
ATOM      8  C   UNL     1       0.964  -0.314   0.314  1.00  0.00     0.091 C 
BRANCH   8   9
ATOM      9  S   UNL     1       1.834  -0.173   1.910  1.00  0.00    -0.106 SA
BRANCH   9  10
ATOM     10  C   UNL     1       0.607  -0.835   3.004  1.00  0.00     0.096 A 
ATOM     11  C   UNL     1       0.607  -2.193   3.300  1.00  0.00     0.036 A 
ATOM     12  N   UNL     1      -0.226   0.046   3.597  1.00  0.00    -0.249 NA
ATOM     13  C   UNL     1      -0.285  -2.677   4.255  1.00  0.00     0.018 A 
ATOM     14  C   UNL     1      -1.073  -0.447   4.538  1.00  0.00     0.126 A 
ATOM     15  C   UNL     1      -1.159  -1.792   4.881  1.00  0.00     0.058 A 
BRANCH  15  16
ATOM     16  C   UNL     1      -2.062  -2.188   5.983  1.00  0.00     0.254 C 
ATOM     17  O   UNL     1      -2.144  -1.407   6.930  1.00  0.00    -0.269 OA
ATOM     18  N   UNL     1      -2.764  -3.393   5.940  1.00  0.00    -0.345 N 
ATOM     19  C   UNL     1      -2.901  -4.269   4.786  1.00  0.00     0.146 C 
ATOM     20  C   UNL     1      -3.503  -3.797   7.126  1.00  0.00     0.146 C 
ENDBRANCH  15  16
ENDBRANCH   9  10
ENDBRANCH   8   9
ENDBRANCH   6   8
ENDBRANCH   4   6
ENDBRANCH   3   4
ENDBRANCH   2   3
ENDBRANCH   1   2
BRANCH   1  21
ATOM     21  O   UNL     1      -3.369  -0.332  -1.731  1.00  0.00    -0.374 OA
BRANCH  21  22
ATOM     22  C   UNL     1      -2.155   0.398  -1.909  1.00  0.00     0.202 C 
BRANCH  22  23
ATOM     23  C   UNL     1      -2.163   1.871  -1.481  1.00  0.00     0.261 C 
BRANCH  23  24
ATOM     24  O   UNL     1      -2.396   2.039  -0.071  1.00  0.00    -0.460 OA
BRANCH  24  25
ATOM     25  C   UNL     1      -3.556   2.668   0.235  1.00  0.00     0.338 C 
ATOM     26  O   UNL     1      -4.358   3.159  -0.550  1.00  0.00    -0.246 OA
BRANCH  25  27
ATOM     27  C   UNL     1      -3.860   2.549   1.672  1.00  0.00     0.060 A 
ATOM     28  C   UNL     1      -5.120   2.042   2.016  1.00  0.00     0.016 A 
ATOM     29  C   UNL     1      -2.995   3.022   2.660  1.00  0.00     0.016 A 
ATOM     30  C   UNL     1      -5.545   2.065   3.342  1.00  0.00     0.010 A 
ATOM     31  C   UNL     1      -3.428   3.053   3.993  1.00  0.00     0.010 A 
ATOM     32  C   UNL     1      -4.721   2.613   4.333  1.00  0.00    -0.014 A 
BRANCH  32  33
ATOM     33  C   UNL     1      -5.283   2.842   5.687  1.00  0.00     0.031 A 
ATOM     34  C   UNL     1      -5.791   4.208   6.057  1.00  0.00     0.074 A 
ATOM     35  C   UNL     1      -5.412   1.828   6.560  1.00  0.00     0.049 A 
ATOM     36  N   UNL     1      -6.358   4.607   7.169  1.00  0.00    -0.248 NA
ATOM     37  C   UNL     1      -5.654   5.261   5.038  1.00  0.00     0.031 C 
ATOM     38  C   UNL     1      -5.002   0.449   6.315  1.00  0.00     0.029 A 
ATOM     39  N   UNL     1      -5.926   1.808   7.833  1.00  0.00    -0.354 N 
ATOM     40  C   UNL     1      -6.656   5.950   6.978  1.00  0.00     0.074 A 
ATOM     41  C   UNL     1      -6.173   6.309   5.662  1.00  0.00     0.031 C 
ATOM     42  C   UNL     1      -5.266  -0.282   7.411  1.00  0.00     0.029 A 
ATOM     43  C   UNL     1      -5.842   0.579   8.438  1.00  0.00     0.049 A 
ATOM     44  H   UNL     1      -6.318   2.599   8.269  1.00  0.00     0.167 HD
ATOM     45  C   UNL     1      -7.289   6.806   7.816  1.00  0.00     0.031 A 
ATOM     46  C   UNL     1      -6.172   0.191   9.684  1.00  0.00     0.031 A 
ATOM     47  C   UNL     1      -7.749   6.468   9.136  1.00  0.00     0.049 A 
ATOM     48  C   UNL     1      -6.780   1.187  10.633  1.00  0.00     0.074 A 
ATOM     49  C   UNL     1      -8.399   7.274  10.056  1.00  0.00     0.029 A 
ATOM     50  N   UNL     1      -7.598   5.226   9.730  1.00  0.00    -0.354 N 
ATOM     51  N   UNL     1      -7.083   2.445  10.429  1.00  0.00    -0.248 NA
ATOM     52  C   UNL     1      -7.105   0.700  11.982  1.00  0.00     0.031 C 
ATOM     53  C   UNL     1      -8.601   6.530  11.225  1.00  0.00     0.029 A 
ATOM     54  C   UNL     1      -8.124   5.248  11.012  1.00  0.00     0.049 A 
ATOM     55  H   UNL     1      -7.180   4.443   9.304  1.00  0.00     0.167 HD
ATOM     56  C   UNL     1      -7.660   2.891  11.611  1.00  0.00     0.074 A 
ATOM     57  C   UNL     1      -7.678   1.766  12.522  1.00  0.00     0.031 C 
ATOM     58  C   UNL     1      -8.137   4.124  11.911  1.00  0.00     0.031 A 
BRANCH  45  59
ATOM     59  C   UNL     1      -7.504   8.209   7.325  1.00  0.00    -0.014 A 
ATOM     60  C   UNL     1      -8.465   8.491   6.341  1.00  0.00     0.009 A 
ATOM     61  C   UNL     1      -6.759   9.265   7.872  1.00  0.00     0.009 A 
ATOM     62  C   UNL     1      -8.655   9.800   5.893  1.00  0.00     0.001 A 
ATOM     63  C   UNL     1      -6.968  10.575   7.440  1.00  0.00     0.001 A 
ATOM     64  C   UNL     1      -7.909  10.841   6.446  1.00  0.00     0.000 A 
ENDBRANCH  45  59
BRANCH  46  65
ATOM     65  C   UNL     1      -5.916  -1.205  10.124  1.00  0.00    -0.014 A 
ATOM     66  C   UNL     1      -6.977  -2.094  10.352  1.00  0.00     0.009 A 
ATOM     67  C   UNL     1      -4.603  -1.642  10.355  1.00  0.00     0.009 A 
ATOM     68  C   UNL     1      -6.728  -3.383  10.831  1.00  0.00     0.001 A 
ATOM     69  C   UNL     1      -4.356  -2.937  10.813  1.00  0.00     0.001 A 
ATOM     70  C   UNL     1      -5.419  -3.804  11.060  1.00  0.00     0.000 A 
ENDBRANCH  46  65
BRANCH  58  71
ATOM     71  C   UNL     1      -8.757   4.306  13.268  1.00  0.00    -0.014 A 
ATOM     72  C   UNL     1      -7.973   4.348  14.431  1.00  0.00     0.009 A 
ATOM     73  C   UNL     1     -10.149   4.457  13.380  1.00  0.00     0.009 A 
ATOM     74  C   UNL     1      -8.574   4.500  15.682  1.00  0.00     0.001 A 
ATOM     75  C   UNL     1     -10.744   4.636  14.629  1.00  0.00     0.001 A 
ATOM     76  C   UNL     1      -9.957   4.646  15.780  1.00  0.00     0.000 A 
ENDBRANCH  58  71
ENDBRANCH  32  33
ENDBRANCH  25  27
ENDBRANCH  24  25
ENDBRANCH  23  24
ENDBRANCH  22  23
ENDBRANCH  21  22
ENDBRANCH   1  21
TORSDOF 18
