REMARK SMILES O=C(OCCOCCOC(=O)[C@@H](CO)NC(=O)[C@H]1CCCc2ccccc21)c1ccc(-c2c3nc(c(-c4ccccc4)c4ccc([nH]4)c(-c4ccccc4)c4nc(c(-c5ccccc5)c5ccc2[nH]5)C=C4)C=C3)cc1
REMARK SMILES IDX 6 1 5 2 4 3 3 4 2 5 1 6 28 7 29 8 75 9 30 10 74 11 31 12
REMARK SMILES IDX 32 13 33 14 68 15 34 16 73 17 67 18 69 19 35 20 72 21 66 22
REMARK SMILES IDX 65 23 36 25 58 26 43 27 57 28 44 29 47 30 56 31 70 32 45 33
REMARK SMILES IDX 46 34 55 36 71 37 48 38 37 39 38 40 42 41 39 42 41 43 40 44
REMARK SMILES IDX 59 45 60 46 64 47 61 48 63 49 62 50 49 51 50 52 54 53 51 54
REMARK SMILES IDX 53 55 52 56 7 57 8 58 9 59 10 60 11 61 12 62 13 63 14 64
REMARK SMILES IDX 15 66 16 67 17 69 18 70 19 71 27 72 20 73 22 74 26 75 21 76
REMARK SMILES IDX 23 77 25 78 24 79
REMARK H PARENT 69 24 47 35 14 65 15 68
REMARK Flexibility Score: inf
ROOT
ATOM      1  O   UNL     1       8.150  11.251  -1.746  1.00  0.00    -0.374 OA
ENDROOT
BRANCH   1   2
ATOM      2  C   UNL     1       6.741  11.214  -1.988  1.00  0.00     0.202 C 
BRANCH   2   3
ATOM      3  C   UNL     1       6.056  12.572  -2.196  1.00  0.00     0.261 C 
BRANCH   3   4
ATOM      4  O   UNL     1       6.677  13.314  -3.258  1.00  0.00    -0.460 OA
BRANCH   4   5
ATOM      5  C   UNL     1       7.681  14.221  -3.178  1.00  0.00     0.338 C 
ATOM      6  O   UNL     1       8.144  14.679  -4.220  1.00  0.00    -0.246 OA
BRANCH   5   7
ATOM      7  C   UNL     1       8.252  14.706  -1.886  1.00  0.00     0.060 A 
ATOM      8  C   UNL     1       8.226  13.999  -0.685  1.00  0.00     0.016 A 
ATOM      9  C   UNL     1       8.923  15.942  -1.904  1.00  0.00     0.016 A 
ATOM     10  C   UNL     1       8.768  14.511   0.474  1.00  0.00     0.010 A 
ATOM     11  C   UNL     1       9.514  16.455  -0.744  1.00  0.00     0.010 A 
ATOM     12  C   UNL     1       9.415  15.740   0.451  1.00  0.00    -0.014 A 
BRANCH  12  13
ATOM     13  C   UNL     1       9.861  16.252   1.752  1.00  0.00     0.031 A 
ATOM     14  C   UNL     1       8.998  17.256   2.447  1.00  0.00     0.074 A 
ATOM     15  C   UNL     1      10.875  15.624   2.376  1.00  0.00     0.049 A 
ATOM     16  N   UNL     1       9.133  17.771   3.638  1.00  0.00    -0.248 NA
ATOM     17  C   UNL     1       7.803  17.716   1.717  1.00  0.00     0.031 C 
ATOM     18  C   UNL     1      11.654  14.516   1.811  1.00  0.00     0.029 A 
ATOM     19  N   UNL     1      11.374  15.774   3.639  1.00  0.00    -0.354 N 
ATOM     20  C   UNL     1       8.051  18.626   3.795  1.00  0.00     0.074 A 
ATOM     21  C   UNL     1       7.270  18.566   2.581  1.00  0.00     0.031 C 
ATOM     22  C   UNL     1      12.505  14.061   2.744  1.00  0.00     0.029 A 
ATOM     23  C   UNL     1      12.378  14.886   3.938  1.00  0.00     0.049 A 
ATOM     24  H   UNL     1      11.046  16.452   4.273  1.00  0.00     0.167 HD
ATOM     25  C   UNL     1       7.749  19.398   4.862  1.00  0.00     0.031 A 
ATOM     26  C   UNL     1      13.127  14.781   5.050  1.00  0.00     0.031 A 
ATOM     27  C   UNL     1       8.564  19.456   6.043  1.00  0.00     0.049 A 
ATOM     28  C   UNL     1      12.844  15.740   6.172  1.00  0.00     0.074 A 
ATOM     29  C   UNL     1       8.446  20.285   7.141  1.00  0.00     0.029 A 
ATOM     30  N   UNL     1       9.660  18.633   6.271  1.00  0.00    -0.354 N 
ATOM     31  N   UNL     1      11.883  16.629   6.273  1.00  0.00    -0.248 NA
ATOM     32  C   UNL     1      13.752  15.695   7.322  1.00  0.00     0.031 C 
ATOM     33  C   UNL     1       9.496  19.989   8.018  1.00  0.00     0.029 A 
ATOM     34  C   UNL     1      10.236  18.941   7.489  1.00  0.00     0.049 A 
ATOM     35  H   UNL     1       9.979  17.934   5.656  1.00  0.00     0.167 HD
ATOM     36  C   UNL     1      12.072  17.253   7.497  1.00  0.00     0.074 A 
ATOM     37  C   UNL     1      13.215  16.609   8.117  1.00  0.00     0.031 C 
ATOM     38  C   UNL     1      11.379  18.275   8.057  1.00  0.00     0.031 A 
BRANCH  25  39
ATOM     39  C   UNL     1       6.546  20.285   4.737  1.00  0.00    -0.014 A 
ATOM     40  C   UNL     1       5.243  19.768   4.813  1.00  0.00     0.009 A 
ATOM     41  C   UNL     1       6.722  21.655   4.490  1.00  0.00     0.009 A 
ATOM     42  C   UNL     1       4.141  20.602   4.613  1.00  0.00     0.001 A 
ATOM     43  C   UNL     1       5.618  22.490   4.312  1.00  0.00     0.001 A 
ATOM     44  C   UNL     1       4.329  21.962   4.364  1.00  0.00     0.000 A 
ENDBRANCH  25  39
BRANCH  26  45
ATOM     45  C   UNL     1      14.251  13.809   5.117  1.00  0.00    -0.014 A 
ATOM     46  C   UNL     1      14.261  12.764   6.052  1.00  0.00     0.009 A 
ATOM     47  C   UNL     1      15.347  13.943   4.246  1.00  0.00     0.009 A 
ATOM     48  C   UNL     1      15.354  11.894   6.131  1.00  0.00     0.001 A 
ATOM     49  C   UNL     1      16.421  13.053   4.304  1.00  0.00     0.001 A 
ATOM     50  C   UNL     1      16.429  12.037   5.255  1.00  0.00     0.000 A 
ENDBRANCH  26  45
BRANCH  38  51
ATOM     51  C   UNL     1      11.846  18.733   9.406  1.00  0.00    -0.014 A 
ATOM     52  C   UNL     1      13.027  19.478   9.547  1.00  0.00     0.009 A 
ATOM     53  C   UNL     1      11.080  18.435  10.543  1.00  0.00     0.009 A 
ATOM     54  C   UNL     1      13.452  19.884  10.812  1.00  0.00     0.001 A 
ATOM     55  C   UNL     1      11.494  18.867  11.802  1.00  0.00     0.001 A 
ATOM     56  C   UNL     1      12.684  19.582  11.936  1.00  0.00     0.000 A 
ENDBRANCH  38  51
ENDBRANCH  12  13
ENDBRANCH   5   7
ENDBRANCH   4   5
ENDBRANCH   3   4
ENDBRANCH   2   3
ENDBRANCH   1   2
BRANCH   1  57
ATOM     57  C   UNL     1       8.983  11.346  -2.912  1.00  0.00     0.202 C 
BRANCH  57  58
ATOM     58  C   UNL     1       9.615  10.004  -3.248  1.00  0.00     0.261 C 
BRANCH  58  59
ATOM     59  O   UNL     1       8.536   9.077  -3.452  1.00  0.00    -0.462 OA
BRANCH  59  60
ATOM     60  C   UNL     1       8.265   8.309  -2.365  1.00  0.00     0.331 C 
ATOM     61  O   UNL     1       9.027   8.192  -1.411  1.00  0.00    -0.250 OA
BRANCH  60  62
ATOM     62  C   UNL     1       6.909   7.581  -2.449  1.00  0.00     0.218 C 
BRANCH  62  63
ATOM     63  C   UNL     1       6.019   7.891  -3.663  1.00  0.00     0.193 C 
BRANCH  63  64
ATOM     64  O   UNL     1       6.699   7.957  -4.907  1.00  0.00    -0.394 OA
ATOM     65  H   UNL     1       7.340   8.685  -4.887  1.00  0.00     0.210 HD
ENDBRANCH  63  64
ENDBRANCH  62  63
BRANCH  62  66
ATOM     66  N   UNL     1       7.243   6.175  -2.303  1.00  0.00    -0.340 N 
ATOM     67  C   UNL     1       7.658   5.605  -1.123  1.00  0.00     0.228 C 
ATOM     68  H   UNL     1       7.167   5.596  -3.095  1.00  0.00     0.164 HD
ATOM     69  O   UNL     1       8.604   4.818  -1.224  1.00  0.00    -0.274 OA
BRANCH  67  70
ATOM     70  C   UNL     1       6.871   5.821   0.201  1.00  0.00     0.109 C 
ATOM     71  C   UNL     1       6.774   4.398   0.833  1.00  0.00     0.018 C 
ATOM     72  C   UNL     1       7.414   6.876   1.183  1.00  0.00    -0.032 A 
ATOM     73  C   UNL     1       6.755   4.383   2.350  1.00  0.00     0.006 C 
ATOM     74  C   UNL     1       8.004   6.514   2.410  1.00  0.00    -0.044 A 
ATOM     75  C   UNL     1       7.223   8.253   0.971  1.00  0.00     0.005 A 
ATOM     76  C   UNL     1       8.003   5.083   2.873  1.00  0.00     0.036 C 
ATOM     77  C   UNL     1       8.542   7.492   3.271  1.00  0.00     0.004 A 
ATOM     78  C   UNL     1       7.733   9.226   1.838  1.00  0.00     0.000 A 
ATOM     79  C   UNL     1       8.420   8.845   2.977  1.00  0.00     0.000 A 
ENDBRANCH  67  70
ENDBRANCH  62  66
ENDBRANCH  60  62
ENDBRANCH  59  60
ENDBRANCH  58  59
ENDBRANCH  57  58
ENDBRANCH   1  57
TORSDOF 18
