REMARK SMILES Nc1ccc(O)c(C(=O)OCCOCCOC(=O)c2ccc(-c3c4nc(c(-c5ccccc5)c5ccc([nH]5)c(-c5ccccc5)c5nc(c(-c6ccccc6)c6ccc3[nH]6)C=C5)C=C4)cc2)c1
REMARK SMILES IDX 14 1 13 2 12 3 11 4 10 5 8 6 9 7 7 8 2 9 3 10 67 11 4 12
REMARK SMILES IDX 5 13 1 14 6 17 15 19 16 20 17 21 18 22 19 23 20 24 66 25
REMARK SMILES IDX 21 26 65 27 22 28 23 29 24 30 59 31 25 32 64 33 58 34 60 35
REMARK SMILES IDX 26 36 63 37 57 38 56 39 27 41 49 42 34 43 48 44 35 45 38 46
REMARK SMILES IDX 47 47 61 48 36 49 37 50 46 52 62 53 39 54 28 55 29 56 33 57
REMARK SMILES IDX 30 58 32 59 31 60 50 61 51 62 55 63 52 64 54 65 53 66 40 67
REMARK SMILES IDX 41 68 45 69 42 70 44 71 43 72
REMARK H PARENT 1 15 1 16 6 18 60 40 38 51
REMARK Flexibility Score: inf
ROOT
ATOM      1  C   UNL     1       2.489  -2.911  -1.818  1.00  0.00     0.202 C 
ENDROOT
BRANCH   1   2
ATOM      2  O   UNL     1       3.143  -3.938  -1.068  1.00  0.00    -0.374 OA
BRANCH   2   3
ATOM      3  C   UNL     1       2.302  -4.893  -0.422  1.00  0.00     0.202 C 
BRANCH   3   4
ATOM      4  C   UNL     1       1.784  -4.487   0.961  1.00  0.00     0.261 C 
BRANCH   4   5
ATOM      5  O   UNL     1       0.892  -3.361   0.874  1.00  0.00    -0.460 OA
BRANCH   5   6
ATOM      6  C   UNL     1       1.415  -2.185   1.298  1.00  0.00     0.342 C 
ATOM      7  O   UNL     1       2.494  -2.021   1.849  1.00  0.00    -0.246 OA
BRANCH   6   8
ATOM      8  C   UNL     1       0.604  -1.037   0.838  1.00  0.00     0.103 A 
ATOM      9  C   UNL     1      -1.510  -0.030   0.184  1.00  0.00     0.032 A 
ATOM     10  C   UNL     1      -0.831   1.157  -0.111  1.00  0.00     0.029 A 
ATOM     11  C   UNL     1      -0.779  -1.139   0.626  1.00  0.00     0.045 A 
ATOM     12  C   UNL     1       0.547   1.261   0.082  1.00  0.00     0.049 A 
ATOM     13  C   UNL     1       1.259   0.171   0.564  1.00  0.00     0.130 A 
BRANCH   9  14
ATOM     14  N   UNL     1      -2.866  -0.136  -0.082  1.00  0.00    -0.399 N 
ATOM     15  H   UNL     1      -3.370   0.652  -0.392  1.00  0.00     0.156 HD
ATOM     16  H   UNL     1      -3.326  -0.997   0.040  1.00  0.00     0.156 HD
ENDBRANCH   9  14
BRANCH  13  17
ATOM     17  O   UNL     1       2.609   0.348   0.712  1.00  0.00    -0.507 OA
ATOM     18  H   UNL     1       2.998   1.177   0.515  1.00  0.00     0.293 HD
ENDBRANCH  13  17
ENDBRANCH   6   8
ENDBRANCH   5   6
ENDBRANCH   4   5
ENDBRANCH   3   4
ENDBRANCH   2   3
ENDBRANCH   1   2
BRANCH   1  19
ATOM     19  C   UNL     1       2.046  -3.303  -3.232  1.00  0.00     0.261 C 
BRANCH  19  20
ATOM     20  O   UNL     1       0.961  -4.250  -3.197  1.00  0.00    -0.460 OA
BRANCH  20  21
ATOM     21  C   UNL     1       1.279  -5.500  -3.602  1.00  0.00     0.338 C 
ATOM     22  O   UNL     1       2.338  -5.878  -4.084  1.00  0.00    -0.246 OA
BRANCH  21  23
ATOM     23  C   UNL     1       0.209  -6.440  -3.218  1.00  0.00     0.060 A 
ATOM     24  C   UNL     1       0.589  -7.613  -2.553  1.00  0.00     0.016 A 
ATOM     25  C   UNL     1      -1.130  -6.215  -3.549  1.00  0.00     0.016 A 
ATOM     26  C   UNL     1      -0.360  -8.591  -2.263  1.00  0.00     0.010 A 
ATOM     27  C   UNL     1      -2.080  -7.202  -3.264  1.00  0.00     0.010 A 
ATOM     28  C   UNL     1      -1.693  -8.408  -2.652  1.00  0.00    -0.014 A 
BRANCH  28  29
ATOM     29  C   UNL     1      -2.647  -9.539  -2.545  1.00  0.00     0.031 A 
ATOM     30  C   UNL     1      -2.938 -10.365  -3.768  1.00  0.00     0.074 A 
ATOM     31  C   UNL     1      -3.220  -9.850  -1.369  1.00  0.00     0.049 A 
ATOM     32  N   UNL     1      -3.749 -11.384  -3.906  1.00  0.00    -0.248 NA
ATOM     33  C   UNL     1      -2.219  -9.996  -4.999  1.00  0.00     0.031 C 
ATOM     34  C   UNL     1      -2.986  -9.157  -0.103  1.00  0.00     0.029 A 
ATOM     35  N   UNL     1      -4.122 -10.834  -1.054  1.00  0.00    -0.354 N 
ATOM     36  C   UNL     1      -3.640 -11.774  -5.235  1.00  0.00     0.074 A 
ATOM     37  C   UNL     1      -2.709 -10.867  -5.870  1.00  0.00     0.031 C 
ATOM     38  C   UNL     1      -3.733  -9.736   0.854  1.00  0.00     0.029 A 
ATOM     39  C   UNL     1      -4.518 -10.817   0.261  1.00  0.00     0.049 A 
ATOM     40  H   UNL     1      -4.455 -11.490  -1.709  1.00  0.00     0.167 HD
ATOM     41  C   UNL     1      -4.255 -12.800  -5.870  1.00  0.00     0.031 A 
ATOM     42  C   UNL     1      -5.424 -11.576   0.907  1.00  0.00     0.031 A 
ATOM     43  C   UNL     1      -5.191 -13.696  -5.247  1.00  0.00     0.049 A 
ATOM     44  C   UNL     1      -6.154 -12.658   0.157  1.00  0.00     0.074 A 
ATOM     45  C   UNL     1      -5.859 -14.771  -5.809  1.00  0.00     0.029 A 
ATOM     46  N   UNL     1      -5.594 -13.619  -3.925  1.00  0.00    -0.354 N 
ATOM     47  N   UNL     1      -6.026 -13.030  -1.093  1.00  0.00    -0.248 NA
ATOM     48  C   UNL     1      -7.151 -13.430   0.914  1.00  0.00     0.031 C 
ATOM     49  C   UNL     1      -6.706 -15.314  -4.837  1.00  0.00     0.029 A 
ATOM     50  C   UNL     1      -6.522 -14.611  -3.657  1.00  0.00     0.049 A 
ATOM     51  H   UNL     1      -5.270 -12.957  -3.272  1.00  0.00     0.167 HD
ATOM     52  C   UNL     1      -6.903 -14.094  -1.265  1.00  0.00     0.074 A 
ATOM     53  C   UNL     1      -7.546 -14.318   0.013  1.00  0.00     0.031 C 
ATOM     54  C   UNL     1      -7.152 -14.823  -2.380  1.00  0.00     0.031 A 
BRANCH  41  55
ATOM     55  C   UNL     1      -3.953 -12.990  -7.329  1.00  0.00    -0.014 A 
ATOM     56  C   UNL     1      -2.719 -13.507  -7.755  1.00  0.00     0.009 A 
ATOM     57  C   UNL     1      -4.932 -12.689  -8.289  1.00  0.00     0.009 A 
ATOM     58  C   UNL     1      -2.463 -13.693  -9.115  1.00  0.00     0.001 A 
ATOM     59  C   UNL     1      -4.682 -12.899  -9.646  1.00  0.00     0.001 A 
ATOM     60  C   UNL     1      -3.446 -13.394 -10.058  1.00  0.00     0.000 A 
ENDBRANCH  41  55
BRANCH  42  61
ATOM     61  C   UNL     1      -5.719 -11.327   2.342  1.00  0.00    -0.014 A 
ATOM     62  C   UNL     1      -5.349 -12.260   3.323  1.00  0.00     0.009 A 
ATOM     63  C   UNL     1      -6.408 -10.168   2.734  1.00  0.00     0.009 A 
ATOM     64  C   UNL     1      -5.687 -12.050   4.662  1.00  0.00     0.001 A 
ATOM     65  C   UNL     1      -6.720  -9.948   4.077  1.00  0.00     0.001 A 
ATOM     66  C   UNL     1      -6.369 -10.893   5.038  1.00  0.00     0.000 A 
ENDBRANCH  42  61
BRANCH  54  67
ATOM     67  C   UNL     1      -8.134 -15.954  -2.260  1.00  0.00    -0.014 A 
ATOM     68  C   UNL     1      -9.512 -15.714  -2.147  1.00  0.00     0.009 A 
ATOM     69  C   UNL     1      -7.675 -17.279  -2.303  1.00  0.00     0.009 A 
ATOM     70  C   UNL     1     -10.407 -16.781  -2.047  1.00  0.00     0.001 A 
ATOM     71  C   UNL     1      -8.574 -18.344  -2.231  1.00  0.00     0.001 A 
ATOM     72  C   UNL     1      -9.938 -18.094  -2.094  1.00  0.00     0.000 A 
ENDBRANCH  54  67
ENDBRANCH  28  29
ENDBRANCH  21  23
ENDBRANCH  20  21
ENDBRANCH  19  20
ENDBRANCH   1  19
TORSDOF 16
