REMARK SMILES Cc1cc(C(=O)N[C@@H](Cc2ccccc2)C(=O)OCCOCCOC(=O)c2ccc(-c3c4nc(c(-c5ccccc5)c5ccc([nH]5)c(-c5ccccc5)c5nc(c(-c6ccccc6)c6ccc3[nH]6)C=C5)C=C4)cc2)c(C)o1
REMARK SMILES IDX 21 1 20 2 19 3 18 4 16 5 17 6 8 7 7 8 5 9 6 10 4 12 1 13
REMARK SMILES IDX 2 14 3 15 77 16 75 17 76 18 9 19 10 20 11 21 15 22 12 23
REMARK SMILES IDX 14 24 13 25 22 26 23 27 24 28 25 29 26 30 27 31 28 32 74 33
REMARK SMILES IDX 29 34 73 35 30 36 31 37 32 38 67 39 33 40 72 41 66 42 68 43
REMARK SMILES IDX 34 44 71 45 65 46 64 47 35 49 57 50 42 51 56 52 43 53 46 54
REMARK SMILES IDX 55 55 69 56 44 57 45 58 54 60 70 61 47 62 36 63 37 64 41 65
REMARK SMILES IDX 38 66 40 67 39 68 58 69 59 70 63 71 60 72 62 73 61 74 48 75
REMARK SMILES IDX 49 76 53 77 50 78 52 79 51 80
REMARK H PARENT 7 11 68 48 46 59
REMARK Flexibility Score: inf
ROOT
ATOM      1  O   UNL     1       1.200   4.457   4.204  1.00  0.00    -0.374 OA
ENDROOT
BRANCH   1   2
ATOM      2  C   UNL     1       1.154   5.835   3.832  1.00  0.00     0.202 C 
BRANCH   2   3
ATOM      3  C   UNL     1       1.675   6.169   2.432  1.00  0.00     0.261 C 
BRANCH   3   4
ATOM      4  O   UNL     1       0.888   5.513   1.427  1.00  0.00    -0.462 OA
BRANCH   4   5
ATOM      5  C   UNL     1       1.573   5.014   0.359  1.00  0.00     0.329 C 
ATOM      6  O   UNL     1       2.760   5.215   0.131  1.00  0.00    -0.250 OA
BRANCH   5   7
ATOM      7  C   UNL     1       0.651   4.245  -0.603  1.00  0.00     0.197 C 
BRANCH   7   8
ATOM      8  N   UNL     1      -0.614   3.822   0.018  1.00  0.00    -0.338 N 
ATOM      9  C   UNL     1      -1.149   2.595   0.302  1.00  0.00     0.255 C 
ATOM     10  O   UNL     1      -2.307   2.580   0.720  1.00  0.00    -0.269 OA
ATOM     11  H   UNL     1      -1.193   4.573   0.282  1.00  0.00     0.164 HD
BRANCH   9  12
ATOM     12  C   UNL     1      -0.380   1.367   0.148  1.00  0.00     0.081 A 
ATOM     13  C   UNL     1       2.410  -1.103   0.049  1.00  0.00     0.087 C 
ATOM     14  C   UNL     1       1.218  -0.232   0.066  1.00  0.00     0.101 A 
ATOM     15  C   UNL     1       1.024   1.118   0.258  1.00  0.00     0.059 A 
ATOM     16  O   UNL     1       0.024  -0.848  -0.111  1.00  0.00    -0.466 OA
ATOM     17  C   UNL     1      -0.943   0.107  -0.034  1.00  0.00     0.113 A 
ATOM     18  C   UNL     1      -2.326  -0.412  -0.140  1.00  0.00     0.088 C 
ENDBRANCH   9  12
ENDBRANCH   7   8
BRANCH   7  19
ATOM     19  C   UNL     1       0.404   5.107  -1.857  1.00  0.00     0.072 C 
BRANCH  19  20
ATOM     20  C   UNL     1      -0.187   6.471  -1.567  1.00  0.00    -0.045 A 
ATOM     21  C   UNL     1       0.645   7.597  -1.487  1.00  0.00     0.004 A 
ATOM     22  C   UNL     1      -1.558   6.622  -1.323  1.00  0.00     0.004 A 
ATOM     23  C   UNL     1       0.119   8.844  -1.151  1.00  0.00     0.000 A 
ATOM     24  C   UNL     1      -2.080   7.868  -0.973  1.00  0.00     0.000 A 
ATOM     25  C   UNL     1      -1.242   8.978  -0.885  1.00  0.00     0.000 A 
ENDBRANCH  19  20
ENDBRANCH   7  19
ENDBRANCH   5   7
ENDBRANCH   4   5
ENDBRANCH   3   4
ENDBRANCH   2   3
ENDBRANCH   1   2
BRANCH   1  26
ATOM     26  C   UNL     1       0.278   3.568   3.571  1.00  0.00     0.202 C 
BRANCH  26  27
ATOM     27  C   UNL     1      -1.192   3.666   4.002  1.00  0.00     0.261 C 
BRANCH  27  28
ATOM     28  O   UNL     1      -1.783   4.949   3.721  1.00  0.00    -0.460 OA
BRANCH  28  29
ATOM     29  C   UNL     1      -2.162   5.644   4.819  1.00  0.00     0.338 C 
ATOM     30  O   UNL     1      -2.087   5.288   5.989  1.00  0.00    -0.246 OA
BRANCH  29  31
ATOM     31  C   UNL     1      -2.563   7.015   4.460  1.00  0.00     0.060 A 
ATOM     32  C   UNL     1      -1.887   8.070   5.085  1.00  0.00     0.016 A 
ATOM     33  C   UNL     1      -3.664   7.265   3.638  1.00  0.00     0.016 A 
ATOM     34  C   UNL     1      -2.339   9.379   4.930  1.00  0.00     0.010 A 
ATOM     35  C   UNL     1      -4.122   8.580   3.490  1.00  0.00     0.010 A 
ATOM     36  C   UNL     1      -3.484   9.637   4.165  1.00  0.00    -0.014 A 
BRANCH  36  37
ATOM     37  C   UNL     1      -4.085  10.993   4.188  1.00  0.00     0.031 A 
ATOM     38  C   UNL     1      -5.250  11.269   5.099  1.00  0.00     0.074 A 
ATOM     39  C   UNL     1      -3.575  11.982   3.433  1.00  0.00     0.049 A 
ATOM     40  N   UNL     1      -5.923  12.379   5.272  1.00  0.00    -0.248 NA
ATOM     41  C   UNL     1      -5.719  10.145   5.924  1.00  0.00     0.031 C 
ATOM     42  C   UNL     1      -2.423  11.858   2.542  1.00  0.00     0.029 A 
ATOM     43  N   UNL     1      -3.970  13.290   3.298  1.00  0.00    -0.354 N 
ATOM     44  C   UNL     1      -6.898  12.086   6.218  1.00  0.00     0.074 A 
ATOM     45  C   UNL     1      -6.745  10.688   6.562  1.00  0.00     0.031 C 
ATOM     46  C   UNL     1      -2.205  13.044   1.948  1.00  0.00     0.029 A 
ATOM     47  C   UNL     1      -3.219  13.998   2.394  1.00  0.00     0.049 A 
ATOM     48  H   UNL     1      -4.719  13.682   3.802  1.00  0.00     0.167 HD
ATOM     49  C   UNL     1      -7.834  12.905   6.754  1.00  0.00     0.031 A 
ATOM     50  C   UNL     1      -3.345  15.268   1.962  1.00  0.00     0.031 A 
ATOM     51  C   UNL     1      -7.998  14.291   6.406  1.00  0.00     0.049 A 
ATOM     52  C   UNL     1      -4.437  16.139   2.520  1.00  0.00     0.074 A 
ATOM     53  C   UNL     1      -8.905  15.206   6.913  1.00  0.00     0.029 A 
ATOM     54  N   UNL     1      -7.244  14.959   5.455  1.00  0.00    -0.354 N 
ATOM     55  N   UNL     1      -5.333  15.858   3.435  1.00  0.00    -0.248 NA
ATOM     56  C   UNL     1      -4.529  17.508   1.989  1.00  0.00     0.031 C 
ATOM     57  C   UNL     1      -8.734  16.415   6.229  1.00  0.00     0.029 A 
ATOM     58  C   UNL     1      -7.684  16.267   5.336  1.00  0.00     0.049 A 
ATOM     59  H   UNL     1      -6.504  14.563   4.940  1.00  0.00     0.167 HD
ATOM     60  C   UNL     1      -6.078  17.018   3.607  1.00  0.00     0.074 A 
ATOM     61  C   UNL     1      -5.522  18.011   2.710  1.00  0.00     0.031 C 
ATOM     62  C   UNL     1      -7.126  17.242   4.436  1.00  0.00     0.031 A 
BRANCH  49  63
ATOM     63  C   UNL     1      -8.784  12.303   7.752  1.00  0.00    -0.014 A 
ATOM     64  C   UNL     1      -8.364  11.964   9.048  1.00  0.00     0.009 A 
ATOM     65  C   UNL     1     -10.125  12.096   7.396  1.00  0.00     0.009 A 
ATOM     66  C   UNL     1      -9.262  11.395   9.954  1.00  0.00     0.001 A 
ATOM     67  C   UNL     1     -11.026  11.551   8.312  1.00  0.00     0.001 A 
ATOM     68  C   UNL     1     -10.592  11.192   9.587  1.00  0.00     0.000 A 
ENDBRANCH  49  63
BRANCH  50  69
ATOM     69  C   UNL     1      -2.418  15.789   0.925  1.00  0.00    -0.014 A 
ATOM     70  C   UNL     1      -1.440  16.740   1.250  1.00  0.00     0.009 A 
ATOM     71  C   UNL     1      -2.511  15.334  -0.400  1.00  0.00     0.009 A 
ATOM     72  C   UNL     1      -0.586  17.240   0.265  1.00  0.00     0.001 A 
ATOM     73  C   UNL     1      -1.638  15.816  -1.377  1.00  0.00     0.001 A 
ATOM     74  C   UNL     1      -0.681  16.773  -1.046  1.00  0.00     0.000 A 
ENDBRANCH  50  69
BRANCH  62  75
ATOM     75  C   UNL     1      -7.724  18.621   4.436  1.00  0.00    -0.014 A 
ATOM     76  C   UNL     1      -8.521  19.070   3.372  1.00  0.00     0.009 A 
ATOM     77  C   UNL     1      -7.524  19.466   5.539  1.00  0.00     0.009 A 
ATOM     78  C   UNL     1      -9.081  20.349   3.400  1.00  0.00     0.001 A 
ATOM     79  C   UNL     1      -8.105  20.734   5.576  1.00  0.00     0.001 A 
ATOM     80  C   UNL     1      -8.877  21.178   4.503  1.00  0.00     0.000 A 
ENDBRANCH  62  75
ENDBRANCH  36  37
ENDBRANCH  29  31
ENDBRANCH  28  29
ENDBRANCH  27  28
ENDBRANCH  26  27
ENDBRANCH   1  26
TORSDOF 18
