REMARK SMILES C[C@H]1Oc2ccccc2C=C1/C=C/C(=O)N[C@H](C(=O)OCCOCCOC(=O)c1ccc(-c2c3nc(c(-c4ccccc4)c4ccc([nH]4)c(-c4ccccc4)c4nc(c(-c5ccccc5)c5ccc2[nH]5)C=C4)C=C3)cc1)c1ccccc1
REMARK SMILES IDX 22 1 21 2 20 3 18 4 19 5 17 6 16 7 14 8 15 9 13 11 12 12
REMARK SMILES IDX 11 13 1 14 2 15 3 16 4 17 10 18 5 19 9 20 6 21 8 22 7 23
REMARK SMILES IDX 77 24 78 25 82 26 79 27 81 28 80 29 23 30 24 31 25 32 26 33
REMARK SMILES IDX 27 34 28 35 29 36 30 37 76 38 31 39 75 40 32 41 33 42 34 43
REMARK SMILES IDX 69 44 35 45 74 46 68 47 70 48 36 49 73 50 67 51 66 52 37 54
REMARK SMILES IDX 59 55 44 56 58 57 45 58 48 59 57 60 71 61 46 62 47 63 56 65
REMARK SMILES IDX 72 66 49 67 38 68 39 69 43 70 40 71 42 72 41 73 60 74 61 75
REMARK SMILES IDX 65 76 62 77 64 78 63 79 50 80 51 81 55 82 52 83 54 84 53 85
REMARK H PARENT 16 10 70 53 48 64
REMARK Flexibility Score: inf
ROOT
ATOM      1  C   UNL     1       2.432  -7.204   1.867  1.00  0.00     0.202 C 
ENDROOT
BRANCH   1   2
ATOM      2  C   UNL     1       1.206  -6.484   2.441  1.00  0.00     0.261 C 
BRANCH   2   3
ATOM      3  O   UNL     1       0.451  -5.821   1.412  1.00  0.00    -0.461 OA
BRANCH   3   4
ATOM      4  C   UNL     1       0.001  -4.572   1.726  1.00  0.00     0.333 C 
ATOM      5  O   UNL     1       0.012  -4.101   2.859  1.00  0.00    -0.249 OA
BRANCH   4   6
ATOM      6  C   UNL     1      -0.593  -3.816   0.508  1.00  0.00     0.223 C 
BRANCH   6   7
ATOM      7  N   UNL     1       0.128  -3.962  -0.761  1.00  0.00    -0.335 N 
ATOM      8  C   UNL     1       1.095  -3.184  -1.327  1.00  0.00     0.244 C 
ATOM      9  O   UNL     1       1.499  -3.458  -2.455  1.00  0.00    -0.270 OA
ATOM     10  H   UNL     1      -0.128  -4.750  -1.291  1.00  0.00     0.165 HD
BRANCH   8  11
ATOM     11  C   UNL     1       1.653  -1.992  -0.635  1.00  0.00     0.071 C 
ATOM     12  C   UNL     1       2.001  -1.988   0.659  1.00  0.00     0.013 C 
BRANCH  12  13
ATOM     13  C   UNL     1       2.537  -0.885   1.448  1.00  0.00    -0.007 C 
ATOM     14  C   UNL     1       2.667  -2.005   3.748  1.00  0.00     0.058 C 
ATOM     15  C   UNL     1       2.090  -0.859   2.910  1.00  0.00     0.200 C 
ATOM     16  O   UNL     1       2.338   0.367   3.625  1.00  0.00    -0.485 OA
ATOM     17  C   UNL     1       3.385   1.130   3.188  1.00  0.00     0.127 A 
ATOM     18  C   UNL     1       3.399   0.027   0.974  1.00  0.00     0.019 C 
ATOM     19  C   UNL     1       3.885   2.069   4.093  1.00  0.00     0.047 A 
ATOM     20  C   UNL     1       3.920   1.028   1.901  1.00  0.00     0.017 A 
ATOM     21  C   UNL     1       4.928   2.914   3.718  1.00  0.00     0.004 A 
ATOM     22  C   UNL     1       4.953   1.895   1.524  1.00  0.00     0.012 A 
ATOM     23  C   UNL     1       5.457   2.833   2.431  1.00  0.00     0.001 A 
ENDBRANCH  12  13
ENDBRANCH   8  11
ENDBRANCH   6   7
BRANCH   6  24
ATOM     24  C   UNL     1      -2.053  -4.182   0.308  1.00  0.00    -0.014 A 
ATOM     25  C   UNL     1      -2.477  -5.514   0.160  1.00  0.00     0.006 A 
ATOM     26  C   UNL     1      -3.008  -3.157   0.258  1.00  0.00     0.006 A 
ATOM     27  C   UNL     1      -3.833  -5.809   0.013  1.00  0.00     0.000 A 
ATOM     28  C   UNL     1      -4.360  -3.455   0.104  1.00  0.00     0.000 A 
ATOM     29  C   UNL     1      -4.772  -4.781  -0.009  1.00  0.00     0.000 A 
ENDBRANCH   6  24
ENDBRANCH   4   6
ENDBRANCH   3   4
ENDBRANCH   2   3
ENDBRANCH   1   2
BRANCH   1  30
ATOM     30  O   UNL     1       3.359  -6.432   1.108  1.00  0.00    -0.374 OA
BRANCH  30  31
ATOM     31  C   UNL     1       2.917  -5.884  -0.133  1.00  0.00     0.202 C 
BRANCH  31  32
ATOM     32  C   UNL     1       2.657  -6.831  -1.314  1.00  0.00     0.261 C 
BRANCH  32  33
ATOM     33  O   UNL     1       1.679  -7.848  -1.036  1.00  0.00    -0.460 OA
BRANCH  33  34
ATOM     34  C   UNL     1       2.186  -9.098  -0.895  1.00  0.00     0.338 C 
ATOM     35  O   UNL     1       3.354  -9.443  -1.002  1.00  0.00    -0.246 OA
BRANCH  34  36
ATOM     36  C   UNL     1       1.140  -9.995  -0.372  1.00  0.00     0.060 A 
ATOM     37  C   UNL     1      -0.063 -10.184  -1.052  1.00  0.00     0.016 A 
ATOM     38  C   UNL     1       1.407 -10.692   0.814  1.00  0.00     0.016 A 
ATOM     39  C   UNL     1      -0.993 -11.098  -0.548  1.00  0.00     0.010 A 
ATOM     40  C   UNL     1       0.477 -11.599   1.317  1.00  0.00     0.010 A 
ATOM     41  C   UNL     1      -0.722 -11.825   0.628  1.00  0.00    -0.014 A 
BRANCH  41  42
ATOM     42  C   UNL     1      -1.620 -12.926   1.053  1.00  0.00     0.031 A 
ATOM     43  C   UNL     1      -2.507 -12.799   2.253  1.00  0.00     0.074 A 
ATOM     44  C   UNL     1      -1.595 -14.074   0.349  1.00  0.00     0.049 A 
ATOM     45  N   UNL     1      -3.392 -13.650   2.708  1.00  0.00    -0.248 NA
ATOM     46  C   UNL     1      -2.387 -11.569   3.050  1.00  0.00     0.031 C 
ATOM     47  C   UNL     1      -0.738 -14.323  -0.812  1.00  0.00     0.029 A 
ATOM     48  N   UNL     1      -2.307 -15.238   0.494  1.00  0.00    -0.354 N 
ATOM     49  C   UNL     1      -3.947 -13.055   3.833  1.00  0.00     0.074 A 
ATOM     50  C   UNL     1      -3.266 -11.791   4.021  1.00  0.00     0.031 C 
ATOM     51  C   UNL     1      -1.002 -15.544  -1.297  1.00  0.00     0.029 A 
ATOM     52  C   UNL     1      -2.015 -16.183  -0.460  1.00  0.00     0.049 A 
ATOM     53  H   UNL     1      -2.964 -15.382   1.213  1.00  0.00     0.167 HD
ATOM     54  C   UNL     1      -4.947 -13.519   4.621  1.00  0.00     0.031 A 
ATOM     55  C   UNL     1      -2.506 -17.423  -0.649  1.00  0.00     0.031 A 
ATOM     56  C   UNL     1      -5.600 -14.790   4.434  1.00  0.00     0.049 A 
ATOM     57  C   UNL     1      -3.586 -17.930   0.266  1.00  0.00     0.074 A 
ATOM     58  C   UNL     1      -6.657 -15.321   5.154  1.00  0.00     0.029 A 
ATOM     59  N   UNL     1      -5.255 -15.733   3.478  1.00  0.00    -0.354 N 
ATOM     60  N   UNL     1      -4.171 -17.315   1.266  1.00  0.00    -0.248 NA
ATOM     61  C   UNL     1      -4.087 -19.289   0.020  1.00  0.00     0.031 C 
ATOM     62  C   UNL     1      -6.894 -16.616   4.691  1.00  0.00     0.029 A 
ATOM     63  C   UNL     1      -6.050 -16.859   3.618  1.00  0.00     0.049 A 
ATOM     64  H   UNL     1      -4.550 -15.620   2.800  1.00  0.00     0.167 HD
ATOM     65  C   UNL     1      -5.123 -18.201   1.753  1.00  0.00     0.074 A 
ATOM     66  C   UNL     1      -5.052 -19.388   0.925  1.00  0.00     0.031 C 
ATOM     67  C   UNL     1      -5.976 -18.040   2.793  1.00  0.00     0.031 A 
BRANCH  54  68
ATOM     68  C   UNL     1      -5.419 -12.657   5.761  1.00  0.00    -0.014 A 
ATOM     69  C   UNL     1      -5.273 -13.103   7.085  1.00  0.00     0.009 A 
ATOM     70  C   UNL     1      -6.129 -11.469   5.524  1.00  0.00     0.009 A 
ATOM     71  C   UNL     1      -5.847 -12.395   8.143  1.00  0.00     0.001 A 
ATOM     72  C   UNL     1      -6.674 -10.744   6.587  1.00  0.00     0.001 A 
ATOM     73  C   UNL     1      -6.544 -11.214   7.893  1.00  0.00     0.000 A 
ENDBRANCH  54  68
BRANCH  55  74
ATOM     74  C   UNL     1      -1.997 -18.240  -1.783  1.00  0.00    -0.014 A 
ATOM     75  C   UNL     1      -0.661 -18.677  -1.808  1.00  0.00     0.009 A 
ATOM     76  C   UNL     1      -2.821 -18.530  -2.881  1.00  0.00     0.009 A 
ATOM     77  C   UNL     1      -0.154 -19.355  -2.918  1.00  0.00     0.001 A 
ATOM     78  C   UNL     1      -2.321 -19.241  -3.975  1.00  0.00     0.001 A 
ATOM     79  C   UNL     1      -0.985 -19.640  -3.999  1.00  0.00     0.000 A 
ENDBRANCH  55  74
BRANCH  67  80
ATOM     80  C   UNL     1      -6.928 -19.163   3.115  1.00  0.00    -0.014 A 
ATOM     81  C   UNL     1      -8.312 -18.963   2.980  1.00  0.00     0.009 A 
ATOM     82  C   UNL     1      -6.470 -20.368   3.670  1.00  0.00     0.009 A 
ATOM     83  C   UNL     1      -9.217 -19.930   3.422  1.00  0.00     0.001 A 
ATOM     84  C   UNL     1      -7.377 -21.349   4.077  1.00  0.00     0.001 A 
ATOM     85  C   UNL     1      -8.749 -21.123   3.966  1.00  0.00     0.000 A 
ENDBRANCH  67  80
ENDBRANCH  41  42
ENDBRANCH  34  36
ENDBRANCH  33  34
ENDBRANCH  32  33
ENDBRANCH  31  32
ENDBRANCH  30  31
ENDBRANCH   1  30
TORSDOF 18
