REMARK SMILES C[C@H]1CCc2sc3ncn4nc(/C=C\C(=O)OCCOCCOC(=O)c5ccc(-c6c7nc(c(-c8ccccc8)c8ccc([nH]8)c(-c8ccccc8)c8nc(c(-c9ccccc9)c9ccc6[nH]9)C=C8)C=C7)cc5)nc4c3c2C1
REMARK SMILES IDX 21 1 20 2 19 3 18 4 17 5 15 6 16 7 14 8 13 9 12 10 1 11 2 12
REMARK SMILES IDX 3 13 78 14 4 15 77 16 5 17 76 18 6 19 7 20 75 21 8 22 10 23
REMARK SMILES IDX 74 24 9 25 11 26 22 27 23 28 24 29 25 30 26 31 27 32 73 33
REMARK SMILES IDX 28 34 72 35 29 36 30 37 31 38 66 39 32 40 71 41 65 42 67 43
REMARK SMILES IDX 33 44 70 45 64 46 63 47 34 49 56 50 41 51 55 52 42 53 45 54
REMARK SMILES IDX 54 55 68 56 43 57 44 58 53 60 69 61 46 62 35 63 36 64 40 65
REMARK SMILES IDX 37 66 39 67 38 68 57 69 58 70 62 71 59 72 61 73 60 74 47 75
REMARK SMILES IDX 48 76 52 77 49 78 51 79 50 80
REMARK H PARENT 67 48 45 59
REMARK Flexibility Score: inf
ROOT
ATOM      1  C   UNL     1       3.820  -2.631  -3.482  1.00  0.00     0.202 C 
ENDROOT
BRANCH   1   2
ATOM      2  O   UNL     1       3.054  -1.451  -3.261  1.00  0.00    -0.374 OA
BRANCH   2   3
ATOM      3  C   UNL     1       2.132  -1.450  -2.170  1.00  0.00     0.202 C 
BRANCH   3   4
ATOM      4  C   UNL     1       0.876  -2.291  -2.387  1.00  0.00     0.261 C 
BRANCH   4   5
ATOM      5  O   UNL     1       1.180  -3.682  -2.182  1.00  0.00    -0.460 OA
BRANCH   5   6
ATOM      6  C   UNL     1       0.929  -4.515  -3.206  1.00  0.00     0.330 C 
ATOM      7  O   UNL     1       0.431  -4.206  -4.280  1.00  0.00    -0.247 OA
BRANCH   6   8
ATOM      8  C   UNL     1       1.494  -5.866  -3.011  1.00  0.00     0.097 C 
ATOM      9  C   UNL     1       1.766  -6.613  -1.931  1.00  0.00     0.058 C 
BRANCH   9  10
ATOM     10  C   UNL     1       1.592  -6.384  -0.537  1.00  0.00     0.175 A 
ATOM     11  C   UNL     1      -1.253  -0.639   1.623  1.00  0.00     0.008 C 
ATOM     12  C   UNL     1       0.275  -0.716   1.703  1.00  0.00    -0.009 C 
ATOM     13  C   UNL     1       0.803  -0.287   3.090  1.00  0.00     0.009 C 
ATOM     14  C   UNL     1       0.784  -2.120   1.313  1.00  0.00     0.041 C 
ATOM     15  C   UNL     1       0.438  -1.268   4.219  1.00  0.00     0.047 C 
ATOM     16  C   UNL     1       0.832  -3.072   2.463  1.00  0.00    -0.020 A 
ATOM     17  C   UNL     1       0.686  -2.676   3.778  1.00  0.00     0.011 A 
ATOM     18  C   UNL     1       1.044  -4.464   2.402  1.00  0.00     0.060 A 
ATOM     19  S   UNL     1       0.770  -3.981   4.881  1.00  0.00    -0.120 S 
ATOM     20  C   UNL     1       1.015  -5.117   3.624  1.00  0.00     0.129 A 
ATOM     21  C   UNL     1       1.277  -5.351   1.256  1.00  0.00     0.168 A 
ATOM     22  N   UNL     1       1.154  -6.468   3.859  1.00  0.00    -0.225 NA
ATOM     23  N   UNL     1       1.416  -6.676   1.515  1.00  0.00    -0.201 N 
ATOM     24  N   UNL     1       1.386  -5.126  -0.027  1.00  0.00    -0.207 NA
ATOM     25  C   UNL     1       1.342  -7.216   2.799  1.00  0.00     0.227 A 
ATOM     26  N   UNL     1       1.648  -7.367   0.385  1.00  0.00    -0.145 NA
ENDBRANCH   9  10
ENDBRANCH   6   8
ENDBRANCH   5   6
ENDBRANCH   4   5
ENDBRANCH   3   4
ENDBRANCH   2   3
ENDBRANCH   1   2
BRANCH   1  27
ATOM     27  C   UNL     1       4.986  -2.838  -2.530  1.00  0.00     0.261 C 
BRANCH  27  28
ATOM     28  O   UNL     1       4.545  -3.216  -1.228  1.00  0.00    -0.460 OA
BRANCH  28  29
ATOM     29  C   UNL     1       4.710  -2.274  -0.270  1.00  0.00     0.338 C 
ATOM     30  O   UNL     1       4.802  -1.070  -0.424  1.00  0.00    -0.246 OA
BRANCH  29  31
ATOM     31  C   UNL     1       5.044  -2.965   0.986  1.00  0.00     0.060 A 
ATOM     32  C   UNL     1       5.574  -2.166   2.002  1.00  0.00     0.016 A 
ATOM     33  C   UNL     1       5.165  -4.363   1.003  1.00  0.00     0.016 A 
ATOM     34  C   UNL     1       6.430  -2.750   2.909  1.00  0.00     0.010 A 
ATOM     35  C   UNL     1       6.039  -4.940   1.893  1.00  0.00     0.010 A 
ATOM     36  C   UNL     1       6.727  -4.111   2.774  1.00  0.00    -0.014 A 
BRANCH  36  37
ATOM     37  C   UNL     1       7.750  -4.663   3.632  1.00  0.00     0.031 A 
ATOM     38  C   UNL     1       7.296  -4.877   5.021  1.00  0.00     0.074 A 
ATOM     39  C   UNL     1       8.963  -5.027   3.179  1.00  0.00     0.049 A 
ATOM     40  N   UNL     1       7.704  -4.273   6.085  1.00  0.00    -0.248 NA
ATOM     41  C   UNL     1       6.145  -5.771   5.225  1.00  0.00     0.031 C 
ATOM     42  C   UNL     1       9.425  -5.143   1.793  1.00  0.00     0.029 A 
ATOM     43  N   UNL     1      10.021  -5.490   3.894  1.00  0.00    -0.354 N 
ATOM     44  C   UNL     1       6.966  -4.820   7.126  1.00  0.00     0.074 A 
ATOM     45  C   UNL     1       5.920  -5.611   6.528  1.00  0.00     0.031 C 
ATOM     46  C   UNL     1      10.568  -5.871   1.769  1.00  0.00     0.029 A 
ATOM     47  C   UNL     1      10.980  -6.146   3.136  1.00  0.00     0.049 A 
ATOM     48  H   UNL     1      10.100  -5.371   4.868  1.00  0.00     0.167 HD
ATOM     49  C   UNL     1       7.399  -4.779   8.413  1.00  0.00     0.031 A 
ATOM     50  C   UNL     1      11.977  -6.926   3.622  1.00  0.00     0.031 A 
ATOM     51  C   UNL     1       8.455  -3.826   8.607  1.00  0.00     0.049 A 
ATOM     52  C   UNL     1      12.146  -6.597   5.058  1.00  0.00     0.074 A 
ATOM     53  C   UNL     1       8.556  -2.455   8.495  1.00  0.00     0.029 A 
ATOM     54  N   UNL     1       9.743  -4.306   8.593  1.00  0.00    -0.354 N 
ATOM     55  N   UNL     1      12.604  -5.457   5.487  1.00  0.00    -0.248 NA
ATOM     56  C   UNL     1      11.392  -7.371   6.031  1.00  0.00     0.031 C 
ATOM     57  C   UNL     1       9.855  -2.223   7.955  1.00  0.00     0.029 A 
ATOM     58  C   UNL     1      10.493  -3.458   7.819  1.00  0.00     0.049 A 
ATOM     59  H   UNL     1      10.068  -5.113   9.055  1.00  0.00     0.167 HD
ATOM     60  C   UNL     1      11.843  -5.170   6.612  1.00  0.00     0.074 A 
ATOM     61  C   UNL     1      11.185  -6.429   6.955  1.00  0.00     0.031 C 
ATOM     62  C   UNL     1      11.598  -3.880   6.986  1.00  0.00     0.031 A 
BRANCH  49  63
ATOM     63  C   UNL     1       7.111  -5.882   9.388  1.00  0.00    -0.014 A 
ATOM     64  C   UNL     1       7.375  -5.687  10.751  1.00  0.00     0.009 A 
ATOM     65  C   UNL     1       6.825  -7.199   8.971  1.00  0.00     0.009 A 
ATOM     66  C   UNL     1       7.375  -6.764  11.646  1.00  0.00     0.001 A 
ATOM     67  C   UNL     1       6.782  -8.267   9.867  1.00  0.00     0.001 A 
ATOM     68  C   UNL     1       7.077  -8.051  11.204  1.00  0.00     0.000 A 
ENDBRANCH  49  63
BRANCH  50  69
ATOM     69  C   UNL     1      12.534  -8.170   3.044  1.00  0.00    -0.014 A 
ATOM     70  C   UNL     1      13.739  -8.704   3.529  1.00  0.00     0.009 A 
ATOM     71  C   UNL     1      11.733  -8.993   2.231  1.00  0.00     0.009 A 
ATOM     72  C   UNL     1      14.103 -10.029   3.253  1.00  0.00     0.001 A 
ATOM     73  C   UNL     1      12.098 -10.315   1.953  1.00  0.00     0.001 A 
ATOM     74  C   UNL     1      13.274 -10.838   2.479  1.00  0.00     0.000 A 
ENDBRANCH  50  69
BRANCH  62  75
ATOM     75  C   UNL     1      12.370  -2.788   6.284  1.00  0.00    -0.014 A 
ATOM     76  C   UNL     1      12.283  -2.551   4.899  1.00  0.00     0.009 A 
ATOM     77  C   UNL     1      13.096  -1.879   7.067  1.00  0.00     0.009 A 
ATOM     78  C   UNL     1      12.929  -1.454   4.317  1.00  0.00     0.001 A 
ATOM     79  C   UNL     1      13.723  -0.773   6.489  1.00  0.00     0.001 A 
ATOM     80  C   UNL     1      13.644  -0.564   5.114  1.00  0.00     0.000 A 
ENDBRANCH  62  75
ENDBRANCH  36  37
ENDBRANCH  29  31
ENDBRANCH  28  29
ENDBRANCH  27  28
ENDBRANCH   1  27
TORSDOF 15
