REMARK SMILES O=C(CSc1nc(-c2cccc(Br)c2)c[nH]1)OCCOCCOC(=O)c1ccc(-c2c3nc(c(-c4ccccc4)c4ccc([nH]4)c(-c4ccccc4)c4nc(c(-c5ccccc5)c5ccc2[nH]5)C=C4)C=C3)cc1
REMARK SMILES IDX 19 1 18 2 17 3 2 4 1 5 3 6 4 7 5 8 6 9 16 10 7 11 15 12 8 14
REMARK SMILES IDX 9 15 14 16 10 17 12 18 11 19 13 20 20 21 21 22 22 23 23 24
REMARK SMILES IDX 24 25 25 26 26 27 27 28 73 29 28 30 72 31 29 32 30 33 31 34
REMARK SMILES IDX 66 35 32 36 71 37 65 38 67 39 33 40 70 41 64 42 63 43 34 45
REMARK SMILES IDX 56 46 41 47 55 48 42 49 45 50 54 51 68 52 43 53 44 54 53 56
REMARK SMILES IDX 69 57 46 58 35 59 36 60 40 61 37 62 39 63 38 64 57 65 58 66
REMARK SMILES IDX 62 67 59 68 61 69 60 70 47 71 48 72 52 73 49 74 51 75 50 76
REMARK H PARENT 16 13 67 44 45 55
REMARK Flexibility Score: inf
ROOT
ATOM      1  C   UNL     1       4.674  -0.922  -0.680  1.00  0.00     0.202 C 
ENDROOT
BRANCH   1   2
ATOM      2  C   UNL     1       4.314  -0.571   0.757  1.00  0.00     0.261 C 
BRANCH   2   3
ATOM      3  O   UNL     1       2.907  -0.376   0.988  1.00  0.00    -0.463 OA
BRANCH   3   4
ATOM      4  C   UNL     1       2.182   0.718   0.655  1.00  0.00     0.316 C 
ATOM      5  O   UNL     1       0.955   0.647   0.729  1.00  0.00    -0.251 OA
BRANCH   4   6
ATOM      6  C   UNL     1       2.853   1.997   0.213  1.00  0.00     0.200 C 
BRANCH   6   7
ATOM      7  S   UNL     1       4.088   2.621   1.371  1.00  0.00    -0.076 SA
BRANCH   7   8
ATOM      8  C   UNL     1       3.101   2.828   2.753  1.00  0.00     0.166 A 
ATOM      9  N   UNL     1       2.704   3.985   3.198  1.00  0.00    -0.223 NA
ATOM     10  N   UNL     1       2.605   1.786   3.483  1.00  0.00    -0.339 N 
ATOM     11  C   UNL     1       1.918   3.685   4.275  1.00  0.00     0.089 A 
ATOM     12  C   UNL     1       1.805   2.324   4.454  1.00  0.00     0.113 A 
ATOM     13  H   UNL     1       2.789   0.829   3.338  1.00  0.00     0.168 HD
BRANCH  11  14
ATOM     14  C   UNL     1       1.344   4.720   5.088  1.00  0.00     0.003 A 
ATOM     15  C   UNL     1       0.711   5.803   4.465  1.00  0.00     0.010 A 
ATOM     16  C   UNL     1       1.529   4.711   6.471  1.00  0.00     0.026 A 
ATOM     17  C   UNL     1       0.261   6.878   5.226  1.00  0.00     0.002 A 
ATOM     18  C   UNL     1       1.091   5.797   7.221  1.00  0.00     0.018 A 
ATOM     19  C   UNL     1       0.457   6.878   6.607  1.00  0.00     0.016 A 
ATOM     20  Br  UNL     1       1.404   5.822   9.085  1.00  0.00    -0.051 Br
ENDBRANCH  11  14
ENDBRANCH   7   8
ENDBRANCH   6   7
ENDBRANCH   4   6
ENDBRANCH   3   4
ENDBRANCH   2   3
ENDBRANCH   1   2
BRANCH   1  21
ATOM     21  O   UNL     1       4.127  -0.084  -1.690  1.00  0.00    -0.374 OA
BRANCH  21  22
ATOM     22  C   UNL     1       2.854  -0.484  -2.213  1.00  0.00     0.202 C 
BRANCH  22  23
ATOM     23  C   UNL     1       2.888  -1.559  -3.304  1.00  0.00     0.261 C 
BRANCH  23  24
ATOM     24  O   UNL     1       3.310  -2.826  -2.775  1.00  0.00    -0.460 OA
BRANCH  24  25
ATOM     25  C   UNL     1       4.609  -3.130  -3.000  1.00  0.00     0.338 C 
ATOM     26  O   UNL     1       5.406  -2.508  -3.688  1.00  0.00    -0.246 OA
BRANCH  25  27
ATOM     27  C   UNL     1       5.019  -4.223  -2.098  1.00  0.00     0.060 A 
ATOM     28  C   UNL     1       6.248  -4.087  -1.439  1.00  0.00     0.016 A 
ATOM     29  C   UNL     1       4.231  -5.361  -1.904  1.00  0.00     0.016 A 
ATOM     30  C   UNL     1       6.728  -5.119  -0.641  1.00  0.00     0.010 A 
ATOM     31  C   UNL     1       4.716  -6.399  -1.107  1.00  0.00     0.010 A 
ATOM     32  C   UNL     1       5.986  -6.300  -0.511  1.00  0.00    -0.014 A 
BRANCH  32  33
ATOM     33  C   UNL     1       6.620  -7.482   0.113  1.00  0.00     0.031 A 
ATOM     34  C   UNL     1       7.166  -8.564  -0.778  1.00  0.00     0.074 A 
ATOM     35  C   UNL     1       6.758  -7.558   1.448  1.00  0.00     0.049 A 
ATOM     36  N   UNL     1       7.768  -9.679  -0.453  1.00  0.00    -0.248 NA
ATOM     37  C   UNL     1       7.015  -8.363  -2.230  1.00  0.00     0.031 C 
ATOM     38  C   UNL     1       6.305  -6.549   2.405  1.00  0.00     0.029 A 
ATOM     39  N   UNL     1       7.328  -8.531   2.227  1.00  0.00    -0.354 N 
ATOM     40  C   UNL     1       8.066 -10.310  -1.655  1.00  0.00     0.074 A 
ATOM     41  C   UNL     1       7.545  -9.476  -2.715  1.00  0.00     0.031 C 
ATOM     42  C   UNL     1       6.614  -6.957   3.647  1.00  0.00     0.029 A 
ATOM     43  C   UNL     1       7.254  -8.268   3.573  1.00  0.00     0.049 A 
ATOM     44  H   UNL     1       7.748  -9.341   1.858  1.00  0.00     0.167 HD
ATOM     45  C   UNL     1       8.725 -11.474  -1.858  1.00  0.00     0.031 A 
ATOM     46  C   UNL     1       7.644  -9.014   4.624  1.00  0.00     0.031 A 
ATOM     47  C   UNL     1       9.227 -12.308  -0.799  1.00  0.00     0.049 A 
ATOM     48  C   UNL     1       8.303 -10.343   4.370  1.00  0.00     0.074 A 
ATOM     49  C   UNL     1       9.911 -13.508  -0.896  1.00  0.00     0.029 A 
ATOM     50  N   UNL     1       9.095 -12.030   0.553  1.00  0.00    -0.354 N 
ATOM     51  N   UNL     1       8.601 -10.917   3.228  1.00  0.00    -0.248 NA
ATOM     52  C   UNL     1       8.693 -11.122   5.553  1.00  0.00     0.031 C 
ATOM     53  C   UNL     1      10.140 -13.984   0.399  1.00  0.00     0.029 A 
ATOM     54  C   UNL     1       9.662 -13.048   1.301  1.00  0.00     0.049 A 
ATOM     55  H   UNL     1       8.663 -11.228   0.925  1.00  0.00     0.167 HD
ATOM     56  C   UNL     1       9.236 -12.109   3.557  1.00  0.00     0.074 A 
ATOM     57  C   UNL     1       9.306 -12.159   5.002  1.00  0.00     0.031 C 
ATOM     58  C   UNL     1       9.714 -13.080   2.740  1.00  0.00     0.031 A 
BRANCH  45  59
ATOM     59  C   UNL     1       8.922 -11.928  -3.278  1.00  0.00    -0.014 A 
ATOM     60  C   UNL     1       9.816 -11.268  -4.136  1.00  0.00     0.009 A 
ATOM     61  C   UNL     1       8.243 -13.063  -3.748  1.00  0.00     0.009 A 
ATOM     62  C   UNL     1      10.009 -11.724  -5.443  1.00  0.00     0.001 A 
ATOM     63  C   UNL     1       8.460 -13.533  -5.045  1.00  0.00     0.001 A 
ATOM     64  C   UNL     1       9.338 -12.860  -5.893  1.00  0.00     0.000 A 
ENDBRANCH  45  59
BRANCH  46  65
ATOM     65  C   UNL     1       7.396  -8.545   6.014  1.00  0.00    -0.014 A 
ATOM     66  C   UNL     1       8.461  -8.237   6.873  1.00  0.00     0.009 A 
ATOM     67  C   UNL     1       6.083  -8.447   6.503  1.00  0.00     0.009 A 
ATOM     68  C   UNL     1       8.219  -7.882   8.203  1.00  0.00     0.001 A 
ATOM     69  C   UNL     1       5.842  -8.057   7.822  1.00  0.00     0.001 A 
ATOM     70  C   UNL     1       6.911  -7.789   8.675  1.00  0.00     0.000 A 
ENDBRANCH  46  65
BRANCH  58  71
ATOM     71  C   UNL     1      10.385 -14.255   3.398  1.00  0.00    -0.014 A 
ATOM     72  C   UNL     1       9.653 -15.187   4.151  1.00  0.00     0.009 A 
ATOM     73  C   UNL     1      11.769 -14.436   3.252  1.00  0.00     0.009 A 
ATOM     74  C   UNL     1      10.304 -16.246   4.788  1.00  0.00     0.001 A 
ATOM     75  C   UNL     1      12.411 -15.516   3.858  1.00  0.00     0.001 A 
ATOM     76  C   UNL     1      11.681 -16.411   4.639  1.00  0.00     0.000 A 
ENDBRANCH  58  71
ENDBRANCH  32  33
ENDBRANCH  25  27
ENDBRANCH  24  25
ENDBRANCH  23  24
ENDBRANCH  22  23
ENDBRANCH  21  22
ENDBRANCH   1  21
TORSDOF 17
