REMARK SMILES CCCC[C@@H](C(=O)OCCOCCOC(=O)c1ccc(-c2c3nc(c(-c4ccccc4)c4ccc([nH]4)c(-c4ccccc4)c4nc(c(-c5ccccc5)c5ccc2[nH]5)C=C4)C=C3)cc1)[C@@H](O)c1cccc(C(F)(F)F)c1
REMARK SMILES IDX 10 1 9 2 8 3 6 4 7 5 5 6 4 7 3 8 2 9 1 10 65 11 66 12 67 14
REMARK SMILES IDX 68 15 76 16 69 17 71 18 70 19 72 20 73 21 74 22 75 23 11 24
REMARK SMILES IDX 12 25 13 26 14 27 15 28 16 29 17 30 18 31 64 32 19 33 63 34
REMARK SMILES IDX 20 35 21 36 22 37 57 38 23 39 62 40 56 41 58 42 24 43 61 44
REMARK SMILES IDX 55 45 54 46 25 48 47 49 32 50 46 51 33 52 36 53 45 54 59 55
REMARK SMILES IDX 34 56 35 57 44 59 60 60 37 61 26 62 27 63 31 64 28 65 30 66
REMARK SMILES IDX 29 67 48 68 49 69 53 70 50 71 52 72 51 73 38 74 39 75 43 76
REMARK SMILES IDX 40 77 42 78 41 79
REMARK H PARENT 66 13 58 47 36 58
REMARK Flexibility Score: inf
ROOT
ATOM      1  C   UNL     1      -1.602   1.319  -6.030  1.00  0.00     0.202 C 
ENDROOT
BRANCH   1   2
ATOM      2  C   UNL     1      -2.404   1.488  -4.733  1.00  0.00     0.261 C 
BRANCH   2   3
ATOM      3  O   UNL     1      -1.768   0.877  -3.594  1.00  0.00    -0.463 OA
BRANCH   3   4
ATOM      4  C   UNL     1      -2.108  -0.423  -3.405  1.00  0.00     0.312 C 
ATOM      5  O   UNL     1      -2.870  -1.030  -4.146  1.00  0.00    -0.252 OA
BRANCH   4   6
ATOM      6  C   UNL     1      -1.418  -1.036  -2.192  1.00  0.00     0.132 C 
BRANCH   6   7
ATOM      7  C   UNL     1       0.130  -1.052  -2.319  1.00  0.00     0.018 C 
BRANCH   7   8
ATOM      8  C   UNL     1       0.861   0.293  -2.181  1.00  0.00     0.001 C 
BRANCH   8   9
ATOM      9  C   UNL     1       0.598   1.057  -0.881  1.00  0.00    -0.003 C 
ATOM     10  C   UNL     1       0.993   0.282   0.368  1.00  0.00     0.004 C 
ENDBRANCH   8   9
ENDBRANCH   7   8
ENDBRANCH   6   7
BRANCH   6  11
ATOM     11  C   UNL     1      -1.959  -2.490  -2.064  1.00  0.00     0.158 C 
BRANCH  11  12
ATOM     12  O   UNL     1      -1.331  -3.160  -0.970  1.00  0.00    -0.388 OA
ATOM     13  H   UNL     1      -1.589  -2.734  -0.138  1.00  0.00     0.211 HD
ENDBRANCH  11  12
BRANCH  11  14
ATOM     14  C   UNL     1      -3.461  -2.670  -1.880  1.00  0.00    -0.018 A 
ATOM     15  C   UNL     1      -4.330  -1.620  -1.545  1.00  0.00     0.006 A 
ATOM     16  C   UNL     1      -4.020  -3.931  -2.156  1.00  0.00     0.019 A 
ATOM     17  C   UNL     1      -5.714  -1.797  -1.581  1.00  0.00     0.001 A 
ATOM     18  C   UNL     1      -5.410  -4.130  -2.161  1.00  0.00     0.056 A 
ATOM     19  C   UNL     1      -6.251  -3.042  -1.896  1.00  0.00     0.013 A 
BRANCH  18  20
ATOM     20  C   UNL     1      -6.003  -5.483  -2.456  1.00  0.00     0.416 C 
ATOM     21  F   UNL     1      -6.775  -5.945  -1.433  1.00  0.00    -0.166 F 
ATOM     22  F   UNL     1      -6.809  -5.475  -3.554  1.00  0.00    -0.166 F 
ATOM     23  F   UNL     1      -5.073  -6.453  -2.686  1.00  0.00    -0.166 F 
ENDBRANCH  18  20
ENDBRANCH  11  14
ENDBRANCH   6  11
ENDBRANCH   4   6
ENDBRANCH   3   4
ENDBRANCH   2   3
ENDBRANCH   1   2
BRANCH   1  24
ATOM     24  O   UNL     1      -1.566   0.026  -6.632  1.00  0.00    -0.374 OA
BRANCH  24  25
ATOM     25  C   UNL     1      -0.590  -0.898  -6.152  1.00  0.00     0.202 C 
BRANCH  25  26
ATOM     26  C   UNL     1       0.833  -0.741  -6.692  1.00  0.00     0.261 C 
BRANCH  26  27
ATOM     27  O   UNL     1       1.415   0.501  -6.259  1.00  0.00    -0.460 OA
BRANCH  27  28
ATOM     28  C   UNL     1       1.504   1.439  -7.227  1.00  0.00     0.338 C 
ATOM     29  O   UNL     1       1.298   1.289  -8.426  1.00  0.00    -0.246 OA
BRANCH  28  30
ATOM     30  C   UNL     1       1.694   2.771  -6.626  1.00  0.00     0.060 A 
ATOM     31  C   UNL     1       0.848   3.794  -7.074  1.00  0.00     0.016 A 
ATOM     32  C   UNL     1       2.699   3.035  -5.692  1.00  0.00     0.016 A 
ATOM     33  C   UNL     1       1.053   5.103  -6.653  1.00  0.00     0.010 A 
ATOM     34  C   UNL     1       2.912   4.354  -5.279  1.00  0.00     0.010 A 
ATOM     35  C   UNL     1       2.122   5.396  -5.799  1.00  0.00    -0.014 A 
BRANCH  35  36
ATOM     36  C   UNL     1       2.530   6.810  -5.627  1.00  0.00     0.031 A 
ATOM     37  C   UNL     1       3.661   7.336  -6.470  1.00  0.00     0.074 A 
ATOM     38  C   UNL     1       1.870   7.628  -4.790  1.00  0.00     0.049 A 
ATOM     39  N   UNL     1       4.190   8.533  -6.495  1.00  0.00    -0.248 NA
ATOM     40  C   UNL     1       4.276   6.386  -7.412  1.00  0.00     0.031 C 
ATOM     41  C   UNL     1       0.721   7.252  -3.969  1.00  0.00     0.029 A 
ATOM     42  N   UNL     1       2.076   8.952  -4.500  1.00  0.00    -0.354 N 
ATOM     43  C   UNL     1       5.201   8.476  -7.447  1.00  0.00     0.074 A 
ATOM     44  C   UNL     1       5.233   7.123  -7.955  1.00  0.00     0.031 C 
ATOM     45  C   UNL     1       0.324   8.325  -3.262  1.00  0.00     0.029 A 
ATOM     46  C   UNL     1       1.210   9.449  -3.558  1.00  0.00     0.049 A 
ATOM     47  H   UNL     1       2.778   9.495  -4.927  1.00  0.00     0.167 HD
ATOM     48  C   UNL     1       6.025   9.464  -7.867  1.00  0.00     0.031 A 
ATOM     49  C   UNL     1       1.154  10.668  -2.988  1.00  0.00     0.031 A 
ATOM     50  C   UNL     1       6.001  10.807  -7.355  1.00  0.00     0.049 A 
ATOM     51  C   UNL     1       2.141  11.725  -3.408  1.00  0.00     0.074 A 
ATOM     52  C   UNL     1       6.790  11.883  -7.721  1.00  0.00     0.029 A 
ATOM     53  N   UNL     1       5.144  11.255  -6.362  1.00  0.00    -0.354 N 
ATOM     54  N   UNL     1       3.081  11.665  -4.320  1.00  0.00    -0.248 NA
ATOM     55  C   UNL     1       2.051  13.022  -2.722  1.00  0.00     0.031 C 
ATOM     56  C   UNL     1       6.449  12.969  -6.907  1.00  0.00     0.029 A 
ATOM     57  C   UNL     1       5.406  12.585  -6.080  1.00  0.00     0.049 A 
ATOM     58  H   UNL     1       4.453  10.709  -5.922  1.00  0.00     0.167 HD
ATOM     59  C   UNL     1       3.675  12.921  -4.337  1.00  0.00     0.074 A 
ATOM     60  C   UNL     1       2.979  13.727  -3.355  1.00  0.00     0.031 C 
ATOM     61  C   UNL     1       4.703  13.370  -5.098  1.00  0.00     0.031 A 
BRANCH  48  62
ATOM     62  C   UNL     1       7.051   9.113  -8.907  1.00  0.00    -0.014 A 
ATOM     63  C   UNL     1       6.686   8.863 -10.239  1.00  0.00     0.009 A 
ATOM     64  C   UNL     1       8.408   9.059  -8.553  1.00  0.00     0.009 A 
ATOM     65  C   UNL     1       7.657   8.535 -11.188  1.00  0.00     0.001 A 
ATOM     66  C   UNL     1       9.379   8.759  -9.509  1.00  0.00     0.001 A 
ATOM     67  C   UNL     1       9.002   8.489 -10.824  1.00  0.00     0.000 A 
ENDBRANCH  48  62
BRANCH  49  68
ATOM     68  C   UNL     1       0.144  10.953  -1.936  1.00  0.00    -0.014 A 
ATOM     69  C   UNL     1      -0.907  11.851  -2.173  1.00  0.00     0.009 A 
ATOM     70  C   UNL     1       0.244  10.344  -0.674  1.00  0.00     0.009 A 
ATOM     71  C   UNL     1      -1.821  12.154  -1.160  1.00  0.00     0.001 A 
ATOM     72  C   UNL     1      -0.688  10.626   0.326  1.00  0.00     0.001 A 
ATOM     73  C   UNL     1      -1.714  11.538   0.086  1.00  0.00     0.000 A 
ENDBRANCH  49  68
BRANCH  61  74
ATOM     74  C   UNL     1       5.114  14.806  -4.926  1.00  0.00    -0.014 A 
ATOM     75  C   UNL     1       5.797  15.238  -3.779  1.00  0.00     0.009 A 
ATOM     76  C   UNL     1       4.851  15.729  -5.951  1.00  0.00     0.009 A 
ATOM     77  C   UNL     1       6.180  16.574  -3.648  1.00  0.00     0.001 A 
ATOM     78  C   UNL     1       5.262  17.058  -5.830  1.00  0.00     0.001 A 
ATOM     79  C   UNL     1       5.916  17.481  -4.675  1.00  0.00     0.000 A 
ENDBRANCH  61  74
ENDBRANCH  35  36
ENDBRANCH  28  30
ENDBRANCH  27  28
ENDBRANCH  26  27
ENDBRANCH  25  26
ENDBRANCH  24  25
ENDBRANCH   1  24
TORSDOF 21
