REMARK SMILES O=C(OCCOCCOC(=O)[C@H]1CC2(CC[NH+](C(=O)C3CC3)CC2)CN1C(=O)CCn1cccn1)c1ccc(-c2c3nc(c(-c4ccccc4)c4ccc([nH]4)c(-c4ccccc4)c4nc(c(-c5ccccc5)c5ccc2[nH]5)C=C4)C=C3)cc1
REMARK SMILES IDX 7 1 6 2 5 3 4 4 3 5 2 6 1 7 36 8 37 9 83 10 38 11 82 12
REMARK SMILES IDX 39 13 40 14 41 15 76 16 42 17 81 18 75 19 77 20 43 21 80 22
REMARK SMILES IDX 74 23 73 24 44 26 66 27 51 28 65 29 52 30 55 31 64 32 78 33
REMARK SMILES IDX 53 34 54 35 63 37 79 38 56 39 45 40 46 41 50 42 47 43 49 44
REMARK SMILES IDX 48 45 67 46 68 47 72 48 69 49 71 50 70 51 57 52 58 53 62 54
REMARK SMILES IDX 59 55 61 56 60 57 8 58 9 59 10 60 11 61 12 62 13 63 26 64
REMARK SMILES IDX 14 65 25 66 15 67 24 68 16 69 23 70 17 71 27 73 28 74 29 75
REMARK SMILES IDX 30 76 31 77 32 78 35 79 33 80 34 81 18 82 19 83 20 84 21 85
REMARK SMILES IDX 22 86
REMARK H PARENT 77 25 55 36 17 72
REMARK Flexibility Score: inf
ROOT
ATOM      1  C   UNL     1       8.054   1.274   0.557  1.00  0.00     0.202 C 
ENDROOT
BRANCH   1   2
ATOM      2  O   UNL     1       7.438   2.261  -0.290  1.00  0.00    -0.374 OA
BRANCH   2   3
ATOM      3  C   UNL     1       6.005   2.283  -0.325  1.00  0.00     0.202 C 
BRANCH   3   4
ATOM      4  C   UNL     1       5.157   1.147  -0.923  1.00  0.00     0.261 C 
BRANCH   4   5
ATOM      5  O   UNL     1       5.717  -0.155  -0.818  1.00  0.00    -0.460 OA
BRANCH   5   6
ATOM      6  C   UNL     1       6.880  -0.541  -1.382  1.00  0.00     0.338 C 
ATOM      7  O   UNL     1       7.480  -1.504  -0.907  1.00  0.00    -0.246 OA
BRANCH   6   8
ATOM      8  C   UNL     1       7.412   0.097  -2.615  1.00  0.00     0.060 A 
ATOM      9  C   UNL     1       6.992   1.303  -3.188  1.00  0.00     0.016 A 
ATOM     10  C   UNL     1       8.388  -0.662  -3.275  1.00  0.00     0.016 A 
ATOM     11  C   UNL     1       7.309   1.605  -4.487  1.00  0.00     0.010 A 
ATOM     12  C   UNL     1       8.766  -0.337  -4.555  1.00  0.00     0.010 A 
ATOM     13  C   UNL     1       8.130   0.727  -5.175  1.00  0.00    -0.014 A 
BRANCH  13  14
ATOM     14  C   UNL     1       8.352   1.000  -6.569  1.00  0.00     0.031 A 
ATOM     15  C   UNL     1       9.043   2.292  -6.798  1.00  0.00     0.074 A 
ATOM     16  C   UNL     1       7.965   0.102  -7.492  1.00  0.00     0.049 A 
ATOM     17  N   UNL     1       8.573   3.337  -7.389  1.00  0.00    -0.248 NA
ATOM     18  C   UNL     1      10.328   2.518  -6.111  1.00  0.00     0.031 C 
ATOM     19  C   UNL     1       7.465  -1.264  -7.299  1.00  0.00     0.029 A 
ATOM     20  N   UNL     1       8.040   0.195  -8.836  1.00  0.00    -0.354 N 
ATOM     21  C   UNL     1       9.586   4.287  -7.338  1.00  0.00     0.074 A 
ATOM     22  C   UNL     1      10.564   3.797  -6.402  1.00  0.00     0.031 C 
ATOM     23  C   UNL     1       7.567  -1.944  -8.465  1.00  0.00     0.029 A 
ATOM     24  C   UNL     1       7.978  -1.018  -9.504  1.00  0.00     0.049 A 
ATOM     25  H   UNL     1       8.132   1.056  -9.305  1.00  0.00     0.167 HD
ATOM     26  C   UNL     1       9.667   5.271  -8.273  1.00  0.00     0.031 A 
ATOM     27  C   UNL     1       8.319  -1.225 -10.801  1.00  0.00     0.031 A 
ATOM     28  C   UNL     1       8.408   5.465  -8.944  1.00  0.00     0.049 A 
ATOM     29  C   UNL     1       8.311   0.105 -11.466  1.00  0.00     0.074 A 
ATOM     30  C   UNL     1       7.153   5.865  -8.529  1.00  0.00     0.029 A 
ATOM     31  N   UNL     1       8.225   4.806 -10.137  1.00  0.00    -0.354 N 
ATOM     32  N   UNL     1       7.221   0.801 -11.632  1.00  0.00    -0.248 NA
ATOM     33  C   UNL     1       9.549   0.874 -11.451  1.00  0.00     0.031 C 
ATOM     34  C   UNL     1       6.251   5.008  -9.223  1.00  0.00     0.029 A 
ATOM     35  C   UNL     1       6.990   4.209 -10.099  1.00  0.00     0.049 A 
ATOM     36  H   UNL     1       8.866   4.769 -10.884  1.00  0.00     0.167 HD
ATOM     37  C   UNL     1       7.577   2.103 -11.304  1.00  0.00     0.074 A 
ATOM     38  C   UNL     1       9.042   2.098 -11.265  1.00  0.00     0.031 C 
ATOM     39  C   UNL     1       6.664   2.980 -10.791  1.00  0.00     0.031 A 
BRANCH  26  40
ATOM     40  C   UNL     1      10.979   5.710  -8.867  1.00  0.00    -0.014 A 
ATOM     41  C   UNL     1      10.983   6.742  -9.818  1.00  0.00     0.009 A 
ATOM     42  C   UNL     1      12.162   4.953  -8.745  1.00  0.00     0.009 A 
ATOM     43  C   UNL     1      12.089   6.957 -10.649  1.00  0.00     0.001 A 
ATOM     44  C   UNL     1      13.279   5.186  -9.549  1.00  0.00     0.001 A 
ATOM     45  C   UNL     1      13.232   6.173 -10.521  1.00  0.00     0.000 A 
ENDBRANCH  26  40
BRANCH  27  46
ATOM     46  C   UNL     1       9.024  -2.396 -11.373  1.00  0.00    -0.014 A 
ATOM     47  C   UNL     1       9.045  -2.619 -12.758  1.00  0.00     0.009 A 
ATOM     48  C   UNL     1       9.914  -3.144 -10.578  1.00  0.00     0.009 A 
ATOM     49  C   UNL     1       9.945  -3.534 -13.328  1.00  0.00     0.001 A 
ATOM     50  C   UNL     1      10.813  -4.054 -11.146  1.00  0.00     0.001 A 
ATOM     51  C   UNL     1      10.837  -4.240 -12.524  1.00  0.00     0.000 A 
ENDBRANCH  27  46
BRANCH  39  52
ATOM     52  C   UNL     1       5.215   2.552 -10.744  1.00  0.00    -0.014 A 
ATOM     53  C   UNL     1       4.740   1.479  -9.965  1.00  0.00     0.009 A 
ATOM     54  C   UNL     1       4.273   3.376 -11.376  1.00  0.00     0.009 A 
ATOM     55  C   UNL     1       3.366   1.231  -9.847  1.00  0.00     0.001 A 
ATOM     56  C   UNL     1       2.904   3.140 -11.243  1.00  0.00     0.001 A 
ATOM     57  C   UNL     1       2.449   2.066 -10.483  1.00  0.00     0.000 A 
ENDBRANCH  39  52
ENDBRANCH  13  14
ENDBRANCH   6   8
ENDBRANCH   5   6
ENDBRANCH   4   5
ENDBRANCH   3   4
ENDBRANCH   2   3
ENDBRANCH   1   2
BRANCH   1  58
ATOM     58  C   UNL     1       8.827   1.754   1.804  1.00  0.00     0.261 C 
BRANCH  58  59
ATOM     59  O   UNL     1       8.094   2.419   3.095  1.00  0.00    -0.462 OA
BRANCH  59  60
ATOM     60  C   UNL     1       6.424   2.876   4.113  1.00  0.00     0.328 C 
ATOM     61  O   UNL     1       6.326   3.658   5.113  1.00  0.00    -0.250 OA
BRANCH  60  62
ATOM     62  C   UNL     1       4.844   2.324   3.671  1.00  0.00     0.195 C 
ATOM     63  C   UNL     1       4.415   1.527   4.918  1.00  0.00     0.046 C 
ATOM     64  N   UNL     1       3.828   3.374   3.552  1.00  0.00    -0.328 N 
ATOM     65  C   UNL     1       3.192   2.244   5.506  1.00  0.00     0.001 C 
ATOM     66  C   UNL     1       2.630   2.975   4.292  1.00  0.00     0.128 C 
ATOM     67  C   UNL     1       3.518   3.313   6.565  1.00  0.00     0.071 C 
ATOM     68  C   UNL     1       2.305   1.183   6.165  1.00  0.00     0.071 C 
ATOM     69  C   UNL     1       4.173   2.739   7.808  1.00  0.00     0.270 C 
ATOM     70  C   UNL     1       3.033   0.585   7.382  1.00  0.00     0.270 C 
ATOM     71  N   UNL     1       3.407   1.621   8.354  1.00  0.00    -0.272 N 
ATOM     72  H   UNL     1       3.881   2.426   8.665  1.00  0.00     0.356 HD
BRANCH  64  73
ATOM     73  C   UNL     1       3.809   4.463   2.724  1.00  0.00     0.225 C 
ATOM     74  O   UNL     1       2.821   5.208   2.707  1.00  0.00    -0.275 OA
BRANCH  73  75
ATOM     75  C   UNL     1       4.894   4.742   1.694  1.00  0.00     0.124 C 
BRANCH  75  76
ATOM     76  C   UNL     1       6.375   4.860   2.015  1.00  0.00     0.154 C 
BRANCH  76  77
ATOM     77  N   UNL     1       7.109   3.731   2.544  1.00  0.00    -0.272 N 
ATOM     78  C   UNL     1       8.206   3.939   4.046  1.00  0.00     0.108 A 
ATOM     79  N   UNL     1       6.545   1.918   2.472  1.00  0.00    -0.182 NA
ATOM     80  C   UNL     1       8.258   2.365   4.905  1.00  0.00     0.042 A 
ATOM     81  C   UNL     1       7.218   1.088   3.874  1.00  0.00     0.135 A 
ENDBRANCH  76  77
ENDBRANCH  75  76
ENDBRANCH  73  75
ENDBRANCH  64  73
BRANCH  71  82
ATOM     82  C   UNL     1       3.148   1.351   9.699  1.00  0.00     0.315 C 
ATOM     83  O   UNL     1       2.670   0.269  10.039  1.00  0.00    -0.231 OA
BRANCH  82  84
ATOM     84  C   UNL     1       3.360   2.326  10.812  1.00  0.00     0.119 C 
ATOM     85  C   UNL     1       4.390   3.406  10.962  1.00  0.00     0.019 C 
ATOM     86  C   UNL     1       2.951   3.772  10.693  1.00  0.00     0.019 C 
ENDBRANCH  82  84
ENDBRANCH  71  82
ENDBRANCH  60  62
ENDBRANCH  59  60
ENDBRANCH  58  59
ENDBRANCH   1  58
TORSDOF 20
