REMARK SMILES O=C(OCCOCCOC(=O)c1ccc(-c2c3nc(c(-c4ccccc4)c4ccc([nH]4)c(-c4ccccc4)c4nc(c(-c5ccccc5)c5ccc2[nH]5)C=C4)C=C3)cc1)C1=NN(c2ccc(S(=O)(=O)[O-])cc2)C(=O)/C1=C/Nc1ccccc1
REMARK SMILES IDX 6 1 5 2 4 3 3 4 2 5 1 6 60 7 61 8 75 9 62 10 73 11 76 12
REMARK SMILES IDX 74 13 63 14 64 15 72 16 65 17 71 18 66 19 67 20 68 21 69 22
REMARK SMILES IDX 70 23 77 24 78 26 79 27 83 28 80 29 82 30 81 31 7 32 8 33
REMARK SMILES IDX 9 34 10 35 11 36 12 37 13 38 59 39 14 40 58 41 15 42 16 43
REMARK SMILES IDX 17 44 52 45 18 46 57 47 51 48 53 49 19 50 56 51 50 52 49 53
REMARK SMILES IDX 20 55 42 56 27 57 41 58 28 59 31 60 40 61 54 62 29 63 30 64
REMARK SMILES IDX 39 66 55 67 32 68 21 69 22 70 26 71 23 72 25 73 24 74 43 75
REMARK SMILES IDX 44 76 48 77 45 78 47 79 46 80 33 81 34 82 38 83 35 84 37 85
REMARK SMILES IDX 36 86
REMARK H PARENT 77 25 53 54 31 65
REMARK Flexibility Score: inf
ROOT
ATOM      1  O   UNL     1       2.906  -1.147   0.025  1.00  0.00    -0.374 OA
ENDROOT
BRANCH   1   2
ATOM      2  C   UNL     1       3.700  -0.669   1.118  1.00  0.00     0.202 C 
BRANCH   2   3
ATOM      3  C   UNL     1       3.820   0.853   1.085  1.00  0.00     0.261 C 
BRANCH   3   4
ATOM      4  O   UNL     1       2.679   1.440   0.451  1.00  0.00    -0.458 OA
BRANCH   4   5
ATOM      5  C   UNL     1       2.470   1.155  -0.854  1.00  0.00     0.359 C 
ATOM      6  O   UNL     1       1.353   1.060  -1.345  1.00  0.00    -0.244 OA
BRANCH   5   7
ATOM      7  C   UNL     1       3.640   1.333  -1.777  1.00  0.00     0.183 C 
ATOM      8  N   UNL     1       3.840   2.575  -2.134  1.00  0.00    -0.157 NA
ATOM      9  C   UNL     1       4.471   0.369  -2.554  1.00  0.00     0.093 C 
ATOM     10  N   UNL     1       4.639   2.530  -3.242  1.00  0.00    -0.196 N 
ATOM     11  C   UNL     1       5.191   1.276  -3.505  1.00  0.00     0.282 C 
ATOM     12  C   UNL     1       4.737  -0.933  -2.766  1.00  0.00     0.099 C 
ATOM     13  O   UNL     1       5.999   0.944  -4.356  1.00  0.00    -0.267 OA
BRANCH  10  14
ATOM     14  C   UNL     1       4.359   3.521  -4.209  1.00  0.00     0.069 A 
ATOM     15  C   UNL     1       3.812   4.752  -3.809  1.00  0.00     0.030 A 
ATOM     16  C   UNL     1       4.439   3.223  -5.576  1.00  0.00     0.030 A 
ATOM     17  C   UNL     1       3.373   5.676  -4.755  1.00  0.00     0.021 A 
ATOM     18  C   UNL     1       3.980   4.131  -6.528  1.00  0.00     0.021 A 
ATOM     19  C   UNL     1       3.467   5.359  -6.111  1.00  0.00     0.054 A 
BRANCH  19  20
ATOM     20  S   UNL     1       2.935   6.553  -7.297  1.00  0.00     0.124 S 
ATOM     21  O   UNL     1       1.526   6.794  -7.087  1.00  0.00    -0.237 OA
ATOM     22  O   UNL     1       3.908   7.623  -7.295  1.00  0.00    -0.237 OA
ATOM     23  O   UNL     1       3.093   5.839  -8.735  1.00  0.00    -0.744 OA
ENDBRANCH  19  20
ENDBRANCH  10  14
BRANCH  12  24
ATOM     24  N   UNL     1       4.253  -2.115  -2.272  1.00  0.00    -0.361 N 
ATOM     25  H   UNL     1       3.389  -2.070  -1.800  1.00  0.00     0.166 HD
BRANCH  24  26
ATOM     26  C   UNL     1       4.862  -3.411  -2.363  1.00  0.00     0.038 A 
ATOM     27  C   UNL     1       4.006  -4.522  -2.499  1.00  0.00     0.026 A 
ATOM     28  C   UNL     1       6.160  -3.632  -1.873  1.00  0.00     0.026 A 
ATOM     29  C   UNL     1       4.390  -5.791  -2.046  1.00  0.00     0.002 A 
ATOM     30  C   UNL     1       6.546  -4.907  -1.428  1.00  0.00     0.002 A 
ATOM     31  C   UNL     1       5.651  -5.976  -1.484  1.00  0.00     0.000 A 
ENDBRANCH  24  26
ENDBRANCH  12  24
ENDBRANCH   5   7
ENDBRANCH   4   5
ENDBRANCH   3   4
ENDBRANCH   2   3
ENDBRANCH   1   2
BRANCH   1  32
ATOM     32  C   UNL     1       1.561  -1.535   0.358  1.00  0.00     0.202 C 
BRANCH  32  33
ATOM     33  C   UNL     1       1.349  -3.046   0.211  1.00  0.00     0.261 C 
BRANCH  33  34
ATOM     34  O   UNL     1       2.031  -3.778   1.242  1.00  0.00    -0.460 OA
BRANCH  34  35
ATOM     35  C   UNL     1       3.357  -3.831   1.012  1.00  0.00     0.338 C 
ATOM     36  O   UNL     1       3.937  -3.347   0.067  1.00  0.00    -0.246 OA
BRANCH  35  37
ATOM     37  C   UNL     1       4.158  -4.379   2.081  1.00  0.00     0.060 A 
ATOM     38  C   UNL     1       5.487  -3.920   2.144  1.00  0.00     0.016 A 
ATOM     39  C   UNL     1       3.652  -5.335   2.949  1.00  0.00     0.016 A 
ATOM     40  C   UNL     1       6.331  -4.425   3.099  1.00  0.00     0.010 A 
ATOM     41  C   UNL     1       4.494  -5.825   3.926  1.00  0.00     0.010 A 
ATOM     42  C   UNL     1       5.821  -5.363   3.994  1.00  0.00    -0.014 A 
BRANCH  42  43
ATOM     43  C   UNL     1       6.699  -5.872   5.040  1.00  0.00     0.031 A 
ATOM     44  C   UNL     1       7.234  -7.252   4.907  1.00  0.00     0.074 A 
ATOM     45  C   UNL     1       6.953  -5.059   6.075  1.00  0.00     0.049 A 
ATOM     46  N   UNL     1       7.907  -7.950   5.775  1.00  0.00    -0.248 NA
ATOM     47  C   UNL     1       6.963  -7.947   3.635  1.00  0.00     0.031 C 
ATOM     48  C   UNL     1       6.468  -3.679   6.207  1.00  0.00     0.029 A 
ATOM     49  N   UNL     1       7.669  -5.274   7.213  1.00  0.00    -0.354 N 
ATOM     50  C   UNL     1       8.125  -9.177   5.168  1.00  0.00     0.074 A 
ATOM     51  C   UNL     1       7.493  -9.139   3.868  1.00  0.00     0.031 C 
ATOM     52  C   UNL     1       6.898  -3.175   7.372  1.00  0.00     0.029 A 
ATOM     53  C   UNL     1       7.631  -4.213   8.080  1.00  0.00     0.049 A 
ATOM     54  H   UNL     1       8.162  -6.106   7.394  1.00  0.00     0.167 HD
ATOM     55  C   UNL     1       8.798 -10.233   5.674  1.00  0.00     0.031 A 
ATOM     56  C   UNL     1       8.110  -4.125   9.331  1.00  0.00     0.031 A 
ATOM     57  C   UNL     1       9.380 -10.221   6.989  1.00  0.00     0.049 A 
ATOM     58  C   UNL     1       8.811  -5.331   9.881  1.00  0.00     0.074 A 
ATOM     59  C   UNL     1      10.067 -11.223   7.644  1.00  0.00     0.029 A 
ATOM     60  N   UNL     1       9.335  -9.130   7.851  1.00  0.00    -0.354 N 
ATOM     61  N   UNL     1       9.006  -6.500   9.314  1.00  0.00    -0.248 NA
ATOM     62  C   UNL     1       9.366  -5.206  11.229  1.00  0.00     0.031 C 
ATOM     63  C   UNL     1      10.401 -10.751   8.919  1.00  0.00     0.029 A 
ATOM     64  C   UNL     1       9.975  -9.435   9.037  1.00  0.00     0.049 A 
ATOM     65  H   UNL     1       8.909  -8.266   7.646  1.00  0.00     0.167 HD
ATOM     66  C   UNL     1       9.723  -7.250  10.231  1.00  0.00     0.074 A 
ATOM     67  C   UNL     1       9.951  -6.386  11.377  1.00  0.00     0.031 C 
ATOM     68  C   UNL     1      10.155  -8.534  10.149  1.00  0.00     0.031 A 
BRANCH  55  69
ATOM     69  C   UNL     1       8.889 -11.463   4.820  1.00  0.00    -0.014 A 
ATOM     70  C   UNL     1       9.659 -11.482   3.645  1.00  0.00     0.009 A 
ATOM     71  C   UNL     1       8.183 -12.620   5.183  1.00  0.00     0.009 A 
ATOM     72  C   UNL     1       9.696 -12.621   2.838  1.00  0.00     0.001 A 
ATOM     73  C   UNL     1       8.243 -13.767   4.389  1.00  0.00     0.001 A 
ATOM     74  C   UNL     1       8.992 -13.764   3.213  1.00  0.00     0.000 A 
ENDBRANCH  55  69
BRANCH  56  75
ATOM     75  C   UNL     1       7.915  -2.883  10.117  1.00  0.00    -0.014 A 
ATOM     76  C   UNL     1       9.004  -2.060  10.438  1.00  0.00     0.009 A 
ATOM     77  C   UNL     1       6.628  -2.493  10.525  1.00  0.00     0.009 A 
ATOM     78  C   UNL     1       8.813  -0.890  11.177  1.00  0.00     0.001 A 
ATOM     79  C   UNL     1       6.436  -1.306  11.235  1.00  0.00     0.001 A 
ATOM     80  C   UNL     1       7.530  -0.511  11.570  1.00  0.00     0.000 A 
ENDBRANCH  56  75
BRANCH  68  81
ATOM     81  C   UNL     1      10.931  -9.040  11.328  1.00  0.00    -0.014 A 
ATOM     82  C   UNL     1      10.300  -9.305  12.554  1.00  0.00     0.009 A 
ATOM     83  C   UNL     1      12.312  -9.254  11.204  1.00  0.00     0.009 A 
ATOM     84  C   UNL     1      11.051  -9.725  13.650  1.00  0.00     0.001 A 
ATOM     85  C   UNL     1      13.053  -9.709  12.293  1.00  0.00     0.001 A 
ATOM     86  C   UNL     1      12.425  -9.930  13.518  1.00  0.00     0.000 A 
ENDBRANCH  68  81
ENDBRANCH  42  43
ENDBRANCH  35  37
ENDBRANCH  34  35
ENDBRANCH  33  34
ENDBRANCH  32  33
ENDBRANCH   1  32
TORSDOF 18
