REMARK SMILES O=C(CSc1ccc2ccccc2n1)NCc1ccc(C(=O)OCCOCCOC(=O)c2ccc(-c3c4nc(c(-c5ccccc5)c5ccc([nH]5)c(-c5ccccc5)c5nc(c(-c6ccccc6)c6ccc3[nH]6)C=C5)C=C4)cc2)cc1
REMARK SMILES IDX 24 1 23 2 21 3 22 4 20 5 17 6 18 7 81 8 19 9 80 10 16 11
REMARK SMILES IDX 15 12 1 13 2 14 3 16 4 17 5 18 6 19 14 20 7 21 13 22 8 23
REMARK SMILES IDX 12 24 9 25 11 26 10 27 25 28 26 29 27 30 28 31 29 32 30 33
REMARK SMILES IDX 31 34 32 35 33 36 79 37 34 38 78 39 35 40 36 41 37 42 72 43
REMARK SMILES IDX 38 44 77 45 71 46 73 47 39 48 76 49 70 50 69 51 40 53 62 54
REMARK SMILES IDX 47 55 61 56 48 57 51 58 60 59 74 60 49 61 50 62 59 64 75 65
REMARK SMILES IDX 52 66 41 67 42 68 46 69 43 70 45 71 44 72 63 73 64 74 68 75
REMARK SMILES IDX 65 76 67 77 66 78 53 79 54 80 58 81 55 82 57 83 56 84
REMARK H PARENT 15 15 73 52 51 63
REMARK Flexibility Score: inf
ROOT
ATOM      1  C   UNL     1       4.785   2.336   8.741  1.00  0.00     0.261 C 
ENDROOT
BRANCH   1   2
ATOM      2  O   UNL     1       4.390   2.601   7.385  1.00  0.00    -0.460 OA
BRANCH   2   3
ATOM      3  C   UNL     1       4.735   1.637   6.498  1.00  0.00     0.338 C 
ATOM      4  O   UNL     1       5.451   0.669   6.712  1.00  0.00    -0.246 OA
BRANCH   3   5
ATOM      5  C   UNL     1       4.010   1.815   5.221  1.00  0.00     0.060 A 
ATOM      6  C   UNL     1       2.760   1.988   2.710  1.00  0.00    -0.029 A 
ATOM      7  C   UNL     1       2.994   0.740   3.307  1.00  0.00     0.006 A 
ATOM      8  C   UNL     1       3.090   3.151   3.425  1.00  0.00     0.006 A 
ATOM      9  C   UNL     1       3.631   0.653   4.542  1.00  0.00     0.016 A 
ATOM     10  C   UNL     1       3.710   3.069   4.679  1.00  0.00     0.016 A 
BRANCH   6  11
ATOM     11  C   UNL     1       2.145   2.065   1.332  1.00  0.00     0.151 C 
BRANCH  11  12
ATOM     12  N   UNL     1       2.751   1.095   0.443  1.00  0.00    -0.351 N 
ATOM     13  O   UNL     1       0.793   0.127  -0.240  1.00  0.00    -0.274 OA
ATOM     14  C   UNL     1       2.019   0.180  -0.284  1.00  0.00     0.230 C 
ATOM     15  H   UNL     1       3.731   1.089   0.354  1.00  0.00     0.163 HD
BRANCH  14  16
ATOM     16  C   UNL     1       2.849  -0.846  -1.044  1.00  0.00     0.176 C 
BRANCH  16  17
ATOM     17  S   UNL     1       4.203  -0.068  -1.980  1.00  0.00    -0.096 SA
BRANCH  17  18
ATOM     18  C   UNL     1       3.224   0.855  -3.147  1.00  0.00     0.097 A 
ATOM     19  C   UNL     1       3.401   2.226  -3.244  1.00  0.00     0.036 A 
ATOM     20  N   UNL     1       2.361   0.160  -3.917  1.00  0.00    -0.241 NA
ATOM     21  C   UNL     1       2.641   2.924  -4.174  1.00  0.00     0.013 A 
ATOM     22  C   UNL     1       1.635   0.835  -4.828  1.00  0.00     0.072 A 
ATOM     23  C   UNL     1       1.742   2.233  -4.993  1.00  0.00     0.000 A 
ATOM     24  C   UNL     1       0.751   0.149  -5.650  1.00  0.00     0.029 A 
ATOM     25  C   UNL     1       0.969   2.898  -5.960  1.00  0.00     0.010 A 
ATOM     26  C   UNL     1      -0.016   0.806  -6.619  1.00  0.00     0.002 A 
ATOM     27  C   UNL     1       0.093   2.183  -6.773  1.00  0.00     0.001 A 
ENDBRANCH  17  18
ENDBRANCH  16  17
ENDBRANCH  14  16
ENDBRANCH  11  12
ENDBRANCH   6  11
ENDBRANCH   3   5
ENDBRANCH   2   3
ENDBRANCH   1   2
BRANCH   1  28
ATOM     28  C   UNL     1       3.569   2.072   9.635  1.00  0.00     0.202 C 
BRANCH  28  29
ATOM     29  O   UNL     1       2.783   0.929   9.300  1.00  0.00    -0.374 OA
BRANCH  29  30
ATOM     30  C   UNL     1       1.819   1.092   8.257  1.00  0.00     0.202 C 
BRANCH  30  31
ATOM     31  C   UNL     1       0.504   1.768   8.664  1.00  0.00     0.261 C 
BRANCH  31  32
ATOM     32  O   UNL     1       0.703   3.153   9.007  1.00  0.00    -0.460 OA
BRANCH  32  33
ATOM     33  C   UNL     1       0.521   3.445  10.315  1.00  0.00     0.338 C 
ATOM     34  O   UNL     1       0.105   2.698  11.191  1.00  0.00    -0.246 OA
BRANCH  33  35
ATOM     35  C   UNL     1       1.064   4.781  10.620  1.00  0.00     0.060 A 
ATOM     36  C   UNL     1       1.928   4.885  11.717  1.00  0.00     0.016 A 
ATOM     37  C   UNL     1       0.681   5.922   9.909  1.00  0.00     0.016 A 
ATOM     38  C   UNL     1       2.358   6.136  12.151  1.00  0.00     0.010 A 
ATOM     39  C   UNL     1       1.111   7.179  10.349  1.00  0.00     0.010 A 
ATOM     40  C   UNL     1       1.914   7.294  11.498  1.00  0.00    -0.014 A 
BRANCH  40  41
ATOM     41  C   UNL     1       2.163   8.612  12.131  1.00  0.00     0.031 A 
ATOM     42  C   UNL     1       1.074   9.243  12.955  1.00  0.00     0.074 A 
ATOM     43  C   UNL     1       3.364   9.209  12.033  1.00  0.00     0.049 A 
ATOM     44  N   UNL     1       1.094  10.357  13.643  1.00  0.00    -0.248 NA
ATOM     45  C   UNL     1      -0.208   8.521  13.015  1.00  0.00     0.031 C 
ATOM     46  C   UNL     1       4.513   8.685  11.297  1.00  0.00     0.029 A 
ATOM     47  N   UNL     1       3.814  10.389  12.570  1.00  0.00    -0.354 N 
ATOM     48  C   UNL     1      -0.167  10.468  14.217  1.00  0.00     0.074 A 
ATOM     49  C   UNL     1      -0.939   9.329  13.768  1.00  0.00     0.031 C 
ATOM     50  C   UNL     1       5.543   9.540  11.434  1.00  0.00     0.029 A 
ATOM     51  C   UNL     1       5.117  10.677  12.248  1.00  0.00     0.049 A 
ATOM     52  H   UNL     1       3.256  10.973  13.132  1.00  0.00     0.167 HD
ATOM     53  C   UNL     1      -0.640  11.424  15.051  1.00  0.00     0.031 A 
ATOM     54  C   UNL     1       5.879  11.740  12.570  1.00  0.00     0.031 A 
ATOM     55  C   UNL     1       0.117  12.565  15.491  1.00  0.00     0.049 A 
ATOM     56  C   UNL     1       5.308  12.824  13.445  1.00  0.00     0.074 A 
ATOM     57  C   UNL     1      -0.272  13.581  16.347  1.00  0.00     0.029 A 
ATOM     58  N   UNL     1       1.417  12.845  15.102  1.00  0.00    -0.354 N 
ATOM     59  N   UNL     1       4.126  12.899  14.006  1.00  0.00    -0.248 NA
ATOM     60  C   UNL     1       6.188  13.964  13.740  1.00  0.00     0.031 C 
ATOM     61  C   UNL     1       0.776  14.503  16.436  1.00  0.00     0.029 A 
ATOM     62  C   UNL     1       1.837  14.032  15.678  1.00  0.00     0.049 A 
ATOM     63  H   UNL     1       1.961  12.284  14.504  1.00  0.00     0.167 HD
ATOM     64  C   UNL     1       4.128  14.079  14.739  1.00  0.00     0.074 A 
ATOM     65  C   UNL     1       5.436  14.678  14.566  1.00  0.00     0.031 C 
ATOM     66  C   UNL     1       3.137  14.620  15.489  1.00  0.00     0.031 A 
BRANCH  53  67
ATOM     67  C   UNL     1      -2.062  11.286  15.518  1.00  0.00    -0.014 A 
ATOM     68  C   UNL     1      -2.429  10.306  16.454  1.00  0.00     0.009 A 
ATOM     69  C   UNL     1      -3.043  12.164  15.032  1.00  0.00     0.009 A 
ATOM     70  C   UNL     1      -3.758  10.187  16.867  1.00  0.00     0.001 A 
ATOM     71  C   UNL     1      -4.365  12.059  15.466  1.00  0.00     0.001 A 
ATOM     72  C   UNL     1      -4.724  11.065  16.376  1.00  0.00     0.000 A 
ENDBRANCH  53  67
BRANCH  54  73
ATOM     73  C   UNL     1       7.269  11.843  12.056  1.00  0.00    -0.014 A 
ATOM     74  C   UNL     1       8.365  11.713  12.922  1.00  0.00     0.009 A 
ATOM     75  C   UNL     1       7.504  12.098  10.696  1.00  0.00     0.009 A 
ATOM     76  C   UNL     1       9.668  11.863  12.441  1.00  0.00     0.001 A 
ATOM     77  C   UNL     1       8.809  12.221  10.213  1.00  0.00     0.001 A 
ATOM     78  C   UNL     1       9.889  12.113  11.087  1.00  0.00     0.000 A 
ENDBRANCH  54  73
BRANCH  66  79
ATOM     79  C   UNL     1       3.441  15.910  16.199  1.00  0.00    -0.014 A 
ATOM     80  C   UNL     1       3.558  17.119  15.495  1.00  0.00     0.009 A 
ATOM     81  C   UNL     1       3.589  15.919  17.595  1.00  0.00     0.009 A 
ATOM     82  C   UNL     1       3.858  18.304  16.171  1.00  0.00     0.001 A 
ATOM     83  C   UNL     1       3.860  17.110  18.271  1.00  0.00     0.001 A 
ATOM     84  C   UNL     1       4.005  18.298  17.558  1.00  0.00     0.000 A 
ENDBRANCH  66  79
ENDBRANCH  40  41
ENDBRANCH  33  35
ENDBRANCH  32  33
ENDBRANCH  31  32
ENDBRANCH  30  31
ENDBRANCH  29  30
ENDBRANCH  28  29
ENDBRANCH   1  28
TORSDOF 19
