REMARK SMILES CC(C)c1noc(C[N@@H+]2[C@@H](C(=O)OCCOCCOC(=O)c3ccc(-c4c5nc(c(-c6ccccc6)c6ccc([nH]6)c(-c6ccccc6)c6nc(c(-c7ccccc7)c7ccc4[nH]7)C=C6)C=C5)cc3)C[C@H]3CCCC[C@@H]32)n1
REMARK SMILES IDX 15 1 14 2 13 3 11 4 12 5 10 6 9 7 76 8 70 10 71 11 75 12
REMARK SMILES IDX 72 13 74 14 73 15 8 16 7 17 4 18 5 19 77 20 6 21 2 22 1 23
REMARK SMILES IDX 3 24 16 25 17 26 18 27 19 28 20 29 21 30 22 31 23 32 69 33
REMARK SMILES IDX 24 34 68 35 25 36 26 37 27 38 62 39 28 40 67 41 61 42 63 43
REMARK SMILES IDX 29 44 66 45 60 46 59 47 30 49 52 50 37 51 51 52 38 53 41 54
REMARK SMILES IDX 50 55 64 56 39 57 40 58 49 60 65 61 42 62 31 63 32 64 36 65
REMARK SMILES IDX 33 66 35 67 34 68 53 69 54 70 58 71 55 72 57 73 56 74 43 75
REMARK SMILES IDX 44 76 48 77 45 78 47 79 46 80
REMARK H PARENT 9 9 63 48 41 59
REMARK Flexibility Score: inf
ROOT
ATOM      1  C   UNL     1      -9.800   1.210   3.342  1.00  0.00     0.202 C 
ENDROOT
BRANCH   1   2
ATOM      2  C   UNL     1      -8.751   1.989   4.136  1.00  0.00     0.261 C 
BRANCH   2   3
ATOM      3  O   UNL     1      -7.535   2.120   3.383  1.00  0.00    -0.459 OA
BRANCH   3   4
ATOM      4  C   UNL     1      -6.460   1.471   3.914  1.00  0.00     0.365 C 
ATOM      5  O   UNL     1      -6.441   0.961   5.028  1.00  0.00    -0.245 OA
BRANCH   4   6
ATOM      6  C   UNL     1      -5.272   1.480   2.924  1.00  0.00     0.296 C 
ATOM      7  N   UNL     1      -4.816   0.076   2.682  1.00  0.00    -0.313 N 
ATOM      8  C   UNL     1      -3.868  -0.182   3.776  1.00  0.00     0.188 C 
ATOM      9  H   UNL     1      -5.579  -0.600   2.714  1.00  0.00     0.349 HD
ATOM     10  C   UNL     1      -4.117   2.220   3.611  1.00  0.00     0.087 C 
ATOM     11  C   UNL     1      -3.103   1.132   3.935  1.00  0.00     0.054 C 
ATOM     12  C   UNL     1      -2.913  -1.373   3.788  1.00  0.00     0.065 C 
ATOM     13  C   UNL     1      -2.437   1.180   5.299  1.00  0.00     0.010 C 
ATOM     14  C   UNL     1      -2.097  -1.354   5.093  1.00  0.00     0.006 C 
ATOM     15  C   UNL     1      -1.453   0.007   5.402  1.00  0.00     0.001 C 
BRANCH   7  16
ATOM     16  C   UNL     1      -4.361  -0.204   1.305  1.00  0.00     0.364 C 
BRANCH  16  17
ATOM     17  C   UNL     1      -3.089   0.425   0.847  1.00  0.00     0.281 A 
ATOM     18  C   UNL     1      -1.111   1.060   0.585  1.00  0.00     0.174 A 
ATOM     19  N   UNL     1      -1.829   2.110   0.160  1.00  0.00    -0.062 NA
ATOM     20  N   UNL     1      -1.859  -0.025   0.957  1.00  0.00    -0.191 NA
ATOM     21  O   UNL     1      -3.153   1.688   0.334  1.00  0.00    -0.333 OA
BRANCH  18  22
ATOM     22  C   UNL     1       0.370   1.063   0.786  1.00  0.00     0.055 C 
ATOM     23  C   UNL     1       1.065   0.090  -0.166  1.00  0.00     0.016 C 
ATOM     24  C   UNL     1       1.003   2.451   0.695  1.00  0.00     0.016 C 
ENDBRANCH  18  22
ENDBRANCH  16  17
ENDBRANCH   7  16
ENDBRANCH   4   6
ENDBRANCH   3   4
ENDBRANCH   2   3
ENDBRANCH   1   2
BRANCH   1  25
ATOM     25  O   UNL     1      -9.484  -0.149   3.047  1.00  0.00    -0.374 OA
BRANCH  25  26
ATOM     26  C   UNL     1      -8.572  -0.399   1.976  1.00  0.00     0.202 C 
BRANCH  26  27
ATOM     27  C   UNL     1      -9.143  -0.275   0.559  1.00  0.00     0.261 C 
BRANCH  27  28
ATOM     28  O   UNL     1      -9.475   1.088   0.229  1.00  0.00    -0.460 OA
BRANCH  28  29
ATOM     29  C   UNL     1     -10.798   1.334   0.094  1.00  0.00     0.338 C 
ATOM     30  O   UNL     1     -11.713   0.521   0.137  1.00  0.00    -0.246 OA
BRANCH  29  31
ATOM     31  C   UNL     1     -11.046   2.787   0.060  1.00  0.00     0.060 A 
ATOM     32  C   UNL     1     -11.970   3.307   0.976  1.00  0.00     0.016 A 
ATOM     33  C   UNL     1     -10.455   3.612  -0.898  1.00  0.00     0.016 A 
ATOM     34  C   UNL     1     -12.349   4.645   0.903  1.00  0.00     0.010 A 
ATOM     35  C   UNL     1     -10.845   4.954  -0.977  1.00  0.00     0.010 A 
ATOM     36  C   UNL     1     -11.821   5.466  -0.102  1.00  0.00    -0.014 A 
BRANCH  36  37
ATOM     37  C   UNL     1     -12.406   6.809  -0.328  1.00  0.00     0.031 A 
ATOM     38  C   UNL     1     -13.439   6.980  -1.410  1.00  0.00     0.074 A 
ATOM     39  C   UNL     1     -12.046   7.857   0.434  1.00  0.00     0.049 A 
ATOM     40  N   UNL     1     -14.066   8.064  -1.792  1.00  0.00    -0.248 NA
ATOM     41  C   UNL     1     -13.815   5.771  -2.161  1.00  0.00     0.031 C 
ATOM     42  C   UNL     1     -11.086   7.814   1.537  1.00  0.00     0.029 A 
ATOM     43  N   UNL     1     -12.446   9.169   0.386  1.00  0.00    -0.354 N 
ATOM     44  C   UNL     1     -14.895   7.671  -2.835  1.00  0.00     0.074 A 
ATOM     45  C   UNL     1     -14.683   6.255  -3.038  1.00  0.00     0.031 C 
ATOM     46  C   UNL     1     -10.963   9.049   2.054  1.00  0.00     0.029 A 
ATOM     47  C   UNL     1     -11.811   9.971   1.302  1.00  0.00     0.049 A 
ATOM     48  H   UNL     1     -13.124   9.503  -0.245  1.00  0.00     0.167 HD
ATOM     49  C   UNL     1     -15.758   8.422  -3.559  1.00  0.00     0.031 A 
ATOM     50  C   UNL     1     -11.890  11.302   1.495  1.00  0.00     0.031 A 
ATOM     51  C   UNL     1     -15.977   9.828  -3.356  1.00  0.00     0.049 A 
ATOM     52  C   UNL     1     -12.816  12.122   0.636  1.00  0.00     0.074 A 
ATOM     53  C   UNL     1     -16.865  10.664  -4.012  1.00  0.00     0.029 A 
ATOM     54  N   UNL     1     -15.298  10.607  -2.434  1.00  0.00    -0.354 N 
ATOM     55  N   UNL     1     -13.632  11.728  -0.311  1.00  0.00    -0.248 NA
ATOM     56  C   UNL     1     -12.835  13.572   0.879  1.00  0.00     0.031 C 
ATOM     57  C   UNL     1     -16.683  11.961  -3.523  1.00  0.00     0.029 A 
ATOM     58  C   UNL     1     -15.721  11.921  -2.527  1.00  0.00     0.049 A 
ATOM     59  H   UNL     1     -14.616  10.275  -1.806  1.00  0.00     0.167 HD
ATOM     60  C   UNL     1     -14.282  12.874  -0.753  1.00  0.00     0.074 A 
ATOM     61  C   UNL     1     -13.776  13.976   0.038  1.00  0.00     0.031 C 
ATOM     62  C   UNL     1     -15.215  13.004  -1.727  1.00  0.00     0.031 A 
BRANCH  49  63
ATOM     63  C   UNL     1     -16.512   7.747  -4.668  1.00  0.00    -0.014 A 
ATOM     64  C   UNL     1     -17.590   6.890  -4.402  1.00  0.00     0.009 A 
ATOM     65  C   UNL     1     -16.177   8.029  -6.002  1.00  0.00     0.009 A 
ATOM     66  C   UNL     1     -18.308   6.314  -5.453  1.00  0.00     0.001 A 
ATOM     67  C   UNL     1     -16.910   7.469  -7.049  1.00  0.00     0.001 A 
ATOM     68  C   UNL     1     -17.971   6.609  -6.774  1.00  0.00     0.000 A 
ENDBRANCH  49  63
BRANCH  50  69
ATOM     69  C   UNL     1     -11.045  11.964   2.524  1.00  0.00    -0.014 A 
ATOM     70  C   UNL     1     -11.622  12.537   3.668  1.00  0.00     0.009 A 
ATOM     71  C   UNL     1      -9.658  12.070   2.338  1.00  0.00     0.009 A 
ATOM     72  C   UNL     1     -10.831  13.234   4.585  1.00  0.00     0.001 A 
ATOM     73  C   UNL     1      -8.866  12.742   3.272  1.00  0.00     0.001 A 
ATOM     74  C   UNL     1      -9.455  13.334   4.387  1.00  0.00     0.000 A 
ENDBRANCH  50  69
BRANCH  62  75
ATOM     75  C   UNL     1     -15.781  14.375  -1.963  1.00  0.00    -0.014 A 
ATOM     76  C   UNL     1     -15.029  15.374  -2.600  1.00  0.00     0.009 A 
ATOM     77  C   UNL     1     -17.102  14.655  -1.581  1.00  0.00     0.009 A 
ATOM     78  C   UNL     1     -15.581  16.637  -2.822  1.00  0.00     0.001 A 
ATOM     79  C   UNL     1     -17.660  15.910  -1.829  1.00  0.00     0.001 A 
ATOM     80  C   UNL     1     -16.896  16.903  -2.441  1.00  0.00     0.000 A 
ENDBRANCH  62  75
ENDBRANCH  36  37
ENDBRANCH  29  31
ENDBRANCH  28  29
ENDBRANCH  27  28
ENDBRANCH  26  27
ENDBRANCH  25  26
ENDBRANCH   1  25
TORSDOF 17
