REMARK SMILES Nc1ccc(-c2cc(O)ccc2Cl)c(C(=O)OCCOCCOC(=O)c2ccc(-c3c4nc(c(-c5ccccc5)c5ccc([nH]5)c(-c5ccccc5)c5nc(c(-c6ccccc6)c6ccc3[nH]6)C=C5)C=C4)cc2)n1
REMARK SMILES IDX 20 1 19 2 18 3 17 4 15 5 16 6 14 7 2 8 3 9 74 10 4 11 5 12
REMARK SMILES IDX 1 13 6 16 7 17 12 18 8 19 11 20 13 21 10 22 9 23 21 25 22 26
REMARK SMILES IDX 23 27 24 28 25 29 26 30 27 31 73 32 28 33 72 34 29 35 30 36
REMARK SMILES IDX 31 37 66 38 32 39 71 40 65 41 67 42 33 43 70 44 64 45 63 46
REMARK SMILES IDX 34 48 56 49 41 50 55 51 42 52 45 53 54 54 68 55 43 56 44 57
REMARK SMILES IDX 53 59 69 60 46 61 35 62 36 63 40 64 37 65 39 66 38 67 57 68
REMARK SMILES IDX 58 69 62 70 59 71 61 72 60 73 47 74 48 75 52 76 49 77 51 78
REMARK SMILES IDX 50 79
REMARK H PARENT 1 14 1 15 9 24 67 47 45 58
REMARK Flexibility Score: inf
ROOT
ATOM      1  O   UNL     1      -1.683   4.944   1.618  1.00  0.00    -0.374 OA
ENDROOT
BRANCH   1   2
ATOM      2  C   UNL     1      -2.908   4.877   0.887  1.00  0.00     0.202 C 
BRANCH   2   3
ATOM      3  C   UNL     1      -2.813   4.269  -0.513  1.00  0.00     0.261 C 
BRANCH   3   4
ATOM      4  O   UNL     1      -2.527   2.864  -0.422  1.00  0.00    -0.458 OA
BRANCH   4   5
ATOM      5  C   UNL     1      -1.475   2.437  -1.167  1.00  0.00     0.357 C 
ATOM      6  O   UNL     1      -0.866   3.103  -1.992  1.00  0.00    -0.244 OA
BRANCH   5   7
ATOM      7  C   UNL     1      -1.054   1.067  -0.736  1.00  0.00     0.158 A 
ATOM      8  C   UNL     1       0.831  -0.191  -0.206  1.00  0.00     0.124 A 
ATOM      9  C   UNL     1       0.051  -1.304   0.037  1.00  0.00     0.047 A 
ATOM     10  N   UNL     1       0.303   0.976  -0.585  1.00  0.00    -0.224 NA
ATOM     11  C   UNL     1      -1.333  -1.204  -0.107  1.00  0.00     0.015 A 
ATOM     12  C   UNL     1      -1.940   0.009  -0.482  1.00  0.00     0.017 A 
BRANCH   8  13
ATOM     13  N   UNL     1       2.191  -0.207   0.015  1.00  0.00    -0.384 N 
ATOM     14  H   UNL     1       2.634  -1.040   0.296  1.00  0.00     0.158 HD
ATOM     15  H   UNL     1       2.720   0.614  -0.109  1.00  0.00     0.158 HD
ENDBRANCH   8  13
BRANCH  12  16
ATOM     16  C   UNL     1      -3.417   0.088  -0.516  1.00  0.00     0.006 A 
ATOM     17  C   UNL     1      -4.132  -0.241   0.660  1.00  0.00     0.056 A 
ATOM     18  C   UNL     1      -4.170   0.459  -1.648  1.00  0.00     0.049 A 
ATOM     19  C   UNL     1      -5.523  -0.184   0.696  1.00  0.00     0.116 A 
ATOM     20  C   UNL     1      -5.567   0.561  -1.583  1.00  0.00     0.025 A 
ATOM     21  Cl  UNL     1      -3.436   0.751  -3.186  1.00  0.00    -0.084 Cl
ATOM     22  C   UNL     1      -6.244   0.242  -0.407  1.00  0.00     0.048 A 
BRANCH  19  23
ATOM     23  O   UNL     1      -6.219  -0.559   1.806  1.00  0.00    -0.508 OA
ATOM     24  H   UNL     1      -5.761  -0.852   2.569  1.00  0.00     0.293 HD
ENDBRANCH  19  23
ENDBRANCH  12  16
ENDBRANCH   5   7
ENDBRANCH   4   5
ENDBRANCH   3   4
ENDBRANCH   2   3
ENDBRANCH   1   2
BRANCH   1  25
ATOM     25  C   UNL     1      -1.170   3.727   2.159  1.00  0.00     0.202 C 
BRANCH  25  26
ATOM     26  C   UNL     1      -1.812   3.252   3.468  1.00  0.00     0.261 C 
BRANCH  26  27
ATOM     27  O   UNL     1      -3.207   2.925   3.317  1.00  0.00    -0.460 OA
BRANCH  27  28
ATOM     28  C   UNL     1      -4.059   3.801   3.901  1.00  0.00     0.338 C 
ATOM     29  O   UNL     1      -3.771   4.777   4.582  1.00  0.00    -0.246 OA
BRANCH  28  30
ATOM     30  C   UNL     1      -5.446   3.515   3.498  1.00  0.00     0.060 A 
ATOM     31  C   UNL     1      -6.197   4.564   2.953  1.00  0.00     0.016 A 
ATOM     32  C   UNL     1      -6.034   2.272   3.736  1.00  0.00     0.016 A 
ATOM     33  C   UNL     1      -7.553   4.385   2.683  1.00  0.00     0.010 A 
ATOM     34  C   UNL     1      -7.396   2.096   3.470  1.00  0.00     0.010 A 
ATOM     35  C   UNL     1      -8.169   3.161   2.975  1.00  0.00    -0.014 A 
BRANCH  35  36
ATOM     36  C   UNL     1      -9.644   3.038   2.888  1.00  0.00     0.031 A 
ATOM     37  C   UNL     1     -10.466   3.159   4.142  1.00  0.00     0.074 A 
ATOM     38  C   UNL     1     -10.250   2.843   1.704  1.00  0.00     0.049 A 
ATOM     39  N   UNL     1     -11.763   3.071   4.296  1.00  0.00    -0.248 NA
ATOM     40  C   UNL     1      -9.726   3.413   5.389  1.00  0.00     0.031 C 
ATOM     41  C   UNL     1      -9.573   2.749   0.412  1.00  0.00     0.029 A 
ATOM     42  N   UNL     1     -11.580   2.689   1.403  1.00  0.00    -0.354 N 
ATOM     43  C   UNL     1     -11.994   3.252   5.654  1.00  0.00     0.074 A 
ATOM     44  C   UNL     1     -10.704   3.428   6.284  1.00  0.00     0.031 C 
ATOM     45  C   UNL     1     -10.494   2.549  -0.547  1.00  0.00     0.029 A 
ATOM     46  C   UNL     1     -11.818   2.472   0.069  1.00  0.00     0.049 A 
ATOM     47  H   UNL     1     -12.294   2.729   2.079  1.00  0.00     0.167 HD
ATOM     48  C   UNL     1     -13.175   3.277   6.317  1.00  0.00     0.031 A 
ATOM     49  C   UNL     1     -12.972   2.225  -0.580  1.00  0.00     0.031 A 
ATOM     50  C   UNL     1     -14.460   3.091   5.697  1.00  0.00     0.049 A 
ATOM     51  C   UNL     1     -14.264   2.180   0.190  1.00  0.00     0.074 A 
ATOM     52  C   UNL     1     -15.713   3.122   6.284  1.00  0.00     0.029 A 
ATOM     53  N   UNL     1     -14.654   2.830   4.351  1.00  0.00    -0.354 N 
ATOM     54  N   UNL     1     -14.472   2.384   1.468  1.00  0.00    -0.248 NA
ATOM     55  C   UNL     1     -15.481   1.876  -0.577  1.00  0.00     0.031 C 
ATOM     56  C   UNL     1     -16.663   2.827   5.301  1.00  0.00     0.029 A 
ATOM     57  C   UNL     1     -16.005   2.666   4.092  1.00  0.00     0.049 A 
ATOM     58  H   UNL     1     -13.938   2.769   3.678  1.00  0.00     0.167 HD
ATOM     59  C   UNL     1     -15.844   2.260   1.654  1.00  0.00     0.074 A 
ATOM     60  C   UNL     1     -16.419   1.974   0.356  1.00  0.00     0.031 C 
ATOM     61  C   UNL     1     -16.563   2.377   2.797  1.00  0.00     0.031 A 
BRANCH  48  62
ATOM     62  C   UNL     1     -13.124   3.479   7.805  1.00  0.00    -0.014 A 
ATOM     63  C   UNL     1     -12.810   4.729   8.361  1.00  0.00     0.009 A 
ATOM     64  C   UNL     1     -13.421   2.408   8.662  1.00  0.00     0.009 A 
ATOM     65  C   UNL     1     -12.761   4.893   9.747  1.00  0.00     0.001 A 
ATOM     66  C   UNL     1     -13.397   2.582  10.047  1.00  0.00     0.001 A 
ATOM     67  C   UNL     1     -13.058   3.821  10.588  1.00  0.00     0.000 A 
ENDBRANCH  48  62
BRANCH  49  68
ATOM     68  C   UNL     1     -12.961   1.986  -2.046  1.00  0.00    -0.014 A 
ATOM     69  C   UNL     1     -13.492   2.939  -2.929  1.00  0.00     0.009 A 
ATOM     70  C   UNL     1     -12.431   0.796  -2.568  1.00  0.00     0.009 A 
ATOM     71  C   UNL     1     -13.509   2.694  -4.304  1.00  0.00     0.001 A 
ATOM     72  C   UNL     1     -12.428   0.565  -3.945  1.00  0.00     0.001 A 
ATOM     73  C   UNL     1     -12.974   1.511  -4.811  1.00  0.00     0.000 A 
ENDBRANCH  49  68
BRANCH  61  74
ATOM     74  C   UNL     1     -18.055   2.228   2.692  1.00  0.00    -0.014 A 
ATOM     75  C   UNL     1     -18.649   0.972   2.493  1.00  0.00     0.009 A 
ATOM     76  C   UNL     1     -18.878   3.356   2.835  1.00  0.00     0.009 A 
ATOM     77  C   UNL     1     -20.038   0.855   2.411  1.00  0.00     0.001 A 
ATOM     78  C   UNL     1     -20.267   3.232   2.778  1.00  0.00     0.001 A 
ATOM     79  C   UNL     1     -20.845   1.983   2.558  1.00  0.00     0.000 A 
ENDBRANCH  61  74
ENDBRANCH  35  36
ENDBRANCH  28  30
ENDBRANCH  27  28
ENDBRANCH  26  27
ENDBRANCH  25  26
ENDBRANCH   1  25
TORSDOF 17
