REMARK SMILES CCc1cc(C(=O)c2[nH]c3cc(Cl)ccc3c2CC(=O)OCCOCCOC(=O)c2ccc(-c3c4nc(c(-c5ccccc5)c5ccc([nH]5)c(-c5ccccc5)c5nc(c(-c6ccccc6)c6ccc3[nH]6)C=C5)C=C4)cc2)ncc1Cl
REMARK SMILES IDX 23 1 22 2 21 3 19 4 20 5 18 6 17 7 8 8 9 9 10 10 16 12 11 13
REMARK SMILES IDX 15 14 12 15 14 16 13 17 6 18 7 19 5 20 3 21 4 22 80 23 79 24
REMARK SMILES IDX 81 25 78 26 2 27 1 28 24 29 25 30 26 31 27 32 28 33 29 34
REMARK SMILES IDX 30 35 31 36 77 37 32 38 76 39 33 40 34 41 35 42 70 43 36 44
REMARK SMILES IDX 75 45 69 46 71 47 37 48 74 49 68 50 67 51 38 53 60 54 45 55
REMARK SMILES IDX 59 56 46 57 49 58 58 59 72 60 47 61 48 62 57 64 73 65 50 66
REMARK SMILES IDX 39 67 40 68 44 69 41 70 43 71 42 72 61 73 62 74 66 75 63 76
REMARK SMILES IDX 65 77 64 78 51 79 52 80 56 81 53 82 55 83 54 84
REMARK H PARENT 9 11 71 52 49 63
REMARK Flexibility Score: inf
ROOT
ATOM      1  C   UNL     1       5.674  -6.270   5.833  1.00  0.00     0.202 C 
ENDROOT
BRANCH   1   2
ATOM      2  C   UNL     1       6.842  -5.367   5.422  1.00  0.00     0.261 C 
BRANCH   2   3
ATOM      3  O   UNL     1       6.400  -4.174   4.734  1.00  0.00    -0.463 OA
BRANCH   3   4
ATOM      4  C   UNL     1       7.148  -3.827   3.653  1.00  0.00     0.310 C 
ATOM      5  O   UNL     1       8.187  -4.401   3.329  1.00  0.00    -0.252 OA
BRANCH   4   6
ATOM      6  C   UNL     1       6.661  -2.624   2.874  1.00  0.00     0.161 C 
BRANCH   6   7
ATOM      7  C   UNL     1       5.338  -1.999   3.234  1.00  0.00     0.000 A 
ATOM      8  C   UNL     1       4.077  -2.322   2.721  1.00  0.00     0.093 A 
ATOM      9  N   UNL     1       3.172  -1.494   3.352  1.00  0.00    -0.351 N 
ATOM     10  C   UNL     1       3.822  -0.480   4.010  1.00  0.00     0.048 A 
ATOM     11  H   UNL     1       2.195  -1.615   3.332  1.00  0.00     0.167 HD
ATOM     12  C   UNL     1       5.179  -0.789   3.992  1.00  0.00     0.004 A 
ATOM     13  C   UNL     1       3.314   0.685   4.602  1.00  0.00     0.047 A 
ATOM     14  C   UNL     1       6.080   0.107   4.605  1.00  0.00     0.012 A 
ATOM     15  C   UNL     1       4.236   1.573   5.163  1.00  0.00     0.043 A 
ATOM     16  C   UNL     1       5.598   1.293   5.173  1.00  0.00     0.021 A 
ATOM     17  Cl  UNL     1       3.672   3.056   5.835  1.00  0.00    -0.084 Cl
BRANCH   8  18
ATOM     18  C   UNL     1       3.747  -3.334   1.721  1.00  0.00     0.227 C 
ATOM     19  O   UNL     1       4.533  -4.224   1.406  1.00  0.00    -0.285 OA
BRANCH  18  20
ATOM     20  C   UNL     1       2.432  -3.291   1.005  1.00  0.00     0.113 A 
ATOM     21  C   UNL     1       0.757  -2.112  -0.289  1.00  0.00    -0.026 A 
ATOM     22  C   UNL     1       1.946  -2.099   0.464  1.00  0.00     0.037 A 
ATOM     23  C   UNL     1       0.143  -3.358  -0.505  1.00  0.00     0.062 A 
ATOM     24  C   UNL     1       0.696  -4.492   0.081  1.00  0.00     0.132 A 
ATOM     25  Cl  UNL     1      -1.254  -3.548  -1.497  1.00  0.00    -0.082 Cl
ATOM     26  N   UNL     1       1.812  -4.485   0.845  1.00  0.00    -0.251 NA
BRANCH  21  27
ATOM     27  C   UNL     1       0.204  -0.852  -0.923  1.00  0.00     0.034 C 
ATOM     28  C   UNL     1       0.622   0.468  -0.282  1.00  0.00     0.009 C 
ENDBRANCH  21  27
ENDBRANCH  18  20
ENDBRANCH   8  18
ENDBRANCH   6   7
ENDBRANCH   4   6
ENDBRANCH   3   4
ENDBRANCH   2   3
ENDBRANCH   1   2
BRANCH   1  29
ATOM     29  O   UNL     1       4.987  -6.947   4.778  1.00  0.00    -0.374 OA
BRANCH  29  30
ATOM     30  C   UNL     1       4.239  -6.131   3.877  1.00  0.00     0.202 C 
BRANCH  30  31
ATOM     31  C   UNL     1       2.849  -5.707   4.365  1.00  0.00     0.261 C 
BRANCH  31  32
ATOM     32  O   UNL     1       2.892  -5.038   5.637  1.00  0.00    -0.460 OA
BRANCH  32  33
ATOM     33  C   UNL     1       2.317  -5.730   6.647  1.00  0.00     0.338 C 
ATOM     34  O   UNL     1       1.638  -6.745   6.566  1.00  0.00    -0.246 OA
BRANCH  33  35
ATOM     35  C   UNL     1       2.737  -5.183   7.947  1.00  0.00     0.060 A 
ATOM     36  C   UNL     1       3.310  -6.077   8.861  1.00  0.00     0.016 A 
ATOM     37  C   UNL     1       2.499  -3.853   8.304  1.00  0.00     0.016 A 
ATOM     38  C   UNL     1       3.590  -5.660  10.158  1.00  0.00     0.010 A 
ATOM     39  C   UNL     1       2.775  -3.438   9.611  1.00  0.00     0.010 A 
ATOM     40  C   UNL     1       3.281  -4.352  10.553  1.00  0.00    -0.014 A 
BRANCH  40  41
ATOM     41  C   UNL     1       3.349  -4.003  11.991  1.00  0.00     0.031 A 
ATOM     42  C   UNL     1       2.089  -4.052  12.811  1.00  0.00     0.074 A 
ATOM     43  C   UNL     1       4.526  -3.708  12.568  1.00  0.00     0.049 A 
ATOM     44  N   UNL     1       1.924  -3.835  14.091  1.00  0.00    -0.248 NA
ATOM     45  C   UNL     1       0.851  -4.396  12.093  1.00  0.00     0.031 C 
ATOM     46  C   UNL     1       5.817  -3.668  11.882  1.00  0.00     0.029 A 
ATOM     47  N   UNL     1       4.825  -3.394  13.869  1.00  0.00    -0.354 N 
ATOM     48  C   UNL     1       0.568  -4.015  14.331  1.00  0.00     0.074 A 
ATOM     49  C   UNL     1      -0.051  -4.326  13.061  1.00  0.00     0.031 C 
ATOM     50  C   UNL     1       6.773  -3.351  12.772  1.00  0.00     0.029 A 
ATOM     51  C   UNL     1       6.158  -3.144  14.081  1.00  0.00     0.049 A 
ATOM     52  H   UNL     1       4.148  -3.352  14.583  1.00  0.00     0.167 HD
ATOM     53  C   UNL     1      -0.102  -3.937  15.505  1.00  0.00     0.031 A 
ATOM     54  C   UNL     1       6.805  -2.782  15.205  1.00  0.00     0.031 A 
ATOM     55  C   UNL     1       0.513  -3.611  16.763  1.00  0.00     0.049 A 
ATOM     56  C   UNL     1       6.028  -2.637  16.485  1.00  0.00     0.074 A 
ATOM     57  C   UNL     1      -0.074  -3.515  18.013  1.00  0.00     0.029 A 
ATOM     58  N   UNL     1       1.859  -3.321  16.928  1.00  0.00    -0.354 N 
ATOM     59  N   UNL     1       4.751  -2.841  16.705  1.00  0.00    -0.248 NA
ATOM     60  C   UNL     1       6.785  -2.223  17.676  1.00  0.00     0.031 C 
ATOM     61  C   UNL     1       0.909  -3.116  18.925  1.00  0.00     0.029 A 
ATOM     62  C   UNL     1       2.117  -3.018  18.254  1.00  0.00     0.049 A 
ATOM     63  H   UNL     1       2.531  -3.328  16.209  1.00  0.00     0.167 HD
ATOM     64  C   UNL     1       4.556  -2.604  18.060  1.00  0.00     0.074 A 
ATOM     65  C   UNL     1       5.848  -2.256  18.614  1.00  0.00     0.031 C 
ATOM     66  C   UNL     1       3.411  -2.671  18.782  1.00  0.00     0.031 A 
BRANCH  53  67
ATOM     67  C   UNL     1      -1.585  -4.177  15.471  1.00  0.00    -0.014 A 
ATOM     68  C   UNL     1      -2.112  -5.463  15.264  1.00  0.00     0.009 A 
ATOM     69  C   UNL     1      -2.470  -3.105  15.668  1.00  0.00     0.009 A 
ATOM     70  C   UNL     1      -3.494  -5.662  15.222  1.00  0.00     0.001 A 
ATOM     71  C   UNL     1      -3.850  -3.312  15.651  1.00  0.00     0.001 A 
ATOM     72  C   UNL     1      -4.361  -4.588  15.418  1.00  0.00     0.000 A 
ENDBRANCH  53  67
BRANCH  54  73
ATOM     73  C   UNL     1       8.268  -2.524  15.170  1.00  0.00    -0.014 A 
ATOM     74  C   UNL     1       9.167  -3.397  15.802  1.00  0.00     0.009 A 
ATOM     75  C   UNL     1       8.773  -1.395  14.506  1.00  0.00     0.009 A 
ATOM     76  C   UNL     1      10.539  -3.132  15.787  1.00  0.00     0.001 A 
ATOM     77  C   UNL     1      10.147  -1.147  14.470  1.00  0.00     0.001 A 
ATOM     78  C   UNL     1      11.028  -2.011  15.117  1.00  0.00     0.000 A 
ENDBRANCH  54  73
BRANCH  66  79
ATOM     79  C   UNL     1       3.511  -2.390  20.255  1.00  0.00    -0.014 A 
ATOM     80  C   UNL     1       3.701  -1.085  20.735  1.00  0.00     0.009 A 
ATOM     81  C   UNL     1       3.370  -3.442  21.173  1.00  0.00     0.009 A 
ATOM     82  C   UNL     1       3.780  -0.845  22.108  1.00  0.00     0.001 A 
ATOM     83  C   UNL     1       3.421  -3.194  22.546  1.00  0.00     0.001 A 
ATOM     84  C   UNL     1       3.635  -1.898  23.012  1.00  0.00     0.000 A 
ENDBRANCH  66  79
ENDBRANCH  40  41
ENDBRANCH  33  35
ENDBRANCH  32  33
ENDBRANCH  31  32
ENDBRANCH  30  31
ENDBRANCH  29  30
ENDBRANCH   1  29
TORSDOF 18
