REMARK SMILES O=C(C[C@H]1CCCCO1)N[C@@H](C(=O)OCCOCCOC(=O)c1ccc(-c2c3nc(c(-c4ccccc4)c4ccc([nH]4)c(-c4ccccc4)c4nc(c(-c5ccccc5)c5ccc2[nH]5)C=C4)C=C3)cc1)C1CCCCC1
REMARK SMILES IDX 16 1 15 2 14 3 12 4 13 5 11 6 10 7 1 8 2 9 3 11 4 12 5 13
REMARK SMILES IDX 9 14 6 15 8 16 7 17 71 18 72 19 76 20 73 21 75 22 74 23
REMARK SMILES IDX 17 24 18 25 19 26 20 27 21 28 22 29 23 30 24 31 70 32 25 33
REMARK SMILES IDX 69 34 26 35 27 36 28 37 63 38 29 39 68 40 62 41 64 42 30 43
REMARK SMILES IDX 67 44 61 45 60 46 31 48 53 49 38 50 52 51 39 52 42 53 51 54
REMARK SMILES IDX 65 55 40 56 41 57 50 59 66 60 43 61 32 62 33 63 37 64 34 65
REMARK SMILES IDX 36 66 35 67 54 68 55 69 59 70 56 71 58 72 57 73 44 74 45 75
REMARK SMILES IDX 49 76 46 77 48 78 47 79
REMARK H PARENT 10 10 64 47 42 58
REMARK Flexibility Score: inf
ROOT
ATOM      1  C   UNL     1       9.666   5.951   0.902  1.00  0.00     0.202 C 
ENDROOT
BRANCH   1   2
ATOM      2  C   UNL     1       9.992   4.808   1.869  1.00  0.00     0.261 C 
BRANCH   2   3
ATOM      3  O   UNL     1       8.853   3.970   2.108  1.00  0.00    -0.462 OA
BRANCH   3   4
ATOM      4  C   UNL     1       8.639   3.651   3.417  1.00  0.00     0.329 C 
ATOM      5  O   UNL     1       9.449   3.858   4.315  1.00  0.00    -0.250 OA
BRANCH   4   6
ATOM      6  C   UNL     1       7.208   3.144   3.682  1.00  0.00     0.195 C 
BRANCH   6   7
ATOM      7  N   UNL     1       6.505   2.669   2.484  1.00  0.00    -0.342 N 
ATOM      8  O   UNL     1       6.822   0.425   2.811  1.00  0.00    -0.275 OA
ATOM      9  C   UNL     1       6.319   1.347   2.179  1.00  0.00     0.223 C 
ATOM     10  H   UNL     1       6.144   3.342   1.862  1.00  0.00     0.164 HD
BRANCH   9  11
ATOM     11  C   UNL     1       5.420   1.115   0.978  1.00  0.00     0.132 C 
BRANCH  11  12
ATOM     12  C   UNL     1       4.019   1.721   1.144  1.00  0.00     0.127 C 
ATOM     13  C   UNL     1       3.281   1.165   2.370  1.00  0.00     0.033 C 
ATOM     14  O   UNL     1       4.137   3.155   1.203  1.00  0.00    -0.378 OA
ATOM     15  C   UNL     1       1.944   1.870   2.578  1.00  0.00     0.005 C 
ATOM     16  C   UNL     1       2.870   3.808   1.304  1.00  0.00     0.160 C 
ATOM     17  C   UNL     1       2.136   3.380   2.567  1.00  0.00     0.029 C 
ENDBRANCH  11  12
ENDBRANCH   9  11
ENDBRANCH   6   7
BRANCH   6  18
ATOM     18  C   UNL     1       6.282   4.182   4.397  1.00  0.00     0.023 C 
ATOM     19  C   UNL     1       5.494   3.470   5.516  1.00  0.00     0.006 C 
ATOM     20  C   UNL     1       6.976   5.444   4.941  1.00  0.00     0.006 C 
ATOM     21  C   UNL     1       4.556   4.405   6.273  1.00  0.00     0.000 C 
ATOM     22  C   UNL     1       5.998   6.367   5.670  1.00  0.00     0.000 C 
ATOM     23  C   UNL     1       5.291   5.631   6.800  1.00  0.00     0.000 C 
ENDBRANCH   6  18
ENDBRANCH   4   6
ENDBRANCH   3   4
ENDBRANCH   2   3
ENDBRANCH   1   2
BRANCH   1  24
ATOM     24  O   UNL     1       8.518   6.740   1.204  1.00  0.00    -0.374 OA
BRANCH  24  25
ATOM     25  C   UNL     1       7.232   6.152   0.997  1.00  0.00     0.202 C 
BRANCH  25  26
ATOM     26  C   UNL     1       6.830   5.822  -0.447  1.00  0.00     0.261 C 
BRANCH  26  27
ATOM     27  O   UNL     1       7.616   4.754  -1.012  1.00  0.00    -0.460 OA
BRANCH  27  28
ATOM     28  C   UNL     1       8.279   5.068  -2.151  1.00  0.00     0.338 C 
ATOM     29  O   UNL     1       8.232   6.122  -2.773  1.00  0.00    -0.246 OA
BRANCH  28  30
ATOM     30  C   UNL     1       9.241   4.006  -2.483  1.00  0.00     0.060 A 
ATOM     31  C   UNL     1      10.606   4.325  -2.488  1.00  0.00     0.016 A 
ATOM     32  C   UNL     1       8.806   2.738  -2.870  1.00  0.00     0.016 A 
ATOM     33  C   UNL     1      11.544   3.377  -2.894  1.00  0.00     0.010 A 
ATOM     34  C   UNL     1       9.747   1.794  -3.292  1.00  0.00     0.010 A 
ATOM     35  C   UNL     1      11.117   2.114  -3.323  1.00  0.00    -0.014 A 
BRANCH  35  36
ATOM     36  C   UNL     1      12.088   1.151  -3.894  1.00  0.00     0.031 A 
ATOM     37  C   UNL     1      12.224   1.034  -5.385  1.00  0.00     0.074 A 
ATOM     38  C   UNL     1      12.834   0.378  -3.085  1.00  0.00     0.049 A 
ATOM     39  N   UNL     1      12.941   0.195  -6.087  1.00  0.00    -0.248 NA
ATOM     40  C   UNL     1      11.449   1.991  -6.192  1.00  0.00     0.031 C 
ATOM     41  C   UNL     1      12.831   0.432  -1.624  1.00  0.00     0.029 A 
ATOM     42  N   UNL     1      13.729  -0.619  -3.385  1.00  0.00    -0.354 N 
ATOM     43  C   UNL     1      12.698   0.514  -7.417  1.00  0.00     0.074 A 
ATOM     44  C   UNL     1      11.755   1.611  -7.425  1.00  0.00     0.031 C 
ATOM     45  C   UNL     1      13.671  -0.505  -1.153  1.00  0.00     0.029 A 
ATOM     46  C   UNL     1      14.236  -1.250  -2.276  1.00  0.00     0.049 A 
ATOM     47  H   UNL     1      13.982  -0.858  -4.306  1.00  0.00     0.167 HD
ATOM     48  C   UNL     1      13.215  -0.058  -8.531  1.00  0.00     0.031 A 
ATOM     49  C   UNL     1      15.035  -2.329  -2.178  1.00  0.00     0.031 A 
ATOM     50  C   UNL     1      14.138  -1.161  -8.523  1.00  0.00     0.049 A 
ATOM     51  C   UNL     1      15.508  -3.015  -3.430  1.00  0.00     0.074 A 
ATOM     52  C   UNL     1      14.736  -1.792  -9.600  1.00  0.00     0.029 A 
ATOM     53  N   UNL     1      14.585  -1.805  -7.381  1.00  0.00    -0.354 N 
ATOM     54  N   UNL     1      15.294  -2.689  -4.682  1.00  0.00    -0.248 NA
ATOM     55  C   UNL     1      16.327  -4.224  -3.255  1.00  0.00     0.031 C 
ATOM     56  C   UNL     1      15.499  -2.858  -9.111  1.00  0.00     0.029 A 
ATOM     57  C   UNL     1      15.418  -2.855  -7.728  1.00  0.00     0.049 A 
ATOM     58  H   UNL     1      14.346  -1.554  -6.459  1.00  0.00     0.167 HD
ATOM     59  C   UNL     1      15.964  -3.640  -5.442  1.00  0.00     0.074 A 
ATOM     60  C   UNL     1      16.605  -4.546  -4.511  1.00  0.00     0.031 C 
ATOM     61  C   UNL     1      16.041  -3.753  -6.790  1.00  0.00     0.031 A 
BRANCH  48  62
ATOM     62  C   UNL     1      12.758   0.477  -9.858  1.00  0.00    -0.014 A 
ATOM     63  C   UNL     1      13.199   1.721 -10.335  1.00  0.00     0.009 A 
ATOM     64  C   UNL     1      11.905  -0.296 -10.662  1.00  0.00     0.009 A 
ATOM     65  C   UNL     1      12.771   2.193 -11.578  1.00  0.00     0.001 A 
ATOM     66  C   UNL     1      11.498   0.167 -11.914  1.00  0.00     0.001 A 
ATOM     67  C   UNL     1      11.924   1.414 -12.367  1.00  0.00     0.000 A 
ENDBRANCH  48  62
BRANCH  49  68
ATOM     68  C   UNL     1      15.402  -2.863  -0.840  1.00  0.00    -0.014 A 
ATOM     69  C   UNL     1      16.718  -2.765  -0.366  1.00  0.00     0.009 A 
ATOM     70  C   UNL     1      14.435  -3.490  -0.037  1.00  0.00     0.009 A 
ATOM     71  C   UNL     1      17.063  -3.300   0.877  1.00  0.00     0.001 A 
ATOM     72  C   UNL     1      14.777  -4.000   1.217  1.00  0.00     0.001 A 
ATOM     73  C   UNL     1      16.092  -3.912   1.669  1.00  0.00     0.000 A 
ENDBRANCH  49  68
BRANCH  61  74
ATOM     74  C   UNL     1      16.857  -4.886  -7.343  1.00  0.00    -0.014 A 
ATOM     75  C   UNL     1      16.378  -6.204  -7.315  1.00  0.00     0.009 A 
ATOM     76  C   UNL     1      18.095  -4.623  -7.951  1.00  0.00     0.009 A 
ATOM     77  C   UNL     1      17.133  -7.241  -7.867  1.00  0.00     0.001 A 
ATOM     78  C   UNL     1      18.836  -5.658  -8.524  1.00  0.00     0.001 A 
ATOM     79  C   UNL     1      18.357  -6.966  -8.476  1.00  0.00     0.000 A 
ENDBRANCH  61  74
ENDBRANCH  35  36
ENDBRANCH  28  30
ENDBRANCH  27  28
ENDBRANCH  26  27
ENDBRANCH  25  26
ENDBRANCH  24  25
ENDBRANCH   1  24
TORSDOF 18
