REMARK SMILES Cc1cc(O[C@@H]2C[C@H](C)C[C@H](C)C2)cc(C(=O)OCCOCCOC(=O)c2ccc(-c3c4nc(c(-c5ccccc5)c5ccc([nH]5)c(-c5ccccc5)c5nc(c(-c6ccccc6)c6ccc3[nH]6)C=C5)C=C4)cc2)c1N
REMARK SMILES IDX 21 1 20 2 19 3 18 4 16 5 17 6 15 7 1 8 2 9 3 10 75 11 4 12
REMARK SMILES IDX 14 13 76 14 5 17 6 18 13 19 7 20 11 21 8 22 12 23 10 24 9 25
REMARK SMILES IDX 22 26 23 27 24 28 25 29 26 30 27 31 28 32 74 33 29 34 73 35
REMARK SMILES IDX 30 36 31 37 32 38 67 39 33 40 72 41 66 42 68 43 34 44 71 45
REMARK SMILES IDX 65 46 64 47 35 49 57 50 42 51 56 52 43 53 46 54 55 55 69 56
REMARK SMILES IDX 44 57 45 58 54 60 70 61 47 62 36 63 37 64 41 65 38 66 40 67
REMARK SMILES IDX 39 68 58 69 59 70 63 71 60 72 62 73 61 74 48 75 49 76 53 77
REMARK SMILES IDX 50 78 52 79 51 80
REMARK H PARENT 76 15 76 16 68 48 46 59
REMARK Flexibility Score: inf
ROOT
ATOM      1  O   UNL     1       0.209  -4.981  -1.169  1.00  0.00    -0.374 OA
ENDROOT
BRANCH   1   2
ATOM      2  C   UNL     1      -0.968  -5.592  -0.648  1.00  0.00     0.202 C 
BRANCH   2   3
ATOM      3  C   UNL     1      -1.431  -5.153   0.743  1.00  0.00     0.261 C 
BRANCH   3   4
ATOM      4  O   UNL     1      -1.627  -3.731   0.815  1.00  0.00    -0.460 OA
BRANCH   4   5
ATOM      5  C   UNL     1      -0.581  -3.098   1.396  1.00  0.00     0.340 C 
ATOM      6  O   UNL     1       0.364  -3.655   1.941  1.00  0.00    -0.246 OA
BRANCH   5   7
ATOM      7  C   UNL     1      -0.604  -1.626   1.222  1.00  0.00     0.086 A 
ATOM      8  C   UNL     1       1.972   1.161   1.116  1.00  0.00     0.047 C 
ATOM      9  C   UNL     1       0.711   0.377   1.353  1.00  0.00    -0.024 A 
ATOM     10  C   UNL     1      -0.470   1.059   1.663  1.00  0.00     0.052 A 
ATOM     11  C   UNL     1       0.659  -1.000   1.145  1.00  0.00     0.049 A 
ATOM     12  C   UNL     1      -1.669   0.541   1.207  1.00  0.00     0.120 A 
ATOM     13  C   UNL     1      -1.778  -0.851   1.132  1.00  0.00     0.064 A 
BRANCH  11  14
ATOM     14  N   UNL     1       1.778  -1.682   0.651  1.00  0.00    -0.398 N 
ATOM     15  H   UNL     1       2.651  -1.229   0.606  1.00  0.00     0.156 HD
ATOM     16  H   UNL     1       1.692  -2.616   0.350  1.00  0.00     0.156 HD
ENDBRANCH  11  14
BRANCH  12  17
ATOM     17  O   UNL     1      -2.674   1.328   0.680  1.00  0.00    -0.490 OA
BRANCH  17  18
ATOM     18  C   UNL     1      -2.388   2.697   0.214  1.00  0.00     0.173 C 
ATOM     19  C   UNL     1      -0.994   3.024  -0.315  1.00  0.00     0.048 C 
ATOM     20  C   UNL     1      -3.385   3.130  -0.929  1.00  0.00     0.048 C 
ATOM     21  C   UNL     1      -0.700   2.379  -1.669  1.00  0.00    -0.010 C 
ATOM     22  C   UNL     1      -2.796   3.624  -2.329  1.00  0.00    -0.010 C 
ATOM     23  C   UNL     1      -1.245   0.975  -1.966  1.00  0.00     0.008 C 
ATOM     24  C   UNL     1      -1.302   3.361  -2.643  1.00  0.00     0.007 C 
ATOM     25  C   UNL     1      -3.644   3.138  -3.514  1.00  0.00     0.008 C 
ENDBRANCH  17  18
ENDBRANCH  12  17
ENDBRANCH   5   7
ENDBRANCH   4   5
ENDBRANCH   3   4
ENDBRANCH   2   3
ENDBRANCH   1   2
BRANCH   1  26
ATOM     26  C   UNL     1       0.050  -3.716  -1.822  1.00  0.00     0.202 C 
BRANCH  26  27
ATOM     27  C   UNL     1      -0.555  -3.736  -3.233  1.00  0.00     0.261 C 
BRANCH  27  28
ATOM     28  O   UNL     1      -1.961  -4.055  -3.209  1.00  0.00    -0.460 OA
BRANCH  28  29
ATOM     29  C   UNL     1      -2.285  -5.281  -3.676  1.00  0.00     0.338 C 
ATOM     30  O   UNL     1      -1.537  -6.098  -4.204  1.00  0.00    -0.246 OA
BRANCH  29  31
ATOM     31  C   UNL     1      -3.656  -5.621  -3.257  1.00  0.00     0.060 A 
ATOM     32  C   UNL     1      -3.847  -6.823  -2.559  1.00  0.00     0.016 A 
ATOM     33  C   UNL     1      -4.742  -4.804  -3.573  1.00  0.00     0.016 A 
ATOM     34  C   UNL     1      -5.131  -7.236  -2.216  1.00  0.00     0.010 A 
ATOM     35  C   UNL     1      -6.033  -5.228  -3.240  1.00  0.00     0.010 A 
ATOM     36  C   UNL     1      -6.234  -6.461  -2.593  1.00  0.00    -0.014 A 
BRANCH  36  37
ATOM     37  C   UNL     1      -7.601  -7.016  -2.452  1.00  0.00     0.031 A 
ATOM     38  C   UNL     1      -8.281  -7.585  -3.667  1.00  0.00     0.074 A 
ATOM     39  C   UNL     1      -8.216  -7.040  -1.257  1.00  0.00     0.049 A 
ATOM     40  N   UNL     1      -9.485  -8.082  -3.787  1.00  0.00    -0.248 NA
ATOM     41  C   UNL     1      -7.497  -7.594  -4.914  1.00  0.00     0.031 C 
ATOM     42  C   UNL     1      -7.643  -6.565   0.001  1.00  0.00     0.029 A 
ATOM     43  N   UNL     1      -9.469  -7.481  -0.913  1.00  0.00    -0.354 N 
ATOM     44  C   UNL     1      -9.608  -8.451  -5.121  1.00  0.00     0.074 A 
ATOM     45  C   UNL     1      -8.369  -8.093  -5.777  1.00  0.00     0.031 C 
ATOM     46  C   UNL     1      -8.548  -6.732   0.981  1.00  0.00     0.029 A 
ATOM     47  C   UNL     1      -9.773  -7.289   0.412  1.00  0.00     0.049 A 
ATOM     48  H   UNL     1     -10.090  -7.896  -1.555  1.00  0.00     0.167 HD
ATOM     49  C   UNL     1     -10.655  -9.043  -5.742  1.00  0.00     0.031 A 
ATOM     50  C   UNL     1     -10.920  -7.514   1.082  1.00  0.00     0.031 A 
ATOM     51  C   UNL     1     -11.892  -9.384  -5.092  1.00  0.00     0.049 A 
ATOM     52  C   UNL     1     -12.101  -8.093   0.349  1.00  0.00     0.074 A 
ATOM     53  C   UNL     1     -13.011  -9.994  -5.633  1.00  0.00     0.029 A 
ATOM     54  N   UNL     1     -12.175  -9.138  -3.757  1.00  0.00    -0.354 N 
ATOM     55  N   UNL     1     -12.199  -8.458  -0.907  1.00  0.00    -0.248 NA
ATOM     56  C   UNL     1     -13.329  -8.298   1.131  1.00  0.00     0.031 C 
ATOM     57  C   UNL     1     -13.993 -10.060  -4.640  1.00  0.00     0.029 A 
ATOM     58  C   UNL     1     -13.461  -9.557  -3.463  1.00  0.00     0.049 A 
ATOM     59  H   UNL     1     -11.553  -8.726  -3.114  1.00  0.00     0.167 HD
ATOM     60  C   UNL     1     -13.485  -8.964  -1.057  1.00  0.00     0.074 A 
ATOM     61  C   UNL     1     -14.123  -8.874   0.240  1.00  0.00     0.031 C 
ATOM     62  C   UNL     1     -14.083  -9.460  -2.168  1.00  0.00     0.031 A 
BRANCH  49  63
ATOM     63  C   UNL     1     -10.519  -9.325  -7.213  1.00  0.00    -0.014 A 
ATOM     64  C   UNL     1      -9.654 -10.323  -7.689  1.00  0.00     0.009 A 
ATOM     65  C   UNL     1     -11.296  -8.605  -8.134  1.00  0.00     0.009 A 
ATOM     66  C   UNL     1      -9.546 -10.571  -9.060  1.00  0.00     0.001 A 
ATOM     67  C   UNL     1     -11.209  -8.875  -9.501  1.00  0.00     0.001 A 
ATOM     68  C   UNL     1     -10.328  -9.851  -9.963  1.00  0.00     0.000 A 
ENDBRANCH  49  63
BRANCH  50  69
ATOM     69  C   UNL     1     -11.021  -7.166   2.525  1.00  0.00    -0.014 A 
ATOM     70  C   UNL     1     -11.159  -8.167   3.498  1.00  0.00     0.009 A 
ATOM     71  C   UNL     1     -11.006  -5.822   2.933  1.00  0.00     0.009 A 
ATOM     72  C   UNL     1     -11.309  -7.828   4.845  1.00  0.00     0.001 A 
ATOM     73  C   UNL     1     -11.123  -5.488   4.283  1.00  0.00     0.001 A 
ATOM     74  C   UNL     1     -11.286  -6.490   5.237  1.00  0.00     0.000 A 
ENDBRANCH  50  69
BRANCH  62  75
ATOM     75  C   UNL     1     -15.485  -9.986  -2.021  1.00  0.00    -0.014 A 
ATOM     76  C   UNL     1     -16.574  -9.124  -1.817  1.00  0.00     0.009 A 
ATOM     77  C   UNL     1     -15.723 -11.365  -2.134  1.00  0.00     0.009 A 
ATOM     78  C   UNL     1     -17.867  -9.637  -1.690  1.00  0.00     0.001 A 
ATOM     79  C   UNL     1     -17.020 -11.872  -2.041  1.00  0.00     0.001 A 
ATOM     80  C   UNL     1     -18.089 -11.009  -1.808  1.00  0.00     0.000 A 
ENDBRANCH  62  75
ENDBRANCH  36  37
ENDBRANCH  29  31
ENDBRANCH  28  29
ENDBRANCH  27  28
ENDBRANCH  26  27
ENDBRANCH   1  26
TORSDOF 17
