REMARK SMILES COc1ccc(NC(=O)C[C@@H](C[NH+]2CCOCC2)C(=O)OCCOCCOC(=O)c2ccc(-c3c4nc(c(-c5ccccc5)c5ccc([nH]5)c(-c5ccccc5)c5nc(c(-c6ccccc6)c6ccc3[nH]6)C=C5)C=C4)cc2)cc1
REMARK SMILES IDX 23 1 22 2 21 3 19 4 20 5 11 6 10 7 8 8 7 9 9 11 6 12 3 13
REMARK SMILES IDX 4 14 79 15 5 16 78 17 2 18 1 19 12 20 13 21 14 22 18 23
REMARK SMILES IDX 15 25 17 26 16 27 24 28 25 29 26 30 27 31 28 32 29 33 30 34
REMARK SMILES IDX 31 35 77 36 32 37 76 38 33 39 34 40 35 41 70 42 36 43 75 44
REMARK SMILES IDX 69 45 71 46 37 47 74 48 68 49 67 50 38 52 60 53 45 54 59 55
REMARK SMILES IDX 46 56 49 57 58 58 72 59 47 60 48 61 57 63 73 64 50 65 39 66
REMARK SMILES IDX 40 67 44 68 41 69 43 70 42 71 61 72 62 73 66 74 63 75 65 76
REMARK SMILES IDX 64 77 51 78 52 79 56 80 53 81 55 82 54 83
REMARK H PARENT 7 10 13 24 71 51 49 62
REMARK Flexibility Score: inf
ROOT
ATOM      1  C   UNL     1      -4.969   6.852  -3.573  1.00  0.00     0.202 C 
ENDROOT
BRANCH   1   2
ATOM      2  C   UNL     1      -3.913   5.796  -3.889  1.00  0.00     0.261 C 
BRANCH   2   3
ATOM      3  O   UNL     1      -2.722   5.938  -3.093  1.00  0.00    -0.463 OA
BRANCH   3   4
ATOM      4  C   UNL     1      -1.573   6.138  -3.791  1.00  0.00     0.315 C 
ATOM      5  O   UNL     1      -1.513   6.284  -5.007  1.00  0.00    -0.252 OA
BRANCH   4   6
ATOM      6  C   UNL     1      -0.327   6.042  -2.939  1.00  0.00     0.163 C 
BRANCH   6   7
ATOM      7  C   UNL     1      -0.459   6.524  -1.489  1.00  0.00     0.121 C 
BRANCH   7   8
ATOM      8  C   UNL     1       0.878   7.048  -0.991  1.00  0.00     0.225 C 
ATOM      9  N   UNL     1       1.792   6.225  -0.398  1.00  0.00    -0.326 N 
ATOM     10  H   UNL     1       2.706   6.588  -0.352  1.00  0.00     0.169 HD
ATOM     11  O   UNL     1       1.219   8.204  -1.262  1.00  0.00    -0.275 OA
BRANCH   9  12
ATOM     12  C   UNL     1       1.638   4.948   0.155  1.00  0.00     0.041 A 
ATOM     13  C   UNL     1       1.397   2.309   1.096  1.00  0.00     0.119 A 
ATOM     14  C   UNL     1       0.385   3.243   1.324  1.00  0.00     0.048 A 
ATOM     15  C   UNL     1       2.567   2.724   0.464  1.00  0.00     0.048 A 
ATOM     16  C   UNL     1       0.504   4.557   0.862  1.00  0.00     0.030 A 
ATOM     17  C   UNL     1       2.695   4.046   0.015  1.00  0.00     0.030 A 
BRANCH  13  18
ATOM     18  O   UNL     1       1.147   1.066   1.599  1.00  0.00    -0.497 OA
ATOM     19  C   UNL     1       1.816  -0.053   1.032  1.00  0.00     0.278 C 
ENDBRANCH  13  18
ENDBRANCH   9  12
ENDBRANCH   7   8
ENDBRANCH   6   7
BRANCH   6  20
ATOM     20  C   UNL     1       0.304   4.653  -3.172  1.00  0.00     0.278 C 
BRANCH  20  21
ATOM     21  N   UNL     1      -0.033   3.530  -2.284  1.00  0.00    -0.330 N 
ATOM     22  C   UNL     1       0.616   2.279  -2.756  1.00  0.00     0.291 C 
ATOM     23  C   UNL     1      -1.460   3.231  -2.075  1.00  0.00     0.291 C 
ATOM     24  H   UNL     1       0.319   3.854  -1.383  1.00  0.00     0.348 HD
ATOM     25  C   UNL     1      -0.106   1.619  -3.948  1.00  0.00     0.221 C 
ATOM     26  C   UNL     1      -2.147   2.590  -3.286  1.00  0.00     0.221 C 
ATOM     27  O   UNL     1      -1.489   1.375  -3.659  1.00  0.00    -0.370 OA
ENDBRANCH  20  21
ENDBRANCH   6  20
ENDBRANCH   4   6
ENDBRANCH   3   4
ENDBRANCH   2   3
ENDBRANCH   1   2
BRANCH   1  28
ATOM     28  O   UNL     1      -4.625   8.198  -3.879  1.00  0.00    -0.374 OA
BRANCH  28  29
ATOM     29  C   UNL     1      -3.635   8.835  -3.074  1.00  0.00     0.202 C 
BRANCH  29  30
ATOM     30  C   UNL     1      -4.040   9.182  -1.637  1.00  0.00     0.261 C 
BRANCH  30  31
ATOM     31  O   UNL     1      -4.269   8.024  -0.806  1.00  0.00    -0.460 OA
BRANCH  31  32
ATOM     32  C   UNL     1      -5.537   7.906  -0.354  1.00  0.00     0.338 C 
ATOM     33  O   UNL     1      -6.480   8.659  -0.589  1.00  0.00    -0.246 OA
BRANCH  32  34
ATOM     34  C   UNL     1      -5.744   6.670   0.417  1.00  0.00     0.060 A 
ATOM     35  C   UNL     1      -6.782   5.822   0.009  1.00  0.00     0.016 A 
ATOM     36  C   UNL     1      -5.111   6.475   1.648  1.00  0.00     0.016 A 
ATOM     37  C   UNL     1      -7.261   4.841   0.875  1.00  0.00     0.010 A 
ATOM     38  C   UNL     1      -5.598   5.490   2.518  1.00  0.00     0.010 A 
ATOM     39  C   UNL     1      -6.718   4.718   2.161  1.00  0.00    -0.014 A 
BRANCH  39  40
ATOM     40  C   UNL     1      -7.481   3.961   3.187  1.00  0.00     0.031 A 
ATOM     41  C   UNL     1      -8.419   4.715   4.098  1.00  0.00     0.074 A 
ATOM     42  C   UNL     1      -7.416   2.621   3.263  1.00  0.00     0.049 A 
ATOM     43  N   UNL     1      -9.232   4.256   5.017  1.00  0.00    -0.248 NA
ATOM     44  C   UNL     1      -8.449   6.179   3.946  1.00  0.00     0.031 C 
ATOM     45  C   UNL     1      -6.596   1.762   2.413  1.00  0.00     0.029 A 
ATOM     46  N   UNL     1      -8.075   1.749   4.094  1.00  0.00    -0.354 N 
ATOM     47  C   UNL     1      -9.869   5.371   5.548  1.00  0.00     0.074 A 
ATOM     48  C   UNL     1      -9.326   6.531   4.874  1.00  0.00     0.031 C 
ATOM     49  C   UNL     1      -6.808   0.480   2.760  1.00  0.00     0.029 A 
ATOM     50  C   UNL     1      -7.765   0.432   3.865  1.00  0.00     0.049 A 
ATOM     51  H   UNL     1      -8.709   2.041   4.788  1.00  0.00     0.167 HD
ATOM     52  C   UNL     1     -10.828   5.433   6.502  1.00  0.00     0.031 A 
ATOM     53  C   UNL     1      -8.204  -0.685   4.475  1.00  0.00     0.031 A 
ATOM     54  C   UNL     1     -11.372   4.294   7.189  1.00  0.00     0.049 A 
ATOM     55  C   UNL     1      -9.216  -0.587   5.584  1.00  0.00     0.074 A 
ATOM     56  C   UNL     1     -12.347   4.263   8.172  1.00  0.00     0.029 A 
ATOM     57  N   UNL     1     -10.985   2.984   6.966  1.00  0.00    -0.354 N 
ATOM     58  N   UNL     1      -9.817   0.473   6.066  1.00  0.00    -0.248 NA
ATOM     59  C   UNL     1      -9.617  -1.849   6.226  1.00  0.00     0.031 C 
ATOM     60  C   UNL     1     -12.524   2.932   8.569  1.00  0.00     0.029 A 
ATOM     61  C   UNL     1     -11.689   2.136   7.803  1.00  0.00     0.049 A 
ATOM     62  H   UNL     1     -10.310   2.698   6.309  1.00  0.00     0.167 HD
ATOM     63  C   UNL     1     -10.687   0.005   7.043  1.00  0.00     0.074 A 
ATOM     64  C   UNL     1     -10.540  -1.435   7.083  1.00  0.00     0.031 C 
ATOM     65  C   UNL     1     -11.537   0.706   7.832  1.00  0.00     0.031 A 
BRANCH  52  66
ATOM     66  C   UNL     1     -11.335   6.797   6.873  1.00  0.00    -0.014 A 
ATOM     67  C   UNL     1     -12.208   7.499   6.027  1.00  0.00     0.009 A 
ATOM     68  C   UNL     1     -10.945   7.381   8.088  1.00  0.00     0.009 A 
ATOM     69  C   UNL     1     -12.655   8.774   6.377  1.00  0.00     0.001 A 
ATOM     70  C   UNL     1     -11.411   8.647   8.444  1.00  0.00     0.001 A 
ATOM     71  C   UNL     1     -12.258   9.346   7.586  1.00  0.00     0.000 A 
ENDBRANCH  52  66
BRANCH  53  72
ATOM     72  C   UNL     1      -7.696  -2.012   4.046  1.00  0.00    -0.014 A 
ATOM     73  C   UNL     1      -8.517  -2.888   3.321  1.00  0.00     0.009 A 
ATOM     74  C   UNL     1      -6.394  -2.416   4.381  1.00  0.00     0.009 A 
ATOM     75  C   UNL     1      -8.050  -4.152   2.955  1.00  0.00     0.001 A 
ATOM     76  C   UNL     1      -5.924  -3.672   3.996  1.00  0.00     0.001 A 
ATOM     77  C   UNL     1      -6.754  -4.542   3.290  1.00  0.00     0.000 A 
ENDBRANCH  53  72
BRANCH  65  78
ATOM     78  C   UNL     1     -12.402  -0.077   8.777  1.00  0.00    -0.014 A 
ATOM     79  C   UNL     1     -11.878  -0.628   9.956  1.00  0.00     0.009 A 
ATOM     80  C   UNL     1     -13.768  -0.237   8.497  1.00  0.00     0.009 A 
ATOM     81  C   UNL     1     -12.702  -1.351  10.822  1.00  0.00     0.001 A 
ATOM     82  C   UNL     1     -14.593  -0.942   9.375  1.00  0.00     0.001 A 
ATOM     83  C   UNL     1     -14.057  -1.505  10.533  1.00  0.00     0.000 A 
ENDBRANCH  65  78
ENDBRANCH  39  40
ENDBRANCH  32  34
ENDBRANCH  31  32
ENDBRANCH  30  31
ENDBRANCH  29  30
ENDBRANCH  28  29
ENDBRANCH   1  28
TORSDOF 20
