REMARK SMILES O=C(NC(=S)Nc1ccccc1C(=O)OCCOCCOC(=O)c1ccc(-c2c3nc(c(-c4ccccc4)c4ccc([nH]4)c(-c4ccccc4)c4nc(c(-c5ccccc5)c5ccc2[nH]5)C=C4)C=C3)cc1)c1ccc2ccccc2c1
REMARK SMILES IDX 17 1 16 2 15 3 13 4 14 5 12 6 7 7 8 8 9 9 11 10 10 11 6 12
REMARK SMILES IDX 4 14 5 15 3 16 1 17 2 18 72 20 73 21 81 22 74 23 80 24 75 25
REMARK SMILES IDX 79 26 76 27 78 28 77 29 18 30 19 31 20 32 21 33 22 34 23 35
REMARK SMILES IDX 24 36 25 37 71 38 26 39 70 40 27 41 28 42 29 43 64 44 30 45
REMARK SMILES IDX 69 46 63 47 65 48 31 49 68 50 62 51 61 52 32 54 54 55 39 56
REMARK SMILES IDX 53 57 40 58 43 59 52 60 66 61 41 62 42 63 51 65 67 66 44 67
REMARK SMILES IDX 33 68 34 69 38 70 35 71 37 72 36 73 55 74 56 75 60 76 57 77
REMARK SMILES IDX 59 78 58 79 45 80 46 81 50 82 47 83 49 84 48 85
REMARK H PARENT 6 13 3 19 65 53 43 64
REMARK Flexibility Score: inf
ROOT
ATOM      1  C   UNL     1       2.541  -1.518   4.098  1.00  0.00     0.202 C 
ENDROOT
BRANCH   1   2
ATOM      2  C   UNL     1       2.697  -1.555   2.572  1.00  0.00     0.261 C 
BRANCH   2   3
ATOM      3  O   UNL     1       3.605  -0.589   2.012  1.00  0.00    -0.460 OA
BRANCH   3   4
ATOM      4  C   UNL     1       2.955   0.519   1.616  1.00  0.00     0.340 C 
ATOM      5  O   UNL     1       1.761   0.732   1.807  1.00  0.00    -0.246 OA
BRANCH   4   6
ATOM      6  C   UNL     1       3.734   1.520   0.832  1.00  0.00     0.083 A 
ATOM      7  C   UNL     1       4.885   0.862  -0.631  1.00  0.00     0.055 A 
ATOM      8  C   UNL     1       4.944   1.902  -2.353  1.00  0.00     0.027 A 
ATOM      9  C   UNL     1       3.801   3.514  -2.315  1.00  0.00     0.002 A 
ATOM     10  C   UNL     1       2.574   3.120   0.840  1.00  0.00     0.018 A 
ATOM     11  C   UNL     1       2.648   4.172  -0.863  1.00  0.00     0.001 A 
BRANCH   7  12
ATOM     12  N   UNL     1       5.133  -0.506  -0.755  1.00  0.00    -0.332 N 
ATOM     13  H   UNL     1       6.072  -0.796  -0.821  1.00  0.00     0.169 HD
BRANCH  12  14
ATOM     14  C   UNL     1       4.179  -1.460  -0.791  1.00  0.00     0.177 C 
ATOM     15  S   UNL     1       4.652  -3.061  -0.679  1.00  0.00    -0.040 S 
BRANCH  14  16
ATOM     16  N   UNL     1       2.830  -1.168  -0.989  1.00  0.00    -0.299 N 
ATOM     17  O   UNL     1       0.721  -0.505  -1.521  1.00  0.00    -0.269 OA
ATOM     18  C   UNL     1       1.878  -0.141  -1.290  1.00  0.00     0.257 C 
ATOM     19  H   UNL     1       2.329  -2.008  -0.875  1.00  0.00     0.172 HD
BRANCH  18  20
ATOM     20  C   UNL     1       2.111   1.342  -1.416  1.00  0.00     0.040 A 
ATOM     21  C   UNL     1       3.354   1.659  -1.389  1.00  0.00     0.014 A 
ATOM     22  C   UNL     1       2.795   2.295  -0.786  1.00  0.00     0.022 A 
ATOM     23  C   UNL     1       4.933   2.757  -0.716  1.00  0.00     0.009 A 
ATOM     24  C   UNL     1       4.213   3.549   0.051  1.00  0.00    -0.018 A 
ATOM     25  C   UNL     1       5.468   3.691  -0.054  1.00  0.00    -0.018 A 
ATOM     26  C   UNL     1       4.309   4.798   1.111  1.00  0.00     0.009 A 
ATOM     27  C   UNL     1       6.317   4.787  -0.451  1.00  0.00     0.009 A 
ATOM     28  C   UNL     1       5.321   5.799   1.331  1.00  0.00     0.001 A 
ATOM     29  C   UNL     1       6.323   5.846   0.401  1.00  0.00     0.001 A 
ENDBRANCH  18  20
ENDBRANCH  14  16
ENDBRANCH  12  14
ENDBRANCH   7  12
ENDBRANCH   4   6
ENDBRANCH   3   4
ENDBRANCH   2   3
ENDBRANCH   1   2
BRANCH   1  30
ATOM     30  O   UNL     1       2.267  -0.315   4.792  1.00  0.00    -0.374 OA
BRANCH  30  31
ATOM     31  C   UNL     1       3.108   0.820   4.676  1.00  0.00     0.202 C 
BRANCH  31  32
ATOM     32  C   UNL     1       4.643   0.740   4.779  1.00  0.00     0.261 C 
BRANCH  32  33
ATOM     33  O   UNL     1       5.281  -0.382   4.155  1.00  0.00    -0.460 OA
BRANCH  33  34
ATOM     34  C   UNL     1       5.647  -1.361   5.015  1.00  0.00     0.338 C 
ATOM     35  O   UNL     1       5.466  -1.392   6.221  1.00  0.00    -0.246 OA
BRANCH  34  36
ATOM     36  C   UNL     1       6.209  -2.508   4.285  1.00  0.00     0.060 A 
ATOM     37  C   UNL     1       5.511  -3.722   4.310  1.00  0.00     0.016 A 
ATOM     38  C   UNL     1       7.495  -2.437   3.748  1.00  0.00     0.016 A 
ATOM     39  C   UNL     1       6.117  -4.883   3.845  1.00  0.00     0.010 A 
ATOM     40  C   UNL     1       8.105  -3.607   3.288  1.00  0.00     0.010 A 
ATOM     41  C   UNL     1       7.434  -4.840   3.372  1.00  0.00    -0.014 A 
BRANCH  41  42
ATOM     42  C   UNL     1       8.145  -6.107   3.082  1.00  0.00     0.031 A 
ATOM     43  C   UNL     1       9.190  -6.609   4.039  1.00  0.00     0.074 A 
ATOM     44  C   UNL     1       7.833  -6.818   1.985  1.00  0.00     0.049 A 
ATOM     45  N   UNL     1       9.960  -7.664   3.946  1.00  0.00    -0.248 NA
ATOM     46  C   UNL     1       9.398  -5.817   5.262  1.00  0.00     0.031 C 
ATOM     47  C   UNL     1       6.798  -6.463   1.016  1.00  0.00     0.029 A 
ATOM     48  N   UNL     1       8.364  -7.987   1.501  1.00  0.00    -0.354 N 
ATOM     49  C   UNL     1      10.754  -7.653   5.086  1.00  0.00     0.074 A 
ATOM     50  C   UNL     1      10.395  -6.472   5.840  1.00  0.00     0.031 C 
ATOM     51  C   UNL     1       6.771  -7.393   0.048  1.00  0.00     0.029 A 
ATOM     52  C   UNL     1       7.817  -8.378   0.304  1.00  0.00     0.049 A 
ATOM     53  H   UNL     1       9.067  -8.495   1.966  1.00  0.00     0.167 HD
ATOM     54  C   UNL     1      11.695  -8.550   5.468  1.00  0.00     0.031 A 
ATOM     55  C   UNL     1       8.146  -9.399  -0.509  1.00  0.00     0.031 A 
ATOM     56  C   UNL     1      12.057  -9.715   4.703  1.00  0.00     0.049 A 
ATOM     57  C   UNL     1       9.260 -10.326  -0.107  1.00  0.00     0.074 A 
ATOM     58  C   UNL     1      12.985 -10.695   5.012  1.00  0.00     0.029 A 
ATOM     59  N   UNL     1      11.516 -10.052   3.471  1.00  0.00    -0.354 N 
ATOM     60  N   UNL     1       9.990 -10.322   0.983  1.00  0.00    -0.248 NA
ATOM     61  C   UNL     1       9.591 -11.406  -1.047  1.00  0.00     0.031 C 
ATOM     62  C   UNL     1      13.063 -11.578   3.931  1.00  0.00     0.029 A 
ATOM     63  C   UNL     1      12.121 -11.200   2.987  1.00  0.00     0.049 A 
ATOM     64  H   UNL     1      10.807  -9.549   3.009  1.00  0.00     0.167 HD
ATOM     65  C   UNL     1      10.842 -11.414   0.874  1.00  0.00     0.074 A 
ATOM     66  C   UNL     1      10.524 -12.069  -0.378  1.00  0.00     0.031 C 
ATOM     67  C   UNL     1      11.800 -11.838   1.735  1.00  0.00     0.031 A 
BRANCH  54  68
ATOM     68  C   UNL     1      12.437  -8.278   6.751  1.00  0.00    -0.014 A 
ATOM     69  C   UNL     1      11.802  -8.348   8.001  1.00  0.00     0.009 A 
ATOM     70  C   UNL     1      13.810  -7.984   6.707  1.00  0.00     0.009 A 
ATOM     71  C   UNL     1      12.515  -8.090   9.174  1.00  0.00     0.001 A 
ATOM     72  C   UNL     1      14.529  -7.761   7.883  1.00  0.00     0.001 A 
ATOM     73  C   UNL     1      13.879  -7.803   9.115  1.00  0.00     0.000 A 
ENDBRANCH  54  68
BRANCH  55  74
ATOM     74  C   UNL     1       7.429  -9.582  -1.799  1.00  0.00    -0.014 A 
ATOM     75  C   UNL     1       6.618 -10.706  -2.016  1.00  0.00     0.009 A 
ATOM     76  C   UNL     1       7.563  -8.635  -2.827  1.00  0.00     0.009 A 
ATOM     77  C   UNL     1       5.982 -10.893  -3.246  1.00  0.00     0.001 A 
ATOM     78  C   UNL     1       6.896  -8.805  -4.042  1.00  0.00     0.001 A 
ATOM     79  C   UNL     1       6.116  -9.940  -4.254  1.00  0.00     0.000 A 
ENDBRANCH  55  74
BRANCH  67  80
ATOM     80  C   UNL     1      12.547 -13.094   1.371  1.00  0.00    -0.014 A 
ATOM     81  C   UNL     1      13.445 -13.131   0.292  1.00  0.00     0.009 A 
ATOM     82  C   UNL     1      12.374 -14.252   2.147  1.00  0.00     0.009 A 
ATOM     83  C   UNL     1      14.119 -14.312  -0.027  1.00  0.00     0.001 A 
ATOM     84  C   UNL     1      13.079 -15.419   1.851  1.00  0.00     0.001 A 
ATOM     85  C   UNL     1      13.940 -15.452   0.756  1.00  0.00     0.000 A 
ENDBRANCH  67  80
ENDBRANCH  41  42
ENDBRANCH  34  36
ENDBRANCH  33  34
ENDBRANCH  32  33
ENDBRANCH  31  32
ENDBRANCH  30  31
ENDBRANCH   1  30
TORSDOF 18
