REMARK SMILES CC(=O)O[C@H]1[C@H](O)C(C)=C(CC[C@@H](C)CC(=O)OCCOCCOC(=O)c2ccc(-c3c4nc(c(-c5ccccc5)c5ccc([nH]5)c(-c5ccccc5)c5nc(c(-c6ccccc6)c6ccc3[nH]6)C=C5)C=C4)cc2)[C@@]2(C)CCCC(C)(C)[C@H]12
REMARK SMILES IDX 19 1 18 2 16 3 17 4 15 5 13 6 14 7 12 8 11 9 10 10 5 11 6 12
REMARK SMILES IDX 83 13 8 14 75 15 80 16 9 17 77 18 76 19 79 20 81 21 82 22
REMARK SMILES IDX 78 23 4 24 2 25 1 26 3 27 7 28 20 30 21 31 22 32 23 33 24 34
REMARK SMILES IDX 25 35 26 36 27 37 28 38 74 39 29 40 73 41 30 42 31 43 32 44
REMARK SMILES IDX 67 45 33 46 72 47 66 48 68 49 34 50 71 51 65 52 64 53 35 55
REMARK SMILES IDX 57 56 42 57 56 58 43 59 46 60 55 61 69 62 44 63 45 64 54 66
REMARK SMILES IDX 70 67 47 68 36 69 37 70 41 71 38 72 40 73 39 74 58 75 59 76
REMARK SMILES IDX 63 77 60 78 62 79 61 80 48 81 49 82 53 83 50 84 52 85 51 86
REMARK H PARENT 7 29 68 54 46 65
REMARK Flexibility Score: inf
ROOT
ATOM      1  C   UNL     1       3.920  -2.562   7.916  1.00  0.00     0.261 C 
ENDROOT
BRANCH   1   2
ATOM      2  O   UNL     1       3.666  -2.553   6.502  1.00  0.00    -0.463 OA
BRANCH   2   3
ATOM      3  C   UNL     1       2.361  -2.504   6.124  1.00  0.00     0.306 C 
ATOM      4  O   UNL     1       1.406  -2.335   6.869  1.00  0.00    -0.252 OA
BRANCH   3   5
ATOM      5  C   UNL     1       2.227  -2.806   4.653  1.00  0.00     0.126 C 
BRANCH   5   6
ATOM      6  C   UNL     1       2.630  -1.694   3.662  1.00  0.00    -0.003 C 
ATOM      7  C   UNL     1       2.322  -2.243   2.259  1.00  0.00     0.008 C 
BRANCH   6   8
ATOM      8  C   UNL     1       4.100  -1.206   3.844  1.00  0.00     0.008 C 
BRANCH   8   9
ATOM      9  C   UNL     1       4.730  -0.323   2.737  1.00  0.00     0.032 C 
BRANCH   9  10
ATOM     10  C   UNL     1       4.905   1.209   2.832  1.00  0.00    -0.062 C 
ATOM     11  C   UNL     1       2.473   2.272   1.874  1.00  0.00     0.213 C 
ATOM     12  C   UNL     1       2.714   1.998   3.388  1.00  0.00     0.181 C 
ATOM     13  C   UNL     1       3.743   2.245   0.898  1.00  0.00     0.049 C 
ATOM     14  C   UNL     1       4.191   1.999   3.686  1.00  0.00    -0.042 C 
ATOM     15  C   UNL     1       5.184   1.891   1.441  1.00  0.00    -0.004 C 
ATOM     16  C   UNL     1       3.722   3.090  -0.438  1.00  0.00    -0.028 C 
ATOM     17  C   UNL     1       4.636   3.382   4.141  1.00  0.00     0.042 C 
ATOM     18  C   UNL     1       5.835   0.992   0.310  1.00  0.00     0.011 C 
ATOM     19  C   UNL     1       6.218   3.026   1.651  1.00  0.00     0.016 C 
ATOM     20  C   UNL     1       4.201   2.064  -1.503  1.00  0.00     0.007 C 
ATOM     21  C   UNL     1       4.641   4.333  -0.515  1.00  0.00     0.011 C 
ATOM     22  C   UNL     1       2.321   3.614  -0.802  1.00  0.00     0.011 C 
ATOM     23  C   UNL     1       5.568   1.425  -1.161  1.00  0.00     0.001 C 
BRANCH  11  24
ATOM     24  O   UNL     1       1.695   1.087   1.445  1.00  0.00    -0.459 OA
BRANCH  24  25
ATOM     25  C   UNL     1       0.549   1.220   0.745  1.00  0.00     0.303 C 
ATOM     26  C   UNL     1       0.344  -0.009  -0.098  1.00  0.00     0.139 C 
ATOM     27  O   UNL     1      -0.173   2.203   0.754  1.00  0.00    -0.253 OA
ENDBRANCH  24  25
ENDBRANCH  11  24
BRANCH  12  28
ATOM     28  O   UNL     1       2.033   2.926   4.236  1.00  0.00    -0.385 OA
ATOM     29  H   UNL     1       2.373   3.820   4.076  1.00  0.00     0.211 HD
ENDBRANCH  12  28
ENDBRANCH   9  10
ENDBRANCH   8   9
ENDBRANCH   6   8
ENDBRANCH   5   6
ENDBRANCH   3   5
ENDBRANCH   2   3
ENDBRANCH   1   2
BRANCH   1  30
ATOM     30  C   UNL     1       4.384  -1.204   8.434  1.00  0.00     0.202 C 
BRANCH  30  31
ATOM     31  O   UNL     1       3.328  -0.260   8.576  1.00  0.00    -0.374 OA
BRANCH  31  32
ATOM     32  C   UNL     1       3.107   0.615   7.465  1.00  0.00     0.202 C 
BRANCH  32  33
ATOM     33  C   UNL     1       4.218   1.649   7.306  1.00  0.00     0.261 C 
BRANCH  33  34
ATOM     34  O   UNL     1       5.319   1.048   6.597  1.00  0.00    -0.460 OA
BRANCH  34  35
ATOM     35  C   UNL     1       6.499   1.672   6.732  1.00  0.00     0.338 C 
ATOM     36  O   UNL     1       6.713   2.778   7.230  1.00  0.00    -0.246 OA
BRANCH  35  37
ATOM     37  C   UNL     1       7.566   0.742   6.346  1.00  0.00     0.060 A 
ATOM     38  C   UNL     1       8.199   0.008   7.355  1.00  0.00     0.016 A 
ATOM     39  C   UNL     1       8.006   0.658   5.024  1.00  0.00     0.016 A 
ATOM     40  C   UNL     1       9.313  -0.775   7.049  1.00  0.00     0.010 A 
ATOM     41  C   UNL     1       9.117  -0.137   4.718  1.00  0.00     0.010 A 
ATOM     42  C   UNL     1       9.801  -0.826   5.735  1.00  0.00    -0.014 A 
BRANCH  42  43
ATOM     43  C   UNL     1      11.102  -1.489   5.458  1.00  0.00     0.031 A 
ATOM     44  C   UNL     1      12.340  -0.647   5.293  1.00  0.00     0.074 A 
ATOM     45  C   UNL     1      11.193  -2.830   5.394  1.00  0.00     0.049 A 
ATOM     46  N   UNL     1      13.574  -1.022   5.067  1.00  0.00    -0.248 NA
ATOM     47  C   UNL     1      12.165   0.811   5.401  1.00  0.00     0.031 C 
ATOM     48  C   UNL     1      10.083  -3.764   5.572  1.00  0.00     0.029 A 
ATOM     49  N   UNL     1      12.280  -3.638   5.165  1.00  0.00    -0.354 N 
ATOM     50  C   UNL     1      14.320   0.148   5.009  1.00  0.00     0.074 A 
ATOM     51  C   UNL     1      13.397   1.248   5.186  1.00  0.00     0.031 C 
ATOM     52  C   UNL     1      10.547  -5.020   5.451  1.00  0.00     0.029 A 
ATOM     53  C   UNL     1      11.978  -4.978   5.158  1.00  0.00     0.049 A 
ATOM     54  H   UNL     1      13.189  -3.290   5.020  1.00  0.00     0.167 HD
ATOM     55  C   UNL     1      15.655   0.298   4.835  1.00  0.00     0.031 A 
ATOM     56  C   UNL     1      12.763  -6.049   4.931  1.00  0.00     0.031 A 
ATOM     57  C   UNL     1      16.579  -0.788   4.643  1.00  0.00     0.049 A 
ATOM     58  C   UNL     1      14.230  -5.851   4.654  1.00  0.00     0.074 A 
ATOM     59  C   UNL     1      17.951  -0.733   4.469  1.00  0.00     0.029 A 
ATOM     60  N   UNL     1      16.222  -2.126   4.591  1.00  0.00    -0.354 N 
ATOM     61  N   UNL     1      14.925  -4.740   4.633  1.00  0.00    -0.248 NA
ATOM     62  C   UNL     1      15.021  -7.060   4.378  1.00  0.00     0.031 C 
ATOM     63  C   UNL     1      18.419  -2.035   4.261  1.00  0.00     0.029 A 
ATOM     64  C   UNL     1      17.344  -2.904   4.361  1.00  0.00     0.049 A 
ATOM     65  H   UNL     1      15.307  -2.472   4.702  1.00  0.00     0.167 HD
ATOM     66  C   UNL     1      16.237  -5.118   4.372  1.00  0.00     0.074 A 
ATOM     67  C   UNL     1      16.244  -6.561   4.253  1.00  0.00     0.031 C 
ATOM     68  C   UNL     1      17.339  -4.339   4.247  1.00  0.00     0.031 A 
BRANCH  55  69
ATOM     69  C   UNL     1      16.198   1.700   4.821  1.00  0.00    -0.014 A 
ATOM     70  C   UNL     1      16.285   2.457   6.000  1.00  0.00     0.009 A 
ATOM     71  C   UNL     1      16.668   2.255   3.620  1.00  0.00     0.009 A 
ATOM     72  C   UNL     1      16.804   3.753   5.970  1.00  0.00     0.001 A 
ATOM     73  C   UNL     1      17.210   3.541   3.599  1.00  0.00     0.001 A 
ATOM     74  C   UNL     1      17.270   4.292   4.771  1.00  0.00     0.000 A 
ENDBRANCH  55  69
BRANCH  56  75
ATOM     75  C   UNL     1      12.180  -7.416   4.941  1.00  0.00    -0.014 A 
ATOM     76  C   UNL     1      12.497  -8.323   5.964  1.00  0.00     0.009 A 
ATOM     77  C   UNL     1      11.319  -7.828   3.912  1.00  0.00     0.009 A 
ATOM     78  C   UNL     1      11.983  -9.622   5.942  1.00  0.00     0.001 A 
ATOM     79  C   UNL     1      10.785  -9.118   3.907  1.00  0.00     0.001 A 
ATOM     80  C   UNL     1      11.124 -10.017   4.917  1.00  0.00     0.000 A 
ENDBRANCH  56  75
BRANCH  68  81
ATOM     81  C   UNL     1      18.651  -5.029   4.004  1.00  0.00    -0.014 A 
ATOM     82  C   UNL     1      18.960  -5.591   2.756  1.00  0.00     0.009 A 
ATOM     83  C   UNL     1      19.613  -5.071   5.026  1.00  0.00     0.009 A 
ATOM     84  C   UNL     1      20.196  -6.207   2.546  1.00  0.00     0.001 A 
ATOM     85  C   UNL     1      20.857  -5.665   4.806  1.00  0.00     0.001 A 
ATOM     86  C   UNL     1      21.144  -6.239   3.569  1.00  0.00     0.000 A 
ENDBRANCH  68  81
ENDBRANCH  42  43
ENDBRANCH  35  37
ENDBRANCH  34  35
ENDBRANCH  33  34
ENDBRANCH  32  33
ENDBRANCH  31  32
ENDBRANCH  30  31
ENDBRANCH   1  30
TORSDOF 21
