REMARK SMILES O=C(OCCOCCOC(=O)c1cc(Cl)c2c(c1)[C@H]1C=CC[C@H]1[C@H](c1ccc(S(=O)(=O)N3CCOCC3)cc1)N2)c1ccc(-c2c3nc(c(-c4ccccc4)c4ccc([nH]4)c(-c4ccccc4)c4nc(c(-c5ccccc5)c5ccc2[nH]5)C=C4)C=C3)cc1
REMARK SMILES IDX 7 1 6 2 5 3 4 4 3 5 2 6 1 7 41 8 42 9 88 10 43 11 87 12
REMARK SMILES IDX 44 13 45 14 46 15 81 16 47 17 86 18 80 19 82 20 48 21 85 22
REMARK SMILES IDX 79 23 78 24 49 26 71 27 56 28 70 29 57 30 60 31 69 32 83 33
REMARK SMILES IDX 58 34 59 35 68 37 84 38 61 39 50 40 51 41 55 42 52 43 54 44
REMARK SMILES IDX 53 45 72 46 73 47 77 48 74 49 76 50 75 51 62 52 63 53 67 54
REMARK SMILES IDX 64 55 66 56 65 57 8 58 9 59 10 60 11 61 12 62 13 63 18 64
REMARK SMILES IDX 14 65 17 66 15 67 16 68 19 69 40 70 20 71 23 72 24 73 21 75
REMARK SMILES IDX 22 76 25 77 26 78 39 79 27 80 38 81 28 82 29 83 30 84 31 85
REMARK SMILES IDX 32 86 33 87 37 88 34 89 36 90 35 91
REMARK H PARENT 82 25 60 36 40 74
REMARK Flexibility Score: inf
ROOT
ATOM      1  C   UNL     1       2.617  -1.042   1.795  1.00  0.00     0.202 C 
ENDROOT
BRANCH   1   2
ATOM      2  O   UNL     1       3.895  -0.702   1.250  1.00  0.00    -0.374 OA
BRANCH   2   3
ATOM      3  C   UNL     1       4.209   0.689   1.254  1.00  0.00     0.202 C 
BRANCH   3   4
ATOM      4  C   UNL     1       4.029   1.394  -0.089  1.00  0.00     0.261 C 
BRANCH   4   5
ATOM      5  O   UNL     1       2.688   1.270  -0.571  1.00  0.00    -0.460 OA
BRANCH   5   6
ATOM      6  C   UNL     1       2.182   0.362  -1.431  1.00  0.00     0.338 C 
ATOM      7  O   UNL     1       1.053   0.572  -1.876  1.00  0.00    -0.246 OA
BRANCH   6   8
ATOM      8  C   UNL     1       2.864  -0.913  -1.841  1.00  0.00     0.060 A 
ATOM      9  C   UNL     1       4.142  -1.340  -1.470  1.00  0.00     0.016 A 
ATOM     10  C   UNL     1       2.109  -1.776  -2.661  1.00  0.00     0.016 A 
ATOM     11  C   UNL     1       4.643  -2.576  -1.853  1.00  0.00     0.010 A 
ATOM     12  C   UNL     1       2.620  -2.999  -3.098  1.00  0.00     0.010 A 
ATOM     13  C   UNL     1       3.898  -3.388  -2.699  1.00  0.00    -0.014 A 
BRANCH  13  14
ATOM     14  C   UNL     1       4.566  -4.556  -3.279  1.00  0.00     0.031 A 
ATOM     15  C   UNL     1       5.503  -4.326  -4.423  1.00  0.00     0.074 A 
ATOM     16  C   UNL     1       4.435  -5.756  -2.696  1.00  0.00     0.049 A 
ATOM     17  N   UNL     1       6.245  -5.187  -5.063  1.00  0.00    -0.248 NA
ATOM     18  C   UNL     1       5.664  -2.931  -4.875  1.00  0.00     0.031 C 
ATOM     19  C   UNL     1       3.673  -6.024  -1.476  1.00  0.00     0.029 A 
ATOM     20  N   UNL     1       4.966  -6.967  -3.041  1.00  0.00    -0.354 N 
ATOM     21  C   UNL     1       6.986  -4.435  -5.962  1.00  0.00     0.074 A 
ATOM     22  C   UNL     1       6.604  -3.052  -5.798  1.00  0.00     0.031 C 
ATOM     23  C   UNL     1       3.781  -7.329  -1.177  1.00  0.00     0.029 A 
ATOM     24  C   UNL     1       4.585  -7.984  -2.205  1.00  0.00     0.049 A 
ATOM     25  H   UNL     1       5.563  -7.096  -3.813  1.00  0.00     0.167 HD
ATOM     26  C   UNL     1       7.897  -4.872  -6.858  1.00  0.00     0.031 A 
ATOM     27  C   UNL     1       4.844  -9.302  -2.286  1.00  0.00     0.031 A 
ATOM     28  C   UNL     1       8.174  -6.261  -7.079  1.00  0.00     0.049 A 
ATOM     29  C   UNL     1       5.690  -9.793  -3.425  1.00  0.00     0.074 A 
ATOM     30  C   UNL     1       8.954  -6.842  -8.058  1.00  0.00     0.029 A 
ATOM     31  N   UNL     1       7.649  -7.289  -6.308  1.00  0.00    -0.354 N 
ATOM     32  N   UNL     1       6.309  -9.092  -4.347  1.00  0.00    -0.248 NA
ATOM     33  C   UNL     1       5.868 -11.244  -3.547  1.00  0.00     0.031 C 
ATOM     34  C   UNL     1       8.865  -8.230  -7.907  1.00  0.00     0.029 A 
ATOM     35  C   UNL     1       8.077  -8.507  -6.797  1.00  0.00     0.049 A 
ATOM     36  H   UNL     1       7.061  -7.168  -5.528  1.00  0.00     0.167 HD
ATOM     37  C   UNL     1       6.964 -10.013  -5.151  1.00  0.00     0.074 A 
ATOM     38  C   UNL     1       6.665 -11.324  -4.607  1.00  0.00     0.031 C 
ATOM     39  C   UNL     1       7.749  -9.792  -6.234  1.00  0.00     0.031 A 
BRANCH  26  40
ATOM     40  C   UNL     1       8.576  -3.834  -7.698  1.00  0.00    -0.014 A 
ATOM     41  C   UNL     1       9.608  -3.043  -7.170  1.00  0.00     0.009 A 
ATOM     42  C   UNL     1       8.168  -3.631  -9.024  1.00  0.00     0.009 A 
ATOM     43  C   UNL     1      10.209  -2.055  -7.953  1.00  0.00     0.001 A 
ATOM     44  C   UNL     1       8.782  -2.653  -9.809  1.00  0.00     0.001 A 
ATOM     45  C   UNL     1       9.798  -1.863  -9.271  1.00  0.00     0.000 A 
ENDBRANCH  26  40
BRANCH  27  46
ATOM     46  C   UNL     1       4.264 -10.215  -1.271  1.00  0.00    -0.014 A 
ATOM     47  C   UNL     1       5.062 -10.746  -0.249  1.00  0.00     0.009 A 
ATOM     48  C   UNL     1       2.884 -10.479  -1.264  1.00  0.00     0.009 A 
ATOM     49  C   UNL     1       4.486 -11.514   0.768  1.00  0.00     0.001 A 
ATOM     50  C   UNL     1       2.310 -11.231  -0.238  1.00  0.00     0.001 A 
ATOM     51  C   UNL     1       3.111 -11.747   0.778  1.00  0.00     0.000 A 
ENDBRANCH  27  46
BRANCH  39  52
ATOM     52  C   UNL     1       8.366 -10.987  -6.895  1.00  0.00    -0.014 A 
ATOM     53  C   UNL     1       7.623 -11.795  -7.766  1.00  0.00     0.009 A 
ATOM     54  C   UNL     1       9.741 -11.225  -6.737  1.00  0.00     0.009 A 
ATOM     55  C   UNL     1       8.248 -12.828  -8.464  1.00  0.00     0.001 A 
ATOM     56  C   UNL     1      10.365 -12.244  -7.452  1.00  0.00     0.001 A 
ATOM     57  C   UNL     1       9.618 -13.046  -8.314  1.00  0.00     0.000 A 
ENDBRANCH  39  52
ENDBRANCH  13  14
ENDBRANCH   6   8
ENDBRANCH   5   6
ENDBRANCH   4   5
ENDBRANCH   3   4
ENDBRANCH   2   3
ENDBRANCH   1   2
BRANCH   1  58
ATOM     58  C   UNL     1       2.730  -1.511   3.250  1.00  0.00     0.261 C 
BRANCH  58  59
ATOM     59  O   UNL     1       3.175  -0.431   4.088  1.00  0.00    -0.460 OA
BRANCH  59  60
ATOM     60  C   UNL     1       4.510  -0.400   4.340  1.00  0.00     0.338 C 
ATOM     61  O   UNL     1       5.338  -1.250   4.099  1.00  0.00    -0.246 OA
BRANCH  60  62
ATOM     62  C   UNL     1       4.839   0.992   4.710  1.00  0.00     0.062 A 
ATOM     63  C   UNL     1       4.099   1.699   5.650  1.00  0.00     0.038 A 
ATOM     64  C   UNL     1       5.844   1.626   3.978  1.00  0.00     0.022 A 
ATOM     65  C   UNL     1       4.382   3.050   5.846  1.00  0.00     0.065 A 
ATOM     66  C   UNL     1       6.056   3.004   4.104  1.00  0.00    -0.015 A 
ATOM     67  Cl  UNL     1       3.478   3.901   7.054  1.00  0.00    -0.082 Cl
ATOM     68  C   UNL     1       5.348   3.727   5.068  1.00  0.00     0.057 A 
ATOM     69  C   UNL     1       7.016   3.679   3.173  1.00  0.00     0.049 C 
ATOM     70  N   UNL     1       5.649   5.054   5.298  1.00  0.00    -0.376 N 
ATOM     71  C   UNL     1       6.428   4.123   1.856  1.00  0.00    -0.023 C 
ATOM     72  C   UNL     1       7.598   4.993   3.703  1.00  0.00     0.031 C 
ATOM     73  C   UNL     1       6.531   5.836   4.453  1.00  0.00     0.114 C 
ATOM     74  H   UNL     1       5.241   5.494   6.079  1.00  0.00     0.161 HD
ATOM     75  C   UNL     1       7.038   5.229   1.413  1.00  0.00    -0.030 C 
ATOM     76  C   UNL     1       8.076   5.671   2.395  1.00  0.00     0.034 C 
BRANCH  73  77
ATOM     77  C   UNL     1       7.225   6.888   5.307  1.00  0.00    -0.025 A 
ATOM     78  C   UNL     1       7.545   6.699   6.667  1.00  0.00     0.007 A 
ATOM     79  C   UNL     1       7.641   8.062   4.684  1.00  0.00     0.007 A 
ATOM     80  C   UNL     1       8.261   7.670   7.379  1.00  0.00     0.022 A 
ATOM     81  C   UNL     1       8.424   8.974   5.367  1.00  0.00     0.022 A 
ATOM     82  C   UNL     1       8.714   8.807   6.712  1.00  0.00     0.082 A 
BRANCH  82  83
ATOM     83  S   UNL     1       9.618  10.055   7.598  1.00  0.00     0.243 S 
ATOM     84  O   UNL     1       8.754  10.491   8.674  1.00  0.00    -0.207 OA
ATOM     85  O   UNL     1      10.933   9.507   7.846  1.00  0.00    -0.207 OA
BRANCH  83  86
ATOM     86  N   UNL     1       9.771  11.332   6.518  1.00  0.00    -0.193 NA
ATOM     87  C   UNL     1       8.671  12.286   6.268  1.00  0.00     0.131 C 
ATOM     88  C   UNL     1      10.967  11.515   5.673  1.00  0.00     0.131 C 
ATOM     89  C   UNL     1       8.391  12.434   4.765  1.00  0.00     0.177 C 
ATOM     90  C   UNL     1      10.586  11.693   4.197  1.00  0.00     0.177 C 
ATOM     91  O   UNL     1       9.581  12.698   4.010  1.00  0.00    -0.379 OA
ENDBRANCH  83  86
ENDBRANCH  82  83
ENDBRANCH  73  77
ENDBRANCH  60  62
ENDBRANCH  59  60
ENDBRANCH  58  59
ENDBRANCH   1  58
TORSDOF 17
