REMARK SMILES COc1ccc(NS(=O)(=O)c2ccc(NC(=O)[C@H]3CCCC[C@@H]3C(=O)OCCOCCOC(=O)c3ccc(-c4c5nc(c(-c6ccccc6)c6ccc([nH]6)c(-c6ccccc6)c6nc(c(-c7ccccc7)c7ccc4[nH]7)C=C6)C=C5)cc3)cc2)cc1
REMARK SMILES IDX 27 1 26 2 24 3 25 4 23 5 18 6 19 7 20 8 22 9 21 10 16 11
REMARK SMILES IDX 15 12 17 14 14 15 11 16 12 17 84 18 13 19 83 20 8 21 9 22
REMARK SMILES IDX 10 23 7 24 6 26 3 27 4 28 86 29 5 30 85 31 2 32 1 33 28 34
REMARK SMILES IDX 29 35 30 36 31 37 32 38 33 39 34 40 35 41 36 42 82 43 37 44
REMARK SMILES IDX 81 45 38 46 39 47 40 48 75 49 41 50 80 51 74 52 76 53 42 54
REMARK SMILES IDX 79 55 73 56 72 57 43 59 65 60 50 61 64 62 51 63 54 64 63 65
REMARK SMILES IDX 77 66 52 67 53 68 62 70 78 71 55 72 44 73 45 74 49 75 46 76
REMARK SMILES IDX 48 77 47 78 66 79 67 80 71 81 68 82 70 83 69 84 56 85 57 86
REMARK SMILES IDX 61 87 58 88 60 89 59 90
REMARK H PARENT 15 13 7 25 76 58 54 69
REMARK Flexibility Score: inf
ROOT
ATOM      1  C   UNL     1      -4.831  -1.637   5.151  1.00  0.00     0.261 C 
ENDROOT
BRANCH   1   2
ATOM      2  O   UNL     1      -4.391  -1.895   3.819  1.00  0.00    -0.463 OA
BRANCH   2   3
ATOM      3  C   UNL     1      -3.064  -1.624   3.627  1.00  0.00     0.309 C 
ATOM      4  O   UNL     1      -2.225  -1.595   4.514  1.00  0.00    -0.252 OA
BRANCH   3   5
ATOM      5  C   UNL     1      -2.811  -1.255   2.179  1.00  0.00     0.111 C 
ATOM      6  C   UNL     1      -3.109  -2.426   1.240  1.00  0.00     0.093 C 
ATOM      7  C   UNL     1      -1.944  -3.453   1.362  1.00  0.00     0.014 C 
ATOM      8  C   UNL     1      -0.551  -2.836   1.174  1.00  0.00     0.001 C 
ATOM      9  C   UNL     1      -1.439  -0.624   1.950  1.00  0.00     0.016 C 
ATOM     10  C   UNL     1      -0.309  -1.628   2.068  1.00  0.00     0.001 C 
BRANCH   6  11
ATOM     11  C   UNL     1      -3.382  -2.113  -0.247  1.00  0.00     0.228 C 
ATOM     12  N   UNL     1      -3.963  -0.982  -0.739  1.00  0.00    -0.326 N 
ATOM     13  H   UNL     1      -4.051  -0.985  -1.720  1.00  0.00     0.169 HD
ATOM     14  O   UNL     1      -3.059  -2.941  -1.111  1.00  0.00    -0.274 OA
BRANCH  12  15
ATOM     15  C   UNL     1      -4.460   0.180  -0.144  1.00  0.00     0.041 A 
ATOM     16  C   UNL     1      -4.962   2.563   1.212  1.00  0.00     0.087 A 
ATOM     17  C   UNL     1      -5.597   1.388   1.626  1.00  0.00     0.024 A 
ATOM     18  C   UNL     1      -4.190   2.575   0.046  1.00  0.00     0.024 A 
ATOM     19  C   UNL     1      -5.355   0.191   0.931  1.00  0.00     0.027 A 
ATOM     20  C   UNL     1      -3.967   1.387  -0.647  1.00  0.00     0.027 A 
BRANCH  16  21
ATOM     21  S   UNL     1      -4.968   4.046   2.197  1.00  0.00     0.261 S 
ATOM     22  O   UNL     1      -6.110   4.817   1.756  1.00  0.00    -0.201 OA
ATOM     23  O   UNL     1      -3.630   4.596   2.168  1.00  0.00    -0.201 OA
BRANCH  21  24
ATOM     24  N   UNL     1      -5.317   3.570   3.763  1.00  0.00    -0.280 N 
ATOM     25  H   UNL     1      -6.228   3.746   4.093  1.00  0.00     0.180 HD
BRANCH  24  26
ATOM     26  C   UNL     1      -4.413   2.930   4.661  1.00  0.00     0.049 A 
ATOM     27  C   UNL     1      -3.007   1.352   6.517  1.00  0.00     0.119 A 
ATOM     28  C   UNL     1      -2.570   1.458   5.197  1.00  0.00     0.048 A 
ATOM     29  C   UNL     1      -4.096   2.105   6.936  1.00  0.00     0.048 A 
ATOM     30  C   UNL     1      -3.284   2.219   4.263  1.00  0.00     0.030 A 
ATOM     31  C   UNL     1      -4.799   2.881   6.008  1.00  0.00     0.030 A 
BRANCH  27  32
ATOM     32  O   UNL     1      -2.315   0.484   7.313  1.00  0.00    -0.497 OA
ATOM     33  C   UNL     1      -3.100  -0.255   8.249  1.00  0.00     0.278 C 
ENDBRANCH  27  32
ENDBRANCH  24  26
ENDBRANCH  21  24
ENDBRANCH  16  21
ENDBRANCH  12  15
ENDBRANCH   6  11
ENDBRANCH   3   5
ENDBRANCH   2   3
ENDBRANCH   1   2
BRANCH   1  34
ATOM     34  C   UNL     1      -4.975  -2.832   6.087  1.00  0.00     0.202 C 
BRANCH  34  35
ATOM     35  O   UNL     1      -3.935  -3.782   6.246  1.00  0.00    -0.374 OA
BRANCH  35  36
ATOM     36  C   UNL     1      -3.553  -4.586   5.137  1.00  0.00     0.202 C 
BRANCH  36  37
ATOM     37  C   UNL     1      -4.538  -5.611   4.548  1.00  0.00     0.261 C 
BRANCH  37  38
ATOM     38  O   UNL     1      -5.906  -5.194   4.534  1.00  0.00    -0.460 OA
BRANCH  38  39
ATOM     39  C   UNL     1      -6.627  -5.648   5.590  1.00  0.00     0.338 C 
ATOM     40  O   UNL     1      -6.269  -6.423   6.461  1.00  0.00    -0.246 OA
BRANCH  39  41
ATOM     41  C   UNL     1      -7.892  -4.894   5.663  1.00  0.00     0.060 A 
ATOM     42  C   UNL     1      -8.190  -4.246   6.871  1.00  0.00     0.016 A 
ATOM     43  C   UNL     1      -8.773  -4.838   4.582  1.00  0.00     0.016 A 
ATOM     44  C   UNL     1      -9.405  -3.588   7.025  1.00  0.00     0.010 A 
ATOM     45  C   UNL     1     -10.005  -4.204   4.746  1.00  0.00     0.010 A 
ATOM     46  C   UNL     1     -10.340  -3.625   5.984  1.00  0.00    -0.014 A 
BRANCH  46  47
ATOM     47  C   UNL     1     -11.757  -3.335   6.293  1.00  0.00     0.031 A 
ATOM     48  C   UNL     1     -12.622  -4.492   6.712  1.00  0.00     0.074 A 
ATOM     49  C   UNL     1     -12.252  -2.088   6.237  1.00  0.00     0.049 A 
ATOM     50  N   UNL     1     -13.898  -4.518   6.990  1.00  0.00    -0.248 NA
ATOM     51  C   UNL     1     -11.951  -5.800   6.833  1.00  0.00     0.031 C 
ATOM     52  C   UNL     1     -11.492  -0.884   5.908  1.00  0.00     0.029 A 
ATOM     53  N   UNL     1     -13.528  -1.637   6.455  1.00  0.00    -0.354 N 
ATOM     54  C   UNL     1     -14.182  -5.841   7.308  1.00  0.00     0.074 A 
ATOM     55  C   UNL     1     -12.956  -6.591   7.169  1.00  0.00     0.031 C 
ATOM     56  C   UNL     1     -12.324   0.173   5.933  1.00  0.00     0.029 A 
ATOM     57  C   UNL     1     -13.676  -0.288   6.247  1.00  0.00     0.049 A 
ATOM     58  H   UNL     1     -14.267  -2.223   6.735  1.00  0.00     0.167 HD
ATOM     59  C   UNL     1     -15.362  -6.385   7.684  1.00  0.00     0.031 A 
ATOM     60  C   UNL     1     -14.785   0.474   6.282  1.00  0.00     0.031 A 
ATOM     61  C   UNL     1     -16.584  -5.640   7.798  1.00  0.00     0.049 A 
ATOM     62  C   UNL     1     -16.106  -0.170   6.615  1.00  0.00     0.074 A 
ATOM     63  C   UNL     1     -17.839  -6.091   8.163  1.00  0.00     0.029 A 
ATOM     64  N   UNL     1     -16.700  -4.284   7.535  1.00  0.00    -0.354 N 
ATOM     65  N   UNL     1     -16.364  -1.419   6.923  1.00  0.00    -0.248 NA
ATOM     66  C   UNL     1     -17.288   0.704   6.608  1.00  0.00     0.031 C 
ATOM     67  C   UNL     1     -18.727  -5.015   8.072  1.00  0.00     0.029 A 
ATOM     68  C   UNL     1     -18.013  -3.884   7.706  1.00  0.00     0.049 A 
ATOM     69  H   UNL     1     -15.959  -3.694   7.267  1.00  0.00     0.167 HD
ATOM     70  C   UNL     1     -17.730  -1.476   7.172  1.00  0.00     0.074 A 
ATOM     71  C   UNL     1     -18.243  -0.133   6.992  1.00  0.00     0.031 C 
ATOM     72  C   UNL     1     -18.494  -2.540   7.521  1.00  0.00     0.031 A 
BRANCH  59  73
ATOM     73  C   UNL     1     -15.383  -7.863   7.947  1.00  0.00    -0.014 A 
ATOM     74  C   UNL     1     -14.773  -8.412   9.086  1.00  0.00     0.009 A 
ATOM     75  C   UNL     1     -16.022  -8.719   7.037  1.00  0.00     0.009 A 
ATOM     76  C   UNL     1     -14.774  -9.793   9.291  1.00  0.00     0.001 A 
ATOM     77  C   UNL     1     -16.045 -10.097   7.259  1.00  0.00     0.001 A 
ATOM     78  C   UNL     1     -15.413 -10.634   8.380  1.00  0.00     0.000 A 
ENDBRANCH  59  73
BRANCH  60  79
ATOM     79  C   UNL     1     -14.707   1.924   5.964  1.00  0.00    -0.014 A 
ATOM     80  C   UNL     1     -14.919   2.890   6.959  1.00  0.00     0.009 A 
ATOM     81  C   UNL     1     -14.439   2.350   4.653  1.00  0.00     0.009 A 
ATOM     82  C   UNL     1     -14.889   4.251   6.643  1.00  0.00     0.001 A 
ATOM     83  C   UNL     1     -14.382   3.711   4.345  1.00  0.00     0.001 A 
ATOM     84  C   UNL     1     -14.616   4.660   5.338  1.00  0.00     0.000 A 
ENDBRANCH  60  79
BRANCH  72  85
ATOM     85  C   UNL     1     -19.954  -2.288   7.767  1.00  0.00    -0.014 A 
ATOM     86  C   UNL     1     -20.841  -2.046   6.707  1.00  0.00     0.009 A 
ATOM     87  C   UNL     1     -20.456  -2.349   9.077  1.00  0.00     0.009 A 
ATOM     88  C   UNL     1     -22.199  -1.839   6.960  1.00  0.00     0.001 A 
ATOM     89  C   UNL     1     -21.817  -2.171   9.323  1.00  0.00     0.001 A 
ATOM     90  C   UNL     1     -22.686  -1.907   8.265  1.00  0.00     0.000 A 
ENDBRANCH  72  85
ENDBRANCH  46  47
ENDBRANCH  39  41
ENDBRANCH  38  39
ENDBRANCH  37  38
ENDBRANCH  36  37
ENDBRANCH  35  36
ENDBRANCH  34  35
ENDBRANCH   1  34
TORSDOF 20
