REMARK SMILES CC(=O)Nc1cccc(-c2ccc(F)c(C(=O)OCCOCCOC(=O)c3ccc(-c4c5nc(c(-c6ccccc6)c6ccc([nH]6)c(-c6ccccc6)c6nc(c(-c7ccccc7)c7ccc4[nH]7)C=C6)C=C5)cc3)c2)c1
REMARK SMILES IDX 21 1 20 2 19 3 18 4 16 5 17 6 15 7 10 8 11 9 75 10 12 11
REMARK SMILES IDX 13 12 14 13 9 14 5 15 6 16 76 17 7 18 8 19 4 20 1 21 2 22
REMARK SMILES IDX 3 23 22 25 23 26 24 27 25 28 26 29 27 30 28 31 74 32 29 33
REMARK SMILES IDX 73 34 30 35 31 36 32 37 67 38 33 39 72 40 66 41 68 42 34 43
REMARK SMILES IDX 71 44 65 45 64 46 35 48 57 49 42 50 56 51 43 52 46 53 55 54
REMARK SMILES IDX 69 55 44 56 45 57 54 59 70 60 47 61 36 62 37 63 41 64 38 65
REMARK SMILES IDX 40 66 39 67 58 68 59 69 63 70 60 71 62 72 61 73 48 74 49 75
REMARK SMILES IDX 53 76 50 77 52 78 51 79
REMARK H PARENT 4 24 68 47 46 58
REMARK Flexibility Score: inf
ROOT
ATOM      1  O   UNL     1      10.619  -1.865   0.183  1.00  0.00    -0.374 OA
ENDROOT
BRANCH   1   2
ATOM      2  C   UNL     1       9.866  -2.221   1.342  1.00  0.00     0.202 C 
BRANCH   2   3
ATOM      3  C   UNL     1       8.728  -1.286   1.761  1.00  0.00     0.261 C 
BRANCH   3   4
ATOM      4  O   UNL     1       7.718  -1.209   0.743  1.00  0.00    -0.460 OA
BRANCH   4   5
ATOM      5  C   UNL     1       7.559   0.014   0.175  1.00  0.00     0.341 C 
ATOM      6  O   UNL     1       8.040   1.065   0.559  1.00  0.00    -0.246 OA
BRANCH   5   7
ATOM      7  C   UNL     1       6.796  -0.136  -1.079  1.00  0.00     0.096 A 
ATOM      8  C   UNL     1       4.960  -1.110  -2.367  1.00  0.00    -0.017 A 
ATOM      9  C   UNL     1       5.381  -0.358  -3.477  1.00  0.00     0.012 A 
ATOM     10  C   UNL     1       5.702  -1.006  -1.173  1.00  0.00     0.027 A 
ATOM     11  C   UNL     1       6.495   0.481  -3.395  1.00  0.00     0.041 A 
ATOM     12  C   UNL     1       7.191   0.593  -2.197  1.00  0.00     0.137 A 
ATOM     13  F   UNL     1       8.274   1.382  -2.162  1.00  0.00    -0.206 F 
BRANCH   8  14
ATOM     14  C   UNL     1       3.737  -1.932  -2.418  1.00  0.00    -0.016 A 
ATOM     15  C   UNL     1       1.616  -2.582  -1.376  1.00  0.00     0.041 A 
ATOM     16  C   UNL     1       1.397  -3.498  -2.404  1.00  0.00     0.026 A 
ATOM     17  C   UNL     1       2.791  -1.832  -1.381  1.00  0.00     0.034 A 
ATOM     18  C   UNL     1       2.306  -3.599  -3.460  1.00  0.00     0.003 A 
ATOM     19  C   UNL     1       3.464  -2.815  -3.471  1.00  0.00     0.009 A 
BRANCH  15  20
ATOM     20  N   UNL     1       0.669  -2.502  -0.343  1.00  0.00    -0.326 N 
ATOM     21  C   UNL     1       0.830  -0.077   0.212  1.00  0.00     0.114 C 
ATOM     22  C   UNL     1       0.377  -1.482   0.520  1.00  0.00     0.221 C 
ATOM     23  O   UNL     1      -0.320  -1.714   1.510  1.00  0.00    -0.275 OA
ATOM     24  H   UNL     1       0.126  -3.314  -0.219  1.00  0.00     0.169 HD
ENDBRANCH  15  20
ENDBRANCH   8  14
ENDBRANCH   5   7
ENDBRANCH   4   5
ENDBRANCH   3   4
ENDBRANCH   2   3
ENDBRANCH   1   2
BRANCH   1  25
ATOM     25  C   UNL     1      10.011  -2.040  -1.095  1.00  0.00     0.202 C 
BRANCH  25  26
ATOM     26  C   UNL     1       9.915  -3.465  -1.655  1.00  0.00     0.261 C 
BRANCH  26  27
ATOM     27  O   UNL     1       9.164  -4.354  -0.813  1.00  0.00    -0.460 OA
BRANCH  27  28
ATOM     28  C   UNL     1       9.929  -5.234  -0.124  1.00  0.00     0.338 C 
ATOM     29  O   UNL     1      11.139  -5.375  -0.193  1.00  0.00    -0.246 OA
BRANCH  28  30
ATOM     30  C   UNL     1       9.123  -5.941   0.887  1.00  0.00     0.060 A 
ATOM     31  C   UNL     1       9.609  -5.944   2.201  1.00  0.00     0.016 A 
ATOM     32  C   UNL     1       7.997  -6.690   0.542  1.00  0.00     0.016 A 
ATOM     33  C   UNL     1       9.024  -6.769   3.156  1.00  0.00     0.010 A 
ATOM     34  C   UNL     1       7.411  -7.520   1.504  1.00  0.00     0.010 A 
ATOM     35  C   UNL     1       7.960  -7.607   2.797  1.00  0.00    -0.014 A 
BRANCH  35  36
ATOM     36  C   UNL     1       7.578  -8.706   3.718  1.00  0.00     0.031 A 
ATOM     37  C   UNL     1       8.069 -10.102   3.424  1.00  0.00     0.074 A 
ATOM     38  C   UNL     1       6.885  -8.459   4.844  1.00  0.00     0.049 A 
ATOM     39  N   UNL     1       7.891 -11.206   4.105  1.00  0.00    -0.248 NA
ATOM     40  C   UNL     1       8.872 -10.275   2.201  1.00  0.00     0.031 C 
ATOM     41  C   UNL     1       6.403  -7.146   5.272  1.00  0.00     0.029 A 
ATOM     42  N   UNL     1       6.482  -9.308   5.843  1.00  0.00    -0.354 N 
ATOM     43  C   UNL     1       8.561 -12.198   3.397  1.00  0.00     0.074 A 
ATOM     44  C   UNL     1       9.106 -11.578   2.210  1.00  0.00     0.031 C 
ATOM     45  C   UNL     1       5.776  -7.277   6.455  1.00  0.00     0.029 A 
ATOM     46  C   UNL     1       5.787  -8.684   6.850  1.00  0.00     0.049 A 
ATOM     47  H   UNL     1       6.673 -10.274   5.838  1.00  0.00     0.167 HD
ATOM     48  C   UNL     1       8.727 -13.504   3.713  1.00  0.00     0.031 A 
ATOM     49  C   UNL     1       5.219  -9.195   7.958  1.00  0.00     0.031 A 
ATOM     50  C   UNL     1       8.180 -14.129   4.888  1.00  0.00     0.049 A 
ATOM     51  C   UNL     1       5.339 -10.671   8.235  1.00  0.00     0.074 A 
ATOM     52  C   UNL     1       8.279 -15.450   5.289  1.00  0.00     0.029 A 
ATOM     53  N   UNL     1       7.432 -13.473   5.852  1.00  0.00    -0.354 N 
ATOM     54  N   UNL     1       5.984 -11.594   7.562  1.00  0.00    -0.248 NA
ATOM     55  C   UNL     1       4.663 -11.171   9.441  1.00  0.00     0.031 C 
ATOM     56  C   UNL     1       7.548 -15.604   6.472  1.00  0.00     0.029 A 
ATOM     57  C   UNL     1       7.050 -14.365   6.840  1.00  0.00     0.049 A 
ATOM     58  H   UNL     1       7.205 -12.515   5.837  1.00  0.00     0.167 HD
ATOM     59  C   UNL     1       5.825 -12.771   8.285  1.00  0.00     0.074 A 
ATOM     60  C   UNL     1       5.045 -12.439   9.459  1.00  0.00     0.031 C 
ATOM     61  C   UNL     1       6.282 -14.017   8.006  1.00  0.00     0.031 A 
BRANCH  48  62
ATOM     62  C   UNL     1       9.527 -14.352   2.762  1.00  0.00    -0.014 A 
ATOM     63  C   UNL     1      10.917 -14.194   2.642  1.00  0.00     0.009 A 
ATOM     64  C   UNL     1       8.890 -15.350   2.008  1.00  0.00     0.009 A 
ATOM     65  C   UNL     1      11.648 -14.999   1.766  1.00  0.00     0.001 A 
ATOM     66  C   UNL     1       9.628 -16.174   1.156  1.00  0.00     0.001 A 
ATOM     67  C   UNL     1      11.004 -15.993   1.029  1.00  0.00     0.000 A 
ENDBRANCH  48  62
BRANCH  49  68
ATOM     68  C   UNL     1       4.465  -8.320   8.898  1.00  0.00    -0.014 A 
ATOM     69  C   UNL     1       4.916  -8.122  10.213  1.00  0.00     0.009 A 
ATOM     70  C   UNL     1       3.249  -7.740   8.506  1.00  0.00     0.009 A 
ATOM     71  C   UNL     1       4.141  -7.404  11.127  1.00  0.00     0.001 A 
ATOM     72  C   UNL     1       2.494  -6.992   9.412  1.00  0.00     0.001 A 
ATOM     73  C   UNL     1       2.931  -6.840  10.726  1.00  0.00     0.000 A 
ENDBRANCH  49  68
BRANCH  61  74
ATOM     74  C   UNL     1       5.999 -15.094   9.019  1.00  0.00    -0.014 A 
ATOM     75  C   UNL     1       4.698 -15.573   9.242  1.00  0.00     0.009 A 
ATOM     76  C   UNL     1       7.059 -15.641   9.761  1.00  0.00     0.009 A 
ATOM     77  C   UNL     1       4.458 -16.535  10.225  1.00  0.00     0.001 A 
ATOM     78  C   UNL     1       6.821 -16.630  10.716  1.00  0.00     0.001 A 
ATOM     79  C   UNL     1       5.519 -17.064  10.960  1.00  0.00     0.000 A 
ENDBRANCH  61  74
ENDBRANCH  35  36
ENDBRANCH  28  30
ENDBRANCH  27  28
ENDBRANCH  26  27
ENDBRANCH  25  26
ENDBRANCH   1  25
TORSDOF 16
