REMARK SMILES Cc1ccccc1CSc1cccc(C(=O)OCCOCCOC(=O)c2ccc(-c3c4nc(c(-c5ccccc5)c5ccc([nH]5)c(-c5ccccc5)c5nc(c(-c6ccccc6)c6ccc3[nH]6)C=C5)C=C4)cc2)n1
REMARK SMILES IDX 19 1 18 2 17 3 15 4 16 5 14 6 10 7 11 8 74 9 12 10 13 11
REMARK SMILES IDX 9 12 8 13 7 14 1 15 2 16 3 17 4 18 6 19 5 20 20 21 21 22
REMARK SMILES IDX 22 23 23 24 24 25 25 26 26 27 27 28 73 29 28 30 72 31 29 32
REMARK SMILES IDX 30 33 31 34 66 35 32 36 71 37 65 38 67 39 33 40 70 41 64 42
REMARK SMILES IDX 63 43 34 45 56 46 41 47 55 48 42 49 45 50 54 51 68 52 43 53
REMARK SMILES IDX 44 54 53 56 69 57 46 58 35 59 36 60 40 61 37 62 39 63 38 64
REMARK SMILES IDX 57 65 58 66 62 67 59 68 61 69 60 70 47 71 48 72 52 73 49 74
REMARK SMILES IDX 51 75 50 76
REMARK H PARENT 67 44 45 55
REMARK Flexibility Score: inf
ROOT
ATOM      1  C   UNL     1       3.075  -1.844  -4.927  1.00  0.00     0.202 C 
ENDROOT
BRANCH   1   2
ATOM      2  C   UNL     1       1.798  -1.717  -5.701  1.00  0.00     0.261 C 
BRANCH   2   3
ATOM      3  O   UNL     1       1.262  -0.385  -5.583  1.00  0.00    -0.459 OA
BRANCH   3   4
ATOM      4  C   UNL     1       0.633  -0.021  -4.420  1.00  0.00     0.357 C 
ATOM      5  O   UNL     1       0.117  -0.760  -3.616  1.00  0.00    -0.244 OA
BRANCH   4   6
ATOM      6  C   UNL     1       0.812   1.458  -4.260  1.00  0.00     0.149 A 
ATOM      7  C   UNL     1       0.845   3.252  -2.803  1.00  0.00     0.097 A 
ATOM      8  C   UNL     1       1.431   4.064  -3.769  1.00  0.00     0.035 A 
ATOM      9  N   UNL     1       0.543   1.962  -3.030  1.00  0.00    -0.234 NA
ATOM     10  C   UNL     1       1.681   3.541  -5.034  1.00  0.00     0.005 A 
ATOM     11  C   UNL     1       1.346   2.223  -5.293  1.00  0.00     0.036 A 
BRANCH   7  12
ATOM     12  S   UNL     1       0.372   3.966  -1.241  1.00  0.00    -0.102 SA
BRANCH  12  13
ATOM     13  C   UNL     1       1.012   2.725  -0.068  1.00  0.00     0.112 C 
BRANCH  13  14
ATOM     14  C   UNL     1       0.302   1.388   0.011  1.00  0.00    -0.035 A 
ATOM     15  C   UNL     1       2.508   0.167   0.460  1.00  0.00     0.044 C 
ATOM     16  C   UNL     1       1.018   0.192   0.252  1.00  0.00    -0.047 A 
ATOM     17  C   UNL     1       0.334  -1.038   0.251  1.00  0.00     0.004 A 
ATOM     18  C   UNL     1      -1.049  -1.089   0.094  1.00  0.00     0.000 A 
ATOM     19  C   UNL     1      -1.101   1.314  -0.089  1.00  0.00     0.005 A 
ATOM     20  C   UNL     1      -1.768   0.089  -0.055  1.00  0.00     0.000 A 
ENDBRANCH  13  14
ENDBRANCH  12  13
ENDBRANCH   7  12
ENDBRANCH   4   6
ENDBRANCH   3   4
ENDBRANCH   2   3
ENDBRANCH   1   2
BRANCH   1  21
ATOM     21  O   UNL     1       2.660  -1.912  -3.575  1.00  0.00    -0.374 OA
BRANCH  21  22
ATOM     22  C   UNL     1       3.662  -1.790  -2.595  1.00  0.00     0.202 C 
BRANCH  22  23
ATOM     23  C   UNL     1       4.728  -2.882  -2.703  1.00  0.00     0.261 C 
BRANCH  23  24
ATOM     24  O   UNL     1       4.138  -4.177  -2.446  1.00  0.00    -0.460 OA
BRANCH  24  25
ATOM     25  C   UNL     1       3.785  -4.901  -3.546  1.00  0.00     0.338 C 
ATOM     26  O   UNL     1       4.528  -5.174  -4.475  1.00  0.00    -0.246 OA
BRANCH  25  27
ATOM     27  C   UNL     1       2.301  -5.068  -3.594  1.00  0.00     0.060 A 
ATOM     28  C   UNL     1       1.680  -5.521  -4.774  1.00  0.00     0.016 A 
ATOM     29  C   UNL     1       1.547  -4.431  -2.615  1.00  0.00     0.016 A 
ATOM     30  C   UNL     1       0.347  -5.174  -5.048  1.00  0.00     0.010 A 
ATOM     31  C   UNL     1       0.300  -3.963  -2.960  1.00  0.00     0.010 A 
ATOM     32  C   UNL     1      -0.308  -4.309  -4.179  1.00  0.00    -0.014 A 
BRANCH  32  33
ATOM     33  C   UNL     1      -1.599  -3.647  -4.394  1.00  0.00     0.031 A 
ATOM     34  C   UNL     1      -2.661  -3.924  -3.398  1.00  0.00     0.074 A 
ATOM     35  C   UNL     1      -1.719  -2.576  -5.220  1.00  0.00     0.049 A 
ATOM     36  N   UNL     1      -3.857  -3.465  -3.481  1.00  0.00    -0.248 NA
ATOM     37  C   UNL     1      -2.479  -4.772  -2.217  1.00  0.00     0.031 C 
ATOM     38  C   UNL     1      -2.642  -1.442  -5.110  1.00  0.00     0.029 A 
ATOM     39  N   UNL     1      -1.000  -2.249  -6.373  1.00  0.00    -0.354 N 
ATOM     40  C   UNL     1      -4.437  -3.598  -2.243  1.00  0.00     0.074 A 
ATOM     41  C   UNL     1      -3.599  -4.528  -1.533  1.00  0.00     0.031 C 
ATOM     42  C   UNL     1      -2.654  -0.750  -6.264  1.00  0.00     0.029 A 
ATOM     43  C   UNL     1      -1.832  -1.487  -7.207  1.00  0.00     0.049 A 
ATOM     44  H   UNL     1      -0.071  -2.509  -6.567  1.00  0.00     0.167 HD
ATOM     45  C   UNL     1      -5.480  -2.780  -1.939  1.00  0.00     0.031 A 
ATOM     46  C   UNL     1      -2.159  -1.920  -8.453  1.00  0.00     0.031 A 
ATOM     47  C   UNL     1      -5.855  -1.964  -3.101  1.00  0.00     0.049 A 
ATOM     48  C   UNL     1      -3.645  -2.133  -8.481  1.00  0.00     0.074 A 
ATOM     49  C   UNL     1      -5.687  -0.628  -3.425  1.00  0.00     0.029 A 
ATOM     50  N   UNL     1      -6.187  -2.613  -4.288  1.00  0.00    -0.354 N 
ATOM     51  N   UNL     1      -4.334  -2.377  -7.398  1.00  0.00    -0.248 NA
ATOM     52  C   UNL     1      -4.488  -1.952  -9.655  1.00  0.00     0.031 C 
ATOM     53  C   UNL     1      -5.881  -0.494  -4.833  1.00  0.00     0.029 A 
ATOM     54  C   UNL     1      -6.189  -1.741  -5.357  1.00  0.00     0.049 A 
ATOM     55  H   UNL     1      -6.394  -3.573  -4.356  1.00  0.00     0.167 HD
ATOM     56  C   UNL     1      -5.659  -2.225  -7.665  1.00  0.00     0.074 A 
ATOM     57  C   UNL     1      -5.715  -2.033  -9.105  1.00  0.00     0.031 C 
ATOM     58  C   UNL     1      -6.603  -2.204  -6.680  1.00  0.00     0.031 A 
BRANCH  45  59
ATOM     59  C   UNL     1      -6.044  -2.559  -0.555  1.00  0.00    -0.014 A 
ATOM     60  C   UNL     1      -6.951  -1.503  -0.347  1.00  0.00     0.009 A 
ATOM     61  C   UNL     1      -5.720  -3.315   0.586  1.00  0.00     0.009 A 
ATOM     62  C   UNL     1      -7.480  -1.208   0.918  1.00  0.00     0.001 A 
ATOM     63  C   UNL     1      -6.242  -3.027   1.855  1.00  0.00     0.001 A 
ATOM     64  C   UNL     1      -7.123  -1.970   2.022  1.00  0.00     0.000 A 
ENDBRANCH  45  59
BRANCH  46  65
ATOM     65  C   UNL     1      -1.056  -2.728  -9.063  1.00  0.00    -0.014 A 
ATOM     66  C   UNL     1       0.107  -2.021  -9.458  1.00  0.00     0.009 A 
ATOM     67  C   UNL     1      -0.919  -4.092  -8.758  1.00  0.00     0.009 A 
ATOM     68  C   UNL     1       1.376  -2.612  -9.385  1.00  0.00     0.001 A 
ATOM     69  C   UNL     1       0.357  -4.677  -8.686  1.00  0.00     0.001 A 
ATOM     70  C   UNL     1       1.503  -3.927  -8.951  1.00  0.00     0.000 A 
ENDBRANCH  46  65
BRANCH  58  71
ATOM     71  C   UNL     1      -8.040  -2.605  -6.877  1.00  0.00    -0.014 A 
ATOM     72  C   UNL     1      -8.537  -3.178  -8.052  1.00  0.00     0.009 A 
ATOM     73  C   UNL     1      -8.912  -2.587  -5.764  1.00  0.00     0.009 A 
ATOM     74  C   UNL     1      -9.843  -3.673  -8.123  1.00  0.00     0.001 A 
ATOM     75  C   UNL     1     -10.188  -3.141  -5.809  1.00  0.00     0.001 A 
ATOM     76  C   UNL     1     -10.660  -3.672  -6.998  1.00  0.00     0.000 A 
ENDBRANCH  58  71
ENDBRANCH  32  33
ENDBRANCH  25  27
ENDBRANCH  24  25
ENDBRANCH  23  24
ENDBRANCH  22  23
ENDBRANCH  21  22
ENDBRANCH   1  21
TORSDOF 17
