REMARK SMILES Cc1cccc(-c2ncc(C[NH+]3CCC4(CC3)NC(=O)C[C@H]4C(=O)OCCOCCOC(=O)c3ccc(-c4c5nc(c(-c6ccccc6)c6ccc([nH]6)c(-c6ccccc6)c6nc(c(-c7ccccc7)c7ccc4[nH]7)C=C6)C=C5)cc3)cn2)c1
REMARK SMILES IDX 27 1 26 2 25 3 23 4 24 5 22 6 12 7 13 8 17 9 14 11 16 12
REMARK SMILES IDX 15 13 18 14 19 15 21 17 20 18 11 19 10 20 7 21 8 22 83 23
REMARK SMILES IDX 9 24 82 25 6 26 1 27 2 28 3 29 84 30 4 31 5 32 28 33 29 34
REMARK SMILES IDX 30 35 31 36 32 37 33 38 34 39 35 40 81 41 36 42 80 43 37 44
REMARK SMILES IDX 38 45 39 46 74 47 40 48 79 49 73 50 75 51 41 52 78 53 72 54
REMARK SMILES IDX 71 55 42 57 64 58 49 59 63 60 50 61 53 62 62 63 76 64 51 65
REMARK SMILES IDX 52 66 61 68 77 69 54 70 43 71 44 72 48 73 45 74 47 75 46 76
REMARK SMILES IDX 65 77 66 78 70 79 67 80 69 81 68 82 55 83 56 84 60 85 57 86
REMARK SMILES IDX 59 87 58 88
REMARK H PARENT 12 10 18 16 75 56 53 67
REMARK Flexibility Score: inf
ROOT
ATOM      1  C   UNL     1      -2.059   5.724  -3.169  1.00  0.00     0.202 C 
ENDROOT
BRANCH   1   2
ATOM      2  C   UNL     1      -0.597   5.369  -3.120  1.00  0.00     0.261 C 
BRANCH   2   3
ATOM      3  O   UNL     1       0.168   5.561  -1.899  1.00  0.00    -0.463 OA
BRANCH   3   4
ATOM      4  C   UNL     1       0.443   6.800  -1.404  1.00  0.00     0.311 C 
ATOM      5  O   UNL     1       0.480   7.830  -2.059  1.00  0.00    -0.252 OA
BRANCH   4   6
ATOM      6  C   UNL     1       0.655   6.754   0.122  1.00  0.00     0.134 C 
ATOM      7  N   UNL     1      -3.240   6.699   1.272  1.00  0.00    -0.331 N 
ATOM      8  C   UNL     1      -2.239   7.011   2.301  1.00  0.00     0.264 C 
ATOM      9  C   UNL     1      -2.590   6.579  -0.015  1.00  0.00     0.264 C 
ATOM     10  H   UNL     1      -3.852   7.513   1.321  1.00  0.00     0.348 HD
ATOM     11  C   UNL     1      -0.865   6.276   2.267  1.00  0.00     0.091 C 
ATOM     12  C   UNL     1      -1.562   5.472   0.078  1.00  0.00     0.091 C 
ATOM     13  C   UNL     1      -0.337   5.832   0.873  1.00  0.00     0.064 C 
ATOM     14  N   UNL     1       0.447   4.621   1.058  1.00  0.00    -0.349 N 
ATOM     15  C   UNL     1       1.778   4.734   0.738  1.00  0.00     0.221 C 
ATOM     16  H   UNL     1       0.052   3.782   1.388  1.00  0.00     0.164 HD
ATOM     17  C   UNL     1       2.047   6.185   0.439  1.00  0.00     0.117 C 
ATOM     18  O   UNL     1       2.575   3.830   0.759  1.00  0.00    -0.275 OA
BRANCH   7  19
ATOM     19  C   UNL     1      -4.309   5.685   1.506  1.00  0.00     0.302 C 
BRANCH  19  20
ATOM     20  C   UNL     1      -3.985   4.224   1.245  1.00  0.00     0.043 A 
ATOM     21  C   UNL     1      -2.607   1.949   0.597  1.00  0.00     0.159 A 
ATOM     22  N   UNL     1      -2.590   2.364   1.882  1.00  0.00    -0.236 NA
ATOM     23  N   UNL     1      -3.354   2.518  -0.371  1.00  0.00    -0.236 NA
ATOM     24  C   UNL     1      -3.305   3.472   2.182  1.00  0.00     0.124 A 
ATOM     25  C   UNL     1      -4.041   3.637  -0.018  1.00  0.00     0.124 A 
BRANCH  21  26
ATOM     26  C   UNL     1      -1.706   0.836   0.255  1.00  0.00     0.019 A 
ATOM     27  C   UNL     1       2.059   0.054   0.035  1.00  0.00     0.044 C 
ATOM     28  C   UNL     1       0.564  -0.106   0.024  1.00  0.00    -0.050 A 
ATOM     29  C   UNL     1       0.011  -1.382  -0.113  1.00  0.00     0.003 A 
ATOM     30  C   UNL     1      -0.301   0.991   0.197  1.00  0.00     0.015 A 
ATOM     31  C   UNL     1      -1.372  -1.552  -0.105  1.00  0.00     0.001 A 
ATOM     32  C   UNL     1      -2.220  -0.453   0.070  1.00  0.00     0.012 A 
ENDBRANCH  21  26
ENDBRANCH  19  20
ENDBRANCH   7  19
ENDBRANCH   4   6
ENDBRANCH   3   4
ENDBRANCH   2   3
ENDBRANCH   1   2
BRANCH   1  33
ATOM     33  O   UNL     1      -2.152   7.134  -3.111  1.00  0.00    -0.374 OA
BRANCH  33  34
ATOM     34  C   UNL     1      -3.430   7.735  -3.257  1.00  0.00     0.202 C 
BRANCH  34  35
ATOM     35  C   UNL     1      -4.472   6.995  -4.116  1.00  0.00     0.261 C 
BRANCH  35  36
ATOM     36  O   UNL     1      -4.210   7.192  -5.524  1.00  0.00    -0.460 OA
BRANCH  36  37
ATOM     37  C   UNL     1      -3.643   6.151  -6.194  1.00  0.00     0.338 C 
ATOM     38  O   UNL     1      -4.087   5.016  -6.239  1.00  0.00    -0.246 OA
BRANCH  37  39
ATOM     39  C   UNL     1      -2.245   6.518  -6.576  1.00  0.00     0.060 A 
ATOM     40  C   UNL     1      -1.345   5.525  -7.005  1.00  0.00     0.016 A 
ATOM     41  C   UNL     1      -1.760   7.727  -6.096  1.00  0.00     0.016 A 
ATOM     42  C   UNL     1       0.032   5.683  -6.781  1.00  0.00     0.010 A 
ATOM     43  C   UNL     1      -0.448   7.779  -5.695  1.00  0.00     0.010 A 
ATOM     44  C   UNL     1       0.468   6.770  -6.034  1.00  0.00    -0.014 A 
BRANCH  44  45
ATOM     45  C   UNL     1       1.813   6.989  -5.486  1.00  0.00     0.031 A 
ATOM     46  C   UNL     1       2.489   8.231  -5.914  1.00  0.00     0.074 A 
ATOM     47  C   UNL     1       2.339   6.263  -4.462  1.00  0.00     0.049 A 
ATOM     48  N   UNL     1       3.736   8.449  -5.722  1.00  0.00    -0.248 NA
ATOM     49  C   UNL     1       1.841   9.327  -6.638  1.00  0.00     0.031 C 
ATOM     50  C   UNL     1       3.436   6.597  -3.548  1.00  0.00     0.029 A 
ATOM     51  N   UNL     1       1.991   4.981  -4.028  1.00  0.00    -0.354 N 
ATOM     52  C   UNL     1       3.953   9.788  -5.912  1.00  0.00     0.074 A 
ATOM     53  C   UNL     1       2.791  10.261  -6.614  1.00  0.00     0.031 C 
ATOM     54  C   UNL     1       3.861   5.475  -2.931  1.00  0.00     0.029 A 
ATOM     55  C   UNL     1       3.130   4.359  -3.508  1.00  0.00     0.049 A 
ATOM     56  H   UNL     1       1.093   4.581  -4.081  1.00  0.00     0.167 HD
ATOM     57  C   UNL     1       5.042  10.340  -5.312  1.00  0.00     0.031 A 
ATOM     58  C   UNL     1       3.587   3.230  -4.107  1.00  0.00     0.031 A 
ATOM     59  C   UNL     1       5.900   9.292  -4.712  1.00  0.00     0.049 A 
ATOM     60  C   UNL     1       4.905   3.557  -4.758  1.00  0.00     0.074 A 
ATOM     61  C   UNL     1       6.264   8.933  -3.425  1.00  0.00     0.029 A 
ATOM     62  N   UNL     1       6.240   8.190  -5.503  1.00  0.00    -0.354 N 
ATOM     63  N   UNL     1       5.397   4.767  -4.784  1.00  0.00    -0.248 NA
ATOM     64  C   UNL     1       5.775   2.607  -5.427  1.00  0.00     0.031 C 
ATOM     65  C   UNL     1       6.804   7.600  -3.466  1.00  0.00     0.029 A 
ATOM     66  C   UNL     1       6.811   7.160  -4.780  1.00  0.00     0.049 A 
ATOM     67  H   UNL     1       6.089   8.153  -6.476  1.00  0.00     0.167 HD
ATOM     68  C   UNL     1       6.601   4.800  -5.403  1.00  0.00     0.074 A 
ATOM     69  C   UNL     1       6.772   3.416  -5.838  1.00  0.00     0.031 C 
ATOM     70  C   UNL     1       7.308   5.971  -5.499  1.00  0.00     0.031 A 
BRANCH  57  71
ATOM     71  C   UNL     1       5.221  11.833  -5.125  1.00  0.00    -0.014 A 
ATOM     72  C   UNL     1       6.274  12.314  -4.331  1.00  0.00     0.009 A 
ATOM     73  C   UNL     1       4.369  12.826  -5.654  1.00  0.00     0.009 A 
ATOM     74  C   UNL     1       6.454  13.686  -4.081  1.00  0.00     0.001 A 
ATOM     75  C   UNL     1       4.542  14.197  -5.416  1.00  0.00     0.001 A 
ATOM     76  C   UNL     1       5.589  14.629  -4.624  1.00  0.00     0.000 A 
ENDBRANCH  57  71
BRANCH  58  77
ATOM     77  C   UNL     1       2.442   2.368  -4.576  1.00  0.00    -0.014 A 
ATOM     78  C   UNL     1       1.618   1.796  -3.572  1.00  0.00     0.009 A 
ATOM     79  C   UNL     1       1.880   2.516  -5.854  1.00  0.00     0.009 A 
ATOM     80  C   UNL     1       0.259   1.522  -3.796  1.00  0.00     0.001 A 
ATOM     81  C   UNL     1       0.516   2.233  -6.076  1.00  0.00     0.001 A 
ATOM     82  C   UNL     1      -0.302   1.780  -5.041  1.00  0.00     0.000 A 
ENDBRANCH  58  77
BRANCH  70  83
ATOM     83  C   UNL     1       8.527   6.144  -6.371  1.00  0.00    -0.014 A 
ATOM     84  C   UNL     1       9.364   5.105  -6.776  1.00  0.00     0.009 A 
ATOM     85  C   UNL     1       8.865   7.434  -6.839  1.00  0.00     0.009 A 
ATOM     86  C   UNL     1      10.373   5.313  -7.722  1.00  0.00     0.001 A 
ATOM     87  C   UNL     1       9.879   7.656  -7.766  1.00  0.00     0.001 A 
ATOM     88  C   UNL     1      10.614   6.583  -8.235  1.00  0.00     0.000 A 
ENDBRANCH  70  83
ENDBRANCH  44  45
ENDBRANCH  37  39
ENDBRANCH  36  37
ENDBRANCH  35  36
ENDBRANCH  34  35
ENDBRANCH  33  34
ENDBRANCH   1  33
TORSDOF 17
