REMARK SMILES Cc1cccc(N2C(=O)/C(=C/c3ccc(C(=O)OCCOCCOC(=O)c4ccc(-c5c6nc(c(-c7ccccc7)c7ccc([nH]7)c(-c7ccccc7)c7nc(c(-c8ccccc8)c8ccc5[nH]8)C=C7)C=C6)cc4)cc3)c3ccccc3C2=O)c1
REMARK SMILES IDX 21 1 20 2 19 3 18 4 16 5 17 6 15 7 12 8 13 9 76 10 14 11
REMARK SMILES IDX 75 12 11 13 7 14 8 15 83 16 9 17 10 18 82 19 84 20 77 21
REMARK SMILES IDX 81 22 78 23 80 24 79 25 6 26 1 27 2 28 3 29 85 30 4 31 5 32
REMARK SMILES IDX 22 33 23 34 24 35 25 36 26 37 27 38 28 39 74 40 29 41 73 42
REMARK SMILES IDX 30 43 31 44 32 45 67 46 33 47 72 48 66 49 68 50 34 51 71 52
REMARK SMILES IDX 65 53 64 54 35 56 57 57 42 58 56 59 43 60 46 61 55 62 69 63
REMARK SMILES IDX 44 64 45 65 54 67 70 68 47 69 36 70 37 71 41 72 38 73 40 74
REMARK SMILES IDX 39 75 58 76 59 77 63 78 60 79 62 80 61 81 48 82 49 83 53 84
REMARK SMILES IDX 50 85 52 86 51 87
REMARK H PARENT 68 55 46 66
REMARK Flexibility Score: inf
ROOT
ATOM      1  O   UNL     1      -2.702  12.483   0.965  1.00  0.00    -0.374 OA
ENDROOT
BRANCH   1   2
ATOM      2  C   UNL     1      -3.581  11.783   1.830  1.00  0.00     0.202 C 
BRANCH   2   3
ATOM      3  C   UNL     1      -4.744  11.338   0.984  1.00  0.00     0.261 C 
BRANCH   3   4
ATOM      4  O   UNL     1      -4.391  10.272   0.080  1.00  0.00    -0.460 OA
BRANCH   4   5
ATOM      5  C   UNL     1      -3.741  10.554  -1.093  1.00  0.00     0.338 C 
ATOM      6  O   UNL     1      -3.463  11.607  -1.584  1.00  0.00    -0.246 OA
BRANCH   5   7
ATOM      7  C   UNL     1      -3.234   9.251  -1.565  1.00  0.00     0.060 A 
ATOM      8  C   UNL     1      -2.026   6.792  -1.432  1.00  0.00    -0.025 A 
ATOM      9  C   UNL     1      -1.253   7.921  -1.727  1.00  0.00     0.009 A 
ATOM     10  C   UNL     1      -3.423   6.865  -1.462  1.00  0.00     0.009 A 
ATOM     11  C   UNL     1      -1.863   9.165  -1.808  1.00  0.00     0.016 A 
ATOM     12  C   UNL     1      -4.034   8.109  -1.494  1.00  0.00     0.016 A 
BRANCH   8  13
ATOM     13  C   UNL     1      -1.343   5.588  -0.965  1.00  0.00     0.022 C 
ATOM     14  N   UNL     1      -1.601   2.488   0.530  1.00  0.00    -0.242 N 
ATOM     15  C   UNL     1      -0.836   3.652   0.321  1.00  0.00     0.265 C 
ATOM     16  C   UNL     1      -2.966   2.589   0.904  1.00  0.00     0.265 C 
ATOM     17  O   UNL     1       0.383   3.782   0.245  1.00  0.00    -0.268 OA
ATOM     18  C   UNL     1      -1.657   4.879   0.141  1.00  0.00     0.049 C 
ATOM     19  C   UNL     1      -3.441   3.898   1.427  1.00  0.00     0.048 A 
ATOM     20  O   UNL     1      -3.823   1.709   0.867  1.00  0.00    -0.268 OA
ATOM     21  C   UNL     1      -2.757   5.061   1.083  1.00  0.00    -0.000 A 
ATOM     22  C   UNL     1      -4.571   3.960   2.256  1.00  0.00     0.014 A 
ATOM     23  C   UNL     1      -3.150   6.280   1.651  1.00  0.00     0.010 A 
ATOM     24  C   UNL     1      -4.988   5.184   2.779  1.00  0.00     0.001 A 
ATOM     25  C   UNL     1      -4.268   6.341   2.489  1.00  0.00     0.001 A 
BRANCH  14  26
ATOM     26  C   UNL     1      -0.979   1.178   0.332  1.00  0.00     0.053 A 
ATOM     27  C   UNL     1       2.538  -0.314  -0.031  1.00  0.00     0.044 C 
ATOM     28  C   UNL     1       1.043  -0.223   0.035  1.00  0.00    -0.049 A 
ATOM     29  C   UNL     1       0.259  -1.363  -0.083  1.00  0.00     0.003 A 
ATOM     30  C   UNL     1       0.418   1.020   0.255  1.00  0.00     0.030 A 
ATOM     31  C   UNL     1      -1.124  -1.253  -0.003  1.00  0.00     0.002 A 
ATOM     32  C   UNL     1      -1.728  -0.003   0.196  1.00  0.00     0.027 A 
ENDBRANCH  14  26
ENDBRANCH   8  13
ENDBRANCH   5   7
ENDBRANCH   4   5
ENDBRANCH   3   4
ENDBRANCH   2   3
ENDBRANCH   1   2
BRANCH   1  33
ATOM     33  C   UNL     1      -1.507  12.961   1.553  1.00  0.00     0.202 C 
BRANCH  33  34
ATOM     34  C   UNL     1      -1.748  14.033   2.623  1.00  0.00     0.261 C 
BRANCH  34  35
ATOM     35  O   UNL     1      -2.404  15.171   2.029  1.00  0.00    -0.460 OA
BRANCH  35  36
ATOM     36  C   UNL     1      -3.740  15.273   2.268  1.00  0.00     0.338 C 
ATOM     37  O   UNL     1      -4.274  15.167   3.360  1.00  0.00    -0.246 OA
BRANCH  36  38
ATOM     38  C   UNL     1      -4.483  15.248   0.976  1.00  0.00     0.060 A 
ATOM     39  C   UNL     1      -5.879  15.063   0.975  1.00  0.00     0.016 A 
ATOM     40  C   UNL     1      -3.763  15.083  -0.204  1.00  0.00     0.016 A 
ATOM     41  C   UNL     1      -6.522  14.553  -0.163  1.00  0.00     0.010 A 
ATOM     42  C   UNL     1      -4.387  14.499  -1.286  1.00  0.00     0.010 A 
ATOM     43  C   UNL     1      -5.756  14.188  -1.268  1.00  0.00    -0.014 A 
BRANCH  43  44
ATOM     44  C   UNL     1      -6.209  13.378  -2.406  1.00  0.00     0.031 A 
ATOM     45  C   UNL     1      -6.062  13.923  -3.776  1.00  0.00     0.074 A 
ATOM     46  C   UNL     1      -6.457  12.052  -2.261  1.00  0.00     0.049 A 
ATOM     47  N   UNL     1      -6.514  13.337  -4.830  1.00  0.00    -0.248 NA
ATOM     48  C   UNL     1      -5.429  15.207  -4.085  1.00  0.00     0.031 C 
ATOM     49  C   UNL     1      -6.339  10.996  -3.271  1.00  0.00     0.029 A 
ATOM     50  N   UNL     1      -6.918  11.355  -1.142  1.00  0.00    -0.354 N 
ATOM     51  C   UNL     1      -5.896  13.911  -5.911  1.00  0.00     0.074 A 
ATOM     52  C   UNL     1      -5.370  15.158  -5.420  1.00  0.00     0.031 C 
ATOM     53  C   UNL     1      -6.962   9.887  -2.839  1.00  0.00     0.029 A 
ATOM     54  C   UNL     1      -7.622  10.228  -1.592  1.00  0.00     0.049 A 
ATOM     55  H   UNL     1      -6.774  11.610  -0.202  1.00  0.00     0.167 HD
ATOM     56  C   UNL     1      -5.769  13.176  -7.050  1.00  0.00     0.031 A 
ATOM     57  C   UNL     1      -8.933  10.053  -1.274  1.00  0.00     0.031 A 
ATOM     58  C   UNL     1      -6.545  11.929  -6.974  1.00  0.00     0.049 A 
ATOM     59  C   UNL     1      -9.746  10.069  -2.538  1.00  0.00     0.074 A 
ATOM     60  C   UNL     1      -6.206  10.588  -6.910  1.00  0.00     0.029 A 
ATOM     61  N   UNL     1      -7.902  12.002  -6.657  1.00  0.00    -0.354 N 
ATOM     62  N   UNL     1      -9.292  10.594  -3.643  1.00  0.00    -0.248 NA
ATOM     63  C   UNL     1     -11.056   9.453  -2.714  1.00  0.00     0.031 C 
ATOM     64  C   UNL     1      -7.353   9.870  -6.456  1.00  0.00     0.029 A 
ATOM     65  C   UNL     1      -8.398  10.767  -6.291  1.00  0.00     0.049 A 
ATOM     66  H   UNL     1      -8.437  12.827  -6.691  1.00  0.00     0.167 HD
ATOM     67  C   UNL     1     -10.130  10.303  -4.670  1.00  0.00     0.074 A 
ATOM     68  C   UNL     1     -11.257   9.641  -4.034  1.00  0.00     0.031 C 
ATOM     69  C   UNL     1      -9.814  10.610  -5.959  1.00  0.00     0.031 A 
BRANCH  56  70
ATOM     70  C   UNL     1      -4.792  13.485  -8.165  1.00  0.00    -0.014 A 
ATOM     71  C   UNL     1      -4.718  12.630  -9.280  1.00  0.00     0.009 A 
ATOM     72  C   UNL     1      -3.864  14.545  -8.152  1.00  0.00     0.009 A 
ATOM     73  C   UNL     1      -3.787  12.828 -10.313  1.00  0.00     0.001 A 
ATOM     74  C   UNL     1      -2.951  14.768  -9.193  1.00  0.00     0.001 A 
ATOM     75  C   UNL     1      -2.909  13.904 -10.275  1.00  0.00     0.000 A 
ENDBRANCH  56  70
BRANCH  57  76
ATOM     76  C   UNL     1      -9.255  10.602   0.077  1.00  0.00    -0.014 A 
ATOM     77  C   UNL     1      -8.724   9.907   1.190  1.00  0.00     0.009 A 
ATOM     78  C   UNL     1      -9.583  11.957   0.246  1.00  0.00     0.009 A 
ATOM     79  C   UNL     1      -8.398  10.576   2.377  1.00  0.00     0.001 A 
ATOM     80  C   UNL     1      -9.259  12.620   1.442  1.00  0.00     0.001 A 
ATOM     81  C   UNL     1      -8.629  11.943   2.486  1.00  0.00     0.000 A 
ENDBRANCH  57  76
BRANCH  69  82
ATOM     82  C   UNL     1     -10.826  10.762  -7.055  1.00  0.00    -0.014 A 
ATOM     83  C   UNL     1     -12.184  11.006  -6.815  1.00  0.00     0.009 A 
ATOM     84  C   UNL     1     -10.376  10.880  -8.387  1.00  0.00     0.009 A 
ATOM     85  C   UNL     1     -13.057  11.322  -7.860  1.00  0.00     0.001 A 
ATOM     86  C   UNL     1     -11.232  11.249  -9.422  1.00  0.00     0.001 A 
ATOM     87  C   UNL     1     -12.578  11.461  -9.158  1.00  0.00     0.000 A 
ENDBRANCH  69  82
ENDBRANCH  43  44
ENDBRANCH  36  38
ENDBRANCH  35  36
ENDBRANCH  34  35
ENDBRANCH  33  34
ENDBRANCH   1  33
TORSDOF 16
