REMARK SMILES O=C(OCCOCCOC(=O)c1ccccc1C(=O)N1CCOCCOCCOCC1)c1ccc(-c2c3nc(c(-c4ccccc4)c4ccc([nH]4)c(-c4ccccc4)c4nc(c(-c5ccccc5)c5ccc2[nH]5)C=C4)C=C3)cc1
REMARK SMILES IDX 9 1 8 2 7 3 6 4 5 5 4 6 3 7 2 8 1 9 32 10 33 11 79 12 34 13
REMARK SMILES IDX 78 14 35 15 36 16 37 17 72 18 38 19 77 20 71 21 73 22 39 23
REMARK SMILES IDX 76 24 70 25 69 26 40 28 62 29 47 30 61 31 48 32 51 33 60 34
REMARK SMILES IDX 74 35 49 36 50 37 59 39 75 40 52 41 41 42 42 43 46 44 43 45
REMARK SMILES IDX 45 46 44 47 63 48 64 49 68 50 65 51 67 52 66 53 53 54 54 55
REMARK SMILES IDX 58 56 55 57 57 58 56 59 10 60 11 61 12 62 13 63 17 64 14 65
REMARK SMILES IDX 16 66 15 67 18 68 19 69 20 70 21 71 22 72 23 73 24 74 25 75
REMARK SMILES IDX 26 76 27 77 31 79 30 80 29 81 28 82
REMARK H PARENT 73 27 51 38
REMARK Flexibility Score: 70.00
ROOT
ATOM      1  O   UNL     1       3.871   2.208   2.623  1.00  0.00    -0.460 OA
ENDROOT
BRANCH   1   2
ATOM      2  C   UNL     1       3.609   0.806   2.640  1.00  0.00     0.261 C 
BRANCH   2   3
ATOM      3  C   UNL     1       3.381   0.508   1.184  1.00  0.00     0.202 C 
BRANCH   3   4
ATOM      4  O   UNL     1       4.675   0.581   0.579  1.00  0.00    -0.374 OA
BRANCH   4   5
ATOM      5  C   UNL     1       4.748   1.266  -0.663  1.00  0.00     0.202 C 
BRANCH   5   6
ATOM      6  C   UNL     1       4.323   0.405  -1.854  1.00  0.00     0.261 C 
BRANCH   6   7
ATOM      7  O   UNL     1       2.941   0.013  -1.746  1.00  0.00    -0.460 OA
BRANCH   7   8
ATOM      8  C   UNL     1       2.409  -1.184  -1.402  1.00  0.00     0.338 C 
ATOM      9  O   UNL     1       1.197  -1.344  -1.542  1.00  0.00    -0.246 OA
BRANCH   8  10
ATOM     10  C   UNL     1       3.180  -2.303  -0.763  1.00  0.00     0.060 A 
ATOM     11  C   UNL     1       4.440  -2.170  -0.181  1.00  0.00     0.016 A 
ATOM     12  C   UNL     1       2.523  -3.538  -0.609  1.00  0.00     0.016 A 
ATOM     13  C   UNL     1       5.000  -3.158   0.599  1.00  0.00     0.010 A 
ATOM     14  C   UNL     1       3.112  -4.581   0.115  1.00  0.00     0.010 A 
ATOM     15  C   UNL     1       4.352  -4.376   0.726  1.00  0.00    -0.014 A 
BRANCH  15  16
ATOM     16  C   UNL     1       5.174  -5.448   1.293  1.00  0.00     0.031 A 
ATOM     17  C   UNL     1       5.992  -6.242   0.323  1.00  0.00     0.074 A 
ATOM     18  C   UNL     1       5.382  -5.489   2.619  1.00  0.00     0.049 A 
ATOM     19  N   UNL     1       6.842  -7.202   0.550  1.00  0.00    -0.248 NA
ATOM     20  C   UNL     1       5.865  -5.869  -1.101  1.00  0.00     0.031 C 
ATOM     21  C   UNL     1       4.790  -4.571   3.598  1.00  0.00     0.029 A 
ATOM     22  N   UNL     1       6.192  -6.296   3.366  1.00  0.00    -0.354 N 
ATOM     23  C   UNL     1       7.333  -7.560  -0.699  1.00  0.00     0.074 A 
ATOM     24  C   UNL     1       6.700  -6.714  -1.681  1.00  0.00     0.031 C 
ATOM     25  C   UNL     1       5.266  -4.867   4.820  1.00  0.00     0.029 A 
ATOM     26  C   UNL     1       6.136  -6.032   4.713  1.00  0.00     0.049 A 
ATOM     27  H   UNL     1       6.762  -6.998   2.977  1.00  0.00     0.167 HD
ATOM     28  C   UNL     1       8.223  -8.533  -0.990  1.00  0.00     0.031 A 
ATOM     29  C   UNL     1       6.698  -6.704   5.734  1.00  0.00     0.031 A 
ATOM     30  C   UNL     1       8.797  -9.374   0.020  1.00  0.00     0.049 A 
ATOM     31  C   UNL     1       7.541  -7.902   5.379  1.00  0.00     0.074 A 
ATOM     32  C   UNL     1       9.605 -10.483  -0.127  1.00  0.00     0.029 A 
ATOM     33  N   UNL     1       8.604  -9.185   1.383  1.00  0.00    -0.354 N 
ATOM     34  N   UNL     1       7.914  -8.328   4.193  1.00  0.00    -0.248 NA
ATOM     35  C   UNL     1       8.025  -8.722   6.495  1.00  0.00     0.031 C 
ATOM     36  C   UNL     1       9.851 -11.001   1.149  1.00  0.00     0.029 A 
ATOM     37  C   UNL     1       9.257 -10.172   2.092  1.00  0.00     0.049 A 
ATOM     38  H   UNL     1       8.079  -8.455   1.784  1.00  0.00     0.167 HD
ATOM     39  C   UNL     1       8.691  -9.454   4.419  1.00  0.00     0.074 A 
ATOM     40  C   UNL     1       8.759  -9.624   5.859  1.00  0.00     0.031 C 
ATOM     41  C   UNL     1       9.290 -10.285   3.529  1.00  0.00     0.031 A 
BRANCH  28  42
ATOM     42  C   UNL     1       8.498  -8.789  -2.442  1.00  0.00    -0.014 A 
ATOM     43  C   UNL     1       9.255  -7.900  -3.223  1.00  0.00     0.009 A 
ATOM     44  C   UNL     1       7.928  -9.915  -3.056  1.00  0.00     0.009 A 
ATOM     45  C   UNL     1       9.403  -8.118  -4.596  1.00  0.00     0.001 A 
ATOM     46  C   UNL     1       8.100 -10.143  -4.422  1.00  0.00     0.001 A 
ATOM     47  C   UNL     1       8.828  -9.239  -5.193  1.00  0.00     0.000 A 
ENDBRANCH  28  42
BRANCH  29  48
ATOM     48  C   UNL     1       6.403  -6.349   7.151  1.00  0.00    -0.014 A 
ATOM     49  C   UNL     1       7.424  -5.997   8.046  1.00  0.00     0.009 A 
ATOM     50  C   UNL     1       5.086  -6.430   7.638  1.00  0.00     0.009 A 
ATOM     51  C   UNL     1       7.140  -5.777   9.399  1.00  0.00     0.001 A 
ATOM     52  C   UNL     1       4.799  -6.175   8.980  1.00  0.00     0.001 A 
ATOM     53  C   UNL     1       5.829  -5.865   9.864  1.00  0.00     0.000 A 
ENDBRANCH  29  48
BRANCH  41  54
ATOM     54  C   UNL     1      10.095 -11.413   4.103  1.00  0.00    -0.014 A 
ATOM     55  C   UNL     1       9.476 -12.509   4.721  1.00  0.00     0.009 A 
ATOM     56  C   UNL     1      11.492 -11.394   3.974  1.00  0.00     0.009 A 
ATOM     57  C   UNL     1      10.248 -13.550   5.236  1.00  0.00     0.001 A 
ATOM     58  C   UNL     1      12.257 -12.453   4.454  1.00  0.00     0.001 A 
ATOM     59  C   UNL     1      11.636 -13.524   5.095  1.00  0.00     0.000 A 
ENDBRANCH  41  54
ENDBRANCH  15  16
ENDBRANCH   8  10
ENDBRANCH   7   8
ENDBRANCH   6   7
ENDBRANCH   5   6
ENDBRANCH   4   5
ENDBRANCH   3   4
ENDBRANCH   2   3
ENDBRANCH   1   2
BRANCH   1  60
ATOM     60  C   UNL     1       5.145   2.614   2.679  1.00  0.00     0.339 C 
ATOM     61  O   UNL     1       6.123   1.952   2.945  1.00  0.00    -0.246 OA
BRANCH  60  62
ATOM     62  C   UNL     1       5.178   4.023   2.238  1.00  0.00     0.072 A 
ATOM     63  C   UNL     1       6.285   4.295   1.405  1.00  0.00     0.016 A 
ATOM     64  C   UNL     1       4.211   5.017   2.500  1.00  0.00     0.054 A 
ATOM     65  C   UNL     1       6.461   5.551   0.840  1.00  0.00     0.001 A 
ATOM     66  C   UNL     1       4.435   6.292   1.940  1.00  0.00     0.015 A 
ATOM     67  C   UNL     1       5.547   6.556   1.126  1.00  0.00     0.001 A 
BRANCH  64  68
ATOM     68  C   UNL     1       2.846   4.817   3.124  1.00  0.00     0.254 C 
ATOM     69  O   UNL     1       1.892   5.378   2.581  1.00  0.00    -0.269 OA
ATOM     70  N   UNL     1       2.635   3.967   4.218  1.00  0.00    -0.334 N 
BRANCH  70  71
ATOM     71  C   UNL     1       1.611   2.924   4.004  1.00  0.00     0.148 C 
BRANCH  71  72
ATOM     72  C   UNL     1       0.117   3.169   4.174  1.00  0.00     0.181 C 
BRANCH  72  73
ATOM     73  O   UNL     1      -0.574   1.922   3.906  1.00  0.00    -0.377 OA
BRANCH  73  74
ATOM     74  C   UNL     1      -0.967   1.163   5.056  1.00  0.00     0.188 C 
BRANCH  74  75
ATOM     75  C   UNL     1       0.074   0.129   5.517  1.00  0.00     0.188 C 
BRANCH  75  76
ATOM     76  O   UNL     1       0.509   0.527   6.816  1.00  0.00    -0.377 OA
BRANCH  76  77
ATOM     77  C   UNL     1       1.816   0.089   7.193  1.00  0.00     0.188 CG0
ATOM     78  G   UNL     1       2.527   1.326   7.745  1.00  0.00     0.000 G0
ENDBRANCH  76  77
ENDBRANCH  75  76
ENDBRANCH  74  75
ENDBRANCH  73  74
ENDBRANCH  72  73
ENDBRANCH  71  72
ENDBRANCH  70  71
BRANCH  70  79
ATOM     79  C   UNL     1       3.693   3.734   5.222  1.00  0.00     0.148 C 
BRANCH  79  80
ATOM     80  C   UNL     1       3.215   3.335   6.617  1.00  0.00     0.181 C 
BRANCH  80  81
ATOM     81  O   UNL     1       3.212   1.908   6.641  1.00  0.00    -0.377 OA
BRANCH  81  82
ATOM     82  C   UNL     1       2.527   1.326   7.745  1.00  0.00     0.188 CG0
ATOM     83  G   UNL     1       1.816   0.089   7.193  1.00  0.00     0.000 G0
ENDBRANCH  81  82
ENDBRANCH  80  81
ENDBRANCH  79  80
ENDBRANCH  70  79
ENDBRANCH  64  68
ENDBRANCH  60  62
ENDBRANCH   1  60
TORSDOF 15
