REMARK SMILES O=C(CC[C@H]1CC[C@@H](O)CC1)OCCOCCOC(=O)c1ccc(-c2c3nc(c(-c4ccccc4)c4ccc([nH]4)c(-c4ccccc4)c4nc(c(-c5ccccc5)c5ccc2[nH]5)C=C4)C=C3)cc1
REMARK SMILES IDX 14 1 13 2 12 3 2 4 1 5 3 6 4 7 5 8 6 9 11 10 7 11 10 12 8 13
REMARK SMILES IDX 9 14 15 16 16 17 17 18 18 19 19 20 20 21 21 22 22 23 68 24
REMARK SMILES IDX 23 25 67 26 24 27 25 28 26 29 61 30 27 31 66 32 60 33 62 34
REMARK SMILES IDX 28 35 65 36 59 37 58 38 29 40 51 41 36 42 50 43 37 44 40 45
REMARK SMILES IDX 49 46 63 47 38 48 39 49 48 51 64 52 41 53 30 54 31 55 35 56
REMARK SMILES IDX 32 57 34 58 33 59 52 60 53 61 57 62 54 63 56 64 55 65 42 66
REMARK SMILES IDX 43 67 47 68 44 69 46 70 45 71
REMARK H PARENT 9 15 62 39 40 50
REMARK Flexibility Score: inf
ROOT
ATOM      1  C   UNL     1       3.549   1.940  -0.006  1.00  0.00     0.202 C 
ENDROOT
BRANCH   1   2
ATOM      2  C   UNL     1       3.347   1.009  -1.191  1.00  0.00     0.261 C 
BRANCH   2   3
ATOM      3  O   UNL     1       2.083   0.340  -1.151  1.00  0.00    -0.463 OA
BRANCH   3   4
ATOM      4  C   UNL     1       1.914  -0.940  -0.752  1.00  0.00     0.305 C 
ATOM      5  O   UNL     1       0.881  -1.532  -1.063  1.00  0.00    -0.252 OA
BRANCH   4   6
ATOM      6  C   UNL     1       2.932  -1.608   0.150  1.00  0.00     0.123 C 
BRANCH   6   7
ATOM      7  C   UNL     1       3.946  -2.548  -0.503  1.00  0.00     0.015 C 
BRANCH   7   8
ATOM      8  C   UNL     1       5.326  -1.970  -0.913  1.00  0.00    -0.010 C 
ATOM      9  C   UNL     1       6.318  -3.106  -1.246  1.00  0.00     0.006 C 
ATOM     10  C   UNL     1       5.987  -1.006   0.092  1.00  0.00     0.006 C 
ATOM     11  C   UNL     1       6.919  -3.777  -0.008  1.00  0.00     0.032 C 
ATOM     12  C   UNL     1       6.511  -1.695   1.340  1.00  0.00     0.032 C 
ATOM     13  C   UNL     1       7.526  -2.764   0.961  1.00  0.00     0.114 C 
BRANCH  13  14
ATOM     14  O   UNL     1       7.990  -3.426   2.130  1.00  0.00    -0.393 OA
ATOM     15  H   UNL     1       7.244  -3.859   2.574  1.00  0.00     0.210 HD
ENDBRANCH  13  14
ENDBRANCH   7   8
ENDBRANCH   6   7
ENDBRANCH   4   6
ENDBRANCH   3   4
ENDBRANCH   2   3
ENDBRANCH   1   2
BRANCH   1  16
ATOM     16  O   UNL     1       3.506   1.262   1.249  1.00  0.00    -0.374 OA
BRANCH  16  17
ATOM     17  C   UNL     1       2.369   1.580   2.055  1.00  0.00     0.202 C 
BRANCH  17  18
ATOM     18  C   UNL     1       2.651   2.739   3.016  1.00  0.00     0.261 C 
BRANCH  18  19
ATOM     19  O   UNL     1       3.079   3.895   2.281  1.00  0.00    -0.460 OA
BRANCH  19  20
ATOM     20  C   UNL     1       4.423   4.071   2.207  1.00  0.00     0.338 C 
ATOM     21  O   UNL     1       5.279   3.524   2.880  1.00  0.00    -0.246 OA
BRANCH  20  22
ATOM     22  C   UNL     1       4.723   4.894   1.010  1.00  0.00     0.060 A 
ATOM     23  C   UNL     1       5.918   4.644   0.316  1.00  0.00     0.016 A 
ATOM     24  C   UNL     1       3.814   5.839   0.527  1.00  0.00     0.016 A 
ATOM     25  C   UNL     1       6.218   5.353  -0.847  1.00  0.00     0.010 A 
ATOM     26  C   UNL     1       4.118   6.556  -0.626  1.00  0.00     0.010 A 
ATOM     27  C   UNL     1       5.334   6.340  -1.296  1.00  0.00    -0.014 A 
BRANCH  27  28
ATOM     28  C   UNL     1       5.757   7.344  -2.294  1.00  0.00     0.031 A 
ATOM     29  C   UNL     1       6.304   8.639  -1.768  1.00  0.00     0.074 A 
ATOM     30  C   UNL     1       5.568   7.161  -3.610  1.00  0.00     0.049 A 
ATOM     31  N   UNL     1       6.535   9.761  -2.394  1.00  0.00    -0.248 NA
ATOM     32  C   UNL     1       6.603   8.674  -0.326  1.00  0.00     0.031 C 
ATOM     33  C   UNL     1       5.079   5.936  -4.238  1.00  0.00     0.029 A 
ATOM     34  N   UNL     1       5.732   8.038  -4.652  1.00  0.00    -0.354 N 
ATOM     35  C   UNL     1       6.971  10.645  -1.417  1.00  0.00     0.074 A 
ATOM     36  C   UNL     1       6.961   9.935  -0.158  1.00  0.00     0.031 C 
ATOM     37  C   UNL     1       4.949   6.150  -5.559  1.00  0.00     0.029 A 
ATOM     38  C   UNL     1       5.301   7.538  -5.856  1.00  0.00     0.049 A 
ATOM     39  H   UNL     1       6.121   8.936  -4.547  1.00  0.00     0.167 HD
ATOM     40  C   UNL     1       7.337  11.940  -1.553  1.00  0.00     0.031 A 
ATOM     41  C   UNL     1       5.166   8.150  -7.049  1.00  0.00     0.031 A 
ATOM     42  C   UNL     1       7.318  12.646  -2.803  1.00  0.00     0.049 A 
ATOM     43  C   UNL     1       5.526   9.608  -7.175  1.00  0.00     0.074 A 
ATOM     44  C   UNL     1       7.685  13.953  -3.062  1.00  0.00     0.029 A 
ATOM     45  N   UNL     1       6.894  12.098  -4.005  1.00  0.00    -0.354 N 
ATOM     46  N   UNL     1       5.960  10.435  -6.254  1.00  0.00    -0.248 NA
ATOM     47  C   UNL     1       5.377  10.216  -8.505  1.00  0.00     0.031 C 
ATOM     48  C   UNL     1       7.433  14.212  -4.414  1.00  0.00     0.029 A 
ATOM     49  C   UNL     1       6.967  13.048  -5.006  1.00  0.00     0.049 A 
ATOM     50  H   UNL     1       6.587  11.170  -4.126  1.00  0.00     0.167 HD
ATOM     51  C   UNL     1       6.165  11.650  -6.897  1.00  0.00     0.074 A 
ATOM     52  C   UNL     1       5.809  11.451  -8.287  1.00  0.00     0.031 C 
ATOM     53  C   UNL     1       6.613  12.823  -6.385  1.00  0.00     0.031 A 
BRANCH  40  54
ATOM     54  C   UNL     1       7.720  12.672  -0.299  1.00  0.00    -0.014 A 
ATOM     55  C   UNL     1       8.902  12.368   0.396  1.00  0.00     0.009 A 
ATOM     56  C   UNL     1       6.864  13.658   0.214  1.00  0.00     0.009 A 
ATOM     57  C   UNL     1       9.192  13.001   1.606  1.00  0.00     0.001 A 
ATOM     58  C   UNL     1       7.173  14.312   1.407  1.00  0.00     0.001 A 
ATOM     59  C   UNL     1       8.328  13.973   2.110  1.00  0.00     0.000 A 
ENDBRANCH  40  54
BRANCH  41  60
ATOM     60  C   UNL     1       4.636   7.390  -8.210  1.00  0.00    -0.014 A 
ATOM     61  C   UNL     1       5.484   7.012  -9.262  1.00  0.00     0.009 A 
ATOM     62  C   UNL     1       3.283   7.020  -8.263  1.00  0.00     0.009 A 
ATOM     63  C   UNL     1       4.984   6.288 -10.348  1.00  0.00     0.001 A 
ATOM     64  C   UNL     1       2.792   6.275  -9.337  1.00  0.00     0.001 A 
ATOM     65  C   UNL     1       3.641   5.914 -10.381  1.00  0.00     0.000 A 
ENDBRANCH  41  60
BRANCH  53  66
ATOM     66  C   UNL     1       6.795  13.973  -7.335  1.00  0.00    -0.014 A 
ATOM     67  C   UNL     1       5.699  14.693  -7.831  1.00  0.00     0.009 A 
ATOM     68  C   UNL     1       8.094  14.390  -7.668  1.00  0.00     0.009 A 
ATOM     69  C   UNL     1       5.901  15.799  -8.661  1.00  0.00     0.001 A 
ATOM     70  C   UNL     1       8.293  15.510  -8.475  1.00  0.00     0.001 A 
ATOM     71  C   UNL     1       7.197  16.210  -8.975  1.00  0.00     0.000 A 
ENDBRANCH  53  66
ENDBRANCH  27  28
ENDBRANCH  20  22
ENDBRANCH  19  20
ENDBRANCH  18  19
ENDBRANCH  17  18
ENDBRANCH  16  17
ENDBRANCH   1  16
TORSDOF 17
