REMARK SMILES O=C(CC1CCN(C(=O)[C@@H]2Cc3[nH]cnc3C[NH2+]2)CC1)OCCOCCOC(=O)c1ccc(-c2c3nc(c(-c4ccccc4)c4ccc([nH]4)c(-c4ccccc4)c4nc(c(-c5ccccc5)c5ccc2[nH]5)C=C4)C=C3)cc1
REMARK SMILES IDX 24 1 23 2 22 3 21 4 2 5 1 6 3 7 4 8 5 9 20 10 6 11 19 12
REMARK SMILES IDX 7 13 8 14 9 15 10 16 11 17 18 18 12 19 17 20 13 23 16 24
REMARK SMILES IDX 14 25 15 27 25 28 26 29 27 30 28 31 29 32 30 33 31 34 77 35
REMARK SMILES IDX 32 36 76 37 33 38 34 39 35 40 70 41 36 42 75 43 69 44 71 45
REMARK SMILES IDX 37 46 74 47 68 48 67 49 38 51 60 52 45 53 59 54 46 55 49 56
REMARK SMILES IDX 58 57 72 58 47 59 48 60 57 62 73 63 50 64 39 65 40 66 44 67
REMARK SMILES IDX 41 68 43 69 42 70 61 71 62 72 66 73 63 74 65 75 64 76 51 77
REMARK SMILES IDX 52 78 56 79 53 80 55 81 54 82
REMARK H PARENT 18 21 18 22 13 26 71 50 49 61
REMARK Flexibility Score: inf
ROOT
ATOM      1  O   UNL     1      10.838  -2.964  -6.354  1.00  0.00    -0.374 OA
ENDROOT
BRANCH   1   2
ATOM      2  C   UNL     1      10.503  -3.980  -7.303  1.00  0.00     0.202 C 
BRANCH   2   3
ATOM      3  C   UNL     1      10.585  -3.561  -8.768  1.00  0.00     0.261 C 
BRANCH   3   4
ATOM      4  O   UNL     1      11.918  -3.203  -9.150  1.00  0.00    -0.463 OA
BRANCH   4   5
ATOM      5  C   UNL     1      12.562  -2.044  -8.941  1.00  0.00     0.306 C 
ATOM      6  O   UNL     1      13.767  -2.008  -9.203  1.00  0.00    -0.252 OA
BRANCH   5   7
ATOM      7  C   UNL     1      11.928  -0.828  -8.281  1.00  0.00     0.126 C 
BRANCH   7   8
ATOM      8  C   UNL     1      10.524  -0.314  -8.660  1.00  0.00     0.003 C 
ATOM      9  C   UNL     1      10.468   1.244  -8.715  1.00  0.00     0.026 C 
ATOM     10  C   UNL     1       9.413  -0.725  -7.678  1.00  0.00     0.026 C 
ATOM     11  C   UNL     1      10.350   1.954  -7.341  1.00  0.00     0.120 C 
ATOM     12  C   UNL     1       9.658  -0.113  -6.314  1.00  0.00     0.120 C 
ATOM     13  N   UNL     1       9.402   1.290  -6.438  1.00  0.00    -0.338 N 
ATOM     14  C   UNL     1       8.251   1.913  -5.979  1.00  0.00     0.281 C 
ATOM     15  O   UNL     1       7.983   3.059  -6.365  1.00  0.00    -0.268 OA
BRANCH  14  16
ATOM     16  C   UNL     1       7.280   1.237  -4.939  1.00  0.00     0.279 C 
ATOM     17  C   UNL     1       7.902   1.054  -3.527  1.00  0.00     0.131 C 
ATOM     18  N   UNL     1       6.430   0.143  -5.492  1.00  0.00    -0.331 N 
ATOM     19  C   UNL     1       8.180  -0.371  -3.280  1.00  0.00     0.050 A 
ATOM     20  C   UNL     1       6.704  -1.265  -5.149  1.00  0.00     0.320 C 
ATOM     21  H   UNL     1       6.488   0.213  -6.508  1.00  0.00     0.347 HD
ATOM     22  H   UNL     1       5.525   0.313  -5.053  1.00  0.00     0.347 HD
ATOM     23  N   UNL     1       9.128  -0.923  -2.472  1.00  0.00    -0.348 N 
ATOM     24  C   UNL     1       7.609  -1.412  -3.972  1.00  0.00     0.116 A 
ATOM     25  C   UNL     1       9.120  -2.266  -2.728  1.00  0.00     0.197 A 
ATOM     26  H   UNL     1       9.705  -0.448  -1.830  1.00  0.00     0.167 HD
ATOM     27  N   UNL     1       8.206  -2.587  -3.619  1.00  0.00    -0.236 NA
ENDBRANCH  14  16
ENDBRANCH   7   8
ENDBRANCH   5   7
ENDBRANCH   4   5
ENDBRANCH   3   4
ENDBRANCH   2   3
ENDBRANCH   1   2
BRANCH   1  28
ATOM     28  C   UNL     1      12.129  -3.058  -5.742  1.00  0.00     0.202 C 
BRANCH  28  29
ATOM     29  C   UNL     1      12.193  -3.945  -4.506  1.00  0.00     0.261 C 
BRANCH  29  30
ATOM     30  O   UNL     1      11.837  -5.259  -4.890  1.00  0.00    -0.460 OA
BRANCH  30  31
ATOM     31  C   UNL     1      10.524  -5.563  -4.777  1.00  0.00     0.338 C 
ATOM     32  O   UNL     1       9.698  -5.001  -4.073  1.00  0.00    -0.246 OA
BRANCH  31  33
ATOM     33  C   UNL     1      10.257  -6.789  -5.571  1.00  0.00     0.060 A 
ATOM     34  C   UNL     1       9.258  -7.558  -4.982  1.00  0.00     0.016 A 
ATOM     35  C   UNL     1      11.401  -7.371  -6.129  1.00  0.00     0.016 A 
ATOM     36  C   UNL     1       9.670  -8.733  -4.410  1.00  0.00     0.010 A 
ATOM     37  C   UNL     1      11.851  -8.491  -5.498  1.00  0.00     0.010 A 
ATOM     38  C   UNL     1      11.013  -9.087  -4.559  1.00  0.00    -0.014 A 
BRANCH  38  39
ATOM     39  C   UNL     1      11.525 -10.192  -3.797  1.00  0.00     0.031 A 
ATOM     40  C   UNL     1      11.275 -11.460  -4.505  1.00  0.00     0.074 A 
ATOM     41  C   UNL     1      12.260 -10.027  -2.685  1.00  0.00     0.049 A 
ATOM     42  N   UNL     1      10.335 -12.312  -4.272  1.00  0.00    -0.248 NA
ATOM     43  C   UNL     1      11.956 -11.640  -5.803  1.00  0.00     0.031 C 
ATOM     44  C   UNL     1      12.813  -8.801  -2.104  1.00  0.00     0.029 A 
ATOM     45  N   UNL     1      12.770 -10.992  -1.887  1.00  0.00    -0.354 N 
ATOM     46  C   UNL     1      10.463 -13.247  -5.288  1.00  0.00     0.074 A 
ATOM     47  C   UNL     1      11.212 -12.607  -6.334  1.00  0.00     0.031 C 
ATOM     48  C   UNL     1      13.779  -9.135  -1.212  1.00  0.00     0.029 A 
ATOM     49  C   UNL     1      13.820 -10.583  -1.081  1.00  0.00     0.049 A 
ATOM     50  H   UNL     1      12.423 -11.914  -1.879  1.00  0.00     0.167 HD
ATOM     51  C   UNL     1      10.313 -14.577  -5.049  1.00  0.00     0.031 A 
ATOM     52  C   UNL     1      14.700 -11.412  -0.461  1.00  0.00     0.031 A 
ATOM     53  C   UNL     1       9.653 -14.816  -3.791  1.00  0.00     0.049 A 
ATOM     54  C   UNL     1      14.098 -12.774  -0.464  1.00  0.00     0.074 A 
ATOM     55  C   UNL     1       8.424 -14.477  -3.261  1.00  0.00     0.029 A 
ATOM     56  N   UNL     1      10.457 -15.130  -2.720  1.00  0.00    -0.354 N 
ATOM     57  N   UNL     1      13.021 -13.081   0.204  1.00  0.00    -0.248 NA
ATOM     58  C   UNL     1      14.391 -13.643  -1.598  1.00  0.00     0.031 C 
ATOM     59  C   UNL     1       8.685 -14.160  -1.895  1.00  0.00     0.029 A 
ATOM     60  C   UNL     1      10.040 -14.388  -1.644  1.00  0.00     0.049 A 
ATOM     61  H   UNL     1      11.201 -15.775  -2.724  1.00  0.00     0.167 HD
ATOM     62  C   UNL     1      12.281 -13.886  -0.653  1.00  0.00     0.074 A 
ATOM     63  C   UNL     1      13.212 -14.264  -1.717  1.00  0.00     0.031 C 
ATOM     64  C   UNL     1      10.916 -13.919  -0.590  1.00  0.00     0.031 A 
BRANCH  51  65
ATOM     65  C   UNL     1      11.182 -15.613  -5.719  1.00  0.00    -0.014 A 
ATOM     66  C   UNL     1      10.909 -16.966  -5.479  1.00  0.00     0.009 A 
ATOM     67  C   UNL     1      12.405 -15.322  -6.362  1.00  0.00     0.009 A 
ATOM     68  C   UNL     1      11.839 -17.960  -5.807  1.00  0.00     0.001 A 
ATOM     69  C   UNL     1      13.315 -16.311  -6.731  1.00  0.00     0.001 A 
ATOM     70  C   UNL     1      13.043 -17.632  -6.426  1.00  0.00     0.000 A 
ENDBRANCH  51  65
BRANCH  52  71
ATOM     71  C   UNL     1      16.148 -11.189  -0.238  1.00  0.00    -0.014 A 
ATOM     72  C   UNL     1      16.875 -11.976   0.669  1.00  0.00     0.009 A 
ATOM     73  C   UNL     1      16.881 -10.369  -1.117  1.00  0.00     0.009 A 
ATOM     74  C   UNL     1      18.279 -11.960   0.677  1.00  0.00     0.001 A 
ATOM     75  C   UNL     1      18.280 -10.352  -1.111  1.00  0.00     0.001 A 
ATOM     76  C   UNL     1      18.980 -11.158  -0.221  1.00  0.00     0.000 A 
ENDBRANCH  52  71
BRANCH  64  77
ATOM     77  C   UNL     1      10.250 -13.191   0.555  1.00  0.00    -0.014 A 
ATOM     78  C   UNL     1      10.308 -11.793   0.716  1.00  0.00     0.009 A 
ATOM     79  C   UNL     1       9.398 -13.919   1.397  1.00  0.00     0.009 A 
ATOM     80  C   UNL     1       9.552 -11.151   1.704  1.00  0.00     0.001 A 
ATOM     81  C   UNL     1       8.630 -13.276   2.370  1.00  0.00     0.001 A 
ATOM     82  C   UNL     1       8.709 -11.894   2.527  1.00  0.00     0.000 A 
ENDBRANCH  64  77
ENDBRANCH  38  39
ENDBRANCH  31  33
ENDBRANCH  30  31
ENDBRANCH  29  30
ENDBRANCH  28  29
ENDBRANCH   1  28
TORSDOF 16
