REMARK SMILES Cc1nc(=O)[nH]c(C)c1CC(=O)Nc1sccc1C(=O)OCCOCCOC(=O)c1ccc(-c2c3nc(c(-c4ccccc4)c4ccc([nH]4)c(-c4ccccc4)c4nc(c(-c5ccccc5)c5ccc2[nH]5)C=C4)C=C3)cc1
REMARK SMILES IDX 23 1 22 2 21 3 19 4 20 5 18 6 14 7 15 8 16 9 17 10 13 11
REMARK SMILES IDX 11 12 12 13 10 15 9 16 1 17 2 18 3 19 4 20 7 21 5 22 6 23
REMARK SMILES IDX 8 24 24 26 25 27 26 28 27 29 28 30 29 31 30 32 31 33 77 34
REMARK SMILES IDX 32 35 76 36 33 37 34 38 35 39 70 40 36 41 75 42 69 43 71 44
REMARK SMILES IDX 37 45 74 46 68 47 67 48 38 50 60 51 45 52 59 53 46 54 49 55
REMARK SMILES IDX 58 56 72 57 47 58 48 59 57 61 73 62 50 63 39 64 40 65 44 66
REMARK SMILES IDX 41 67 43 68 42 69 61 70 62 71 66 72 63 73 65 74 64 75 51 76
REMARK SMILES IDX 52 77 56 78 53 79 55 80 54 81
REMARK H PARENT 13 14 6 25 71 49 49 60
REMARK Flexibility Score: inf
ROOT
ATOM      1  C   UNL     1      -0.992   2.927   0.304  1.00  0.00     0.202 C 
ENDROOT
BRANCH   1   2
ATOM      2  C   UNL     1      -1.311   1.429   0.190  1.00  0.00     0.261 C 
BRANCH   2   3
ATOM      3  O   UNL     1      -1.097   0.519   1.281  1.00  0.00    -0.460 OA
BRANCH   3   4
ATOM      4  C   UNL     1       0.092  -0.153   1.241  1.00  0.00     0.341 C 
ATOM      5  O   UNL     1       1.031   0.178   0.525  1.00  0.00    -0.246 OA
BRANCH   4   6
ATOM      6  C   UNL     1       0.214  -1.261   2.185  1.00  0.00     0.094 A 
ATOM      7  C   UNL     1      -0.773  -2.109   2.646  1.00  0.00     0.110 A 
ATOM      8  S   UNL     1      -0.264  -3.100   3.934  1.00  0.00    -0.126 S 
ATOM      9  C   UNL     1       1.365  -2.637   3.713  1.00  0.00     0.068 A 
ATOM     10  C   UNL     1       1.478  -1.634   2.776  1.00  0.00     0.029 A 
BRANCH   7  11
ATOM     11  N   UNL     1      -2.085  -2.305   2.305  1.00  0.00    -0.317 N 
ATOM     12  C   UNL     1      -2.542  -2.759   1.096  1.00  0.00     0.229 C 
ATOM     13  O   UNL     1      -3.760  -2.790   0.898  1.00  0.00    -0.274 OA
ATOM     14  H   UNL     1      -2.761  -2.102   2.991  1.00  0.00     0.170 HD
BRANCH  12  15
ATOM     15  C   UNL     1      -1.577  -3.395   0.087  1.00  0.00     0.139 C 
BRANCH  15  16
ATOM     16  C   UNL     1      -0.813  -2.490  -0.831  1.00  0.00     0.002 A 
ATOM     17  C   UNL     1       1.390  -3.855  -0.428  1.00  0.00     0.067 C 
ATOM     18  C   UNL     1       0.667  -2.674  -1.043  1.00  0.00     0.049 A 
ATOM     19  N   UNL     1       1.420  -1.880  -1.736  1.00  0.00    -0.198 NA
ATOM     20  C   UNL     1       0.855  -0.807  -2.353  1.00  0.00     0.345 A 
ATOM     21  C   UNL     1      -1.341  -1.495  -1.569  1.00  0.00     0.022 A 
ATOM     22  O   UNL     1       1.503   0.049  -2.958  1.00  0.00    -0.246 OA
ATOM     23  N   UNL     1      -0.509  -0.702  -2.320  1.00  0.00    -0.310 N 
ATOM     24  C   UNL     1      -2.797  -1.120  -1.594  1.00  0.00     0.065 C 
ATOM     25  H   UNL     1      -0.926  -0.005  -2.877  1.00  0.00     0.171 HD
ENDBRANCH  15  16
ENDBRANCH  12  15
ENDBRANCH   7  11
ENDBRANCH   4   6
ENDBRANCH   3   4
ENDBRANCH   2   3
ENDBRANCH   1   2
BRANCH   1  26
ATOM     26  O   UNL     1       0.129   3.419   1.002  1.00  0.00    -0.374 OA
BRANCH  26  27
ATOM     27  C   UNL     1       0.428   2.936   2.296  1.00  0.00     0.202 C 
BRANCH  27  28
ATOM     28  C   UNL     1      -0.631   2.961   3.409  1.00  0.00     0.261 C 
BRANCH  28  29
ATOM     29  O   UNL     1      -1.947   2.519   3.041  1.00  0.00    -0.460 OA
BRANCH  29  30
ATOM     30  C   UNL     1      -2.842   3.513   2.825  1.00  0.00     0.338 C 
ATOM     31  O   UNL     1      -2.643   4.714   2.874  1.00  0.00    -0.246 OA
BRANCH  30  32
ATOM     32  C   UNL     1      -4.126   2.943   2.377  1.00  0.00     0.060 A 
ATOM     33  C   UNL     1      -4.606   3.271   1.101  1.00  0.00     0.016 A 
ATOM     34  C   UNL     1      -4.918   2.223   3.271  1.00  0.00     0.016 A 
ATOM     35  C   UNL     1      -5.900   2.916   0.729  1.00  0.00     0.010 A 
ATOM     36  C   UNL     1      -6.226   1.893   2.908  1.00  0.00     0.010 A 
ATOM     37  C   UNL     1      -6.735   2.280   1.654  1.00  0.00    -0.014 A 
BRANCH  37  38
ATOM     38  C   UNL     1      -8.194   2.239   1.407  1.00  0.00     0.031 A 
ATOM     39  C   UNL     1      -9.044   3.336   1.991  1.00  0.00     0.074 A 
ATOM     40  C   UNL     1      -8.752   1.268   0.667  1.00  0.00     0.049 A 
ATOM     41  N   UNL     1     -10.344   3.484   1.967  1.00  0.00    -0.248 NA
ATOM     42  C   UNL     1      -8.328   4.412   2.698  1.00  0.00     0.031 C 
ATOM     43  C   UNL     1      -8.028   0.195  -0.011  1.00  0.00     0.029 A 
ATOM     44  N   UNL     1     -10.070   1.030   0.369  1.00  0.00    -0.354 N 
ATOM     45  C   UNL     1     -10.601   4.655   2.671  1.00  0.00     0.074 A 
ATOM     46  C   UNL     1      -9.327   5.169   3.123  1.00  0.00     0.031 C 
ATOM     47  C   UNL     1      -8.915  -0.595  -0.642  1.00  0.00     0.029 A 
ATOM     48  C   UNL     1     -10.267  -0.107  -0.375  1.00  0.00     0.049 A 
ATOM     49  H   UNL     1     -10.804   1.617   0.660  1.00  0.00     0.167 HD
ATOM     50  C   UNL     1     -11.792   5.246   2.923  1.00  0.00     0.031 A 
ATOM     51  C   UNL     1     -11.412  -0.698  -0.769  1.00  0.00     0.031 A 
ATOM     52  C   UNL     1     -13.058   4.721   2.488  1.00  0.00     0.049 A 
ATOM     53  C   UNL     1     -12.730  -0.075  -0.388  1.00  0.00     0.074 A 
ATOM     54  C   UNL     1     -14.323   5.248   2.680  1.00  0.00     0.029 A 
ATOM     55  N   UNL     1     -13.219   3.537   1.785  1.00  0.00    -0.354 N 
ATOM     56  N   UNL     1     -12.964   1.040   0.262  1.00  0.00    -0.248 NA
ATOM     57  C   UNL     1     -13.944  -0.795  -0.800  1.00  0.00     0.031 C 
ATOM     58  C   UNL     1     -15.254   4.347   2.154  1.00  0.00     0.029 A 
ATOM     59  C   UNL     1     -14.565   3.296   1.569  1.00  0.00     0.049 A 
ATOM     60  H   UNL     1     -12.485   2.954   1.485  1.00  0.00     0.167 HD
ATOM     61  C   UNL     1     -14.347   1.173   0.306  1.00  0.00     0.074 A 
ATOM     62  C   UNL     1     -14.899   0.031  -0.394  1.00  0.00     0.031 C 
ATOM     63  C   UNL     1     -15.095   2.154   0.869  1.00  0.00     0.031 A 
BRANCH  50  64
ATOM     64  C   UNL     1     -11.782   6.495   3.762  1.00  0.00    -0.014 A 
ATOM     65  C   UNL     1     -11.263   7.707   3.278  1.00  0.00     0.009 A 
ATOM     66  C   UNL     1     -12.318   6.459   5.059  1.00  0.00     0.009 A 
ATOM     67  C   UNL     1     -11.247   8.844   4.090  1.00  0.00     0.001 A 
ATOM     68  C   UNL     1     -12.330   7.604   5.856  1.00  0.00     0.001 A 
ATOM     69  C   UNL     1     -11.784   8.793   5.375  1.00  0.00     0.000 A 
ENDBRANCH  50  64
BRANCH  51  70
ATOM     70  C   UNL     1     -11.372  -1.962  -1.551  1.00  0.00    -0.014 A 
ATOM     71  C   UNL     1     -11.808  -1.992  -2.885  1.00  0.00     0.009 A 
ATOM     72  C   UNL     1     -10.923  -3.155  -0.961  1.00  0.00     0.009 A 
ATOM     73  C   UNL     1     -11.819  -3.191  -3.601  1.00  0.00     0.001 A 
ATOM     74  C   UNL     1     -10.906  -4.346  -1.689  1.00  0.00     0.001 A 
ATOM     75  C   UNL     1     -11.364  -4.366  -3.005  1.00  0.00     0.000 A 
ENDBRANCH  51  70
BRANCH  63  76
ATOM     76  C   UNL     1     -16.589   2.063   0.711  1.00  0.00    -0.014 A 
ATOM     77  C   UNL     1     -17.343   1.095   1.392  1.00  0.00     0.009 A 
ATOM     78  C   UNL     1     -17.256   2.997  -0.099  1.00  0.00     0.009 A 
ATOM     79  C   UNL     1     -18.730   1.043   1.235  1.00  0.00     0.001 A 
ATOM     80  C   UNL     1     -18.645   2.963  -0.227  1.00  0.00     0.001 A 
ATOM     81  C   UNL     1     -19.380   1.980   0.431  1.00  0.00     0.000 A 
ENDBRANCH  63  76
ENDBRANCH  37  38
ENDBRANCH  30  32
ENDBRANCH  29  30
ENDBRANCH  28  29
ENDBRANCH  27  28
ENDBRANCH  26  27
ENDBRANCH   1  26
TORSDOF 17
