REMARK SMILES CN1C(=O)C[C@@H](C(=O)OCCOCCOC(=O)c2ccc(-c3c4nc(c(-c5ccccc5)c5ccc([nH]5)c(-c5ccccc5)c5nc(c(-c6ccccc6)c6ccc3[nH]6)C=C5)C=C4)cc2)C12CCN(C(=O)c1cccc3ccccc13)CC2
REMARK SMILES IDX 13 1 12 2 11 3 10 4 9 5 7 6 8 7 6 8 1 9 2 10 3 11 66 12 4 13
REMARK SMILES IDX 5 14 67 15 83 16 68 17 82 18 69 19 70 20 71 21 72 22 73 23
REMARK SMILES IDX 81 24 74 25 76 26 80 27 75 28 77 29 79 30 78 31 14 32 15 33
REMARK SMILES IDX 16 34 17 35 18 36 19 37 65 38 20 39 64 40 21 41 22 42 23 43
REMARK SMILES IDX 58 44 24 45 63 46 57 47 59 48 25 49 62 50 56 51 55 52 26 54
REMARK SMILES IDX 48 55 33 56 47 57 34 58 37 59 46 60 60 61 35 62 36 63 45 65
REMARK SMILES IDX 61 66 38 67 27 68 28 69 32 70 29 71 31 72 30 73 49 74 50 75
REMARK SMILES IDX 54 76 51 77 53 78 52 79 39 80 40 81 44 82 41 83 43 84 42 85
REMARK H PARENT 59 53 37 64
REMARK Flexibility Score: inf
ROOT
ATOM      1  C   UNL     1      -2.501   3.043   5.224  1.00  0.00     0.202 C 
ENDROOT
BRANCH   1   2
ATOM      2  O   UNL     1      -3.809   2.540   4.970  1.00  0.00    -0.374 OA
BRANCH   2   3
ATOM      3  C   UNL     1      -3.938   1.423   4.094  1.00  0.00     0.202 C 
BRANCH   3   4
ATOM      4  C   UNL     1      -3.637   1.649   2.606  1.00  0.00     0.261 C 
BRANCH   4   5
ATOM      5  O   UNL     1      -2.247   1.868   2.274  1.00  0.00    -0.463 OA
BRANCH   5   6
ATOM      6  C   UNL     1      -1.948   3.110   1.827  1.00  0.00     0.311 C 
ATOM      7  O   UNL     1      -2.716   4.066   1.898  1.00  0.00    -0.252 OA
BRANCH   6   8
ATOM      8  C   UNL     1      -0.616   3.257   1.112  1.00  0.00     0.134 C 
ATOM      9  C   UNL     1       1.107   0.087   0.064  1.00  0.00     0.147 C 
ATOM     10  N   UNL     1       0.371   1.331   0.208  1.00  0.00    -0.339 N 
ATOM     11  C   UNL     1      -0.481   1.801  -0.778  1.00  0.00     0.223 C 
ATOM     12  C   UNL     1       0.584   2.293   1.298  1.00  0.00     0.060 C 
ATOM     13  O   UNL     1      -0.785   1.234  -1.814  1.00  0.00    -0.275 OA
ATOM     14  C   UNL     1      -0.938   3.179  -0.389  1.00  0.00     0.118 C 
ATOM     15  C   UNL     1       0.722   1.609   2.671  1.00  0.00     0.051 C 
ATOM     16  C   UNL     1       1.916   3.066   1.031  1.00  0.00     0.051 C 
ATOM     17  C   UNL     1       1.053   2.603   3.777  1.00  0.00     0.122 C 
ATOM     18  C   UNL     1       2.357   3.963   2.190  1.00  0.00     0.122 C 
ATOM     19  N   UNL     1       2.306   3.282   3.482  1.00  0.00    -0.338 N 
ATOM     20  C   UNL     1       3.349   3.512   4.386  1.00  0.00     0.254 C 
ATOM     21  O   UNL     1       4.348   4.165   4.079  1.00  0.00    -0.269 OA
BRANCH  20  22
ATOM     22  C   UNL     1       3.273   3.072   5.805  1.00  0.00     0.047 A 
ATOM     23  C   UNL     1       3.331   4.121   6.741  1.00  0.00     0.014 A 
ATOM     24  C   UNL     1       3.311   1.716   6.234  1.00  0.00    -0.006 A 
ATOM     25  C   UNL     1       3.425   3.853   8.101  1.00  0.00     0.001 A 
ATOM     26  C   UNL     1       3.402   1.466   7.630  1.00  0.00    -0.018 A 
ATOM     27  C   UNL     1       3.281   0.591   5.375  1.00  0.00     0.009 A 
ATOM     28  C   UNL     1       3.468   2.534   8.540  1.00  0.00     0.009 A 
ATOM     29  C   UNL     1       3.443   0.149   8.112  1.00  0.00     0.009 A 
ATOM     30  C   UNL     1       3.281  -0.715   5.874  1.00  0.00     0.001 A 
ATOM     31  C   UNL     1       3.367  -0.936   7.242  1.00  0.00     0.001 A 
ENDBRANCH  20  22
ENDBRANCH   6   8
ENDBRANCH   5   6
ENDBRANCH   4   5
ENDBRANCH   3   4
ENDBRANCH   2   3
ENDBRANCH   1   2
BRANCH   1  32
ATOM     32  C   UNL     1      -1.584   2.134   6.048  1.00  0.00     0.261 C 
BRANCH  32  33
ATOM     33  O   UNL     1      -1.360   0.878   5.383  1.00  0.00    -0.460 OA
BRANCH  33  34
ATOM     34  C   UNL     1      -1.280  -0.175   6.233  1.00  0.00     0.338 C 
ATOM     35  O   UNL     1      -1.120  -0.136   7.440  1.00  0.00    -0.246 OA
BRANCH  34  36
ATOM     36  C   UNL     1      -1.627  -1.421   5.528  1.00  0.00     0.060 A 
ATOM     37  C   UNL     1      -2.890  -1.973   5.778  1.00  0.00     0.016 A 
ATOM     38  C   UNL     1      -0.687  -2.114   4.764  1.00  0.00     0.016 A 
ATOM     39  C   UNL     1      -3.195  -3.252   5.315  1.00  0.00     0.010 A 
ATOM     40  C   UNL     1      -0.996  -3.400   4.301  1.00  0.00     0.010 A 
ATOM     41  C   UNL     1      -2.233  -3.994   4.614  1.00  0.00    -0.014 A 
BRANCH  41  42
ATOM     42  C   UNL     1      -2.485  -5.435   4.356  1.00  0.00     0.031 A 
ATOM     43  C   UNL     1      -1.907  -6.462   5.295  1.00  0.00     0.074 A 
ATOM     44  C   UNL     1      -3.275  -5.827   3.341  1.00  0.00     0.049 A 
ATOM     45  N   UNL     1      -2.067  -7.762   5.304  1.00  0.00    -0.248 NA
ATOM     46  C   UNL     1      -1.039  -5.955   6.370  1.00  0.00     0.031 C 
ATOM     47  C   UNL     1      -3.924  -4.935   2.383  1.00  0.00     0.029 A 
ATOM     48  N   UNL     1      -3.675  -7.084   2.958  1.00  0.00    -0.354 N 
ATOM     49  C   UNL     1      -1.326  -8.226   6.384  1.00  0.00     0.074 A 
ATOM     50  C   UNL     1      -0.687  -7.075   6.984  1.00  0.00     0.031 C 
ATOM     51  C   UNL     1      -4.651  -5.673   1.525  1.00  0.00     0.029 A 
ATOM     52  C   UNL     1      -4.502  -7.087   1.861  1.00  0.00     0.049 A 
ATOM     53  H   UNL     1      -3.396  -7.904   3.425  1.00  0.00     0.167 HD
ATOM     54  C   UNL     1      -1.196  -9.494   6.845  1.00  0.00     0.031 A 
ATOM     55  C   UNL     1      -5.072  -8.114   1.202  1.00  0.00     0.031 A 
ATOM     56  C   UNL     1      -1.813 -10.645   6.241  1.00  0.00     0.049 A 
ATOM     57  C   UNL     1      -4.854  -9.522   1.688  1.00  0.00     0.074 A 
ATOM     58  C   UNL     1      -1.751 -11.969   6.643  1.00  0.00     0.029 A 
ATOM     59  N   UNL     1      -2.596 -10.610   5.098  1.00  0.00    -0.354 N 
ATOM     60  N   UNL     1      -4.185  -9.940   2.735  1.00  0.00    -0.248 NA
ATOM     61  C   UNL     1      -5.482 -10.597   0.906  1.00  0.00     0.031 C 
ATOM     62  C   UNL     1      -2.454 -12.741   5.711  1.00  0.00     0.029 A 
ATOM     63  C   UNL     1      -2.999 -11.892   4.762  1.00  0.00     0.049 A 
ATOM     64  H   UNL     1      -2.832  -9.795   4.599  1.00  0.00     0.167 HD
ATOM     65  C   UNL     1      -4.331 -11.322   2.751  1.00  0.00     0.074 A 
ATOM     66  C   UNL     1      -5.164 -11.669   1.619  1.00  0.00     0.031 C 
ATOM     67  C   UNL     1      -3.822 -12.223   3.628  1.00  0.00     0.031 A 
BRANCH  54  68
ATOM     68  C   UNL     1      -0.323  -9.702   8.051  1.00  0.00    -0.014 A 
ATOM     69  C   UNL     1      -0.734  -9.287   9.328  1.00  0.00     0.009 A 
ATOM     70  C   UNL     1       0.919 -10.340   7.912  1.00  0.00     0.009 A 
ATOM     71  C   UNL     1       0.099  -9.473  10.434  1.00  0.00     0.001 A 
ATOM     72  C   UNL     1       1.738 -10.548   9.023  1.00  0.00     0.001 A 
ATOM     73  C   UNL     1       1.333 -10.106  10.281  1.00  0.00     0.000 A 
ENDBRANCH  54  68
BRANCH  55  74
ATOM     74  C   UNL     1      -5.909  -7.851   0.002  1.00  0.00    -0.014 A 
ATOM     75  C   UNL     1      -7.299  -8.043   0.039  1.00  0.00     0.009 A 
ATOM     76  C   UNL     1      -5.317  -7.413  -1.194  1.00  0.00     0.009 A 
ATOM     77  C   UNL     1      -8.074  -7.820  -1.102  1.00  0.00     0.001 A 
ATOM     78  C   UNL     1      -6.098  -7.165  -2.324  1.00  0.00     0.001 A 
ATOM     79  C   UNL     1      -7.475  -7.376  -2.280  1.00  0.00     0.000 A 
ENDBRANCH  55  74
BRANCH  67  80
ATOM     80  C   UNL     1      -4.172 -13.668   3.411  1.00  0.00    -0.014 A 
ATOM     81  C   UNL     1      -3.599 -14.407   2.365  1.00  0.00     0.009 A 
ATOM     82  C   UNL     1      -5.056 -14.310   4.293  1.00  0.00     0.009 A 
ATOM     83  C   UNL     1      -3.929 -15.753   2.187  1.00  0.00     0.001 A 
ATOM     84  C   UNL     1      -5.363 -15.662   4.129  1.00  0.00     0.001 A 
ATOM     85  C   UNL     1      -4.806 -16.380   3.072  1.00  0.00     0.000 A 
ENDBRANCH  67  80
ENDBRANCH  41  42
ENDBRANCH  34  36
ENDBRANCH  33  34
ENDBRANCH  32  33
ENDBRANCH   1  32
TORSDOF 15
