REMARK SMILES O=C(N[C@@H](Cc1c[nH]c2ccccc12)C(=O)N[C@@H](CS)C(=O)N[C@@H](CO)C(=O)OCCOCCOC(=O)c1ccc(-c2c3nc(c(-c4ccccc4)c4ccc([nH]4)c(-c4ccccc4)c4nc(c(-c5ccccc5)c5ccc2[nH]5)C=C4)C=C3)cc1)c1ccc(F)cc1
REMARK SMILES IDX 30 1 29 2 27 3 28 4 24 5 23 6 21 7 22 8 18 10 17 11 15 12
REMARK SMILES IDX 16 13 4 15 3 16 1 17 2 18 86 20 87 21 92 22 88 23 91 24
REMARK SMILES IDX 89 25 90 26 5 27 6 28 7 29 14 30 8 31 9 32 13 33 10 35 12 36
REMARK SMILES IDX 11 37 19 38 20 39 25 41 26 42 31 44 32 45 33 46 34 47 35 48
REMARK SMILES IDX 36 49 37 50 38 51 39 52 85 53 40 54 84 55 41 56 42 57 43 58
REMARK SMILES IDX 78 59 44 60 83 61 77 62 79 63 45 64 82 65 76 66 75 67 46 69
REMARK SMILES IDX 68 70 53 71 67 72 54 73 57 74 66 75 80 76 55 77 56 78 65 80
REMARK SMILES IDX 81 81 58 82 47 83 48 84 52 85 49 86 51 87 50 88 69 89 70 90
REMARK SMILES IDX 74 91 71 92 73 93 72 94 59 95 60 96 64 97 61 98 63 99 62 100
REMARK H PARENT 23 9 17 14 3 19 8 34 20 40 26 43 79 68 57 79
REMARK Flexibility Score: inf
ROOT
ATOM      1  C   UNL     1       3.335  -4.671   9.428  1.00  0.00     0.261 C 
ENDROOT
BRANCH   1   2
ATOM      2  O   UNL     1       4.124  -4.037   8.412  1.00  0.00    -0.462 OA
BRANCH   2   3
ATOM      3  C   UNL     1       4.688  -4.883   7.507  1.00  0.00     0.331 C 
ATOM      4  O   UNL     1       4.779  -6.096   7.648  1.00  0.00    -0.250 OA
BRANCH   3   5
ATOM      5  C   UNL     1       5.245  -4.117   6.303  1.00  0.00     0.218 C 
BRANCH   5   6
ATOM      6  N   UNL     1       4.720  -2.731   6.198  1.00  0.00    -0.339 N 
ATOM      7  C   UNL     1       5.082  -1.975   5.123  1.00  0.00     0.244 C 
ATOM      8  O   UNL     1       6.253  -1.589   5.088  1.00  0.00    -0.273 OA
ATOM      9  H   UNL     1       4.123  -2.366   6.891  1.00  0.00     0.164 HD
BRANCH   7  10
ATOM     10  C   UNL     1       4.044  -1.642   3.995  1.00  0.00     0.181 C 
BRANCH  10  11
ATOM     11  N   UNL     1       4.740  -1.879   2.720  1.00  0.00    -0.342 N 
ATOM     12  C   UNL     1       5.304  -0.960   1.875  1.00  0.00     0.243 C 
ATOM     13  O   UNL     1       6.423  -1.242   1.430  1.00  0.00    -0.273 OA
ATOM     14  H   UNL     1       4.810  -2.820   2.439  1.00  0.00     0.164 HD
BRANCH  12  15
ATOM     15  C   UNL     1       4.601   0.349   1.416  1.00  0.00     0.176 C 
BRANCH  15  16
ATOM     16  N   UNL     1       3.151   0.182   1.272  1.00  0.00    -0.340 N 
ATOM     17  O   UNL     1       1.215  -0.165   0.159  1.00  0.00    -0.269 OA
ATOM     18  C   UNL     1       2.433  -0.022   0.112  1.00  0.00     0.251 C 
ATOM     19  H   UNL     1       2.627   0.221   2.104  1.00  0.00     0.164 HD
BRANCH  18  20
ATOM     20  C   UNL     1       3.108   0.011  -1.211  1.00  0.00     0.040 A 
ATOM     21  C   UNL     1       4.110  -0.906  -1.557  1.00  0.00     0.017 A 
ATOM     22  C   UNL     1       2.726   1.007  -2.122  1.00  0.00     0.017 A 
ATOM     23  C   UNL     1       4.782  -0.773  -2.776  1.00  0.00     0.040 A 
ATOM     24  C   UNL     1       3.392   1.127  -3.344  1.00  0.00     0.040 A 
ATOM     25  C   UNL     1       4.423   0.246  -3.653  1.00  0.00     0.123 A 
ATOM     26  F   UNL     1       5.082   0.383  -4.811  1.00  0.00    -0.207 F 
ENDBRANCH  18  20
ENDBRANCH  15  16
BRANCH  15  27
ATOM     27  C   UNL     1       5.061   1.710   1.988  1.00  0.00     0.072 C 
BRANCH  27  28
ATOM     28  C   UNL     1       4.835   1.976   3.441  1.00  0.00    -0.020 A 
ATOM     29  C   UNL     1       5.438   1.289   4.470  1.00  0.00     0.087 A 
ATOM     30  C   UNL     1       4.192   3.092   4.077  1.00  0.00     0.003 A 
ATOM     31  N   UNL     1       4.863   1.667   5.647  1.00  0.00    -0.361 N 
ATOM     32  C   UNL     1       4.143   2.817   5.447  1.00  0.00     0.046 A 
ATOM     33  C   UNL     1       3.685   4.334   3.640  1.00  0.00     0.010 A 
ATOM     34  H   UNL     1       4.950   1.190   6.504  1.00  0.00     0.166 HD
ATOM     35  C   UNL     1       3.519   3.650   6.381  1.00  0.00     0.026 A 
ATOM     36  C   UNL     1       3.159   5.233   4.580  1.00  0.00     0.001 A 
ATOM     37  C   UNL     1       3.049   4.881   5.923  1.00  0.00     0.002 A 
ENDBRANCH  27  28
ENDBRANCH  15  27
ENDBRANCH  12  15
ENDBRANCH  10  11
BRANCH  10  38
ATOM     38  C   UNL     1       2.653  -2.279   4.092  1.00  0.00     0.101 C 
BRANCH  38  39
ATOM     39  S   UNL     1       2.554  -4.091   3.998  1.00  0.00    -0.177 SA
ATOM     40  H   UNL     1       2.973  -4.505   2.772  1.00  0.00     0.102 HD
ENDBRANCH  38  39
ENDBRANCH  10  38
ENDBRANCH   7  10
ENDBRANCH   5   6
BRANCH   5  41
ATOM     41  C   UNL     1       6.779  -4.165   6.388  1.00  0.00     0.193 C 
BRANCH  41  42
ATOM     42  O   UNL     1       7.263  -3.190   7.314  1.00  0.00    -0.394 OA
ATOM     43  H   UNL     1       7.000  -2.305   7.019  1.00  0.00     0.210 HD
ENDBRANCH  41  42
ENDBRANCH   5  41
ENDBRANCH   3   5
ENDBRANCH   2   3
ENDBRANCH   1   2
BRANCH   1  44
ATOM     44  C   UNL     1       2.318  -3.668   9.975  1.00  0.00     0.202 C 
BRANCH  44  45
ATOM     45  O   UNL     1       1.292  -3.255   9.069  1.00  0.00    -0.374 OA
BRANCH  45  46
ATOM     46  C   UNL     1       1.670  -2.400   7.992  1.00  0.00     0.202 C 
BRANCH  46  47
ATOM     47  C   UNL     1       1.851  -0.911   8.323  1.00  0.00     0.261 C 
BRANCH  47  48
ATOM     48  O   UNL     1       2.821  -0.674   9.358  1.00  0.00    -0.460 OA
BRANCH  48  49
ATOM     49  C   UNL     1       2.285  -0.279  10.540  1.00  0.00     0.338 C 
ATOM     50  O   UNL     1       1.114  -0.016  10.775  1.00  0.00    -0.246 OA
BRANCH  49  51
ATOM     51  C   UNL     1       3.294  -0.351  11.609  1.00  0.00     0.060 A 
ATOM     52  C   UNL     1       3.046  -1.226  12.674  1.00  0.00     0.016 A 
ATOM     53  C   UNL     1       4.407   0.491  11.623  1.00  0.00     0.016 A 
ATOM     54  C   UNL     1       3.896  -1.240  13.777  1.00  0.00     0.010 A 
ATOM     55  C   UNL     1       5.253   0.485  12.739  1.00  0.00     0.010 A 
ATOM     56  C   UNL     1       4.982  -0.358  13.832  1.00  0.00    -0.014 A 
BRANCH  56  57
ATOM     57  C   UNL     1       5.735  -0.220  15.101  1.00  0.00     0.031 A 
ATOM     58  C   UNL     1       5.386   0.903  16.039  1.00  0.00     0.074 A 
ATOM     59  C   UNL     1       6.681  -1.113  15.439  1.00  0.00     0.049 A 
ATOM     60  N   UNL     1       5.900   1.200  17.205  1.00  0.00    -0.248 NA
ATOM     61  C   UNL     1       4.310   1.809  15.606  1.00  0.00     0.031 C 
ATOM     62  C   UNL     1       7.075  -2.272  14.639  1.00  0.00     0.029 A 
ATOM     63  N   UNL     1       7.479  -1.184  16.553  1.00  0.00    -0.354 N 
ATOM     64  C   UNL     1       5.213   2.325  17.644  1.00  0.00     0.074 A 
ATOM     65  C   UNL     1       4.268   2.676  16.606  1.00  0.00     0.031 C 
ATOM     66  C   UNL     1       8.041  -2.942  15.292  1.00  0.00     0.029 A 
ATOM     67  C   UNL     1       8.352  -2.244  16.537  1.00  0.00     0.049 A 
ATOM     68  H   UNL     1       7.430  -0.537  17.294  1.00  0.00     0.167 HD
ATOM     69  C   UNL     1       5.350   3.002  18.809  1.00  0.00     0.031 A 
ATOM     70  C   UNL     1       9.302  -2.601  17.422  1.00  0.00     0.031 A 
ATOM     71  C   UNL     1       6.303   2.666  19.833  1.00  0.00     0.049 A 
ATOM     72  C   UNL     1       9.494  -1.782  18.670  1.00  0.00     0.074 A 
ATOM     73  C   UNL     1       6.518   3.288  21.050  1.00  0.00     0.029 A 
ATOM     74  N   UNL     1       7.206   1.617  19.754  1.00  0.00    -0.354 N 
ATOM     75  N   UNL     1       8.824  -0.733  19.082  1.00  0.00    -0.248 NA
ATOM     76  C   UNL     1      10.569  -2.204  19.579  1.00  0.00     0.031 C 
ATOM     77  C   UNL     1       7.588   2.647  21.685  1.00  0.00     0.029 A 
ATOM     78  C   UNL     1       7.999   1.591  20.888  1.00  0.00     0.049 A 
ATOM     79  H   UNL     1       7.274   0.985  19.002  1.00  0.00     0.167 HD
ATOM     80  C   UNL     1       9.376  -0.388  20.310  1.00  0.00     0.074 A 
ATOM     81  C   UNL     1      10.427  -1.347  20.581  1.00  0.00     0.031 C 
ATOM     82  C   UNL     1       9.042   0.630  21.140  1.00  0.00     0.031 A 
BRANCH  69  83
ATOM     83  C   UNL     1       4.467   4.200  19.017  1.00  0.00    -0.014 A 
ATOM     84  C   UNL     1       3.092   4.059  19.263  1.00  0.00     0.009 A 
ATOM     85  C   UNL     1       5.022   5.489  18.984  1.00  0.00     0.009 A 
ATOM     86  C   UNL     1       2.285   5.186  19.438  1.00  0.00     0.001 A 
ATOM     87  C   UNL     1       4.219   6.612  19.186  1.00  0.00     0.001 A 
ATOM     88  C   UNL     1       2.850   6.461  19.403  1.00  0.00     0.000 A 
ENDBRANCH  69  83
BRANCH  70  89
ATOM     89  C   UNL     1      10.160  -3.786  17.157  1.00  0.00    -0.014 A 
ATOM     90  C   UNL     1      10.041  -4.946  17.938  1.00  0.00     0.009 A 
ATOM     91  C   UNL     1      11.117  -3.755  16.130  1.00  0.00     0.009 A 
ATOM     92  C   UNL     1      10.880  -6.040  17.710  1.00  0.00     0.001 A 
ATOM     93  C   UNL     1      11.934  -4.860  15.887  1.00  0.00     0.001 A 
ATOM     94  C   UNL     1      11.821  -5.998  16.683  1.00  0.00     0.000 A 
ENDBRANCH  70  89
BRANCH  82  95
ATOM     95  C   UNL     1       9.796   0.736  22.437  1.00  0.00    -0.014 A 
ATOM     96  C   UNL     1      11.130   1.170  22.473  1.00  0.00     0.009 A 
ATOM     97  C   UNL     1       9.146   0.430  23.643  1.00  0.00     0.009 A 
ATOM     98  C   UNL     1      11.808   1.264  23.690  1.00  0.00     0.001 A 
ATOM     99  C   UNL     1       9.818   0.552  24.860  1.00  0.00     0.001 A 
ATOM    100  C   UNL     1      11.150   0.959  24.882  1.00  0.00     0.000 A 
ENDBRANCH  82  95
ENDBRANCH  56  57
ENDBRANCH  49  51
ENDBRANCH  48  49
ENDBRANCH  47  48
ENDBRANCH  46  47
ENDBRANCH  45  46
ENDBRANCH  44  45
ENDBRANCH   1  44
TORSDOF 26
