REMARK SMILES CC(C)N(c1cc2c(cc1Cl)C=C(C(=O)OCCOCCOC(=O)c1ccc(-c3c4nc(c(-c5ccccc5)c5ccc([nH]5)c(-c5ccccc5)c5nc(c(-c6ccccc6)c6ccc3[nH]6)C=C5)C=C4)cc1)[C@@H](C(F)(F)F)O2)C(C)C
REMARK SMILES IDX 19 1 18 2 17 3 16 4 14 5 15 6 13 7 5 8 6 9 10 10 7 11 9 12
REMARK SMILES IDX 11 13 8 14 78 15 12 16 73 17 4 18 2 19 1 20 3 21 79 22 80 23
REMARK SMILES IDX 81 24 74 25 75 26 76 27 77 28 20 29 21 30 22 31 23 32 24 33
REMARK SMILES IDX 25 34 26 35 72 36 27 37 71 38 28 39 29 40 30 41 65 42 31 43
REMARK SMILES IDX 70 44 64 45 66 46 32 47 69 48 63 49 62 50 33 52 55 53 40 54
REMARK SMILES IDX 54 55 41 56 44 57 53 58 67 59 42 60 43 61 52 63 68 64 45 65
REMARK SMILES IDX 34 66 35 67 39 68 36 69 38 70 37 71 56 72 57 73 61 74 58 75
REMARK SMILES IDX 60 76 59 77 46 78 47 79 51 80 48 81 50 82 49 83
REMARK H PARENT 66 51 44 62
REMARK Flexibility Score: inf
ROOT
ATOM      1  O   UNL     1      -6.057  -5.517  -7.828  1.00  0.00    -0.374 OA
ENDROOT
BRANCH   1   2
ATOM      2  C   UNL     1      -7.405  -5.078  -7.691  1.00  0.00     0.202 C 
BRANCH   2   3
ATOM      3  C   UNL     1      -7.972  -4.917  -6.277  1.00  0.00     0.261 C 
BRANCH   3   4
ATOM      4  O   UNL     1      -7.172  -4.046  -5.464  1.00  0.00    -0.460 OA
BRANCH   4   5
ATOM      5  C   UNL     1      -6.511  -4.679  -4.466  1.00  0.00     0.338 C 
ATOM      6  O   UNL     1      -6.617  -5.853  -4.149  1.00  0.00    -0.246 OA
BRANCH   5   7
ATOM      7  C   UNL     1      -5.516  -3.774  -3.864  1.00  0.00     0.087 C 
ATOM      8  C   UNL     1      -1.693  -2.191  -0.986  1.00  0.00     0.060 A 
ATOM      9  C   UNL     1      -2.828  -1.577  -1.577  1.00  0.00     0.074 A 
ATOM     10  C   UNL     1      -1.400  -3.505  -1.426  1.00  0.00     0.065 A 
ATOM     11  C   UNL     1      -3.682  -2.258  -2.452  1.00  0.00     0.130 A 
ATOM     12  C   UNL     1      -2.224  -4.164  -2.349  1.00  0.00     0.034 A 
ATOM     13  Cl  UNL     1      -0.119  -4.491  -0.801  1.00  0.00    -0.082 Cl
ATOM     14  C   UNL     1      -3.386  -3.562  -2.821  1.00  0.00     0.019 A 
ATOM     15  O   UNL     1      -4.795  -1.590  -2.884  1.00  0.00    -0.475 OA
ATOM     16  C   UNL     1      -4.331  -4.335  -3.598  1.00  0.00     0.027 C 
ATOM     17  C   UNL     1      -5.866  -2.352  -3.522  1.00  0.00     0.316 C 
BRANCH   8  18
ATOM     18  N   UNL     1      -0.986  -1.491   0.018  1.00  0.00    -0.365 N 
BRANCH  18  19
ATOM     19  C   UNL     1       0.495  -1.459  -0.042  1.00  0.00     0.076 C 
ATOM     20  C   UNL     1       1.057  -0.052  -0.231  1.00  0.00     0.030 C 
ATOM     21  C   UNL     1       1.171  -2.143   1.148  1.00  0.00     0.030 C 
ENDBRANCH  18  19
BRANCH  18  22
ATOM     22  C   UNL     1      -1.812  -0.878   1.091  1.00  0.00     0.076 C 
ATOM     23  C   UNL     1      -1.604  -1.522   2.458  1.00  0.00     0.030 C 
ATOM     24  C   UNL     1      -1.680   0.640   1.161  1.00  0.00     0.030 C 
ENDBRANCH  18  22
ENDBRANCH   8  18
BRANCH  17  25
ATOM     25  C   UNL     1      -7.133  -2.251  -2.658  1.00  0.00     0.430 C 
ATOM     26  F   UNL     1      -7.398  -0.965  -2.322  1.00  0.00    -0.167 F 
ATOM     27  F   UNL     1      -8.225  -2.708  -3.316  1.00  0.00    -0.167 F 
ATOM     28  F   UNL     1      -7.025  -2.958  -1.511  1.00  0.00    -0.167 F 
ENDBRANCH  17  25
ENDBRANCH   5   7
ENDBRANCH   4   5
ENDBRANCH   3   4
ENDBRANCH   2   3
ENDBRANCH   1   2
BRANCH   1  29
ATOM     29  C   UNL     1      -5.003  -4.606  -7.521  1.00  0.00     0.202 C 
BRANCH  29  30
ATOM     30  C   UNL     1      -4.768  -3.409  -8.453  1.00  0.00     0.261 C 
BRANCH  30  31
ATOM     31  O   UNL     1      -5.880  -2.501  -8.497  1.00  0.00    -0.460 OA
BRANCH  31  32
ATOM     32  C   UNL     1      -6.565  -2.495  -9.668  1.00  0.00     0.338 C 
ATOM     33  O   UNL     1      -6.327  -3.148 -10.672  1.00  0.00    -0.246 OA
BRANCH  32  34
ATOM     34  C   UNL     1      -7.803  -1.714  -9.498  1.00  0.00     0.060 A 
ATOM     35  C   UNL     1      -7.760  -0.377  -9.103  1.00  0.00     0.016 A 
ATOM     36  C   UNL     1      -9.025  -2.337  -9.780  1.00  0.00     0.016 A 
ATOM     37  C   UNL     1      -8.953   0.343  -9.007  1.00  0.00     0.010 A 
ATOM     38  C   UNL     1     -10.215  -1.617  -9.683  1.00  0.00     0.010 A 
ATOM     39  C   UNL     1     -10.185  -0.266  -9.312  1.00  0.00    -0.014 A 
BRANCH  39  40
ATOM     40  C   UNL     1     -11.422   0.550  -9.370  1.00  0.00     0.031 A 
ATOM     41  C   UNL     1     -12.488   0.440  -8.324  1.00  0.00     0.074 A 
ATOM     42  C   UNL     1     -11.585   1.389 -10.411  1.00  0.00     0.049 A 
ATOM     43  N   UNL     1     -13.577   1.154  -8.190  1.00  0.00    -0.248 NA
ATOM     44  C   UNL     1     -12.319  -0.604  -7.304  1.00  0.00     0.031 C 
ATOM     45  C   UNL     1     -10.632   1.548 -11.510  1.00  0.00     0.029 A 
ATOM     46  N   UNL     1     -12.593   2.270 -10.708  1.00  0.00    -0.354 N 
ATOM     47  C   UNL     1     -14.220   0.656  -7.065  1.00  0.00     0.074 A 
ATOM     48  C   UNL     1     -13.423  -0.453  -6.582  1.00  0.00     0.031 C 
ATOM     49  C   UNL     1     -11.079   2.502 -12.338  1.00  0.00     0.029 A 
ATOM     50  C   UNL     1     -12.366   2.994 -11.853  1.00  0.00     0.049 A 
ATOM     51  H   UNL     1     -13.401   2.374 -10.155  1.00  0.00     0.167 HD
ATOM     52  C   UNL     1     -15.362   1.097  -6.486  1.00  0.00     0.031 A 
ATOM     53  C   UNL     1     -13.101   3.954 -12.448  1.00  0.00     0.031 A 
ATOM     54  C   UNL     1     -16.158   2.188  -6.992  1.00  0.00     0.049 A 
ATOM     55  C   UNL     1     -14.382   4.405 -11.807  1.00  0.00     0.074 A 
ATOM     56  C   UNL     1     -17.295   2.747  -6.435  1.00  0.00     0.029 A 
ATOM     57  N   UNL     1     -15.919   2.869  -8.177  1.00  0.00    -0.354 N 
ATOM     58  N   UNL     1     -14.926   3.997 -10.686  1.00  0.00    -0.248 NA
ATOM     59  C   UNL     1     -15.141   5.456 -12.497  1.00  0.00     0.031 C 
ATOM     60  C   UNL     1     -17.796   3.697  -7.326  1.00  0.00     0.029 A 
ATOM     61  C   UNL     1     -16.917   3.806  -8.392  1.00  0.00     0.049 A 
ATOM     62  H   UNL     1     -15.153   2.711  -8.775  1.00  0.00     0.167 HD
ATOM     63  C   UNL     1     -16.080   4.753 -10.524  1.00  0.00     0.074 A 
ATOM     64  C   UNL     1     -16.148   5.657 -11.655  1.00  0.00     0.031 C 
ATOM     65  C   UNL     1     -16.994   4.698  -9.525  1.00  0.00     0.031 A 
BRANCH  52  66
ATOM     66  C   UNL     1     -15.840   0.403  -5.237  1.00  0.00    -0.014 A 
ATOM     67  C   UNL     1     -17.073  -0.272  -5.240  1.00  0.00     0.009 A 
ATOM     68  C   UNL     1     -15.131   0.503  -4.029  1.00  0.00     0.009 A 
ATOM     69  C   UNL     1     -17.590  -0.818  -4.064  1.00  0.00     0.001 A 
ATOM     70  C   UNL     1     -15.633  -0.076  -2.861  1.00  0.00     0.001 A 
ATOM     71  C   UNL     1     -16.867  -0.725  -2.877  1.00  0.00     0.000 A 
ENDBRANCH  52  66
BRANCH  53  72
ATOM     72  C   UNL     1     -12.584   4.574 -13.697  1.00  0.00    -0.014 A 
ATOM     73  C   UNL     1     -12.484   3.821 -14.879  1.00  0.00     0.009 A 
ATOM     74  C   UNL     1     -12.084   5.885 -13.685  1.00  0.00     0.009 A 
ATOM     75  C   UNL     1     -11.852   4.349 -16.006  1.00  0.00     0.001 A 
ATOM     76  C   UNL     1     -11.482   6.422 -14.826  1.00  0.00     0.001 A 
ATOM     77  C   UNL     1     -11.352   5.649 -15.979  1.00  0.00     0.000 A 
ENDBRANCH  53  72
BRANCH  65  78
ATOM     78  C   UNL     1     -18.170   5.639  -9.581  1.00  0.00    -0.014 A 
ATOM     79  C   UNL     1     -18.324   6.623  -8.589  1.00  0.00     0.009 A 
ATOM     80  C   UNL     1     -19.191   5.473 -10.530  1.00  0.00     0.009 A 
ATOM     81  C   UNL     1     -19.484   7.397  -8.527  1.00  0.00     0.001 A 
ATOM     82  C   UNL     1     -20.334   6.274 -10.487  1.00  0.00     0.001 A 
ATOM     83  C   UNL     1     -20.487   7.224  -9.478  1.00  0.00     0.000 A 
ENDBRANCH  65  78
ENDBRANCH  39  40
ENDBRANCH  32  34
ENDBRANCH  31  32
ENDBRANCH  30  31
ENDBRANCH  29  30
ENDBRANCH   1  29
TORSDOF 18
