REMARK SMILES CC(C)(C)c1cc2c(cc1Cl)C=C(C(=O)OCCOCCOC(=O)c1ccc(-c3c4nc(c(-c5ccccc5)c5ccc([nH]5)c(-c5ccccc5)c5nc(c(-c6ccccc6)c6ccc3[nH]6)C=C5)C=C4)cc1)[C@@H](C(F)(F)F)O2
REMARK SMILES IDX 20 1 19 2 18 3 17 4 16 5 14 6 15 7 13 8 5 9 6 10 10 11 7 12
REMARK SMILES IDX 9 13 11 14 8 15 78 16 12 17 73 18 2 19 1 20 3 21 4 22 74 23
REMARK SMILES IDX 75 24 76 25 77 26 21 27 22 28 23 29 24 30 25 31 26 32 72 33
REMARK SMILES IDX 27 34 71 35 28 36 29 37 30 38 65 39 31 40 70 41 64 42 66 43
REMARK SMILES IDX 32 44 69 45 63 46 62 47 33 49 55 50 40 51 54 52 41 53 44 54
REMARK SMILES IDX 53 55 67 56 42 57 43 58 52 60 68 61 45 62 34 63 35 64 39 65
REMARK SMILES IDX 36 66 38 67 37 68 56 69 57 70 61 71 58 72 60 73 59 74 46 75
REMARK SMILES IDX 47 76 51 77 48 78 50 79 49 80
REMARK H PARENT 66 48 44 59
REMARK Flexibility Score: inf
ROOT
ATOM      1  C   UNL     1       4.194  -9.142   1.165  1.00  0.00     0.202 C 
ENDROOT
BRANCH   1   2
ATOM      2  O   UNL     1       4.179 -10.312   0.349  1.00  0.00    -0.374 OA
BRANCH   2   3
ATOM      3  C   UNL     1       5.025 -10.360  -0.795  1.00  0.00     0.202 C 
BRANCH   3   4
ATOM      4  C   UNL     1       4.627  -9.529  -2.019  1.00  0.00     0.261 C 
BRANCH   4   5
ATOM      5  O   UNL     1       4.427  -8.145  -1.697  1.00  0.00    -0.460 OA
BRANCH   5   6
ATOM      6  C   UNL     1       3.136  -7.743  -1.771  1.00  0.00     0.338 C 
ATOM      7  O   UNL     1       2.188  -8.393  -2.180  1.00  0.00    -0.246 OA
BRANCH   6   8
ATOM      8  C   UNL     1       2.988  -6.414  -1.151  1.00  0.00     0.087 C 
ATOM      9  C   UNL     1       0.869  -2.305   0.865  1.00  0.00    -0.020 A 
ATOM     10  C   UNL     1       2.076  -2.589   0.177  1.00  0.00     0.053 A 
ATOM     11  C   UNL     1       0.141  -3.427   1.318  1.00  0.00     0.045 A 
ATOM     12  C   UNL     1       2.456  -3.889  -0.172  1.00  0.00     0.128 A 
ATOM     13  C   UNL     1       0.515  -4.730   0.953  1.00  0.00     0.032 A 
ATOM     14  Cl  UNL     1      -1.222  -3.352   2.378  1.00  0.00    -0.084 Cl
ATOM     15  C   UNL     1       1.643  -4.957   0.171  1.00  0.00     0.019 A 
ATOM     16  O   UNL     1       3.630  -4.020  -0.858  1.00  0.00    -0.475 OA
ATOM     17  C   UNL     1       1.931  -6.280  -0.340  1.00  0.00     0.027 C 
ATOM     18  C   UNL     1       3.953  -5.305  -1.464  1.00  0.00     0.316 C 
BRANCH   9  19
ATOM     19  C   UNL     1       0.453  -0.827   1.076  1.00  0.00    -0.012 C 
ATOM     20  C   UNL     1       1.058   0.113  -0.006  1.00  0.00     0.016 C 
ATOM     21  C   UNL     1       0.967  -0.362   2.449  1.00  0.00     0.016 C 
ATOM     22  C   UNL     1      -1.073  -0.578   0.986  1.00  0.00     0.016 C 
ENDBRANCH   9  19
BRANCH  18  23
ATOM     23  C   UNL     1       4.139  -5.085  -2.973  1.00  0.00     0.430 C 
ATOM     24  F   UNL     1       4.987  -4.055  -3.215  1.00  0.00    -0.167 F 
ATOM     25  F   UNL     1       4.672  -6.171  -3.579  1.00  0.00    -0.167 F 
ATOM     26  F   UNL     1       2.972  -4.804  -3.592  1.00  0.00    -0.167 F 
ENDBRANCH  18  23
ENDBRANCH   6   8
ENDBRANCH   5   6
ENDBRANCH   4   5
ENDBRANCH   3   4
ENDBRANCH   2   3
ENDBRANCH   1   2
BRANCH   1  27
ATOM     27  C   UNL     1       5.445  -8.843   2.002  1.00  0.00     0.261 C 
BRANCH  27  28
ATOM     28  O   UNL     1       6.610  -8.584   1.200  1.00  0.00    -0.460 OA
BRANCH  28  29
ATOM     29  C   UNL     1       7.564  -9.547   1.251  1.00  0.00     0.338 C 
ATOM     30  O   UNL     1       7.547 -10.575   1.911  1.00  0.00    -0.246 OA
BRANCH  29  31
ATOM     31  C   UNL     1       8.576  -9.280   0.214  1.00  0.00     0.060 A 
ATOM     32  C   UNL     1       9.289  -8.081   0.198  1.00  0.00     0.016 A 
ATOM     33  C   UNL     1       8.836 -10.279  -0.733  1.00  0.00     0.016 A 
ATOM     34  C   UNL     1      10.285  -7.894  -0.764  1.00  0.00     0.010 A 
ATOM     35  C   UNL     1       9.829 -10.089  -1.694  1.00  0.00     0.010 A 
ATOM     36  C   UNL     1      10.574  -8.902  -1.704  1.00  0.00    -0.014 A 
BRANCH  36  37
ATOM     37  C   UNL     1      11.740  -8.764  -2.610  1.00  0.00     0.031 A 
ATOM     38  C   UNL     1      11.569  -8.492  -4.074  1.00  0.00     0.074 A 
ATOM     39  C   UNL     1      12.974  -8.901  -2.088  1.00  0.00     0.049 A 
ATOM     40  N   UNL     1      12.491  -8.269  -4.976  1.00  0.00    -0.248 NA
ATOM     41  C   UNL     1      10.195  -8.471  -4.597  1.00  0.00     0.031 C 
ATOM     42  C   UNL     1      13.259  -9.196  -0.683  1.00  0.00     0.029 A 
ATOM     43  N   UNL     1      14.215  -8.799  -2.667  1.00  0.00    -0.354 N 
ATOM     44  C   UNL     1      11.812  -8.060  -6.169  1.00  0.00     0.074 A 
ATOM     45  C   UNL     1      10.403  -8.234  -5.887  1.00  0.00     0.031 C 
ATOM     46  C   UNL     1      14.587  -9.209  -0.499  1.00  0.00     0.029 A 
ATOM     47  C   UNL     1      15.250  -8.965  -1.778  1.00  0.00     0.049 A 
ATOM     48  H   UNL     1      14.350  -8.623  -3.626  1.00  0.00     0.167 HD
ATOM     49  C   UNL     1      12.323  -7.734  -7.380  1.00  0.00     0.031 A 
ATOM     50  C   UNL     1      16.584  -8.922  -1.964  1.00  0.00     0.031 A 
ATOM     51  C   UNL     1      13.730  -7.583  -7.652  1.00  0.00     0.049 A 
ATOM     52  C   UNL     1      17.124  -8.610  -3.332  1.00  0.00     0.074 A 
ATOM     53  C   UNL     1      14.335  -7.214  -8.841  1.00  0.00     0.029 A 
ATOM     54  N   UNL     1      14.749  -7.803  -6.738  1.00  0.00    -0.354 N 
ATOM     55  N   UNL     1      16.467  -8.329  -4.431  1.00  0.00    -0.248 NA
ATOM     56  C   UNL     1      18.586  -8.592  -3.485  1.00  0.00     0.031 C 
ATOM     57  C   UNL     1      15.717  -7.292  -8.671  1.00  0.00     0.029 A 
ATOM     58  C   UNL     1      15.978  -7.618  -7.350  1.00  0.00     0.049 A 
ATOM     59  H   UNL     1      14.618  -8.054  -5.795  1.00  0.00     0.167 HD
ATOM     60  C   UNL     1      17.433  -8.076  -5.398  1.00  0.00     0.074 A 
ATOM     61  C   UNL     1      18.720  -8.217  -4.751  1.00  0.00     0.031 C 
ATOM     62  C   UNL     1      17.260  -7.757  -6.703  1.00  0.00     0.031 A 
BRANCH  49  63
ATOM     63  C   UNL     1      11.368  -7.499  -8.520  1.00  0.00    -0.014 A 
ATOM     64  C   UNL     1      11.395  -8.343  -9.643  1.00  0.00     0.009 A 
ATOM     65  C   UNL     1      10.543  -6.364  -8.547  1.00  0.00     0.009 A 
ATOM     66  C   UNL     1      10.639  -8.041 -10.777  1.00  0.00     0.001 A 
ATOM     67  C   UNL     1       9.763  -6.082  -9.671  1.00  0.00     0.001 A 
ATOM     68  C   UNL     1       9.822  -6.913 -10.790  1.00  0.00     0.000 A 
ENDBRANCH  49  63
BRANCH  50  69
ATOM     69  C   UNL     1      17.488  -9.143  -0.803  1.00  0.00    -0.014 A 
ATOM     70  C   UNL     1      17.536 -10.391  -0.160  1.00  0.00     0.009 A 
ATOM     71  C   UNL     1      18.265  -8.091  -0.293  1.00  0.00     0.009 A 
ATOM     72  C   UNL     1      18.314 -10.573   0.985  1.00  0.00     0.001 A 
ATOM     73  C   UNL     1      19.072  -8.287   0.831  1.00  0.00     0.001 A 
ATOM     74  C   UNL     1      19.086  -9.522   1.477  1.00  0.00     0.000 A 
ENDBRANCH  50  69
BRANCH  62  75
ATOM     75  C   UNL     1      18.484  -7.518  -7.548  1.00  0.00    -0.014 A 
ATOM     76  C   UNL     1      18.719  -6.242  -8.088  1.00  0.00     0.009 A 
ATOM     77  C   UNL     1      19.329  -8.575  -7.919  1.00  0.00     0.009 A 
ATOM     78  C   UNL     1      19.752  -6.035  -9.004  1.00  0.00     0.001 A 
ATOM     79  C   UNL     1      20.385  -8.357  -8.807  1.00  0.00     0.001 A 
ATOM     80  C   UNL     1      20.586  -7.093  -9.360  1.00  0.00     0.000 A 
ENDBRANCH  62  75
ENDBRANCH  36  37
ENDBRANCH  29  31
ENDBRANCH  28  29
ENDBRANCH  27  28
ENDBRANCH   1  27
TORSDOF 16
