REMARK SMILES CCc1cccc(-c2ccc([C@@H](C)C(=O)OCCOCCOC(=O)c3ccc(-c4c5nc(c(-c6ccccc6)c6ccc([nH]6)c(-c6ccccc6)c6nc(c(-c7ccccc7)c7ccc4[nH]7)C=C6)C=C5)cc3)cc2)c1
REMARK SMILES IDX 18 1 17 2 16 3 14 4 15 5 12 6 13 7 11 8 8 9 9 10 74 11 10 12
REMARK SMILES IDX 73 13 7 14 3 15 4 16 75 17 5 18 6 19 2 20 1 21 19 22 20 23
REMARK SMILES IDX 21 24 22 25 23 26 24 27 25 28 26 29 72 30 27 31 71 32 28 33
REMARK SMILES IDX 29 34 30 35 65 36 31 37 70 38 64 39 66 40 32 41 69 42 63 43
REMARK SMILES IDX 62 44 33 46 55 47 40 48 54 49 41 50 44 51 53 52 67 53 42 54
REMARK SMILES IDX 43 55 52 57 68 58 45 59 34 60 35 61 39 62 36 63 38 64 37 65
REMARK SMILES IDX 56 66 57 67 61 68 58 69 60 70 59 71 46 72 47 73 51 74 48 75
REMARK SMILES IDX 50 76 49 77
REMARK H PARENT 66 45 44 56
REMARK Flexibility Score: inf
ROOT
ATOM      1  C   UNL     1       5.862   2.986   7.821  1.00  0.00     0.202 C 
ENDROOT
BRANCH   1   2
ATOM      2  C   UNL     1       5.383   2.325   9.115  1.00  0.00     0.261 C 
BRANCH   2   3
ATOM      3  O   UNL     1       4.303   1.409   8.851  1.00  0.00    -0.463 OA
BRANCH   3   4
ATOM      4  C   UNL     1       3.122   1.690   9.459  1.00  0.00     0.313 C 
ATOM      5  O   UNL     1       2.973   2.560  10.311  1.00  0.00    -0.252 OA
BRANCH   4   6
ATOM      6  C   UNL     1       1.976   0.788   9.028  1.00  0.00     0.126 C 
ATOM      7  C   UNL     1       1.790  -0.313  10.070  1.00  0.00     0.025 C 
BRANCH   6   8
ATOM      8  C   UNL     1       1.993   0.224   7.610  1.00  0.00    -0.034 A 
ATOM      9  C   UNL     1       1.758  -1.033   5.058  1.00  0.00    -0.018 A 
ATOM     10  C   UNL     1       2.819  -1.334   5.927  1.00  0.00     0.009 A 
ATOM     11  C   UNL     1       0.857  -0.038   5.462  1.00  0.00     0.009 A 
ATOM     12  C   UNL     1       2.935  -0.721   7.184  1.00  0.00     0.005 A 
ATOM     13  C   UNL     1       0.971   0.580   6.715  1.00  0.00     0.005 A 
BRANCH   9  14
ATOM     14  C   UNL     1       1.540  -1.798   3.812  1.00  0.00    -0.018 A 
ATOM     15  C   UNL     1       0.996  -1.907   1.415  1.00  0.00    -0.048 A 
ATOM     16  C   UNL     1       0.989  -3.307   1.496  1.00  0.00     0.004 A 
ATOM     17  C   UNL     1       1.266  -1.167   2.582  1.00  0.00     0.012 A 
ATOM     18  C   UNL     1       1.263  -3.952   2.699  1.00  0.00     0.001 A 
ATOM     19  C   UNL     1       1.536  -3.204   3.843  1.00  0.00     0.009 A 
BRANCH  15  20
ATOM     20  C   UNL     1       0.635  -1.274   0.089  1.00  0.00     0.032 C 
ATOM     21  C   UNL     1       1.117   0.152  -0.140  1.00  0.00     0.009 C 
ENDBRANCH  15  20
ENDBRANCH   9  14
ENDBRANCH   6   8
ENDBRANCH   4   6
ENDBRANCH   3   4
ENDBRANCH   2   3
ENDBRANCH   1   2
BRANCH   1  22
ATOM     22  O   UNL     1       4.953   3.914   7.229  1.00  0.00    -0.374 OA
BRANCH  22  23
ATOM     23  C   UNL     1       3.848   3.372   6.504  1.00  0.00     0.202 C 
BRANCH  23  24
ATOM     24  C   UNL     1       4.153   2.880   5.085  1.00  0.00     0.261 C 
BRANCH  24  25
ATOM     25  O   UNL     1       5.022   1.734   5.084  1.00  0.00    -0.460 OA
BRANCH  25  26
ATOM     26  C   UNL     1       6.256   1.953   4.579  1.00  0.00     0.338 C 
ATOM     27  O   UNL     1       6.676   2.979   4.060  1.00  0.00    -0.246 OA
BRANCH  26  28
ATOM     28  C   UNL     1       7.141   0.814   4.884  1.00  0.00     0.060 A 
ATOM     29  C   UNL     1       8.379   1.102   5.473  1.00  0.00     0.016 A 
ATOM     30  C   UNL     1       6.811  -0.497   4.532  1.00  0.00     0.016 A 
ATOM     31  C   UNL     1       9.316   0.088   5.661  1.00  0.00     0.010 A 
ATOM     32  C   UNL     1       7.758  -1.512   4.712  1.00  0.00     0.010 A 
ATOM     33  C   UNL     1       9.028  -1.217   5.242  1.00  0.00    -0.014 A 
BRANCH  33  34
ATOM     34  C   UNL     1      10.113  -2.228   5.224  1.00  0.00     0.031 A 
ATOM     35  C   UNL     1      10.842  -2.495   3.935  1.00  0.00     0.074 A 
ATOM     36  C   UNL     1      10.480  -2.868   6.349  1.00  0.00     0.049 A 
ATOM     37  N   UNL     1      11.823  -3.329   3.695  1.00  0.00    -0.248 NA
ATOM     38  C   UNL     1      10.413  -1.716   2.762  1.00  0.00     0.031 C 
ATOM     39  C   UNL     1       9.889  -2.666   7.670  1.00  0.00     0.029 A 
ATOM     40  N   UNL     1      11.448  -3.820   6.553  1.00  0.00    -0.354 N 
ATOM     41  C   UNL     1      12.124  -3.179   2.347  1.00  0.00     0.074 A 
ATOM     42  C   UNL     1      11.207  -2.193   1.814  1.00  0.00     0.031 C 
ATOM     43  C   UNL     1      10.506  -3.475   8.550  1.00  0.00     0.029 A 
ATOM     44  C   UNL     1      11.513  -4.269   7.849  1.00  0.00     0.049 A 
ATOM     45  H   UNL     1      12.040  -4.149   5.838  1.00  0.00     0.167 HD
ATOM     46  C   UNL     1      13.080  -3.799   1.617  1.00  0.00     0.031 A 
ATOM     47  C   UNL     1      12.287  -5.222   8.403  1.00  0.00     0.031 A 
ATOM     48  C   UNL     1      13.990  -4.784   2.137  1.00  0.00     0.049 A 
ATOM     49  C   UNL     1      13.290  -5.953   7.551  1.00  0.00     0.074 A 
ATOM     50  C   UNL     1      15.003  -5.456   1.475  1.00  0.00     0.029 A 
ATOM     51  N   UNL     1      13.992  -5.242   3.444  1.00  0.00    -0.354 N 
ATOM     52  N   UNL     1      13.581  -5.781   6.284  1.00  0.00    -0.248 NA
ATOM     53  C   UNL     1      14.076  -7.007   8.210  1.00  0.00     0.031 C 
ATOM     54  C   UNL     1      15.587  -6.358   2.371  1.00  0.00     0.029 A 
ATOM     55  C   UNL     1      14.970  -6.209   3.602  1.00  0.00     0.049 A 
ATOM     56  H   UNL     1      13.387  -4.928   4.155  1.00  0.00     0.167 HD
ATOM     57  C   UNL     1      14.602  -6.682   6.004  1.00  0.00     0.074 A 
ATOM     58  C   UNL     1      14.887  -7.390   7.234  1.00  0.00     0.031 C 
ATOM     59  C   UNL     1      15.246  -6.902   4.833  1.00  0.00     0.031 A 
BRANCH  46  60
ATOM     60  C   UNL     1      13.174  -3.451   0.159  1.00  0.00    -0.014 A 
ATOM     61  C   UNL     1      13.717  -2.228  -0.263  1.00  0.00     0.009 A 
ATOM     62  C   UNL     1      12.756  -4.381  -0.805  1.00  0.00     0.009 A 
ATOM     63  C   UNL     1      13.818  -1.934  -1.625  1.00  0.00     0.001 A 
ATOM     64  C   UNL     1      12.878  -4.093  -2.166  1.00  0.00     0.001 A 
ATOM     65  C   UNL     1      13.403  -2.868  -2.574  1.00  0.00     0.000 A 
ENDBRANCH  46  60
BRANCH  47  66
ATOM     66  C   UNL     1      12.133  -5.568   9.840  1.00  0.00    -0.014 A 
ATOM     67  C   UNL     1      13.142  -5.258  10.764  1.00  0.00     0.009 A 
ATOM     68  C   UNL     1      10.988  -6.246  10.286  1.00  0.00     0.009 A 
ATOM     69  C   UNL     1      13.018  -5.645  12.101  1.00  0.00     0.001 A 
ATOM     70  C   UNL     1      10.855  -6.608  11.628  1.00  0.00     0.001 A 
ATOM     71  C   UNL     1      11.875  -6.316  12.532  1.00  0.00     0.000 A 
ENDBRANCH  47  66
BRANCH  59  72
ATOM     72  C   UNL     1      16.349  -7.922   4.832  1.00  0.00    -0.014 A 
ATOM     73  C   UNL     1      16.070  -9.296   4.888  1.00  0.00     0.009 A 
ATOM     74  C   UNL     1      17.684  -7.501   4.730  1.00  0.00     0.009 A 
ATOM     75  C   UNL     1      17.110 -10.227   4.872  1.00  0.00     0.001 A 
ATOM     76  C   UNL     1      18.720  -8.435   4.688  1.00  0.00     0.001 A 
ATOM     77  C   UNL     1      18.433  -9.797   4.767  1.00  0.00     0.000 A 
ENDBRANCH  59  72
ENDBRANCH  33  34
ENDBRANCH  26  28
ENDBRANCH  25  26
ENDBRANCH  24  25
ENDBRANCH  23  24
ENDBRANCH  22  23
ENDBRANCH   1  22
TORSDOF 17
