REMARK SMILES CSc1nc(N)cc(Nc2cccc(C(=O)OCCOCCOC(=O)c3ccc(-c4c5nc(c(-c6ccccc6)c6ccc([nH]6)c(-c6ccccc6)c6nc(c(-c7ccccc7)c7ccc4[nH]7)C=C6)C=C5)cc3)c2)n1
REMARK SMILES IDX 19 1 18 2 17 3 15 4 16 5 14 6 10 7 11 8 74 9 12 10 13 11
REMARK SMILES IDX 9 12 8 14 3 15 4 16 75 17 5 18 7 19 2 20 1 21 6 22 20 25
REMARK SMILES IDX 21 26 22 27 23 28 24 29 25 30 26 31 27 32 73 33 28 34 72 35
REMARK SMILES IDX 29 36 30 37 31 38 66 39 32 40 71 41 65 42 67 43 33 44 70 45
REMARK SMILES IDX 64 46 63 47 34 49 56 50 41 51 55 52 42 53 45 54 54 55 68 56
REMARK SMILES IDX 43 57 44 58 53 60 69 61 46 62 35 63 36 64 40 65 37 66 39 67
REMARK SMILES IDX 38 68 57 69 58 70 62 71 59 72 61 73 60 74 47 75 48 76 52 77
REMARK SMILES IDX 49 78 51 79 50 80
REMARK H PARENT 9 13 6 23 6 24 67 48 45 59
REMARK Flexibility Score: inf
ROOT
ATOM      1  C   UNL     1       6.544   0.832   5.220  1.00  0.00     0.202 C 
ENDROOT
BRANCH   1   2
ATOM      2  C   UNL     1       5.446   1.254   4.238  1.00  0.00     0.261 C 
BRANCH   2   3
ATOM      3  O   UNL     1       5.178   0.195   3.303  1.00  0.00    -0.460 OA
BRANCH   3   4
ATOM      4  C   UNL     1       5.484   0.460   2.011  1.00  0.00     0.338 C 
ATOM      5  O   UNL     1       5.795   1.543   1.536  1.00  0.00    -0.246 OA
BRANCH   4   6
ATOM      6  C   UNL     1       5.583  -0.809   1.256  1.00  0.00     0.062 A 
ATOM      7  C   UNL     1       4.833  -3.069   0.753  1.00  0.00     0.040 A 
ATOM      8  C   UNL     1       5.870  -3.174  -0.186  1.00  0.00     0.026 A 
ATOM      9  C   UNL     1       4.721  -1.884   1.495  1.00  0.00     0.041 A 
ATOM     10  C   UNL     1       6.744  -2.108  -0.415  1.00  0.00     0.003 A 
ATOM     11  C   UNL     1       6.590  -0.920   0.293  1.00  0.00     0.016 A 
BRANCH   7  12
ATOM     12  N   UNL     1       3.883  -4.106   0.847  1.00  0.00    -0.340 N 
ATOM     13  H   UNL     1       4.228  -5.024   0.764  1.00  0.00     0.168 HD
BRANCH  12  14
ATOM     14  C   UNL     1       2.493  -3.976   1.047  1.00  0.00     0.137 A 
ATOM     15  C   UNL     1       0.623  -2.669   1.286  1.00  0.00     0.191 A 
ATOM     16  N   UNL     1      -0.192  -3.714   1.459  1.00  0.00    -0.206 NA
ATOM     17  N   UNL     1       1.940  -2.755   1.075  1.00  0.00    -0.205 NA
ATOM     18  C   UNL     1       0.372  -4.922   1.408  1.00  0.00     0.130 A 
ATOM     19  C   UNL     1       1.726  -5.107   1.230  1.00  0.00     0.093 A 
BRANCH  15  20
ATOM     20  S   UNL     1      -0.097  -1.049   1.378  1.00  0.00    -0.090 SA
ATOM     21  C   UNL     1       0.921  -0.205   0.141  1.00  0.00     0.094 C 
ENDBRANCH  15  20
BRANCH  18  22
ATOM     22  N   UNL     1      -0.471  -6.000   1.602  1.00  0.00    -0.383 N 
ATOM     23  H   UNL     1      -1.436  -5.854   1.728  1.00  0.00     0.158 HD
ATOM     24  H   UNL     1      -0.106  -6.915   1.614  1.00  0.00     0.158 HD
ENDBRANCH  18  22
ENDBRANCH  12  14
ENDBRANCH   7  12
ENDBRANCH   4   6
ENDBRANCH   3   4
ENDBRANCH   2   3
ENDBRANCH   1   2
BRANCH   1  25
ATOM     25  O   UNL     1       7.850   0.703   4.654  1.00  0.00    -0.374 OA
BRANCH  25  26
ATOM     26  C   UNL     1       8.138  -0.527   3.986  1.00  0.00     0.202 C 
BRANCH  26  27
ATOM     27  C   UNL     1       8.604  -1.673   4.890  1.00  0.00     0.261 C 
BRANCH  27  28
ATOM     28  O   UNL     1       7.549  -2.118   5.761  1.00  0.00    -0.460 OA
BRANCH  28  29
ATOM     29  C   UNL     1       7.703  -1.774   7.060  1.00  0.00     0.338 C 
ATOM     30  O   UNL     1       8.671  -1.232   7.574  1.00  0.00    -0.246 OA
BRANCH  29  31
ATOM     31  C   UNL     1       6.446  -2.002   7.795  1.00  0.00     0.060 A 
ATOM     32  C   UNL     1       5.977  -0.959   8.604  1.00  0.00     0.016 A 
ATOM     33  C   UNL     1       5.774  -3.227   7.756  1.00  0.00     0.016 A 
ATOM     34  C   UNL     1       4.870  -1.156   9.424  1.00  0.00     0.010 A 
ATOM     35  C   UNL     1       4.665  -3.425   8.586  1.00  0.00     0.010 A 
ATOM     36  C   UNL     1       4.233  -2.404   9.452  1.00  0.00    -0.014 A 
BRANCH  36  37
ATOM     37  C   UNL     1       3.219  -2.679  10.498  1.00  0.00     0.031 A 
ATOM     38  C   UNL     1       3.632  -3.424  11.737  1.00  0.00     0.074 A 
ATOM     39  C   UNL     1       1.958  -2.230  10.370  1.00  0.00     0.049 A 
ATOM     40  N   UNL     1       2.918  -3.758  12.782  1.00  0.00    -0.248 NA
ATOM     41  C   UNL     1       5.040  -3.847  11.809  1.00  0.00     0.031 C 
ATOM     42  C   UNL     1       1.444  -1.457   9.242  1.00  0.00     0.029 A 
ATOM     43  N   UNL     1       0.882  -2.360  11.211  1.00  0.00    -0.354 N 
ATOM     44  C   UNL     1       3.787  -4.430  13.633  1.00  0.00     0.074 A 
ATOM     45  C   UNL     1       5.071  -4.487  12.968  1.00  0.00     0.031 C 
ATOM     46  C   UNL     1       0.149  -1.176   9.463  1.00  0.00     0.029 A 
ATOM     47  C   UNL     1      -0.262  -1.773  10.732  1.00  0.00     0.049 A 
ATOM     48  H   UNL     1       0.926  -2.829  12.076  1.00  0.00     0.167 HD
ATOM     49  C   UNL     1       3.542  -4.946  14.861  1.00  0.00     0.031 A 
ATOM     50  C   UNL     1      -1.503  -1.732  11.253  1.00  0.00     0.031 A 
ATOM     51  C   UNL     1       2.263  -4.908  15.517  1.00  0.00     0.049 A 
ATOM     52  C   UNL     1      -1.771  -2.389  12.581  1.00  0.00     0.074 A 
ATOM     53  C   UNL     1       1.917  -5.399  16.764  1.00  0.00     0.029 A 
ATOM     54  N   UNL     1       1.115  -4.354  14.972  1.00  0.00    -0.354 N 
ATOM     55  N   UNL     1      -0.937  -3.003  13.385  1.00  0.00    -0.248 NA
ATOM     56  C   UNL     1      -3.155  -2.337  13.075  1.00  0.00     0.031 C 
ATOM     57  C   UNL     1       0.547  -5.186  16.953  1.00  0.00     0.029 A 
ATOM     58  C   UNL     1       0.053  -4.513  15.847  1.00  0.00     0.049 A 
ATOM     59  H   UNL     1       1.063  -3.912  14.094  1.00  0.00     0.167 HD
ATOM     60  C   UNL     1      -1.687  -3.384  14.491  1.00  0.00     0.074 A 
ATOM     61  C   UNL     1      -3.040  -2.923  14.259  1.00  0.00     0.031 C 
ATOM     62  C   UNL     1      -1.289  -4.052  15.601  1.00  0.00     0.031 A 
BRANCH  49  63
ATOM     63  C   UNL     1       4.686  -5.630  15.556  1.00  0.00    -0.014 A 
ATOM     64  C   UNL     1       5.765  -4.897  16.077  1.00  0.00     0.009 A 
ATOM     65  C   UNL     1       4.678  -7.025  15.704  1.00  0.00     0.009 A 
ATOM     66  C   UNL     1       6.831  -5.553  16.697  1.00  0.00     0.001 A 
ATOM     67  C   UNL     1       5.732  -7.675  16.348  1.00  0.00     0.001 A 
ATOM     68  C   UNL     1       6.812  -6.940  16.835  1.00  0.00     0.000 A 
ENDBRANCH  49  63
BRANCH  50  69
ATOM     69  C   UNL     1      -2.596  -1.046  10.517  1.00  0.00    -0.014 A 
ATOM     70  C   UNL     1      -3.131   0.160  10.994  1.00  0.00     0.009 A 
ATOM     71  C   UNL     1      -3.118  -1.602   9.338  1.00  0.00     0.009 A 
ATOM     72  C   UNL     1      -4.181   0.784  10.317  1.00  0.00     0.001 A 
ATOM     73  C   UNL     1      -4.149  -0.961   8.649  1.00  0.00     0.001 A 
ATOM     74  C   UNL     1      -4.685   0.227   9.143  1.00  0.00     0.000 A 
ENDBRANCH  50  69
BRANCH  62  75
ATOM     75  C   UNL     1      -2.321  -4.291  16.667  1.00  0.00    -0.014 A 
ATOM     76  C   UNL     1      -3.343  -5.237  16.496  1.00  0.00     0.009 A 
ATOM     77  C   UNL     1      -2.246  -3.583  17.877  1.00  0.00     0.009 A 
ATOM     78  C   UNL     1      -4.290  -5.444  17.502  1.00  0.00     0.001 A 
ATOM     79  C   UNL     1      -3.176  -3.811  18.892  1.00  0.00     0.001 A 
ATOM     80  C   UNL     1      -4.203  -4.735  18.700  1.00  0.00     0.000 A 
ENDBRANCH  62  75
ENDBRANCH  36  37
ENDBRANCH  29  31
ENDBRANCH  28  29
ENDBRANCH  27  28
ENDBRANCH  26  27
ENDBRANCH  25  26
ENDBRANCH   1  25
TORSDOF 18
