REMARK SMILES Cc1cc(C(=O)OCCOCCOC(=O)c2ccc(-c3c4nc(c(-c5ccccc5)c5ccc([nH]5)c(-c5ccccc5)c5nc(c(-c6ccccc6)c6ccc3[nH]6)C=C5)C=C4)cc2)nc(N2CCN(c3ccccc3Cl)CC2)n1
REMARK SMILES IDX 10 1 9 2 8 3 7 4 5 5 6 6 4 7 1 8 2 9 3 10 79 11 65 12 64 13
REMARK SMILES IDX 66 14 67 15 78 16 68 17 77 18 69 19 70 20 71 21 75 22 72 23
REMARK SMILES IDX 74 24 76 25 73 26 11 27 12 28 13 29 14 30 15 31 16 32 17 33
REMARK SMILES IDX 63 34 18 35 62 36 19 37 20 38 21 39 56 40 22 41 61 42 55 43
REMARK SMILES IDX 57 44 23 45 60 46 54 47 53 48 24 50 46 51 31 52 45 53 32 54
REMARK SMILES IDX 35 55 44 56 58 57 33 58 34 59 43 61 59 62 36 63 25 64 26 65
REMARK SMILES IDX 30 66 27 67 29 68 28 69 47 70 48 71 52 72 49 73 51 74 50 75
REMARK SMILES IDX 37 76 38 77 42 78 39 79 41 80 40 81
REMARK H PARENT 57 49 35 60
REMARK Flexibility Score: inf
ROOT
ATOM      1  O   UNL     1       3.893  -3.599  -1.121  1.00  0.00    -0.374 OA
ENDROOT
BRANCH   1   2
ATOM      2  C   UNL     1       3.152  -4.641  -0.486  1.00  0.00     0.202 C 
BRANCH   2   3
ATOM      3  C   UNL     1       2.569  -4.301   0.887  1.00  0.00     0.261 C 
BRANCH   3   4
ATOM      4  O   UNL     1       1.566  -3.277   0.772  1.00  0.00    -0.459 OA
BRANCH   4   5
ATOM      5  C   UNL     1       1.859  -2.128   1.434  1.00  0.00     0.357 C 
ATOM      6  O   UNL     1       2.740  -1.976   2.266  1.00  0.00    -0.244 OA
BRANCH   5   7
ATOM      7  C   UNL     1       1.035  -1.020   0.892  1.00  0.00     0.154 A 
ATOM      8  C   UNL     1      -2.423   0.034   0.006  1.00  0.00     0.067 C 
ATOM      9  C   UNL     1      -0.944   0.006   0.247  1.00  0.00     0.044 A 
ATOM     10  C   UNL     1      -0.320  -1.140   0.687  1.00  0.00     0.059 A 
ATOM     11  N   UNL     1      -0.276   1.168   0.063  1.00  0.00    -0.218 NA
ATOM     12  C   UNL     1       1.052   1.167   0.244  1.00  0.00     0.226 A 
ATOM     13  N   UNL     1       1.735   0.097   0.633  1.00  0.00    -0.206 NA
BRANCH  12  14
ATOM     14  N   UNL     1       1.787   2.300   0.059  1.00  0.00    -0.337 N 
ATOM     15  C   UNL     1       1.320   3.568   0.604  1.00  0.00     0.141 C 
ATOM     16  C   UNL     1       2.598   2.363  -1.157  1.00  0.00     0.141 C 
ATOM     17  C   UNL     1       2.542   4.489   0.854  1.00  0.00     0.138 C 
ATOM     18  C   UNL     1       3.794   3.320  -0.958  1.00  0.00     0.138 C 
ATOM     19  N   UNL     1       3.334   4.594  -0.380  1.00  0.00    -0.367 N 
BRANCH  19  20
ATOM     20  C   UNL     1       3.931   5.782  -0.752  1.00  0.00     0.056 A 
ATOM     21  C   UNL     1       4.738   6.487   0.153  1.00  0.00     0.027 A 
ATOM     22  C   UNL     1       3.738   6.349  -2.030  1.00  0.00     0.064 A 
ATOM     23  C   UNL     1       5.325   7.708  -0.193  1.00  0.00     0.002 A 
ATOM     24  C   UNL     1       4.318   7.574  -2.375  1.00  0.00     0.023 A 
ATOM     25  Cl  UNL     1       2.708   5.603  -3.210  1.00  0.00    -0.082 Cl
ATOM     26  C   UNL     1       5.112   8.254  -1.456  1.00  0.00     0.002 A 
ENDBRANCH  19  20
ENDBRANCH  12  14
ENDBRANCH   5   7
ENDBRANCH   4   5
ENDBRANCH   3   4
ENDBRANCH   2   3
ENDBRANCH   1   2
BRANCH   1  27
ATOM     27  C   UNL     1       3.144  -2.598  -1.814  1.00  0.00     0.202 C 
BRANCH  27  28
ATOM     28  C   UNL     1       2.665  -2.983  -3.220  1.00  0.00     0.261 C 
BRANCH  28  29
ATOM     29  O   UNL     1       1.668  -4.022  -3.179  1.00  0.00    -0.460 OA
BRANCH  29  30
ATOM     30  C   UNL     1       2.075  -5.223  -3.652  1.00  0.00     0.338 C 
ATOM     31  O   UNL     1       3.142  -5.488  -4.188  1.00  0.00    -0.246 OA
BRANCH  30  32
ATOM     32  C   UNL     1       1.104  -6.267  -3.276  1.00  0.00     0.060 A 
ATOM     33  C   UNL     1       1.598  -7.409  -2.632  1.00  0.00     0.016 A 
ATOM     34  C   UNL     1      -0.251  -6.168  -3.600  1.00  0.00     0.016 A 
ATOM     35  C   UNL     1       0.748  -8.477  -2.352  1.00  0.00     0.010 A 
ATOM     36  C   UNL     1      -1.101  -7.245  -3.326  1.00  0.00     0.010 A 
ATOM     37  C   UNL     1      -0.599  -8.417  -2.731  1.00  0.00    -0.014 A 
BRANCH  37  38
ATOM     38  C   UNL     1      -1.444  -9.631  -2.629  1.00  0.00     0.031 A 
ATOM     39  C   UNL     1      -1.675 -10.468  -3.858  1.00  0.00     0.074 A 
ATOM     40  C   UNL     1      -1.977 -10.004  -1.452  1.00  0.00     0.049 A 
ATOM     41  N   UNL     1      -2.396 -11.552  -3.999  1.00  0.00    -0.248 NA
ATOM     42  C   UNL     1      -1.003 -10.026  -5.091  1.00  0.00     0.031 C 
ATOM     43  C   UNL     1      -1.792  -9.307  -0.180  1.00  0.00     0.029 A 
ATOM     44  N   UNL     1      -2.787 -11.067  -1.140  1.00  0.00    -0.354 N 
ATOM     45  C   UNL     1      -2.268 -11.918  -5.333  1.00  0.00     0.074 A 
ATOM     46  C   UNL     1      -1.425 -10.926  -5.966  1.00  0.00     0.031 C 
ATOM     47  C   UNL     1      -2.477  -9.959   0.776  1.00  0.00     0.029 A 
ATOM     48  C   UNL     1      -3.171 -11.098   0.178  1.00  0.00     0.049 A 
ATOM     49  H   UNL     1      -3.067 -11.743  -1.799  1.00  0.00     0.167 HD
ATOM     50  C   UNL     1      -2.798 -12.986  -5.974  1.00  0.00     0.031 A 
ATOM     51  C   UNL     1      -4.002 -11.938   0.823  1.00  0.00     0.031 A 
ATOM     52  C   UNL     1      -3.646 -13.968  -5.353  1.00  0.00     0.049 A 
ATOM     53  C   UNL     1      -4.644 -13.072   0.069  1.00  0.00     0.074 A 
ATOM     54  C   UNL     1      -4.222 -15.092  -5.919  1.00  0.00     0.029 A 
ATOM     55  N   UNL     1      -4.043 -13.940  -4.026  1.00  0.00    -0.354 N 
ATOM     56  N   UNL     1      -4.497 -13.418  -1.187  1.00  0.00    -0.248 NA
ATOM     57  C   UNL     1      -5.564 -13.934   0.827  1.00  0.00     0.031 C 
ATOM     58  C   UNL     1      -5.010 -15.716  -4.947  1.00  0.00     0.029 A 
ATOM     59  C   UNL     1      -4.879 -15.011  -3.761  1.00  0.00     0.049 A 
ATOM     60  H   UNL     1      -3.772 -13.259  -3.369  1.00  0.00     0.167 HD
ATOM     61  C   UNL     1      -5.281 -14.553  -1.361  1.00  0.00     0.074 A 
ATOM     62  C   UNL     1      -5.891 -14.844  -0.081  1.00  0.00     0.031 C 
ATOM     63  C   UNL     1      -5.477 -15.289  -2.482  1.00  0.00     0.031 A 
BRANCH  50  64
ATOM     64  C   UNL     1      -2.498 -13.134  -7.439  1.00  0.00    -0.014 A 
ATOM     65  C   UNL     1      -1.228 -13.534  -7.884  1.00  0.00     0.009 A 
ATOM     66  C   UNL     1      -3.511 -12.911  -8.383  1.00  0.00     0.009 A 
ATOM     67  C   UNL     1      -0.973 -13.681  -9.249  1.00  0.00     0.001 A 
ATOM     68  C   UNL     1      -3.260 -13.083  -9.745  1.00  0.00     0.001 A 
ATOM     69  C   UNL     1      -1.989 -13.460 -10.178  1.00  0.00     0.000 A 
ENDBRANCH  50  64
BRANCH  51  70
ATOM     70  C   UNL     1      -4.303 -11.731   2.264  1.00  0.00    -0.014 A 
ATOM     71  C   UNL     1      -3.841 -12.637   3.231  1.00  0.00     0.009 A 
ATOM     72  C   UNL     1      -5.085 -10.640   2.675  1.00  0.00     0.009 A 
ATOM     73  C   UNL     1      -4.181 -12.471   4.575  1.00  0.00     0.001 A 
ATOM     74  C   UNL     1      -5.400 -10.461   4.024  1.00  0.00     0.001 A 
ATOM     75  C   UNL     1      -4.956 -11.382   4.971  1.00  0.00     0.000 A 
ENDBRANCH  51  70
BRANCH  63  76
ATOM     76  C   UNL     1      -6.358 -16.501  -2.366  1.00  0.00    -0.014 A 
ATOM     77  C   UNL     1      -7.750 -16.381  -2.237  1.00  0.00     0.009 A 
ATOM     78  C   UNL     1      -5.788 -17.782  -2.429  1.00  0.00     0.009 A 
ATOM     79  C   UNL     1      -8.550 -17.522  -2.141  1.00  0.00     0.001 A 
ATOM     80  C   UNL     1      -6.593 -18.920  -2.361  1.00  0.00     0.001 A 
ATOM     81  C   UNL     1      -7.972 -18.789  -2.208  1.00  0.00     0.000 A 
ENDBRANCH  63  76
ENDBRANCH  37  38
ENDBRANCH  30  32
ENDBRANCH  29  30
ENDBRANCH  28  29
ENDBRANCH  27  28
ENDBRANCH   1  27
TORSDOF 16
