REMARK SMILES O=C(OCCOCCOC(=O)[C@H]1Cc2[nH]cnc2CN1C(=O)c1ccncc1Cl)c1ccc(-c2c3nc(c(-c4ccccc4)c4ccc([nH]4)c(-c4ccccc4)c4nc(c(-c5ccccc5)c5ccc2[nH]5)C=C4)C=C3)cc1
REMARK SMILES IDX 6 1 5 2 4 3 3 4 2 5 1 6 30 7 31 8 77 9 32 10 76 11 33 12
REMARK SMILES IDX 34 13 35 14 70 15 36 16 75 17 69 18 71 19 37 20 74 21 68 22
REMARK SMILES IDX 67 23 38 25 60 26 45 27 59 28 46 29 49 30 58 31 72 32 47 33
REMARK SMILES IDX 48 34 57 36 73 37 50 38 39 39 40 40 44 41 41 42 43 43 42 44
REMARK SMILES IDX 61 45 62 46 66 47 63 48 65 49 64 50 51 51 52 52 56 53 53 54
REMARK SMILES IDX 55 55 54 56 7 57 8 58 9 59 10 60 11 61 12 62 13 63 20 64
REMARK SMILES IDX 14 65 19 66 15 67 18 68 16 69 17 71 21 72 22 73 23 74 24 75
REMARK SMILES IDX 28 76 25 77 27 78 29 79 26 80
REMARK H PARENT 71 24 49 35 15 70
REMARK Flexibility Score: inf
ROOT
ATOM      1  O   UNL     1       5.416   0.300   1.059  1.00  0.00    -0.374 OA
ENDROOT
BRANCH   1   2
ATOM      2  C   UNL     1       5.732   0.246  -0.326  1.00  0.00     0.202 C 
BRANCH   2   3
ATOM      3  C   UNL     1       4.859  -0.539  -1.324  1.00  0.00     0.261 C 
BRANCH   3   4
ATOM      4  O   UNL     1       3.527  -0.014  -1.438  1.00  0.00    -0.460 OA
BRANCH   4   5
ATOM      5  C   UNL     1       2.401  -0.351  -0.777  1.00  0.00     0.338 C 
ATOM      6  O   UNL     1       1.379   0.307  -0.963  1.00  0.00    -0.246 OA
BRANCH   5   7
ATOM      7  C   UNL     1       2.336  -1.517   0.142  1.00  0.00     0.060 A 
ATOM      8  C   UNL     1       3.446  -2.213   0.636  1.00  0.00     0.016 A 
ATOM      9  C   UNL     1       1.054  -1.904   0.560  1.00  0.00     0.016 A 
ATOM     10  C   UNL     1       3.299  -3.412   1.275  1.00  0.00     0.010 A 
ATOM     11  C   UNL     1       0.892  -3.062   1.288  1.00  0.00     0.010 A 
ATOM     12  C   UNL     1       2.013  -3.852   1.520  1.00  0.00    -0.014 A 
BRANCH  12  13
ATOM     13  C   UNL     1       1.899  -5.200   2.011  1.00  0.00     0.031 A 
ATOM     14  C   UNL     1       2.490  -5.403   3.362  1.00  0.00     0.074 A 
ATOM     15  C   UNL     1       1.273  -6.088   1.218  1.00  0.00     0.049 A 
ATOM     16  N   UNL     1       3.379  -6.265   3.731  1.00  0.00    -0.248 NA
ATOM     17  C   UNL     1       2.163  -4.401   4.396  1.00  0.00     0.031 C 
ATOM     18  C   UNL     1       0.534  -5.828  -0.026  1.00  0.00     0.029 A 
ATOM     19  N   UNL     1       1.022  -7.395   1.437  1.00  0.00    -0.354 N 
ATOM     20  C   UNL     1       3.576  -6.041   5.093  1.00  0.00     0.074 A 
ATOM     21  C   UNL     1       2.942  -4.788   5.404  1.00  0.00     0.031 C 
ATOM     22  C   UNL     1      -0.331  -6.840  -0.242  1.00  0.00     0.029 A 
ATOM     23  C   UNL     1      -0.095  -7.862   0.761  1.00  0.00     0.049 A 
ATOM     24  H   UNL     1       1.576  -7.961   2.021  1.00  0.00     0.167 HD
ATOM     25  C   UNL     1       3.991  -7.034   5.925  1.00  0.00     0.031 A 
ATOM     26  C   UNL     1      -0.843  -8.935   1.115  1.00  0.00     0.031 A 
ATOM     27  C   UNL     1       4.683  -8.072   5.213  1.00  0.00     0.049 A 
ATOM     28  C   UNL     1      -0.026  -9.737   2.066  1.00  0.00     0.074 A 
ATOM     29  C   UNL     1       5.854  -8.125   4.485  1.00  0.00     0.029 A 
ATOM     30  N   UNL     1       3.958  -9.182   4.849  1.00  0.00    -0.354 N 
ATOM     31  N   UNL     1       1.090 -10.321   1.723  1.00  0.00    -0.248 NA
ATOM     32  C   UNL     1      -0.162  -9.446   3.488  1.00  0.00     0.031 C 
ATOM     33  C   UNL     1       5.555  -8.972   3.378  1.00  0.00     0.029 A 
ATOM     34  C   UNL     1       4.252  -9.450   3.536  1.00  0.00     0.049 A 
ATOM     35  H   UNL     1       3.342  -9.691   5.424  1.00  0.00     0.167 HD
ATOM     36  C   UNL     1       1.958 -10.096   2.784  1.00  0.00     0.074 A 
ATOM     37  C   UNL     1       1.107  -9.620   3.877  1.00  0.00     0.031 C 
ATOM     38  C   UNL     1       3.310 -10.015   2.595  1.00  0.00     0.031 A 
BRANCH  25  39
ATOM     39  C   UNL     1       3.348  -7.261   7.272  1.00  0.00    -0.014 A 
ATOM     40  C   UNL     1       3.807  -8.319   8.073  1.00  0.00     0.009 A 
ATOM     41  C   UNL     1       2.120  -6.674   7.642  1.00  0.00     0.009 A 
ATOM     42  C   UNL     1       3.034  -8.816   9.131  1.00  0.00     0.001 A 
ATOM     43  C   UNL     1       1.364  -7.142   8.717  1.00  0.00     0.001 A 
ATOM     44  C   UNL     1       1.808  -8.236   9.443  1.00  0.00     0.000 A 
ENDBRANCH  25  39
BRANCH  26  45
ATOM     45  C   UNL     1      -2.319  -9.026   1.016  1.00  0.00    -0.014 A 
ATOM     46  C   UNL     1      -2.977 -10.261   1.065  1.00  0.00     0.009 A 
ATOM     47  C   UNL     1      -3.112  -7.862   1.093  1.00  0.00     0.009 A 
ATOM     48  C   UNL     1      -4.374 -10.326   1.197  1.00  0.00     0.001 A 
ATOM     49  C   UNL     1      -4.503  -7.925   1.221  1.00  0.00     0.001 A 
ATOM     50  C   UNL     1      -5.134  -9.161   1.283  1.00  0.00     0.000 A 
ENDBRANCH  26  45
BRANCH  38  51
ATOM     51  C   UNL     1       3.848 -10.298   1.210  1.00  0.00    -0.014 A 
ATOM     52  C   UNL     1       3.586  -9.468   0.102  1.00  0.00     0.009 A 
ATOM     53  C   UNL     1       4.798 -11.316   1.060  1.00  0.00     0.009 A 
ATOM     54  C   UNL     1       4.235  -9.670  -1.121  1.00  0.00     0.001 A 
ATOM     55  C   UNL     1       5.460 -11.506  -0.155  1.00  0.00     0.001 A 
ATOM     56  C   UNL     1       5.177 -10.687  -1.247  1.00  0.00     0.000 A 
ENDBRANCH  38  51
ENDBRANCH  12  13
ENDBRANCH   5   7
ENDBRANCH   4   5
ENDBRANCH   3   4
ENDBRANCH   2   3
ENDBRANCH   1   2
BRANCH   1  57
ATOM     57  C   UNL     1       4.226   0.872   1.581  1.00  0.00     0.202 C 
BRANCH  57  58
ATOM     58  C   UNL     1       3.643   2.193   1.092  1.00  0.00     0.261 C 
BRANCH  58  59
ATOM     59  O   UNL     1       3.816   2.464  -0.296  1.00  0.00    -0.462 OA
BRANCH  59  60
ATOM     60  C   UNL     1       4.764   3.397  -0.588  1.00  0.00     0.329 C 
ATOM     61  O   UNL     1       5.497   3.917   0.231  1.00  0.00    -0.250 OA
BRANCH  60  62
ATOM     62  C   UNL     1       4.732   3.764  -2.068  1.00  0.00     0.201 C 
ATOM     63  C   UNL     1       4.453   2.565  -3.017  1.00  0.00     0.093 C 
ATOM     64  N   UNL     1       4.038   5.014  -2.510  1.00  0.00    -0.318 N 
ATOM     65  C   UNL     1       4.635   3.045  -4.407  1.00  0.00     0.042 A 
ATOM     66  C   UNL     1       4.476   5.523  -3.838  1.00  0.00     0.179 C 
ATOM     67  N   UNL     1       4.870   2.324  -5.540  1.00  0.00    -0.348 N 
ATOM     68  C   UNL     1       4.641   4.369  -4.785  1.00  0.00     0.081 A 
ATOM     69  C   UNL     1       5.021   3.233  -6.554  1.00  0.00     0.197 A 
ATOM     70  H   UNL     1       4.921   1.343  -5.615  1.00  0.00     0.167 HD
ATOM     71  N   UNL     1       4.896   4.473  -6.127  1.00  0.00    -0.240 NA
BRANCH  64  72
ATOM     72  C   UNL     1       2.880   5.584  -1.984  1.00  0.00     0.256 C 
ATOM     73  O   UNL     1       2.268   6.502  -2.528  1.00  0.00    -0.269 OA
BRANCH  72  74
ATOM     74  C   UNL     1       2.300   5.137  -0.710  1.00  0.00     0.061 A 
ATOM     75  C   UNL     1       1.157   4.334  -0.763  1.00  0.00     0.035 A 
ATOM     76  C   UNL     1       2.742   5.640   0.513  1.00  0.00     0.072 A 
ATOM     77  C   UNL     1       0.535   4.006   0.429  1.00  0.00     0.112 A 
ATOM     78  C   UNL     1       2.061   5.232   1.652  1.00  0.00     0.132 A 
ATOM     79  Cl  UNL     1       4.064   6.729   0.672  1.00  0.00    -0.082 Cl
ATOM     80  N   UNL     1       0.978   4.414   1.640  1.00  0.00    -0.263 NA
ENDBRANCH  72  74
ENDBRANCH  64  72
ENDBRANCH  60  62
ENDBRANCH  59  60
ENDBRANCH  58  59
ENDBRANCH  57  58
ENDBRANCH   1  57
TORSDOF 16
