REMARK SMILES Cc1nc(C(=O)N[C@H](CCC(N)=O)C(=O)OCCOCCOC(=O)c2ccc(-c3c4nc(c(-c5ccccc5)c5ccc([nH]5)c(-c5ccccc5)c5nc(c(-c6ccccc6)c6ccc3[nH]6)C=C5)C=C4)cc2)ccc1C#N
REMARK SMILES IDX 18 1 17 2 16 3 14 4 15 5 8 6 7 7 5 8 6 9 4 11 1 12 2 13 3 14
REMARK SMILES IDX 75 15 74 16 73 17 76 18 77 19 9 20 10 21 11 22 12 23 13 24
REMARK SMILES IDX 19 27 20 28 21 29 22 30 23 31 24 32 25 33 26 34 72 35 27 36
REMARK SMILES IDX 71 37 28 38 29 39 30 40 65 41 31 42 70 43 64 44 66 45 32 46
REMARK SMILES IDX 69 47 63 48 62 49 33 51 55 52 40 53 54 54 41 55 44 56 53 57
REMARK SMILES IDX 67 58 42 59 43 60 52 62 68 63 45 64 34 65 35 66 39 67 36 68
REMARK SMILES IDX 38 69 37 70 56 71 57 72 61 73 58 74 60 75 59 76 46 77 47 78
REMARK SMILES IDX 51 79 48 80 50 81 49 82
REMARK H PARENT 7 10 12 25 12 26 66 50 44 61
REMARK Flexibility Score: inf
ROOT
ATOM      1  C   UNL     1       2.284  -6.094  -3.194  1.00  0.00     0.202 C 
ENDROOT
BRANCH   1   2
ATOM      2  C   UNL     1       1.139  -6.202  -2.174  1.00  0.00     0.261 C 
BRANCH   2   3
ATOM      3  O   UNL     1       0.011  -5.339  -2.428  1.00  0.00    -0.462 OA
BRANCH   3   4
ATOM      4  C   UNL     1       0.217  -4.024  -2.200  1.00  0.00     0.328 C 
ATOM      5  O   UNL     1       1.295  -3.534  -1.883  1.00  0.00    -0.250 OA
BRANCH   4   6
ATOM      6  C   UNL     1      -1.012  -3.141  -2.385  1.00  0.00     0.193 C 
BRANCH   6   7
ATOM      7  N   UNL     1      -2.207  -3.630  -1.679  1.00  0.00    -0.337 N 
ATOM      8  C   UNL     1      -2.409  -3.865  -0.339  1.00  0.00     0.270 C 
ATOM      9  O   UNL     1      -3.563  -4.056   0.050  1.00  0.00    -0.267 OA
ATOM     10  H   UNL     1      -2.982  -3.818  -2.256  1.00  0.00     0.164 HD
BRANCH   8  11
ATOM     11  C   UNL     1      -1.276  -4.042   0.621  1.00  0.00     0.128 A 
ATOM     12  C   UNL     1       2.222  -2.897   0.928  1.00  0.00     0.068 C 
ATOM     13  C   UNL     1       0.944  -3.644   1.215  1.00  0.00     0.056 A 
ATOM     14  N   UNL     1      -0.148  -3.306   0.465  1.00  0.00    -0.247 NA
ATOM     15  C   UNL     1       0.910  -4.667   2.167  1.00  0.00     0.073 A 
ATOM     16  C   UNL     1      -0.288  -5.359   2.355  1.00  0.00     0.024 A 
ATOM     17  C   UNL     1      -1.396  -5.047   1.572  1.00  0.00     0.035 A 
BRANCH  15  18
ATOM     18  C   UNL     1       2.068  -5.045   2.917  1.00  0.00     0.101 C 
ATOM     19  N   UNL     1       3.005  -5.369   3.524  1.00  0.00    -0.192 NA
ENDBRANCH  15  18
ENDBRANCH   8  11
ENDBRANCH   6   7
BRANCH   6  20
ATOM     20  C   UNL     1      -1.399  -2.863  -3.859  1.00  0.00     0.047 C 
BRANCH  20  21
ATOM     21  C   UNL     1      -0.296  -2.714  -4.909  1.00  0.00     0.102 C 
BRANCH  21  22
ATOM     22  C   UNL     1      -0.080  -3.997  -5.690  1.00  0.00     0.217 C 
ATOM     23  N   UNL     1       0.444  -3.839  -6.935  1.00  0.00    -0.370 N 
ATOM     24  O   UNL     1      -0.341  -5.116  -5.268  1.00  0.00    -0.275 OA
ATOM     25  H   UNL     1       0.652  -2.938  -7.271  1.00  0.00     0.159 HD
ATOM     26  H   UNL     1       0.615  -4.627  -7.501  1.00  0.00     0.159 HD
ENDBRANCH  21  22
ENDBRANCH  20  21
ENDBRANCH   6  20
ENDBRANCH   4   6
ENDBRANCH   3   4
ENDBRANCH   2   3
ENDBRANCH   1   2
BRANCH   1  27
ATOM     27  O   UNL     1       3.292  -5.111  -2.935  1.00  0.00    -0.374 OA
BRANCH  27  28
ATOM     28  C   UNL     1       3.188  -3.910  -3.706  1.00  0.00     0.202 C 
BRANCH  28  29
ATOM     29  C   UNL     1       3.898  -3.909  -5.058  1.00  0.00     0.261 C 
BRANCH  29  30
ATOM     30  O   UNL     1       3.293  -4.866  -5.941  1.00  0.00    -0.460 OA
BRANCH  30  31
ATOM     31  C   UNL     1       3.900  -6.075  -5.939  1.00  0.00     0.338 C 
ATOM     32  O   UNL     1       4.992  -6.350  -5.472  1.00  0.00    -0.246 OA
BRANCH  31  33
ATOM     33  C   UNL     1       2.958  -7.102  -6.427  1.00  0.00     0.060 A 
ATOM     34  C   UNL     1       2.892  -8.302  -5.706  1.00  0.00     0.016 A 
ATOM     35  C   UNL     1       2.187  -6.925  -7.577  1.00  0.00     0.016 A 
ATOM     36  C   UNL     1       2.110  -9.355  -6.165  1.00  0.00     0.010 A 
ATOM     37  C   UNL     1       1.404  -7.984  -8.045  1.00  0.00     0.010 A 
ATOM     38  C   UNL     1       1.422  -9.223  -7.376  1.00  0.00    -0.014 A 
BRANCH  38  39
ATOM     39  C   UNL     1       1.029 -10.457  -8.097  1.00  0.00     0.031 A 
ATOM     40  C   UNL     1       1.962 -10.958  -9.170  1.00  0.00     0.074 A 
ATOM     41  C   UNL     1      -0.061 -11.171  -7.768  1.00  0.00     0.049 A 
ATOM     42  N   UNL     1       1.835 -11.987  -9.966  1.00  0.00    -0.248 NA
ATOM     43  C   UNL     1       3.208 -10.194  -9.371  1.00  0.00     0.031 C 
ATOM     44  C   UNL     1      -0.999 -10.849  -6.696  1.00  0.00     0.029 A 
ATOM     45  N   UNL     1      -0.549 -12.334  -8.312  1.00  0.00    -0.354 N 
ATOM     46  C   UNL     1       2.971 -11.982 -10.764  1.00  0.00     0.074 A 
ATOM     47  C   UNL     1       3.760 -10.832 -10.390  1.00  0.00     0.031 C 
ATOM     48  C   UNL     1      -1.951 -11.799  -6.657  1.00  0.00     0.029 A 
ATOM     49  C   UNL     1      -1.706 -12.774  -7.720  1.00  0.00     0.049 A 
ATOM     50  H   UNL     1      -0.110 -12.806  -9.055  1.00  0.00     0.167 HD
ATOM     51  C   UNL     1       3.340 -12.867 -11.715  1.00  0.00     0.031 A 
ATOM     52  C   UNL     1      -2.485 -13.834  -8.013  1.00  0.00     0.031 A 
ATOM     53  C   UNL     1       2.580 -14.028 -12.078  1.00  0.00     0.049 A 
ATOM     54  C   UNL     1      -2.104 -14.757  -9.141  1.00  0.00     0.074 A 
ATOM     55  C   UNL     1       2.886 -14.986 -13.027  1.00  0.00     0.029 A 
ATOM     56  N   UNL     1       1.375 -14.392 -11.505  1.00  0.00    -0.354 N 
ATOM     57  N   UNL     1      -1.038 -14.730  -9.905  1.00  0.00    -0.248 NA
ATOM     58  C   UNL     1      -3.034 -15.854  -9.448  1.00  0.00     0.031 C 
ATOM     59  C   UNL     1       1.835 -15.904 -13.068  1.00  0.00     0.029 A 
ATOM     60  C   UNL     1       0.905 -15.546 -12.105  1.00  0.00     0.049 A 
ATOM     61  H   UNL     1       0.920 -13.903 -10.781  1.00  0.00     0.167 HD
ATOM     62  C   UNL     1      -1.164 -15.809 -10.772  1.00  0.00     0.074 A 
ATOM     63  C   UNL     1      -2.400 -16.482 -10.430  1.00  0.00     0.031 C 
ATOM     64  C   UNL     1      -0.330 -16.203 -11.764  1.00  0.00     0.031 A 
BRANCH  51  65
ATOM     65  C   UNL     1       4.625 -12.615 -12.444  1.00  0.00    -0.014 A 
ATOM     66  C   UNL     1       5.864 -12.861 -11.833  1.00  0.00     0.009 A 
ATOM     67  C   UNL     1       4.592 -12.209 -13.787  1.00  0.00     0.009 A 
ATOM     68  C   UNL     1       7.047 -12.704 -12.555  1.00  0.00     0.001 A 
ATOM     69  C   UNL     1       5.775 -12.077 -14.513  1.00  0.00     0.001 A 
ATOM     70  C   UNL     1       7.001 -12.323 -13.897  1.00  0.00     0.000 A 
ENDBRANCH  51  65
BRANCH  52  71
ATOM     71  C   UNL     1      -3.718 -14.075  -7.220  1.00  0.00    -0.014 A 
ATOM     72  C   UNL     1      -3.778 -15.133  -6.302  1.00  0.00     0.009 A 
ATOM     73  C   UNL     1      -4.829 -13.227  -7.356  1.00  0.00     0.009 A 
ATOM     74  C   UNL     1      -4.926 -15.335  -5.533  1.00  0.00     0.001 A 
ATOM     75  C   UNL     1      -5.966 -13.419  -6.569  1.00  0.00     0.001 A 
ATOM     76  C   UNL     1      -6.015 -14.473  -5.660  1.00  0.00     0.000 A 
ENDBRANCH  52  71
BRANCH  64  77
ATOM     77  C   UNL     1      -0.707 -17.412 -12.572  1.00  0.00    -0.014 A 
ATOM     78  C   UNL     1      -1.722 -17.341 -13.538  1.00  0.00     0.009 A 
ATOM     79  C   UNL     1       0.035 -18.597 -12.448  1.00  0.00     0.009 A 
ATOM     80  C   UNL     1      -1.993 -18.439 -14.357  1.00  0.00     0.001 A 
ATOM     81  C   UNL     1      -0.221 -19.684 -13.286  1.00  0.00     0.001 A 
ATOM     82  C   UNL     1      -1.237 -19.605 -14.237  1.00  0.00     0.000 A 
ENDBRANCH  64  77
ENDBRANCH  38  39
ENDBRANCH  31  33
ENDBRANCH  30  31
ENDBRANCH  29  30
ENDBRANCH  28  29
ENDBRANCH  27  28
ENDBRANCH   1  27
TORSDOF 20
