REMARK SMILES O=C(OCCOCCOC(=O)C1(C/C=C/c2ccccc2)Cc2ccccc2C1)c1ccc(-c2c3nc(c(-c4ccccc4)c4ccc([nH]4)c(-c4ccccc4)c4nc(c(-c5ccccc5)c5ccc2[nH]5)C=C4)C=C3)cc1
REMARK SMILES IDX 7 1 6 2 5 3 4 4 3 5 2 6 1 7 30 8 31 9 77 10 32 11 76 12
REMARK SMILES IDX 33 13 34 14 35 15 70 16 36 17 75 18 69 19 71 20 37 21 74 22
REMARK SMILES IDX 68 23 67 24 38 26 60 27 45 28 59 29 46 30 49 31 58 32 72 33
REMARK SMILES IDX 47 34 48 35 57 37 73 38 50 39 39 40 40 41 44 42 41 43 43 44
REMARK SMILES IDX 42 45 61 46 62 47 66 48 63 49 65 50 64 51 51 52 52 53 56 54
REMARK SMILES IDX 53 55 55 56 54 57 8 58 9 59 10 60 11 61 12 62 22 63 29 64
REMARK SMILES IDX 23 65 28 66 24 67 27 68 25 69 26 70 13 71 14 72 15 73 16 74
REMARK SMILES IDX 17 75 21 76 18 77 20 78 19 79
REMARK H PARENT 71 25 49 36
REMARK Flexibility Score: inf
ROOT
ATOM      1  C   UNL     1       2.936   0.827  -1.649  1.00  0.00     0.202 C 
ENDROOT
BRANCH   1   2
ATOM      2  O   UNL     1       4.305   0.667  -1.264  1.00  0.00    -0.374 OA
BRANCH   2   3
ATOM      3  C   UNL     1       4.731  -0.647  -0.890  1.00  0.00     0.202 C 
BRANCH   3   4
ATOM      4  C   UNL     1       4.313  -1.165   0.497  1.00  0.00     0.261 C 
BRANCH   4   5
ATOM      5  O   UNL     1       2.903  -1.018   0.738  1.00  0.00    -0.460 OA
BRANCH   5   6
ATOM      6  C   UNL     1       2.265   0.009   1.352  1.00  0.00     0.338 C 
ATOM      7  O   UNL     1       1.046  -0.054   1.500  1.00  0.00    -0.246 OA
BRANCH   6   8
ATOM      8  C   UNL     1       2.966   1.236   1.839  1.00  0.00     0.060 A 
ATOM      9  C   UNL     1       4.212   1.659   1.385  1.00  0.00     0.016 A 
ATOM     10  C   UNL     1       2.303   2.053   2.768  1.00  0.00     0.016 A 
ATOM     11  C   UNL     1       4.808   2.814   1.819  1.00  0.00     0.010 A 
ATOM     12  C   UNL     1       2.902   3.228   3.239  1.00  0.00     0.010 A 
ATOM     13  C   UNL     1       4.168   3.588   2.768  1.00  0.00    -0.014 A 
BRANCH  13  14
ATOM     14  C   UNL     1       5.026   4.602   3.379  1.00  0.00     0.031 A 
ATOM     15  C   UNL     1       5.720   4.220   4.648  1.00  0.00     0.074 A 
ATOM     16  C   UNL     1       5.392   5.667   2.644  1.00  0.00     0.049 A 
ATOM     17  N   UNL     1       6.577   4.897   5.356  1.00  0.00    -0.248 NA
ATOM     18  C   UNL     1       5.433   2.870   5.172  1.00  0.00     0.031 C 
ATOM     19  C   UNL     1       4.935   5.949   1.278  1.00  0.00     0.029 A 
ATOM     20  N   UNL     1       6.288   6.660   2.909  1.00  0.00    -0.354 N 
ATOM     21  C   UNL     1       6.887   4.081   6.436  1.00  0.00     0.074 A 
ATOM     22  C   UNL     1       6.149   2.851   6.283  1.00  0.00     0.031 C 
ATOM     23  C   UNL     1       5.578   7.034   0.818  1.00  0.00     0.029 A 
ATOM     24  C   UNL     1       6.423   7.559   1.882  1.00  0.00     0.049 A 
ATOM     25  H   UNL     1       6.788   6.725   3.755  1.00  0.00     0.167 HD
ATOM     26  C   UNL     1       7.702   4.363   7.476  1.00  0.00     0.031 A 
ATOM     27  C   UNL     1       7.129   8.702   1.842  1.00  0.00     0.031 A 
ATOM     28  C   UNL     1       8.407   5.608   7.582  1.00  0.00     0.049 A 
ATOM     29  C   UNL     1       7.910   9.063   3.075  1.00  0.00     0.074 A 
ATOM     30  C   UNL     1       9.187   6.081   8.618  1.00  0.00     0.029 A 
ATOM     31  N   UNL     1       8.407   6.585   6.592  1.00  0.00    -0.354 N 
ATOM     32  N   UNL     1       8.103   8.356   4.166  1.00  0.00    -0.248 NA
ATOM     33  C   UNL     1       8.556  10.378   3.082  1.00  0.00     0.031 C 
ATOM     34  C   UNL     1       9.608   7.372   8.278  1.00  0.00     0.029 A 
ATOM     35  C   UNL     1       9.155   7.671   7.000  1.00  0.00     0.049 A 
ATOM     36  H   UNL     1       7.943   6.512   5.727  1.00  0.00     0.167 HD
ATOM     37  C   UNL     1       8.917   9.128   4.980  1.00  0.00     0.074 A 
ATOM     38  C   UNL     1       9.191  10.350   4.245  1.00  0.00     0.031 C 
ATOM     39  C   UNL     1       9.399   8.860   6.220  1.00  0.00     0.031 A 
BRANCH  26  40
ATOM     40  C   UNL     1       7.729   3.369   8.602  1.00  0.00    -0.014 A 
ATOM     41  C   UNL     1       8.325   2.105   8.476  1.00  0.00     0.009 A 
ATOM     42  C   UNL     1       7.059   3.686   9.794  1.00  0.00     0.009 A 
ATOM     43  C   UNL     1       8.206   1.162   9.502  1.00  0.00     0.001 A 
ATOM     44  C   UNL     1       6.968   2.754  10.829  1.00  0.00     0.001 A 
ATOM     45  C   UNL     1       7.528   1.488  10.676  1.00  0.00     0.000 A 
ENDBRANCH  26  40
BRANCH  27  46
ATOM     46  C   UNL     1       7.062   9.599   0.658  1.00  0.00    -0.014 A 
ATOM     47  C   UNL     1       8.205   9.886  -0.101  1.00  0.00     0.009 A 
ATOM     48  C   UNL     1       5.843  10.195   0.289  1.00  0.00     0.009 A 
ATOM     49  C   UNL     1       8.135  10.770  -1.183  1.00  0.00     0.001 A 
ATOM     50  C   UNL     1       5.769  11.051  -0.812  1.00  0.00     0.001 A 
ATOM     51  C   UNL     1       6.918  11.348  -1.540  1.00  0.00     0.000 A 
ENDBRANCH  27  46
BRANCH  39  52
ATOM     52  C   UNL     1      10.321   9.883   6.814  1.00  0.00    -0.014 A 
ATOM     53  C   UNL     1       9.848  11.123   7.266  1.00  0.00     0.009 A 
ATOM     54  C   UNL     1      11.681   9.571   6.958  1.00  0.00     0.009 A 
ATOM     55  C   UNL     1      10.733  12.050   7.816  1.00  0.00     0.001 A 
ATOM     56  C   UNL     1      12.556  10.484   7.543  1.00  0.00     0.001 A 
ATOM     57  C   UNL     1      12.083  11.727   7.960  1.00  0.00     0.000 A 
ENDBRANCH  39  52
ENDBRANCH  13  14
ENDBRANCH   6   8
ENDBRANCH   5   6
ENDBRANCH   4   5
ENDBRANCH   3   4
ENDBRANCH   2   3
ENDBRANCH   1   2
BRANCH   1  58
ATOM     58  C   UNL     1       2.833   1.067  -3.143  1.00  0.00     0.261 C 
BRANCH  58  59
ATOM     59  O   UNL     1       3.250  -0.150  -3.770  1.00  0.00    -0.463 OA
BRANCH  59  60
ATOM     60  C   UNL     1       4.561  -0.213  -4.109  1.00  0.00     0.313 C 
ATOM     61  O   UNL     1       5.342   0.738  -4.105  1.00  0.00    -0.252 OA
BRANCH  60  62
ATOM     62  C   UNL     1       4.942  -1.610  -4.562  1.00  0.00     0.079 C 
ATOM     63  C   UNL     1       6.408  -1.838  -4.093  1.00  0.00     0.055 C 
ATOM     64  C   UNL     1       4.114  -2.761  -3.910  1.00  0.00     0.055 C 
ATOM     65  C   UNL     1       6.439  -3.300  -3.794  1.00  0.00    -0.044 A 
ATOM     66  C   UNL     1       5.149  -3.819  -3.685  1.00  0.00    -0.044 A 
ATOM     67  C   UNL     1       7.553  -4.100  -3.608  1.00  0.00     0.004 A 
ATOM     68  C   UNL     1       4.942  -5.157  -3.399  1.00  0.00     0.004 A 
ATOM     69  C   UNL     1       7.355  -5.457  -3.349  1.00  0.00     0.000 A 
ATOM     70  C   UNL     1       6.057  -5.982  -3.248  1.00  0.00     0.000 A 
BRANCH  62  71
ATOM     71  C   UNL     1       4.798  -1.626  -6.106  1.00  0.00     0.047 C 
BRANCH  71  72
ATOM     72  C   UNL     1       3.371  -1.335  -6.526  1.00  0.00    -0.025 C 
ATOM     73  C   UNL     1       2.941  -0.096  -6.813  1.00  0.00     0.004 C 
BRANCH  73  74
ATOM     74  C   UNL     1       1.522   0.272  -6.891  1.00  0.00    -0.026 A 
ATOM     75  C   UNL     1       1.090   1.106  -7.924  1.00  0.00     0.008 A 
ATOM     76  C   UNL     1       0.617  -0.082  -5.879  1.00  0.00     0.008 A 
ATOM     77  C   UNL     1      -0.231   1.560  -7.958  1.00  0.00     0.001 A 
ATOM     78  C   UNL     1      -0.699   0.387  -5.903  1.00  0.00     0.001 A 
ATOM     79  C   UNL     1      -1.123   1.204  -6.947  1.00  0.00     0.000 A 
ENDBRANCH  73  74
ENDBRANCH  71  72
ENDBRANCH  62  71
ENDBRANCH  60  62
ENDBRANCH  59  60
ENDBRANCH  58  59
ENDBRANCH   1  58
TORSDOF 17
