REMARK SMILES O=C(OCCOCCOC(=O)c1ccc(-c2c3nc(c(-c4ccccc4)c4ccc([nH]4)c(-c4ccccc4)c4nc(c(-c5ccccc5)c5ccc2[nH]5)C=C4)C=C3)cc1)C1=Cc2cc(Cl)cc(-c3ccc(CO)cc3)c2O[C@@H]1C(F)(F)F
REMARK SMILES IDX 5 1 4 2 3 3 2 4 1 5 60 6 61 7 78 8 62 9 77 10 63 11 76 12
REMARK SMILES IDX 64 13 67 14 65 15 66 16 79 17 80 18 81 19 82 20 68 21 69 22
REMARK SMILES IDX 75 23 70 24 74 25 71 26 72 27 73 28 6 30 7 31 8 32 9 33
REMARK SMILES IDX 10 34 11 35 12 36 13 37 59 38 14 39 58 40 15 41 16 42 17 43
REMARK SMILES IDX 52 44 18 45 57 46 51 47 53 48 19 49 56 50 50 51 49 52 20 54
REMARK SMILES IDX 42 55 27 56 41 57 28 58 31 59 40 60 54 61 29 62 30 63 39 65
REMARK SMILES IDX 55 66 32 67 21 68 22 69 26 70 23 71 25 72 24 73 43 74 44 75
REMARK SMILES IDX 48 76 45 77 47 78 46 79 33 80 34 81 38 82 35 83 37 84 36 85
REMARK H PARENT 73 29 53 53 31 64
REMARK Flexibility Score: inf
ROOT
ATOM      1  C   UNL     1       4.399   0.456   0.973  1.00  0.00     0.202 C 
ENDROOT
BRANCH   1   2
ATOM      2  C   UNL     1       3.451  -0.585  -0.686  1.00  0.00     0.261 C 
BRANCH   2   3
ATOM      3  O   UNL     1       2.425  -1.734  -0.573  1.00  0.00    -0.460 OA
BRANCH   3   4
ATOM      4  C   UNL     1       2.587  -2.470   0.532  1.00  0.00     0.338 C 
ATOM      5  O   UNL     1       1.903  -3.362   0.966  1.00  0.00    -0.246 OA
BRANCH   4   6
ATOM      6  C   UNL     1       3.546  -1.586   1.165  1.00  0.00     0.087 C 
ATOM      7  C   UNL     1       4.891  -1.747   0.621  1.00  0.00     0.027 C 
ATOM      8  C   UNL     1       2.473   0.007   0.975  1.00  0.00     0.316 C 
ATOM      9  C   UNL     1       5.666  -0.582  -0.510  1.00  0.00     0.019 A 
ATOM     10  O   UNL     1       3.280   1.280  -0.274  1.00  0.00    -0.475 OA
ATOM     11  C   UNL     1       6.824  -1.027  -1.090  1.00  0.00     0.032 A 
ATOM     12  C   UNL     1       4.891   0.884  -1.076  1.00  0.00     0.135 A 
ATOM     13  C   UNL     1       7.242  -0.290  -2.194  1.00  0.00     0.042 A 
ATOM     14  C   UNL     1       5.467   1.615  -2.160  1.00  0.00     0.026 A 
ATOM     15  Cl  UNL     1       8.678  -0.833  -3.002  1.00  0.00    -0.084 Cl
ATOM     16  C   UNL     1       6.582   0.891  -2.716  1.00  0.00     0.033 A 
BRANCH   8  17
ATOM     17  C   UNL     1       2.122   0.025   2.575  1.00  0.00     0.430 C 
ATOM     18  F   UNL     1       1.185   0.909   2.962  1.00  0.00    -0.167 F 
ATOM     19  F   UNL     1       1.566  -1.188   2.890  1.00  0.00    -0.167 F 
ATOM     20  F   UNL     1       3.188   0.119   3.404  1.00  0.00    -0.167 F 
ENDBRANCH   8  17
BRANCH  14  21
ATOM     21  C   UNL     1       5.134   3.061  -2.805  1.00  0.00    -0.015 A 
ATOM     22  C   UNL     1       3.508   2.864  -3.587  1.00  0.00     0.009 A 
ATOM     23  C   UNL     1       5.766   4.976  -2.550  1.00  0.00     0.009 A 
ATOM     24  C   UNL     1       2.589   4.307  -4.041  1.00  0.00     0.007 A 
ATOM     25  C   UNL     1       4.713   6.340  -3.034  1.00  0.00     0.007 A 
ATOM     26  C   UNL     1       3.176   5.968  -3.774  1.00  0.00    -0.023 A 
BRANCH  26  27
ATOM     27  C   UNL     1       2.522   7.126  -4.477  1.00  0.00     0.191 C 
BRANCH  27  28
ATOM     28  O   UNL     1       3.276   7.446  -5.641  1.00  0.00    -0.392 OA
ATOM     29  H   UNL     1       4.181   7.683  -5.385  1.00  0.00     0.211 HD
ENDBRANCH  27  28
ENDBRANCH  26  27
ENDBRANCH  14  21
ENDBRANCH   4   6
ENDBRANCH   3   4
ENDBRANCH   2   3
ENDBRANCH   1   2
BRANCH   1  30
ATOM     30  O   UNL     1       3.926   1.826   1.767  1.00  0.00    -0.374 OA
BRANCH  30  31
ATOM     31  C   UNL     1       2.677   2.567   1.851  1.00  0.00     0.202 C 
BRANCH  31  32
ATOM     32  C   UNL     1       2.691   4.070   1.599  1.00  0.00     0.261 C 
BRANCH  32  33
ATOM     33  O   UNL     1       3.341   4.336   0.389  1.00  0.00    -0.460 OA
BRANCH  33  34
ATOM     34  C   UNL     1       4.672   4.199   0.491  1.00  0.00     0.338 C 
ATOM     35  O   UNL     1       5.394   4.180   1.467  1.00  0.00    -0.246 OA
BRANCH  34  36
ATOM     36  C   UNL     1       5.093   4.016  -0.868  1.00  0.00     0.060 A 
ATOM     37  C   UNL     1       6.782   3.579  -1.235  1.00  0.00     0.016 A 
ATOM     38  C   UNL     1       3.992   4.468  -2.241  1.00  0.00     0.016 A 
ATOM     39  C   UNL     1       7.448   3.616  -2.900  1.00  0.00     0.010 A 
ATOM     40  C   UNL     1       4.809   4.463  -4.085  1.00  0.00     0.010 A 
ATOM     41  C   UNL     1       6.517   4.055  -4.318  1.00  0.00    -0.014 A 
BRANCH  41  42
ATOM     42  C   UNL     1       6.979   4.499  -5.677  1.00  0.00     0.031 A 
ATOM     43  C   UNL     1       7.301   5.963  -5.945  1.00  0.00     0.074 A 
ATOM     44  C   UNL     1       6.598   3.751  -6.733  1.00  0.00     0.049 A 
ATOM     45  N   UNL     1       7.396   6.613  -7.085  1.00  0.00    -0.248 NA
ATOM     46  C   UNL     1       7.445   6.835  -4.773  1.00  0.00     0.031 C 
ATOM     47  C   UNL     1       6.015   2.414  -6.640  1.00  0.00     0.029 A 
ATOM     48  N   UNL     1       6.548   4.045  -8.078  1.00  0.00    -0.354 N 
ATOM     49  C   UNL     1       7.583   7.956  -6.757  1.00  0.00     0.074 A 
ATOM     50  C   UNL     1       7.488   8.042  -5.318  1.00  0.00     0.031 C 
ATOM     51  C   UNL     1       5.645   2.011  -7.866  1.00  0.00     0.029 A 
ATOM     52  C   UNL     1       5.968   3.055  -8.837  1.00  0.00     0.049 A 
ATOM     53  H   UNL     1       6.894   4.884  -8.459  1.00  0.00     0.167 HD
ATOM     54  C   UNL     1       7.849   9.020  -7.561  1.00  0.00     0.031 A 
ATOM     55  C   UNL     1       5.726   2.981 -10.162  1.00  0.00     0.031 A 
ATOM     56  C   UNL     1       7.927   8.940  -8.997  1.00  0.00     0.049 A 
ATOM     57  C   UNL     1       6.133   4.116 -11.065  1.00  0.00     0.074 A 
ATOM     58  C   UNL     1       8.371   9.894  -9.897  1.00  0.00     0.029 A 
ATOM     59  N   UNL     1       7.514   7.849  -9.743  1.00  0.00    -0.354 N 
ATOM     60  N   UNL     1       6.575   5.307 -10.746  1.00  0.00    -0.248 NA
ATOM     61  C   UNL     1       6.045   3.880 -12.515  1.00  0.00     0.031 C 
ATOM     62  C   UNL     1       8.160   9.407 -11.191  1.00  0.00     0.029 A 
ATOM     63  C   UNL     1       7.667   8.116 -11.093  1.00  0.00     0.049 A 
ATOM     64  H   UNL     1       7.164   7.009  -9.370  1.00  0.00     0.167 HD
ATOM     65  C   UNL     1       6.862   5.943 -11.949  1.00  0.00     0.074 A 
ATOM     66  C   UNL     1       6.547   5.006 -13.005  1.00  0.00     0.031 C 
ATOM     67  C   UNL     1       7.357   7.188 -12.151  1.00  0.00     0.031 A 
BRANCH  54  68
ATOM     68  C   UNL     1       8.122  10.361  -6.909  1.00  0.00    -0.014 A 
ATOM     69  C   UNL     1       9.200  10.530  -6.021  1.00  0.00     0.009 A 
ATOM     70  C   UNL     1       7.347  11.488  -7.231  1.00  0.00     0.009 A 
ATOM     71  C   UNL     1       9.448  11.766  -5.417  1.00  0.00     0.001 A 
ATOM     72  C   UNL     1       7.625  12.736  -6.661  1.00  0.00     0.001 A 
ATOM     73  C   UNL     1       8.662  12.869  -5.741  1.00  0.00     0.000 A 
ENDBRANCH  54  68
BRANCH  55  74
ATOM     74  C   UNL     1       5.167   1.726 -10.735  1.00  0.00    -0.014 A 
ATOM     75  C   UNL     1       6.007   0.846 -11.438  1.00  0.00     0.009 A 
ATOM     76  C   UNL     1       3.819   1.381 -10.563  1.00  0.00     0.009 A 
ATOM     77  C   UNL     1       5.503  -0.336 -11.983  1.00  0.00     0.001 A 
ATOM     78  C   UNL     1       3.325   0.180 -11.082  1.00  0.00     0.001 A 
ATOM     79  C   UNL     1       4.164  -0.672 -11.799  1.00  0.00     0.000 A 
ENDBRANCH  55  74
BRANCH  67  80
ATOM     80  C   UNL     1       7.653   7.617 -13.563  1.00  0.00    -0.014 A 
ATOM     81  C   UNL     1       6.631   7.886 -14.486  1.00  0.00     0.009 A 
ATOM     82  C   UNL     1       8.986   7.842 -13.945  1.00  0.00     0.009 A 
ATOM     83  C   UNL     1       6.942   8.351 -15.768  1.00  0.00     0.001 A 
ATOM     84  C   UNL     1       9.292   8.339 -15.213  1.00  0.00     0.001 A 
ATOM     85  C   UNL     1       8.269   8.587 -16.126  1.00  0.00     0.000 A 
ENDBRANCH  67  80
ENDBRANCH  41  42
ENDBRANCH  34  36
ENDBRANCH  33  34
ENDBRANCH  32  33
ENDBRANCH  31  32
ENDBRANCH  30  31
ENDBRANCH   1  30
TORSDOF 18
