REMARK SMILES C[C@H](C(=O)OCCOCCOC(=O)c1ccc(-c2c3nc(c(-c4ccccc4)c4ccc([nH]4)c(-c4ccccc4)c4nc(c(-c5ccccc5)c5ccc2[nH]5)C=C4)C=C3)cc1)N1C(=O)C[C@@H](N2C(=O)/C(=C/c3ccccc3)SC2=S)C1=O
REMARK SMILES IDX 7 1 6 2 5 3 3 4 4 5 2 6 1 7 62 8 63 9 81 10 64 11 65 12
REMARK SMILES IDX 66 13 82 14 67 15 68 16 79 17 69 18 70 19 78 20 80 21 71 22
REMARK SMILES IDX 72 23 73 24 77 25 74 26 76 27 75 28 8 29 9 30 10 31 11 32
REMARK SMILES IDX 12 33 13 34 14 35 15 36 61 37 16 38 60 39 17 40 18 41 19 42
REMARK SMILES IDX 54 43 20 44 59 45 53 46 55 47 21 48 58 49 52 50 51 51 22 53
REMARK SMILES IDX 44 54 29 55 43 56 30 57 33 58 42 59 56 60 31 61 32 62 41 64
REMARK SMILES IDX 57 65 34 66 23 67 24 68 28 69 25 70 27 71 26 72 45 73 46 74
REMARK SMILES IDX 50 75 47 76 49 77 48 78 35 79 36 80 40 81 37 82 39 83 38 84
REMARK H PARENT 55 52 33 63
REMARK Flexibility Score: inf
ROOT
ATOM      1  C   UNL     1       1.536  -1.891  -2.143  1.00  0.00     0.202 C 
ENDROOT
BRANCH   1   2
ATOM      2  C   UNL     1       1.594  -1.867  -0.613  1.00  0.00     0.261 C 
BRANCH   2   3
ATOM      3  O   UNL     1       0.612  -0.981  -0.038  1.00  0.00    -0.462 OA
BRANCH   3   4
ATOM      4  C   UNL     1       1.005  -0.369   1.105  1.00  0.00     0.329 C 
ATOM      5  O   UNL     1       2.059  -0.627   1.685  1.00  0.00    -0.250 OA
BRANCH   4   6
ATOM      6  C   UNL     1       0.153   0.848   1.519  1.00  0.00     0.200 C 
ATOM      7  C   UNL     1       1.008   2.075   1.094  1.00  0.00     0.044 C 
BRANCH   6   8
ATOM      8  N   UNL     1      -1.268   1.033   1.138  1.00  0.00    -0.267 N 
ATOM      9  C   UNL     1      -1.918   2.197   1.467  1.00  0.00     0.232 C 
ATOM     10  C   UNL     1      -2.180   0.021   1.012  1.00  0.00     0.253 C 
ATOM     11  O   UNL     1      -1.418   3.191   1.979  1.00  0.00    -0.274 OA
ATOM     12  C   UNL     1      -3.395   2.078   1.253  1.00  0.00     0.136 C 
ATOM     13  C   UNL     1      -3.597   0.603   0.989  1.00  0.00     0.191 C 
ATOM     14  O   UNL     1      -1.947  -1.179   1.003  1.00  0.00    -0.272 OA
BRANCH  13  15
ATOM     15  N   UNL     1      -4.407   0.258  -0.196  1.00  0.00    -0.280 N 
ATOM     16  C   UNL     1      -4.070   0.772  -1.435  1.00  0.00     0.266 C 
ATOM     17  C   UNL     1      -5.523  -0.559  -0.180  1.00  0.00     0.149 C 
ATOM     18  O   UNL     1      -3.240   1.649  -1.632  1.00  0.00    -0.268 OA
ATOM     19  C   UNL     1      -4.855   0.116  -2.517  1.00  0.00     0.081 C 
ATOM     20  S   UNL     1      -6.144  -0.772  -1.820  1.00  0.00    -0.054 SA
ATOM     21  S   UNL     1      -6.253  -1.287   1.129  1.00  0.00    -0.052 S 
ATOM     22  C   UNL     1      -4.454   0.157  -3.797  1.00  0.00     0.029 C 
BRANCH  22  23
ATOM     23  C   UNL     1      -5.039  -0.531  -4.960  1.00  0.00    -0.024 A 
ATOM     24  C   UNL     1      -4.207  -1.296  -5.792  1.00  0.00     0.008 A 
ATOM     25  C   UNL     1      -6.381  -0.377  -5.321  1.00  0.00     0.008 A 
ATOM     26  C   UNL     1      -4.707  -1.914  -6.941  1.00  0.00     0.001 A 
ATOM     27  C   UNL     1      -6.880  -0.989  -6.476  1.00  0.00     0.001 A 
ATOM     28  C   UNL     1      -6.045  -1.758  -7.285  1.00  0.00     0.000 A 
ENDBRANCH  22  23
ENDBRANCH  13  15
ENDBRANCH   6   8
ENDBRANCH   4   6
ENDBRANCH   3   4
ENDBRANCH   2   3
ENDBRANCH   1   2
BRANCH   1  29
ATOM     29  O   UNL     1       1.684  -0.657  -2.840  1.00  0.00    -0.374 OA
BRANCH  29  30
ATOM     30  C   UNL     1       0.890   0.449  -2.439  1.00  0.00     0.202 C 
BRANCH  30  31
ATOM     31  C   UNL     1      -0.630   0.383  -2.638  1.00  0.00     0.261 C 
BRANCH  31  32
ATOM     32  O   UNL     1      -1.296  -0.796  -2.144  1.00  0.00    -0.460 OA
BRANCH  32  33
ATOM     33  C   UNL     1      -1.516  -1.746  -3.083  1.00  0.00     0.338 C 
ATOM     34  O   UNL     1      -1.188  -1.673  -4.264  1.00  0.00    -0.246 OA
BRANCH  33  35
ATOM     35  C   UNL     1      -2.130  -2.978  -2.534  1.00  0.00     0.060 A 
ATOM     36  C   UNL     1      -1.760  -4.202  -3.100  1.00  0.00     0.016 A 
ATOM     37  C   UNL     1      -3.119  -2.950  -1.553  1.00  0.00     0.016 A 
ATOM     38  C   UNL     1      -2.426  -5.375  -2.739  1.00  0.00     0.010 A 
ATOM     39  C   UNL     1      -3.816  -4.113  -1.216  1.00  0.00     0.010 A 
ATOM     40  C   UNL     1      -3.490  -5.328  -1.829  1.00  0.00    -0.014 A 
BRANCH  40  41
ATOM     41  C   UNL     1      -4.257  -6.555  -1.518  1.00  0.00     0.031 A 
ATOM     42  C   UNL     1      -5.537  -6.855  -2.241  1.00  0.00     0.074 A 
ATOM     43  C   UNL     1      -3.797  -7.391  -0.571  1.00  0.00     0.049 A 
ATOM     44  N   UNL     1      -6.298  -7.918  -2.162  1.00  0.00    -0.248 NA
ATOM     45  C   UNL     1      -6.032  -5.826  -3.169  1.00  0.00     0.031 C 
ATOM     46  C   UNL     1      -2.582  -7.182   0.215  1.00  0.00     0.029 A 
ATOM     47  N   UNL     1      -4.302  -8.578  -0.108  1.00  0.00    -0.354 N 
ATOM     48  C   UNL     1      -7.352  -7.696  -3.039  1.00  0.00     0.074 A 
ATOM     49  C   UNL     1      -7.155  -6.379  -3.608  1.00  0.00     0.031 C 
ATOM     50  C   UNL     1      -2.433  -8.210   1.066  1.00  0.00     0.029 A 
ATOM     51  C   UNL     1      -3.548  -9.138   0.892  1.00  0.00     0.049 A 
ATOM     52  H   UNL     1      -5.125  -8.988  -0.458  1.00  0.00     0.167 HD
ATOM     53  C   UNL     1      -8.383  -8.521  -3.345  1.00  0.00     0.031 A 
ATOM     54  C   UNL     1      -3.735 -10.273   1.590  1.00  0.00     0.031 A 
ATOM     55  C   UNL     1      -8.593  -9.813  -2.740  1.00  0.00     0.049 A 
ATOM     56  C   UNL     1      -4.910 -11.152   1.260  1.00  0.00     0.074 A 
ATOM     57  C   UNL     1      -9.578 -10.746  -3.016  1.00  0.00     0.029 A 
ATOM     58  N   UNL     1      -7.817 -10.342  -1.720  1.00  0.00    -0.354 N 
ATOM     59  N   UNL     1      -5.840 -10.981   0.352  1.00  0.00    -0.248 NA
ATOM     60  C   UNL     1      -5.045 -12.392   2.036  1.00  0.00     0.031 C 
ATOM     61  C   UNL     1      -9.436 -11.810  -2.118  1.00  0.00     0.029 A 
ATOM     62  C   UNL     1      -8.321 -11.573  -1.331  1.00  0.00     0.049 A 
ATOM     63  H   UNL     1      -7.024  -9.908  -1.329  1.00  0.00     0.167 HD
ATOM     64  C   UNL     1      -6.653 -12.104   0.426  1.00  0.00     0.074 A 
ATOM     65  C   UNL     1      -6.095 -12.957   1.456  1.00  0.00     0.031 C 
ATOM     66  C   UNL     1      -7.760 -12.406  -0.297  1.00  0.00     0.031 A 
BRANCH  53  67
ATOM     67  C   UNL     1      -9.378  -8.048  -4.372  1.00  0.00    -0.014 A 
ATOM     68  C   UNL     1      -9.026  -7.936  -5.727  1.00  0.00     0.009 A 
ATOM     69  C   UNL     1     -10.701  -7.772  -3.993  1.00  0.00     0.009 A 
ATOM     70  C   UNL     1      -9.969  -7.529  -6.674  1.00  0.00     0.001 A 
ATOM     71  C   UNL     1     -11.650  -7.392  -4.946  1.00  0.00     0.001 A 
ATOM     72  C   UNL     1     -11.281  -7.263  -6.284  1.00  0.00     0.000 A 
ENDBRANCH  53  67
BRANCH  54  73
ATOM     73  C   UNL     1      -2.772 -10.653   2.655  1.00  0.00    -0.014 A 
ATOM     74  C   UNL     1      -1.908 -11.745   2.481  1.00  0.00     0.009 A 
ATOM     75  C   UNL     1      -2.707  -9.919   3.849  1.00  0.00     0.009 A 
ATOM     76  C   UNL     1      -1.018 -12.110   3.494  1.00  0.00     0.001 A 
ATOM     77  C   UNL     1      -1.795 -10.268   4.847  1.00  0.00     0.001 A 
ATOM     78  C   UNL     1      -0.958 -11.369   4.673  1.00  0.00     0.000 A 
ENDBRANCH  54  73
BRANCH  66  79
ATOM     79  C   UNL     1      -8.421 -13.728  -0.019  1.00  0.00    -0.014 A 
ATOM     80  C   UNL     1      -9.120 -13.962   1.175  1.00  0.00     0.009 A 
ATOM     81  C   UNL     1      -8.368 -14.746  -0.985  1.00  0.00     0.009 A 
ATOM     82  C   UNL     1      -9.719 -15.201   1.413  1.00  0.00     0.001 A 
ATOM     83  C   UNL     1      -8.995 -15.973  -0.758  1.00  0.00     0.001 A 
ATOM     84  C   UNL     1      -9.660 -16.203   0.445  1.00  0.00     0.000 A 
ENDBRANCH  66  79
ENDBRANCH  40  41
ENDBRANCH  33  35
ENDBRANCH  32  33
ENDBRANCH  31  32
ENDBRANCH  30  31
ENDBRANCH  29  30
ENDBRANCH   1  29
TORSDOF 17
