REMARK SMILES Cc1ccc(S(=O)(=O)N2CCCC2)cc1C(=O)N[C@H](CC1=c2ccccc2=NC1)C(=O)OCCOCCOC(=O)c1ccc(-c2c3nc(c(-c4ccccc4)c4ccc([nH]4)c(-c4ccccc4)c4nc(c(-c5ccccc5)c5ccc2[nH]5)C=C4)C=C3)cc1
REMARK SMILES IDX 34 1 33 2 32 3 30 4 31 5 19 6 18 7 16 8 17 9 15 11 1 12 2 13
REMARK SMILES IDX 3 14 4 15 14 16 5 17 6 18 7 19 8 20 9 21 10 22 13 23 11 24
REMARK SMILES IDX 12 25 20 26 21 27 22 28 29 29 23 30 27 31 28 32 24 33 26 34
REMARK SMILES IDX 25 35 35 36 36 37 37 38 38 39 39 40 40 41 41 42 42 43 88 44
REMARK SMILES IDX 43 45 87 46 44 47 45 48 46 49 81 50 47 51 86 52 80 53 82 54
REMARK SMILES IDX 48 55 85 56 79 57 78 58 49 60 71 61 56 62 70 63 57 64 60 65
REMARK SMILES IDX 69 66 83 67 58 68 59 69 68 71 84 72 61 73 50 74 51 75 55 76
REMARK SMILES IDX 52 77 54 78 53 79 72 80 73 81 77 82 74 83 76 84 75 85 62 86
REMARK SMILES IDX 63 87 67 88 64 89 66 90 65 91
REMARK H PARENT 18 10 82 59 60 70
REMARK Flexibility Score: inf
ROOT
ATOM      1  C   UNL     1       4.268   3.296   3.018  1.00  0.00     0.202 C 
ENDROOT
BRANCH   1   2
ATOM      2  C   UNL     1       5.050   2.805   1.823  1.00  0.00     0.261 C 
BRANCH   2   3
ATOM      3  O   UNL     1       4.276   2.415   0.663  1.00  0.00    -0.462 OA
BRANCH   3   4
ATOM      4  C   UNL     1       3.420   1.353   0.664  1.00  0.00     0.329 C 
ATOM      5  O   UNL     1       3.359   0.496   1.532  1.00  0.00    -0.250 OA
BRANCH   4   6
ATOM      6  C   UNL     1       2.504   1.385  -0.590  1.00  0.00     0.196 C 
BRANCH   6   7
ATOM      7  N   UNL     1       3.216   1.997  -1.734  1.00  0.00    -0.338 N 
ATOM      8  C   UNL     1       3.625   3.208  -2.210  1.00  0.00     0.252 C 
ATOM      9  O   UNL     1       4.395   3.075  -3.176  1.00  0.00    -0.269 OA
ATOM     10  H   UNL     1       3.486   1.291  -2.364  1.00  0.00     0.164 HD
BRANCH   8  11
ATOM     11  C   UNL     1       3.265   4.627  -1.813  1.00  0.00     0.044 A 
ATOM     12  C   UNL     1       2.661   4.601   0.645  1.00  0.00     0.045 C 
ATOM     13  C   UNL     1       2.567   5.169  -0.720  1.00  0.00    -0.038 A 
ATOM     14  C   UNL     1       2.225   6.543  -0.650  1.00  0.00     0.005 A 
ATOM     15  C   UNL     1       2.840   7.453  -1.481  1.00  0.00     0.022 A 
ATOM     16  C   UNL     1       3.872   5.593  -2.638  1.00  0.00     0.035 A 
ATOM     17  C   UNL     1       3.731   6.973  -2.424  1.00  0.00     0.083 A 
BRANCH  17  18
ATOM     18  S   UNL     1       4.888   8.142  -3.098  1.00  0.00     0.243 S 
ATOM     19  O   UNL     1       4.171   8.945  -4.067  1.00  0.00    -0.207 OA
ATOM     20  O   UNL     1       5.556   8.723  -1.956  1.00  0.00    -0.207 OA
BRANCH  18  21
ATOM     21  N   UNL     1       5.995   7.184  -3.902  1.00  0.00    -0.198 NA
ATOM     22  C   UNL     1       5.710   6.710  -5.263  1.00  0.00     0.102 C 
ATOM     23  C   UNL     1       7.433   7.487  -3.798  1.00  0.00     0.102 C 
ATOM     24  C   UNL     1       6.946   5.872  -5.538  1.00  0.00     0.018 C 
ATOM     25  C   UNL     1       8.063   6.743  -4.979  1.00  0.00     0.018 C 
ENDBRANCH  18  21
ENDBRANCH  17  18
ENDBRANCH   8  11
ENDBRANCH   6   7
BRANCH   6  26
ATOM     26  C   UNL     1       1.027   1.835  -0.478  1.00  0.00     0.070 C 
BRANCH  26  27
ATOM     27  C   UNL     1       0.341   1.837   0.858  1.00  0.00    -0.037 C 
ATOM     28  C   UNL     1       0.202   0.864   1.756  1.00  0.00     0.001 A 
ATOM     29  C   UNL     1      -0.357   3.080   1.345  1.00  0.00     0.174 C 
ATOM     30  C   UNL     1       0.557  -0.515   1.835  1.00  0.00     0.010 A 
ATOM     31  C   UNL     1      -0.454   1.549   2.885  1.00  0.00     0.065 A 
ATOM     32  N   UNL     1      -0.794   2.791   2.727  1.00  0.00    -0.280 NA
ATOM     33  C   UNL     1       0.357  -1.169   2.992  1.00  0.00     0.001 A 
ATOM     34  C   UNL     1      -0.613   0.775   4.134  1.00  0.00     0.028 A 
ATOM     35  C   UNL     1      -0.201  -0.503   4.157  1.00  0.00     0.002 A 
ENDBRANCH  26  27
ENDBRANCH   6  26
ENDBRANCH   4   6
ENDBRANCH   3   4
ENDBRANCH   2   3
ENDBRANCH   1   2
BRANCH   1  36
ATOM     36  O   UNL     1       3.639   2.174   3.598  1.00  0.00    -0.374 OA
BRANCH  36  37
ATOM     37  C   UNL     1       2.559   2.455   4.465  1.00  0.00     0.202 C 
BRANCH  37  38
ATOM     38  C   UNL     1       2.937   3.332   5.663  1.00  0.00     0.261 C 
BRANCH  38  39
ATOM     39  O   UNL     1       3.931   2.675   6.480  1.00  0.00    -0.460 OA
BRANCH  39  40
ATOM     40  C   UNL     1       5.223   3.047   6.244  1.00  0.00     0.338 C 
ATOM     41  O   UNL     1       5.640   4.192   6.293  1.00  0.00    -0.246 OA
BRANCH  40  42
ATOM     42  C   UNL     1       5.969   1.910   5.616  1.00  0.00     0.060 A 
ATOM     43  C   UNL     1       7.146   2.164   4.883  1.00  0.00     0.016 A 
ATOM     44  C   UNL     1       5.280   0.721   5.419  1.00  0.00     0.016 A 
ATOM     45  C   UNL     1       7.535   1.295   3.846  1.00  0.00     0.010 A 
ATOM     46  C   UNL     1       5.569  -0.017   4.289  1.00  0.00     0.010 A 
ATOM     47  C   UNL     1       6.695   0.236   3.494  1.00  0.00    -0.014 A 
BRANCH  47  48
ATOM     48  C   UNL     1       6.841  -0.650   2.327  1.00  0.00     0.031 A 
ATOM     49  C   UNL     1       7.106  -2.082   2.616  1.00  0.00     0.074 A 
ATOM     50  C   UNL     1       6.745  -0.303   1.016  1.00  0.00     0.049 A 
ATOM     51  N   UNL     1       8.000  -2.773   1.986  1.00  0.00    -0.248 NA
ATOM     52  C   UNL     1       6.431  -2.836   3.674  1.00  0.00     0.031 C 
ATOM     53  C   UNL     1       6.619  -1.224  -0.117  1.00  0.00     0.029 A 
ATOM     54  N   UNL     1       6.804   0.949   0.397  1.00  0.00    -0.354 N 
ATOM     55  C   UNL     1       7.789  -4.083   2.343  1.00  0.00     0.074 A 
ATOM     56  C   UNL     1       6.935  -4.056   3.502  1.00  0.00     0.031 C 
ATOM     57  C   UNL     1       6.853  -0.560  -1.262  1.00  0.00     0.029 A 
ATOM     58  C   UNL     1       7.251   0.795  -0.920  1.00  0.00     0.049 A 
ATOM     59  H   UNL     1       6.567   1.806   0.821  1.00  0.00     0.167 HD
ATOM     60  C   UNL     1       8.120  -5.101   1.508  1.00  0.00     0.031 A 
ATOM     61  C   UNL     1       8.273   1.523  -1.444  1.00  0.00     0.031 A 
ATOM     62  C   UNL     1       8.508  -4.617   0.190  1.00  0.00     0.049 A 
ATOM     63  C   UNL     1       9.371   0.610  -1.901  1.00  0.00     0.074 A 
ATOM     64  C   UNL     1       7.805  -4.554  -1.003  1.00  0.00     0.029 A 
ATOM     65  N   UNL     1       9.627  -3.811   0.030  1.00  0.00    -0.354 N 
ATOM     66  N   UNL     1       9.445  -0.622  -1.488  1.00  0.00    -0.248 NA
ATOM     67  C   UNL     1      10.464   0.960  -2.802  1.00  0.00     0.031 C 
ATOM     68  C   UNL     1       8.527  -3.734  -1.899  1.00  0.00     0.029 A 
ATOM     69  C   UNL     1       9.674  -3.304  -1.254  1.00  0.00     0.049 A 
ATOM     70  H   UNL     1      10.293  -3.626   0.732  1.00  0.00     0.167 HD
ATOM     71  C   UNL     1      10.536  -1.227  -2.027  1.00  0.00     0.074 A 
ATOM     72  C   UNL     1      11.159  -0.195  -2.833  1.00  0.00     0.031 C 
ATOM     73  C   UNL     1      10.812  -2.522  -1.716  1.00  0.00     0.031 A 
BRANCH  60  74
ATOM     74  C   UNL     1       7.694  -6.518   1.796  1.00  0.00    -0.014 A 
ATOM     75  C   UNL     1       7.363  -7.382   0.741  1.00  0.00     0.009 A 
ATOM     76  C   UNL     1       7.589  -7.047   3.096  1.00  0.00     0.009 A 
ATOM     77  C   UNL     1       6.848  -8.662   0.970  1.00  0.00     0.001 A 
ATOM     78  C   UNL     1       7.029  -8.308   3.335  1.00  0.00     0.001 A 
ATOM     79  C   UNL     1       6.650  -9.113   2.268  1.00  0.00     0.000 A 
ENDBRANCH  60  74
BRANCH  61  80
ATOM     80  C   UNL     1       8.453   2.871  -0.839  1.00  0.00    -0.014 A 
ATOM     81  C   UNL     1       7.641   3.933  -1.284  1.00  0.00     0.009 A 
ATOM     82  C   UNL     1       9.124   3.017   0.387  1.00  0.00     0.009 A 
ATOM     83  C   UNL     1       7.454   5.075  -0.494  1.00  0.00     0.001 A 
ATOM     84  C   UNL     1       8.919   4.151   1.183  1.00  0.00     0.001 A 
ATOM     85  C   UNL     1       8.073   5.172   0.751  1.00  0.00     0.000 A 
ENDBRANCH  61  80
BRANCH  73  86
ATOM     86  C   UNL     1      12.139  -3.201  -1.872  1.00  0.00    -0.014 A 
ATOM     87  C   UNL     1      13.346  -2.519  -2.057  1.00  0.00     0.009 A 
ATOM     88  C   UNL     1      12.219  -4.595  -1.648  1.00  0.00     0.009 A 
ATOM     89  C   UNL     1      14.570  -3.198  -2.038  1.00  0.00     0.001 A 
ATOM     90  C   UNL     1      13.437  -5.266  -1.576  1.00  0.00     0.001 A 
ATOM     91  C   UNL     1      14.616  -4.565  -1.781  1.00  0.00     0.000 A 
ENDBRANCH  73  86
ENDBRANCH  47  48
ENDBRANCH  40  42
ENDBRANCH  39  40
ENDBRANCH  38  39
ENDBRANCH  37  38
ENDBRANCH  36  37
ENDBRANCH   1  36
TORSDOF 20
