REMARK SMILES CCCC#C[C@](C)(O)C[NH2+][C@H](C)C(=O)OCCOCCOC(=O)c1ccc(-c2c3nc(c(-c4ccccc4)c4ccc([nH]4)c(-c4ccccc4)c4nc(c(-c5ccccc5)c5ccc2[nH]5)C=C4)C=C3)cc1
REMARK SMILES IDX 16 1 15 2 13 3 14 4 11 5 12 6 10 7 9 10 6 11 7 12 5 13 4 14
REMARK SMILES IDX 3 15 2 16 1 17 8 18 17 20 18 21 19 22 20 23 21 24 22 25
REMARK SMILES IDX 23 26 24 27 25 28 71 29 26 30 70 31 27 32 28 33 29 34 64 35
REMARK SMILES IDX 30 36 69 37 63 38 65 39 31 40 68 41 62 42 61 43 32 45 54 46
REMARK SMILES IDX 39 47 53 48 40 49 43 50 52 51 66 52 41 53 42 54 51 56 67 57
REMARK SMILES IDX 44 58 33 59 34 60 38 61 35 62 37 63 36 64 55 65 56 66 60 67
REMARK SMILES IDX 57 68 59 69 58 70 45 71 46 72 50 73 47 74 49 75 48 76
REMARK H PARENT 10 8 10 9 8 19 65 44 43 55
REMARK Flexibility Score: inf
ROOT
ATOM      1  C   UNL     1       5.417  -6.122  -4.872  1.00  0.00     0.261 C 
ENDROOT
BRANCH   1   2
ATOM      2  O   UNL     1       4.100  -6.052  -4.304  1.00  0.00    -0.459 OA
BRANCH   2   3
ATOM      3  C   UNL     1       4.057  -5.989  -2.943  1.00  0.00     0.364 C 
ATOM      4  O   UNL     1       5.041  -5.978  -2.210  1.00  0.00    -0.245 OA
BRANCH   3   5
ATOM      5  C   UNL     1       2.617  -6.029  -2.406  1.00  0.00     0.290 C 
ATOM      6  C   UNL     1       1.704  -5.034  -3.113  1.00  0.00     0.088 C 
BRANCH   5   7
ATOM      7  N   UNL     1       2.038  -7.388  -2.481  1.00  0.00    -0.332 N 
ATOM      8  H   UNL     1       1.196  -7.428  -1.907  1.00  0.00     0.347 HD
ATOM      9  H   UNL     1       1.808  -7.598  -3.452  1.00  0.00     0.347 HD
BRANCH   7  10
ATOM     10  C   UNL     1       3.009  -8.381  -1.991  1.00  0.00     0.310 C 
BRANCH  10  11
ATOM     11  C   UNL     1       2.525  -9.841  -2.057  1.00  0.00     0.171 C 
ATOM     12  C   UNL     1       1.474 -10.141  -0.992  1.00  0.00     0.063 C 
BRANCH  11  13
ATOM     13  C   UNL     1       3.721 -10.675  -1.884  1.00  0.00    -0.063 C 
ATOM     14  C   UNL     1       4.807 -11.371  -1.692  1.00  0.00    -0.100 C 
BRANCH  14  15
ATOM     15  C   UNL     1       6.072 -12.182  -1.468  1.00  0.00     0.089 C 
BRANCH  15  16
ATOM     16  C   UNL     1       7.019 -11.474  -0.500  1.00  0.00     0.010 C 
ATOM     17  C   UNL     1       6.441 -11.323   0.902  1.00  0.00     0.005 C 
ENDBRANCH  15  16
ENDBRANCH  14  15
ENDBRANCH  11  13
BRANCH  11  18
ATOM     18  O   UNL     1       1.975 -10.099  -3.353  1.00  0.00    -0.372 OA
ATOM     19  H   UNL     1       1.183  -9.554  -3.482  1.00  0.00     0.212 HD
ENDBRANCH  11  18
ENDBRANCH  10  11
ENDBRANCH   7  10
ENDBRANCH   5   7
ENDBRANCH   3   5
ENDBRANCH   2   3
ENDBRANCH   1   2
BRANCH   1  20
ATOM     20  C   UNL     1       5.881  -4.775  -5.429  1.00  0.00     0.202 C 
BRANCH  20  21
ATOM     21  O   UNL     1       6.140  -3.736  -4.489  1.00  0.00    -0.374 OA
BRANCH  21  22
ATOM     22  C   UNL     1       5.031  -3.062  -3.898  1.00  0.00     0.202 C 
BRANCH  22  23
ATOM     23  C   UNL     1       4.281  -2.052  -4.769  1.00  0.00     0.261 C 
BRANCH  23  24
ATOM     24  O   UNL     1       3.602  -2.683  -5.870  1.00  0.00    -0.460 OA
BRANCH  24  25
ATOM     25  C   UNL     1       4.115  -2.391  -7.086  1.00  0.00     0.338 C 
ATOM     26  O   UNL     1       5.032  -1.615  -7.339  1.00  0.00    -0.246 OA
BRANCH  25  27
ATOM     27  C   UNL     1       3.535  -3.269  -8.115  1.00  0.00     0.060 A 
ATOM     28  C   UNL     1       4.423  -3.962  -8.949  1.00  0.00     0.016 A 
ATOM     29  C   UNL     1       2.158  -3.334  -8.331  1.00  0.00     0.016 A 
ATOM     30  C   UNL     1       3.942  -4.674 -10.044  1.00  0.00     0.010 A 
ATOM     31  C   UNL     1       1.677  -4.039  -9.438  1.00  0.00     0.010 A 
ATOM     32  C   UNL     1       2.569  -4.675 -10.321  1.00  0.00    -0.014 A 
BRANCH  32  33
ATOM     33  C   UNL     1       2.085  -5.188 -11.623  1.00  0.00     0.031 A 
ATOM     34  C   UNL     1       1.827  -4.208 -12.735  1.00  0.00     0.074 A 
ATOM     35  C   UNL     1       1.891  -6.502 -11.821  1.00  0.00     0.049 A 
ATOM     36  N   UNL     1       1.333  -4.419 -13.928  1.00  0.00    -0.248 NA
ATOM     37  C   UNL     1       2.171  -2.802 -12.463  1.00  0.00     0.031 C 
ATOM     38  C   UNL     1       2.163  -7.556 -10.844  1.00  0.00     0.029 A 
ATOM     39  N   UNL     1       1.409  -7.171 -12.917  1.00  0.00    -0.354 N 
ATOM     40  C   UNL     1       1.294  -3.174 -14.543  1.00  0.00     0.074 A 
ATOM     41  C   UNL     1       1.797  -2.210 -13.588  1.00  0.00     0.031 C 
ATOM     42  C   UNL     1       1.828  -8.742 -11.382  1.00  0.00     0.029 A 
ATOM     43  C   UNL     1       1.286  -8.525 -12.722  1.00  0.00     0.049 A 
ATOM     44  H   UNL     1       1.173  -6.724 -13.762  1.00  0.00     0.167 HD
ATOM     45  C   UNL     1       0.876  -2.860 -15.792  1.00  0.00     0.031 A 
ATOM     46  C   UNL     1       0.766  -9.474 -13.523  1.00  0.00     0.031 A 
ATOM     47  C   UNL     1       0.368  -3.815 -16.738  1.00  0.00     0.049 A 
ATOM     48  C   UNL     1       0.224  -9.087 -14.873  1.00  0.00     0.074 A 
ATOM     49  C   UNL     1      -0.068  -3.598 -18.033  1.00  0.00     0.029 A 
ATOM     50  N   UNL     1       0.220  -5.169 -16.485  1.00  0.00    -0.354 N 
ATOM     51  N   UNL     1       0.203  -7.910 -15.450  1.00  0.00    -0.248 NA
ATOM     52  C   UNL     1      -0.369 -10.163 -15.682  1.00  0.00     0.031 C 
ATOM     53  C   UNL     1      -0.528  -4.814 -18.547  1.00  0.00     0.029 A 
ATOM     54  C   UNL     1      -0.328  -5.796 -17.591  1.00  0.00     0.049 A 
ATOM     55  H   UNL     1       0.468  -5.619 -15.645  1.00  0.00     0.167 HD
ATOM     56  C   UNL     1      -0.376  -8.108 -16.697  1.00  0.00     0.074 A 
ATOM     57  C   UNL     1      -0.686  -9.519 -16.797  1.00  0.00     0.031 C 
ATOM     58  C   UNL     1      -0.625  -7.202 -17.674  1.00  0.00     0.031 A 
BRANCH  45  59
ATOM     59  C   UNL     1       0.913  -1.412 -16.189  1.00  0.00    -0.014 A 
ATOM     60  C   UNL     1       2.125  -0.763 -16.470  1.00  0.00     0.009 A 
ATOM     61  C   UNL     1      -0.288  -0.697 -16.314  1.00  0.00     0.009 A 
ATOM     62  C   UNL     1       2.135   0.584 -16.839  1.00  0.00     0.001 A 
ATOM     63  C   UNL     1      -0.277   0.642 -16.706  1.00  0.00     0.001 A 
ATOM     64  C   UNL     1       0.934   1.284 -16.961  1.00  0.00     0.000 A 
ENDBRANCH  45  59
BRANCH  46  65
ATOM     65  C   UNL     1       0.701 -10.884 -13.060  1.00  0.00    -0.014 A 
ATOM     66  C   UNL     1       1.515 -11.867 -13.642  1.00  0.00     0.009 A 
ATOM     67  C   UNL     1      -0.192 -11.256 -12.042  1.00  0.00     0.009 A 
ATOM     68  C   UNL     1       1.421 -13.198 -13.229  1.00  0.00     0.001 A 
ATOM     69  C   UNL     1      -0.265 -12.583 -11.613  1.00  0.00     0.001 A 
ATOM     70  C   UNL     1       0.535 -13.554 -12.213  1.00  0.00     0.000 A 
ENDBRANCH  46  65
BRANCH  58  71
ATOM     71  C   UNL     1      -1.226  -7.712 -18.953  1.00  0.00    -0.014 A 
ATOM     72  C   UNL     1      -2.579  -8.072 -19.030  1.00  0.00     0.009 A 
ATOM     73  C   UNL     1      -0.436  -7.774 -20.112  1.00  0.00     0.009 A 
ATOM     74  C   UNL     1      -3.125  -8.507 -20.239  1.00  0.00     0.001 A 
ATOM     75  C   UNL     1      -0.990  -8.185 -21.325  1.00  0.00     0.001 A 
ATOM     76  C   UNL     1      -2.332  -8.557 -21.386  1.00  0.00     0.000 A 
ENDBRANCH  58  71
ENDBRANCH  32  33
ENDBRANCH  25  27
ENDBRANCH  24  25
ENDBRANCH  23  24
ENDBRANCH  22  23
ENDBRANCH  21  22
ENDBRANCH  20  21
ENDBRANCH   1  20
TORSDOF 21
