REMARK SMILES O=C(OCCOCCOC(=O)c1cc2ccccc2cc1NS(=O)(=O)c1ccccc1Br)c1ccc(-c2c3nc(c(-c4ccccc4)c4ccc([nH]4)c(-c4ccccc4)c4nc(c(-c5ccccc5)c5ccc2[nH]5)C=C4)C=C3)cc1
REMARK SMILES IDX 7 1 6 2 5 3 4 4 3 5 2 6 1 7 33 8 34 9 80 10 35 11 79 12
REMARK SMILES IDX 36 13 37 14 38 15 73 16 39 17 78 18 72 19 74 20 40 21 77 22
REMARK SMILES IDX 71 23 70 24 41 26 63 27 48 28 62 29 49 30 52 31 61 32 75 33
REMARK SMILES IDX 50 34 51 35 60 37 76 38 53 39 42 40 43 41 47 42 44 43 46 44
REMARK SMILES IDX 45 45 64 46 65 47 69 48 66 49 68 50 67 51 54 52 55 53 59 54
REMARK SMILES IDX 56 55 58 56 57 57 8 58 9 59 10 60 11 61 12 62 13 63 21 64
REMARK SMILES IDX 14 65 20 66 15 67 19 68 16 69 18 70 17 71 22 72 23 74 24 75
REMARK SMILES IDX 25 76 26 77 27 78 31 79 28 80 30 81 32 82 29 83
REMARK H PARENT 74 25 52 36 22 73
REMARK Flexibility Score: inf
ROOT
ATOM      1  C   UNL     1       2.776   0.637  -1.996  1.00  0.00     0.202 C 
ENDROOT
BRANCH   1   2
ATOM      2  O   UNL     1       4.095   0.279  -1.565  1.00  0.00    -0.374 OA
BRANCH   2   3
ATOM      3  C   UNL     1       4.317  -1.108  -1.306  1.00  0.00     0.202 C 
BRANCH   3   4
ATOM      4  C   UNL     1       4.027  -1.521   0.140  1.00  0.00     0.261 C 
BRANCH   4   5
ATOM      5  O   UNL     1       2.655  -1.252   0.474  1.00  0.00    -0.460 OA
BRANCH   5   6
ATOM      6  C   UNL     1       2.124  -0.170   1.088  1.00  0.00     0.338 C 
ATOM      7  O   UNL     1       0.904  -0.127   1.237  1.00  0.00    -0.246 OA
BRANCH   6   8
ATOM      8  C   UNL     1       2.924   0.981   1.615  1.00  0.00     0.060 A 
ATOM      9  C   UNL     1       4.192   1.360   1.171  1.00  0.00     0.016 A 
ATOM     10  C   UNL     1       2.307   1.788   2.589  1.00  0.00     0.016 A 
ATOM     11  C   UNL     1       4.853   2.456   1.698  1.00  0.00     0.010 A 
ATOM     12  C   UNL     1       2.955   2.909   3.116  1.00  0.00     0.010 A 
ATOM     13  C   UNL     1       4.246   3.224   2.684  1.00  0.00    -0.014 A 
BRANCH  13  14
ATOM     14  C   UNL     1       5.087   4.231   3.348  1.00  0.00     0.031 A 
ATOM     15  C   UNL     1       5.721   3.856   4.651  1.00  0.00     0.074 A 
ATOM     16  C   UNL     1       5.420   5.353   2.689  1.00  0.00     0.049 A 
ATOM     17  N   UNL     1       6.558   4.532   5.389  1.00  0.00    -0.248 NA
ATOM     18  C   UNL     1       5.386   2.522   5.183  1.00  0.00     0.031 C 
ATOM     19  C   UNL     1       4.963   5.709   1.343  1.00  0.00     0.029 A 
ATOM     20  N   UNL     1       6.265   6.371   3.036  1.00  0.00    -0.354 N 
ATOM     21  C   UNL     1       6.826   3.720   6.483  1.00  0.00     0.074 A 
ATOM     22  C   UNL     1       6.067   2.503   6.317  1.00  0.00     0.031 C 
ATOM     23  C   UNL     1       5.565   6.849   0.965  1.00  0.00     0.029 A 
ATOM     24  C   UNL     1       6.397   7.329   2.061  1.00  0.00     0.049 A 
ATOM     25  H   UNL     1       6.733   6.412   3.901  1.00  0.00     0.167 HD
ATOM     26  C   UNL     1       7.628   3.981   7.540  1.00  0.00     0.031 A 
ATOM     27  C   UNL     1       7.105   8.473   2.075  1.00  0.00     0.031 A 
ATOM     28  C   UNL     1       8.356   5.211   7.686  1.00  0.00     0.049 A 
ATOM     29  C   UNL     1       7.901   8.789   3.312  1.00  0.00     0.074 A 
ATOM     30  C   UNL     1       9.140   5.636   8.740  1.00  0.00     0.029 A 
ATOM     31  N   UNL     1       8.379   6.218   6.730  1.00  0.00    -0.354 N 
ATOM     32  N   UNL     1       8.093   8.052   4.381  1.00  0.00    -0.248 NA
ATOM     33  C   UNL     1       8.571  10.094   3.348  1.00  0.00     0.031 C 
ATOM     34  C   UNL     1       9.596   6.926   8.443  1.00  0.00     0.029 A 
ATOM     35  C   UNL     1       9.148   7.276   7.176  1.00  0.00     0.049 A 
ATOM     36  H   UNL     1       7.915   6.184   5.862  1.00  0.00     0.167 HD
ATOM     37  C   UNL     1       8.926   8.792   5.208  1.00  0.00     0.074 A 
ATOM     38  C   UNL     1       9.214  10.028   4.505  1.00  0.00     0.031 C 
ATOM     39  C   UNL     1       9.411   8.485   6.437  1.00  0.00     0.031 A 
BRANCH  26  40
ATOM     40  C   UNL     1       7.651   2.959   8.639  1.00  0.00    -0.014 A 
ATOM     41  C   UNL     1       8.277   1.711   8.482  1.00  0.00     0.009 A 
ATOM     42  C   UNL     1       6.971   3.230   9.837  1.00  0.00     0.009 A 
ATOM     43  C   UNL     1       8.179   0.741   9.483  1.00  0.00     0.001 A 
ATOM     44  C   UNL     1       6.899   2.268  10.846  1.00  0.00     0.001 A 
ATOM     45  C   UNL     1       7.490   1.020  10.663  1.00  0.00     0.000 A 
ENDBRANCH  26  40
BRANCH  27  46
ATOM     46  C   UNL     1       7.058   9.408   0.919  1.00  0.00    -0.014 A 
ATOM     47  C   UNL     1       8.205   9.679   0.159  1.00  0.00     0.009 A 
ATOM     48  C   UNL     1       5.857  10.054   0.578  1.00  0.00     0.009 A 
ATOM     49  C   UNL     1       8.157  10.592  -0.899  1.00  0.00     0.001 A 
ATOM     50  C   UNL     1       5.804  10.942  -0.499  1.00  0.00     0.001 A 
ATOM     51  C   UNL     1       6.956  11.219  -1.230  1.00  0.00     0.000 A 
ENDBRANCH  27  46
BRANCH  39  52
ATOM     52  C   UNL     1      10.340   9.483   7.064  1.00  0.00    -0.014 A 
ATOM     53  C   UNL     1       9.869  10.701   7.574  1.00  0.00     0.009 A 
ATOM     54  C   UNL     1      11.704   9.172   7.178  1.00  0.00     0.009 A 
ATOM     55  C   UNL     1      10.757  11.607   8.156  1.00  0.00     0.001 A 
ATOM     56  C   UNL     1      12.582  10.065   7.789  1.00  0.00     0.001 A 
ATOM     57  C   UNL     1      12.110  11.286   8.268  1.00  0.00     0.000 A 
ENDBRANCH  39  52
ENDBRANCH  13  14
ENDBRANCH   6   8
ENDBRANCH   5   6
ENDBRANCH   4   5
ENDBRANCH   3   4
ENDBRANCH   2   3
ENDBRANCH   1   2
BRANCH   1  58
ATOM     58  C   UNL     1       2.854   1.280  -3.379  1.00  0.00     0.261 C 
BRANCH  58  59
ATOM     59  O   UNL     1       3.357   0.286  -4.283  1.00  0.00    -0.460 OA
BRANCH  59  60
ATOM     60  C   UNL     1       4.710   0.238  -4.387  1.00  0.00     0.340 C 
ATOM     61  O   UNL     1       5.497   1.121  -4.081  1.00  0.00    -0.246 OA
BRANCH  60  62
ATOM     62  C   UNL     1       5.129  -1.141  -4.733  1.00  0.00     0.084 A 
ATOM     63  C   UNL     1       6.398  -1.544  -4.266  1.00  0.00     0.026 A 
ATOM     64  C   UNL     1       4.314  -2.072  -5.389  1.00  0.00     0.064 A 
ATOM     65  C   UNL     1       6.893  -2.837  -4.512  1.00  0.00    -0.017 A 
ATOM     66  C   UNL     1       4.848  -3.324  -5.708  1.00  0.00     0.036 A 
ATOM     67  C   UNL     1       8.106  -3.302  -3.976  1.00  0.00     0.009 A 
ATOM     68  C   UNL     1       6.135  -3.705  -5.316  1.00  0.00    -0.016 A 
ATOM     69  C   UNL     1       8.586  -4.575  -4.296  1.00  0.00     0.001 A 
ATOM     70  C   UNL     1       6.652  -4.957  -5.679  1.00  0.00     0.009 A 
ATOM     71  C   UNL     1       7.878  -5.387  -5.177  1.00  0.00     0.001 A 
BRANCH  64  72
ATOM     72  N   UNL     1       2.924  -1.844  -5.684  1.00  0.00    -0.279 N 
ATOM     73  H   UNL     1       2.245  -1.927  -4.976  1.00  0.00     0.180 HD
BRANCH  72  74
ATOM     74  S   UNL     1       2.468  -1.430  -7.262  1.00  0.00     0.263 S 
ATOM     75  O   UNL     1       1.038  -1.220  -7.263  1.00  0.00    -0.201 OA
ATOM     76  O   UNL     1       3.363  -0.378  -7.697  1.00  0.00    -0.201 OA
BRANCH  74  77
ATOM     77  C   UNL     1       2.825  -2.902  -8.182  1.00  0.00     0.101 A 
ATOM     78  C   UNL     1       3.880  -2.825  -9.106  1.00  0.00     0.023 A 
ATOM     79  C   UNL     1       2.242  -4.138  -7.880  1.00  0.00     0.038 A 
ATOM     80  C   UNL     1       4.406  -3.986  -9.666  1.00  0.00     0.001 A 
ATOM     81  C   UNL     1       2.782  -5.299  -8.451  1.00  0.00     0.017 A 
ATOM     82  Br  UNL     1       0.829  -4.396  -6.638  1.00  0.00    -0.049 Br
ATOM     83  C   UNL     1       3.870  -5.224  -9.323  1.00  0.00     0.001 A 
ENDBRANCH  74  77
ENDBRANCH  72  74
ENDBRANCH  64  72
ENDBRANCH  60  62
ENDBRANCH  59  60
ENDBRANCH  58  59
ENDBRANCH   1  58
TORSDOF 17
