REMARK SMILES NC(=O)c1ccc(N(CC(=O)OCCOCCOC(=O)c2ccc(-c3c4nc(c(-c5ccccc5)c5ccc([nH]5)c(-c5ccccc5)c5nc(c(-c6ccccc6)c6ccc3[nH]6)C=C5)C=C4)cc2)C2CCCC2)nn1
REMARK SMILES IDX 14 1 13 2 12 3 10 4 11 5 9 6 8 7 7 8 4 9 5 10 75 11 6 12
REMARK SMILES IDX 74 13 2 14 1 15 3 18 69 19 70 20 73 21 71 22 72 23 15 24
REMARK SMILES IDX 16 25 17 26 18 27 19 28 20 29 21 30 22 31 68 32 23 33 67 34
REMARK SMILES IDX 24 35 25 36 26 37 61 38 27 39 66 40 60 41 62 42 28 43 65 44
REMARK SMILES IDX 59 45 58 46 29 48 51 49 36 50 50 51 37 52 40 53 49 54 63 55
REMARK SMILES IDX 38 56 39 57 48 59 64 60 41 61 30 62 31 63 35 64 32 65 34 66
REMARK SMILES IDX 33 67 52 68 53 69 57 70 54 71 56 72 55 73 42 74 43 75 47 76
REMARK SMILES IDX 44 77 46 78 45 79
REMARK H PARENT 1 16 1 17 62 47 40 58
REMARK Flexibility Score: inf
ROOT
ATOM      1  C   UNL     1       5.763   5.813   6.567  1.00  0.00     0.202 C 
ENDROOT
BRANCH   1   2
ATOM      2  C   UNL     1       4.365   5.236   6.309  1.00  0.00     0.261 C 
BRANCH   2   3
ATOM      3  O   UNL     1       3.941   5.354   4.937  1.00  0.00    -0.462 OA
BRANCH   3   4
ATOM      4  C   UNL     1       2.681   5.850   4.764  1.00  0.00     0.325 C 
ATOM      5  O   UNL     1       1.933   6.165   5.687  1.00  0.00    -0.250 OA
BRANCH   4   6
ATOM      6  C   UNL     1       2.323   6.167   3.315  1.00  0.00     0.241 C 
BRANCH   6   7
ATOM      7  N   UNL     1       3.000   5.379   2.255  1.00  0.00    -0.341 N 
BRANCH   7   8
ATOM      8  C   UNL     1       2.309   4.257   1.834  1.00  0.00     0.152 A 
ATOM      9  C   UNL     1       0.854   2.017   1.094  1.00  0.00     0.150 A 
ATOM     10  C   UNL     1       1.683   2.606   0.164  1.00  0.00     0.040 A 
ATOM     11  N   UNL     1       0.725   2.520   2.333  1.00  0.00    -0.143 NA
ATOM     12  C   UNL     1       2.401   3.741   0.544  1.00  0.00     0.051 A 
ATOM     13  N   UNL     1       1.466   3.639   2.693  1.00  0.00    -0.132 NA
BRANCH   9  14
ATOM     14  C   UNL     1       0.073   0.798   0.764  1.00  0.00     0.269 C 
ATOM     15  N   UNL     1       0.739  -0.191   0.081  1.00  0.00    -0.364 N 
ATOM     16  H   UNL     1       0.271  -1.021  -0.165  1.00  0.00     0.160 HD
ATOM     17  H   UNL     1       1.685  -0.069  -0.163  1.00  0.00     0.160 HD
ATOM     18  O   UNL     1      -1.103   0.662   1.073  1.00  0.00    -0.268 OA
ENDBRANCH   9  14
ENDBRANCH   7   8
BRANCH   7  19
ATOM     19  C   UNL     1       4.160   5.996   1.617  1.00  0.00     0.084 C 
ATOM     20  C   UNL     1       5.276   5.058   1.173  1.00  0.00     0.025 C 
ATOM     21  C   UNL     1       3.818   6.840   0.390  1.00  0.00     0.025 C 
ATOM     22  C   UNL     1       6.093   5.930   0.230  1.00  0.00     0.002 C 
ATOM     23  C   UNL     1       5.074   6.817  -0.482  1.00  0.00     0.002 C 
ENDBRANCH   7  19
ENDBRANCH   6   7
ENDBRANCH   4   6
ENDBRANCH   3   4
ENDBRANCH   2   3
ENDBRANCH   1   2
BRANCH   1  24
ATOM     24  O   UNL     1       5.955   7.183   6.214  1.00  0.00    -0.374 OA
BRANCH  24  25
ATOM     25  C   UNL     1       6.061   7.486   4.822  1.00  0.00     0.202 C 
BRANCH  25  26
ATOM     26  C   UNL     1       7.298   6.919   4.116  1.00  0.00     0.261 C 
BRANCH  26  27
ATOM     27  O   UNL     1       7.229   5.484   4.013  1.00  0.00    -0.460 OA
BRANCH  27  28
ATOM     28  C   UNL     1       8.426   4.864   4.099  1.00  0.00     0.338 C 
ATOM     29  O   UNL     1       9.534   5.389   4.056  1.00  0.00    -0.246 OA
BRANCH  28  30
ATOM     30  C   UNL     1       8.242   3.441   4.428  1.00  0.00     0.060 A 
ATOM     31  C   UNL     1       8.651   3.008   5.695  1.00  0.00     0.016 A 
ATOM     32  C   UNL     1       7.797   2.522   3.476  1.00  0.00     0.016 A 
ATOM     33  C   UNL     1       8.670   1.645   5.993  1.00  0.00     0.010 A 
ATOM     34  C   UNL     1       7.815   1.153   3.779  1.00  0.00     0.010 A 
ATOM     35  C   UNL     1       8.291   0.704   5.024  1.00  0.00    -0.014 A 
BRANCH  35  36
ATOM     36  C   UNL     1       8.529  -0.740   5.285  1.00  0.00     0.031 A 
ATOM     37  C   UNL     1       9.756  -1.405   4.719  1.00  0.00     0.074 A 
ATOM     38  C   UNL     1       7.697  -1.444   6.074  1.00  0.00     0.049 A 
ATOM     39  N   UNL     1      10.196  -2.625   4.902  1.00  0.00    -0.248 NA
ATOM     40  C   UNL     1      10.601  -0.588   3.833  1.00  0.00     0.031 C 
ATOM     41  C   UNL     1       6.486  -0.924   6.704  1.00  0.00     0.029 A 
ATOM     42  N   UNL     1       7.760  -2.752   6.489  1.00  0.00    -0.354 N 
ATOM     43  C   UNL     1      11.369  -2.720   4.163  1.00  0.00     0.074 A 
ATOM     44  C   UNL     1      11.553  -1.447   3.498  1.00  0.00     0.031 C 
ATOM     45  C   UNL     1       5.924  -1.900   7.438  1.00  0.00     0.029 A 
ATOM     46  C   UNL     1       6.727  -3.116   7.316  1.00  0.00     0.049 A 
ATOM     47  H   UNL     1       8.478  -3.369   6.219  1.00  0.00     0.167 HD
ATOM     48  C   UNL     1      12.227  -3.763   4.056  1.00  0.00     0.031 A 
ATOM     49  C   UNL     1       6.457  -4.294   7.912  1.00  0.00     0.031 A 
ATOM     50  C   UNL     1      12.052  -5.037   4.701  1.00  0.00     0.049 A 
ATOM     51  C   UNL     1       7.395  -5.457   7.730  1.00  0.00     0.074 A 
ATOM     52  C   UNL     1      12.885  -6.143   4.667  1.00  0.00     0.029 A 
ATOM     53  N   UNL     1      10.967  -5.378   5.491  1.00  0.00    -0.354 N 
ATOM     54  N   UNL     1       8.524  -5.514   7.067  1.00  0.00    -0.248 NA
ATOM     55  C   UNL     1       7.022  -6.717   8.392  1.00  0.00     0.031 C 
ATOM     56  C   UNL     1      12.279  -7.170   5.398  1.00  0.00     0.029 A 
ATOM     57  C   UNL     1      11.093  -6.687   5.926  1.00  0.00     0.049 A 
ATOM     58  H   UNL     1      10.217  -4.779   5.710  1.00  0.00     0.167 HD
ATOM     59  C   UNL     1       9.007  -6.804   7.251  1.00  0.00     0.074 A 
ATOM     60  C   UNL     1       8.057  -7.492   8.100  1.00  0.00     0.031 C 
ATOM     61  C   UNL     1      10.139  -7.366   6.762  1.00  0.00     0.031 A 
BRANCH  48  62
ATOM     62  C   UNL     1      13.435  -3.573   3.183  1.00  0.00    -0.014 A 
ATOM     63  C   UNL     1      14.514  -2.779   3.603  1.00  0.00     0.009 A 
ATOM     64  C   UNL     1      13.512  -4.227   1.944  1.00  0.00     0.009 A 
ATOM     65  C   UNL     1      15.634  -2.620   2.784  1.00  0.00     0.001 A 
ATOM     66  C   UNL     1      14.642  -4.085   1.138  1.00  0.00     0.001 A 
ATOM     67  C   UNL     1      15.699  -3.275   1.554  1.00  0.00     0.000 A 
ENDBRANCH  48  62
BRANCH  49  68
ATOM     68  C   UNL     1       5.237  -4.440   8.746  1.00  0.00    -0.014 A 
ATOM     69  C   UNL     1       5.334  -4.553  10.142  1.00  0.00     0.009 A 
ATOM     70  C   UNL     1       3.970  -4.487   8.146  1.00  0.00     0.009 A 
ATOM     71  C   UNL     1       4.186  -4.731  10.917  1.00  0.00     0.001 A 
ATOM     72  C   UNL     1       2.822  -4.640   8.926  1.00  0.00     0.001 A 
ATOM     73  C   UNL     1       2.931  -4.770  10.309  1.00  0.00     0.000 A 
ENDBRANCH  49  68
BRANCH  61  74
ATOM     74  C   UNL     1      10.423  -8.790   7.149  1.00  0.00    -0.014 A 
ATOM     75  C   UNL     1       9.697  -9.853   6.588  1.00  0.00     0.009 A 
ATOM     76  C   UNL     1      11.450  -9.074   8.062  1.00  0.00     0.009 A 
ATOM     77  C   UNL     1       9.975 -11.170   6.959  1.00  0.00     0.001 A 
ATOM     78  C   UNL     1      11.741 -10.393   8.412  1.00  0.00     0.001 A 
ATOM     79  C   UNL     1      10.998 -11.439   7.868  1.00  0.00     0.000 A 
ENDBRANCH  61  74
ENDBRANCH  35  36
ENDBRANCH  28  30
ENDBRANCH  27  28
ENDBRANCH  26  27
ENDBRANCH  25  26
ENDBRANCH  24  25
ENDBRANCH   1  24
TORSDOF 18
