REMARK SMILES Cc1ccc(S(=O)(=O)N(C)c2cccc(C)c2C)cc1C(=O)OCCOCCOC(=O)c1ccc(-c2c3nc(c(-c4ccccc4)c4ccc([nH]4)c(-c4ccccc4)c4nc(c(-c5ccccc5)c5ccc2[nH]5)C=C4)C=C3)cc1
REMARK SMILES IDX 25 1 24 2 23 3 21 4 22 5 20 6 1 7 2 8 3 9 4 10 19 11 5 12
REMARK SMILES IDX 6 13 7 14 8 15 9 16 10 17 11 18 12 19 17 20 13 21 15 22
REMARK SMILES IDX 18 23 14 24 16 25 26 26 27 27 28 28 29 29 30 30 31 31 32 32
REMARK SMILES IDX 33 33 79 34 34 35 78 36 35 37 36 38 37 39 72 40 38 41 77 42
REMARK SMILES IDX 71 43 73 44 39 45 76 46 70 47 69 48 40 50 62 51 47 52 61 53
REMARK SMILES IDX 48 54 51 55 60 56 74 57 49 58 50 59 59 61 75 62 52 63 41 64
REMARK SMILES IDX 42 65 46 66 43 67 45 68 44 69 63 70 64 71 68 72 65 73 67 74
REMARK SMILES IDX 66 75 53 76 54 77 58 78 55 79 57 80 56 81
REMARK H PARENT 73 49 51 60
REMARK Flexibility Score: inf
ROOT
ATOM      1  C   UNL     1       2.244   2.301  -2.503  1.00  0.00     0.202 C 
ENDROOT
BRANCH   1   2
ATOM      2  C   UNL     1       2.804   2.267  -1.113  1.00  0.00     0.261 C 
BRANCH   2   3
ATOM      3  O   UNL     1       2.146   1.234  -0.380  1.00  0.00    -0.460 OA
BRANCH   3   4
ATOM      4  C   UNL     1       0.911   1.509   0.089  1.00  0.00     0.338 C 
ATOM      5  O   UNL     1       0.471   2.600   0.392  1.00  0.00    -0.246 OA
BRANCH   4   6
ATOM      6  C   UNL     1       0.075   0.291  -0.012  1.00  0.00     0.064 A 
ATOM      7  C   UNL     1       1.954  -1.519  -0.044  1.00  0.00     0.045 C 
ATOM      8  C   UNL     1       0.525  -1.043  -0.094  1.00  0.00    -0.036 A 
ATOM      9  C   UNL     1      -0.449  -2.049  -0.226  1.00  0.00     0.006 A 
ATOM     10  C   UNL     1      -1.813  -1.745  -0.236  1.00  0.00     0.022 A 
ATOM     11  C   UNL     1      -1.300   0.589  -0.071  1.00  0.00     0.038 A 
ATOM     12  C   UNL     1      -2.242  -0.419  -0.136  1.00  0.00     0.088 A 
BRANCH  12  13
ATOM     13  S   UNL     1      -3.985  -0.131   0.060  1.00  0.00     0.264 S 
ATOM     14  O   UNL     1      -4.617  -0.876  -1.013  1.00  0.00    -0.201 OA
ATOM     15  O   UNL     1      -4.245  -0.463   1.448  1.00  0.00    -0.201 OA
BRANCH  13  16
ATOM     16  N   UNL     1      -4.363   1.546  -0.179  1.00  0.00    -0.269 N 
ATOM     17  C   UNL     1      -3.730   2.528   0.749  1.00  0.00     0.164 C 
BRANCH  16  18
ATOM     18  C   UNL     1      -5.806   1.800  -0.297  1.00  0.00     0.055 A 
ATOM     19  C   UNL     1      -6.696   1.235   0.633  1.00  0.00     0.027 A 
ATOM     20  C   UNL     1      -6.279   2.809  -1.170  1.00  0.00    -0.024 A 
ATOM     21  C   UNL     1      -8.041   1.580   0.654  1.00  0.00     0.002 A 
ATOM     22  C   UNL     1      -7.650   3.178  -1.127  1.00  0.00    -0.046 A 
ATOM     23  C   UNL     1      -5.319   3.536  -2.079  1.00  0.00     0.047 C 
ATOM     24  C   UNL     1      -8.516   2.541  -0.224  1.00  0.00     0.004 A 
ATOM     25  C   UNL     1      -8.223   4.259  -2.004  1.00  0.00     0.044 C 
ENDBRANCH  16  18
ENDBRANCH  13  16
ENDBRANCH  12  13
ENDBRANCH   4   6
ENDBRANCH   3   4
ENDBRANCH   2   3
ENDBRANCH   1   2
BRANCH   1  26
ATOM     26  O   UNL     1       1.038   3.050  -2.410  1.00  0.00    -0.374 OA
BRANCH  26  27
ATOM     27  C   UNL     1       0.371   3.284  -3.636  1.00  0.00     0.202 C 
BRANCH  27  28
ATOM     28  C   UNL     1       1.245   4.013  -4.667  1.00  0.00     0.261 C 
BRANCH  28  29
ATOM     29  O   UNL     1       1.649   5.295  -4.136  1.00  0.00    -0.460 OA
BRANCH  29  30
ATOM     30  C   UNL     1       2.927   5.393  -3.676  1.00  0.00     0.338 C 
ATOM     31  O   UNL     1       3.923   4.982  -4.252  1.00  0.00    -0.246 OA
BRANCH  30  32
ATOM     32  C   UNL     1       2.910   5.797  -2.238  1.00  0.00     0.060 A 
ATOM     33  C   UNL     1       4.079   5.685  -1.457  1.00  0.00     0.016 A 
ATOM     34  C   UNL     1       1.674   5.948  -1.614  1.00  0.00     0.016 A 
ATOM     35  C   UNL     1       3.987   5.567  -0.059  1.00  0.00     0.010 A 
ATOM     36  C   UNL     1       1.583   5.727  -0.257  1.00  0.00     0.010 A 
ATOM     37  C   UNL     1       2.726   5.504   0.530  1.00  0.00    -0.014 A 
BRANCH  37  38
ATOM     38  C   UNL     1       2.421   5.080   1.903  1.00  0.00     0.031 A 
ATOM     39  C   UNL     1       1.639   5.996   2.763  1.00  0.00     0.074 A 
ATOM     40  C   UNL     1       2.551   3.779   2.269  1.00  0.00     0.049 A 
ATOM     41  N   UNL     1       1.383   5.761   4.000  1.00  0.00    -0.248 NA
ATOM     42  C   UNL     1       1.099   7.283   2.321  1.00  0.00     0.031 C 
ATOM     43  C   UNL     1       1.811   3.042   3.298  1.00  0.00     0.029 A 
ATOM     44  N   UNL     1       3.422   2.813   1.768  1.00  0.00    -0.354 N 
ATOM     45  C   UNL     1       0.398   6.627   4.398  1.00  0.00     0.074 A 
ATOM     46  C   UNL     1       0.344   7.631   3.368  1.00  0.00     0.031 C 
ATOM     47  C   UNL     1       2.408   1.859   3.530  1.00  0.00     0.029 A 
ATOM     48  C   UNL     1       3.629   1.830   2.745  1.00  0.00     0.049 A 
ATOM     49  H   UNL     1       3.827   2.820   0.871  1.00  0.00     0.167 HD
ATOM     50  C   UNL     1      -0.333   6.300   5.499  1.00  0.00     0.031 A 
ATOM     51  C   UNL     1       4.888   1.559   3.179  1.00  0.00     0.031 A 
ATOM     52  C   UNL     1       0.235   5.123   6.175  1.00  0.00     0.049 A 
ATOM     53  C   UNL     1       4.980   2.030   4.603  1.00  0.00     0.074 A 
ATOM     54  C   UNL     1      -0.170   3.805   6.303  1.00  0.00     0.029 A 
ATOM     55  N   UNL     1       1.579   5.155   6.560  1.00  0.00    -0.354 N 
ATOM     56  N   UNL     1       4.178   2.944   5.084  1.00  0.00    -0.248 NA
ATOM     57  C   UNL     1       5.842   1.446   5.624  1.00  0.00     0.031 C 
ATOM     58  C   UNL     1       0.979   3.033   6.658  1.00  0.00     0.029 A 
ATOM     59  C   UNL     1       2.067   3.884   6.794  1.00  0.00     0.049 A 
ATOM     60  H   UNL     1       2.110   5.979   6.652  1.00  0.00     0.167 HD
ATOM     61  C   UNL     1       4.289   2.971   6.435  1.00  0.00     0.074 A 
ATOM     62  C   UNL     1       5.395   2.073   6.728  1.00  0.00     0.031 C 
ATOM     63  C   UNL     1       3.448   3.684   7.233  1.00  0.00     0.031 A 
BRANCH  50  64
ATOM     64  C   UNL     1      -1.656   6.931   5.873  1.00  0.00    -0.014 A 
ATOM     65  C   UNL     1      -2.341   6.476   7.013  1.00  0.00     0.009 A 
ATOM     66  C   UNL     1      -2.319   7.921   5.121  1.00  0.00     0.009 A 
ATOM     67  C   UNL     1      -3.598   6.985   7.382  1.00  0.00     0.001 A 
ATOM     68  C   UNL     1      -3.562   8.454   5.496  1.00  0.00     0.001 A 
ATOM     69  C   UNL     1      -4.204   7.983   6.628  1.00  0.00     0.000 A 
ENDBRANCH  50  64
BRANCH  51  70
ATOM     70  C   UNL     1       5.885   1.637   2.064  1.00  0.00    -0.014 A 
ATOM     71  C   UNL     1       5.855   0.582   1.120  1.00  0.00     0.009 A 
ATOM     72  C   UNL     1       6.429   2.865   1.652  1.00  0.00     0.009 A 
ATOM     73  C   UNL     1       6.225   0.787  -0.216  1.00  0.00     0.001 A 
ATOM     74  C   UNL     1       6.793   3.067   0.308  1.00  0.00     0.001 A 
ATOM     75  C   UNL     1       6.659   2.042  -0.630  1.00  0.00     0.000 A 
ENDBRANCH  51  70
BRANCH  63  76
ATOM     76  C   UNL     1       3.894   4.238   8.552  1.00  0.00    -0.014 A 
ATOM     77  C   UNL     1       5.248   4.407   8.879  1.00  0.00     0.009 A 
ATOM     78  C   UNL     1       2.944   4.811   9.418  1.00  0.00     0.009 A 
ATOM     79  C   UNL     1       5.635   5.068  10.045  1.00  0.00     0.001 A 
ATOM     80  C   UNL     1       3.329   5.526  10.551  1.00  0.00     0.001 A 
ATOM     81  C   UNL     1       4.675   5.639  10.873  1.00  0.00     0.000 A 
ENDBRANCH  63  76
ENDBRANCH  37  38
ENDBRANCH  30  32
ENDBRANCH  29  30
ENDBRANCH  28  29
ENDBRANCH  27  28
ENDBRANCH  26  27
ENDBRANCH   1  26
TORSDOF 17
