REMARK SMILES C[C@@]1(c2ccccc2C(=O)OCCOCCOC(=O)c2ccc(-c3c4nc(c(-c5ccccc5)c5ccc([nH]5)c(-c5ccccc5)c5nc(c(-c6ccccc6)c6ccc3[nH]6)C=C5)C=C4)cc2)NN=C(c2ccccc2)S1
REMARK SMILES IDX 14 1 13 2 12 3 11 4 9 5 10 6 8 7 3 8 4 9 5 10 7 11 6 12 2 13
REMARK SMILES IDX 1 14 68 15 77 16 69 17 70 19 71 20 72 21 76 22 73 23 75 24
REMARK SMILES IDX 74 25 15 26 16 27 17 28 18 29 19 30 20 31 21 32 67 33 22 34
REMARK SMILES IDX 66 35 23 36 24 37 25 38 60 39 26 40 65 41 59 42 61 43 27 44
REMARK SMILES IDX 64 45 58 46 57 47 28 49 50 50 35 51 49 52 36 53 39 54 48 55
REMARK SMILES IDX 62 56 37 57 38 58 47 60 63 61 40 62 29 63 30 64 34 65 31 66
REMARK SMILES IDX 33 67 32 68 51 69 52 70 56 71 53 72 55 73 54 74 41 75 42 76
REMARK SMILES IDX 46 77 43 78 45 79 44 80
REMARK H PARENT 68 18 61 48 39 59
REMARK Flexibility Score: inf
ROOT
ATOM      1  O   UNL     1      -3.240   3.744  -0.986  1.00  0.00    -0.374 OA
ENDROOT
BRANCH   1   2
ATOM      2  C   UNL     1      -2.477   3.745   0.228  1.00  0.00     0.202 C 
BRANCH   2   3
ATOM      3  C   UNL     1      -2.639   2.498   1.119  1.00  0.00     0.261 C 
BRANCH   3   4
ATOM      4  O   UNL     1      -1.594   1.510   0.940  1.00  0.00    -0.460 OA
BRANCH   4   5
ATOM      5  C   UNL     1      -1.857   0.523   0.054  1.00  0.00     0.338 C 
ATOM      6  O   UNL     1      -2.931   0.369  -0.515  1.00  0.00    -0.246 OA
BRANCH   5   7
ATOM      7  C   UNL     1      -0.747  -0.480  -0.096  1.00  0.00     0.066 A 
ATOM      8  C   UNL     1       0.633  -0.317   0.169  1.00  0.00     0.004 A 
ATOM      9  C   UNL     1       1.444  -1.488   0.182  1.00  0.00     0.008 A 
ATOM     10  C   UNL     1       0.990  -2.697  -0.338  1.00  0.00     0.000 A 
ATOM     11  C   UNL     1      -1.176  -1.714  -0.639  1.00  0.00     0.016 A 
ATOM     12  C   UNL     1      -0.306  -2.788  -0.813  1.00  0.00     0.001 A 
BRANCH   8  13
ATOM     13  C   UNL     1       1.428   1.009   0.081  1.00  0.00     0.129 C 
ATOM     14  C   UNL     1       2.230   1.312   1.345  1.00  0.00     0.054 C 
ATOM     15  N   UNL     1       0.661   2.200  -0.287  1.00  0.00    -0.288 NA
ATOM     16  S   UNL     1       2.456   0.857  -1.543  1.00  0.00    -0.070 SA
ATOM     17  N   UNL     1       0.263   2.203  -1.583  1.00  0.00    -0.171 NA
ATOM     18  H   UNL     1       0.454   2.926   0.344  1.00  0.00     0.185 HD
ATOM     19  C   UNL     1       1.015   1.454  -2.328  1.00  0.00     0.126 C 
BRANCH  19  20
ATOM     20  C   UNL     1       0.549   1.083  -3.671  1.00  0.00     0.009 A 
ATOM     21  C   UNL     1       1.235   1.458  -4.821  1.00  0.00     0.011 A 
ATOM     22  C   UNL     1      -0.783   0.633  -3.764  1.00  0.00     0.011 A 
ATOM     23  C   UNL     1       0.550   1.465  -6.044  1.00  0.00     0.001 A 
ATOM     24  C   UNL     1      -1.462   0.654  -4.978  1.00  0.00     0.001 A 
ATOM     25  C   UNL     1      -0.798   1.095  -6.117  1.00  0.00     0.000 A 
ENDBRANCH  19  20
ENDBRANCH   8  13
ENDBRANCH   5   7
ENDBRANCH   4   5
ENDBRANCH   3   4
ENDBRANCH   2   3
ENDBRANCH   1   2
BRANCH   1  26
ATOM     26  C   UNL     1      -2.592   3.136  -2.103  1.00  0.00     0.202 C 
BRANCH  26  27
ATOM     27  C   UNL     1      -1.742   4.086  -2.964  1.00  0.00     0.261 C 
BRANCH  27  28
ATOM     28  O   UNL     1      -0.734   4.763  -2.196  1.00  0.00    -0.460 OA
BRANCH  28  29
ATOM     29  C   UNL     1      -1.039   6.030  -1.870  1.00  0.00     0.338 C 
ATOM     30  O   UNL     1      -1.945   6.718  -2.320  1.00  0.00    -0.246 OA
BRANCH  29  31
ATOM     31  C   UNL     1      -0.214   6.466  -0.731  1.00  0.00     0.060 A 
ATOM     32  C   UNL     1      -0.897   7.118   0.299  1.00  0.00     0.016 A 
ATOM     33  C   UNL     1       1.177   6.321  -0.686  1.00  0.00     0.016 A 
ATOM     34  C   UNL     1      -0.188   7.719   1.327  1.00  0.00     0.010 A 
ATOM     35  C   UNL     1       1.892   6.921   0.359  1.00  0.00     0.010 A 
ATOM     36  C   UNL     1       1.212   7.673   1.335  1.00  0.00    -0.014 A 
BRANCH  36  37
ATOM     37  C   UNL     1       1.923   8.573   2.275  1.00  0.00     0.031 A 
ATOM     38  C   UNL     1       2.491   9.866   1.755  1.00  0.00     0.074 A 
ATOM     39  C   UNL     1       1.925   8.309   3.594  1.00  0.00     0.049 A 
ATOM     40  N   UNL     1       3.035  10.857   2.414  1.00  0.00    -0.248 NA
ATOM     41  C   UNL     1       2.428  10.078   0.299  1.00  0.00     0.031 C 
ATOM     42  C   UNL     1       1.343   7.120   4.217  1.00  0.00     0.029 A 
ATOM     43  N   UNL     1       2.402   9.043   4.649  1.00  0.00    -0.354 N 
ATOM     44  C   UNL     1       3.375  11.806   1.457  1.00  0.00     0.074 A 
ATOM     45  C   UNL     1       3.016  11.258   0.169  1.00  0.00     0.031 C 
ATOM     46  C   UNL     1       1.475   7.218   5.550  1.00  0.00     0.029 A 
ATOM     47  C   UNL     1       2.180   8.457   5.871  1.00  0.00     0.049 A 
ATOM     48  H   UNL     1       2.860   9.908   4.541  1.00  0.00     0.167 HD
ATOM     49  C   UNL     1       3.923  13.032   1.635  1.00  0.00     0.031 A 
ATOM     50  C   UNL     1       2.513   8.872   7.108  1.00  0.00     0.031 A 
ATOM     51  C   UNL     1       4.287  13.569   2.919  1.00  0.00     0.049 A 
ATOM     52  C   UNL     1       3.208  10.197   7.270  1.00  0.00     0.074 A 
ATOM     53  C   UNL     1       4.853  14.798   3.211  1.00  0.00     0.029 A 
ATOM     54  N   UNL     1       4.127  12.904   4.125  1.00  0.00    -0.354 N 
ATOM     55  N   UNL     1       3.510  11.090   6.358  1.00  0.00    -0.248 NA
ATOM     56  C   UNL     1       3.598  10.575   8.635  1.00  0.00     0.031 C 
ATOM     57  C   UNL     1       5.095  14.849   4.587  1.00  0.00     0.029 A 
ATOM     58  C   UNL     1       4.614  13.683   5.161  1.00  0.00     0.049 A 
ATOM     59  H   UNL     1       3.726  12.011   4.229  1.00  0.00     0.167 HD
ATOM     60  C   UNL     1       4.100  12.146   7.041  1.00  0.00     0.074 A 
ATOM     61  C   UNL     1       4.094  11.790   8.445  1.00  0.00     0.031 C 
ATOM     62  C   UNL     1       4.602  13.307   6.552  1.00  0.00     0.031 A 
BRANCH  49  63
ATOM     63  C   UNL     1       4.200  13.855   0.407  1.00  0.00    -0.014 A 
ATOM     64  C   UNL     1       3.160  14.414  -0.354  1.00  0.00     0.009 A 
ATOM     65  C   UNL     1       5.527  14.100   0.021  1.00  0.00     0.009 A 
ATOM     66  C   UNL     1       3.444  15.169  -1.495  1.00  0.00     0.001 A 
ATOM     67  C   UNL     1       5.809  14.882  -1.101  1.00  0.00     0.001 A 
ATOM     68  C   UNL     1       4.768  15.407  -1.864  1.00  0.00     0.000 A 
ENDBRANCH  49  63
BRANCH  50  69
ATOM     69  C   UNL     1       2.216   8.016   8.288  1.00  0.00    -0.014 A 
ATOM     70  C   UNL     1       1.297   8.423   9.266  1.00  0.00     0.009 A 
ATOM     71  C   UNL     1       2.876   6.786   8.450  1.00  0.00     0.009 A 
ATOM     72  C   UNL     1       1.066   7.630  10.394  1.00  0.00     0.001 A 
ATOM     73  C   UNL     1       2.618   5.980   9.560  1.00  0.00     0.001 A 
ATOM     74  C   UNL     1       1.722   6.408  10.537  1.00  0.00     0.000 A 
ENDBRANCH  50  69
BRANCH  62  75
ATOM     75  C   UNL     1       5.152  14.291   7.547  1.00  0.00    -0.014 A 
ATOM     76  C   UNL     1       6.353  14.046   8.232  1.00  0.00     0.009 A 
ATOM     77  C   UNL     1       4.478  15.502   7.771  1.00  0.00     0.009 A 
ATOM     78  C   UNL     1       6.844  14.977   9.150  1.00  0.00     0.001 A 
ATOM     79  C   UNL     1       4.989  16.445   8.662  1.00  0.00     0.001 A 
ATOM     80  C   UNL     1       6.165  16.177   9.359  1.00  0.00     0.000 A 
ENDBRANCH  62  75
ENDBRANCH  36  37
ENDBRANCH  29  31
ENDBRANCH  28  29
ENDBRANCH  27  28
ENDBRANCH  26  27
ENDBRANCH   1  26
TORSDOF 16
