REMARK SMILES CCc1nc(COC)cc(N2CCCC[C@H]2C(=O)OCCOCCOC(=O)c2ccc(-c3c4nc(c(-c5ccccc5)c5ccc([nH]5)c(-c5ccccc5)c5nc(c(-c6ccccc6)c6ccc3[nH]6)C=C5)C=C4)cc2)n1
REMARK SMILES IDX 21 1 20 2 19 3 17 4 18 5 16 6 11 7 12 8 13 9 15 10 14 11
REMARK SMILES IDX 10 12 3 13 4 14 76 15 5 16 9 17 2 18 1 19 6 20 7 21 8 22
REMARK SMILES IDX 22 23 23 24 24 25 25 26 26 27 27 28 28 29 29 30 75 31 30 32
REMARK SMILES IDX 74 33 31 34 32 35 33 36 68 37 34 38 73 39 67 40 69 41 35 42
REMARK SMILES IDX 72 43 66 44 65 45 36 47 58 48 43 49 57 50 44 51 47 52 56 53
REMARK SMILES IDX 70 54 45 55 46 56 55 58 71 59 48 60 37 61 38 62 42 63 39 64
REMARK SMILES IDX 41 65 40 66 59 67 60 68 64 69 61 70 63 71 62 72 49 73 50 74
REMARK SMILES IDX 54 75 51 76 53 77 52 78
REMARK H PARENT 69 46 47 57
REMARK Flexibility Score: inf
ROOT
ATOM      1  C   UNL     1       2.493  -6.542  -7.552  1.00  0.00     0.202 C 
ENDROOT
BRANCH   1   2
ATOM      2  C   UNL     1       1.471  -5.428  -7.301  1.00  0.00     0.261 C 
BRANCH   2   3
ATOM      3  O   UNL     1       1.588  -4.873  -5.986  1.00  0.00    -0.462 OA
BRANCH   3   4
ATOM      4  C   UNL     1       0.540  -5.146  -5.148  1.00  0.00     0.328 C 
ATOM      5  O   UNL     1      -0.500  -5.691  -5.495  1.00  0.00    -0.250 OA
BRANCH   4   6
ATOM      6  C   UNL     1       0.861  -4.681  -3.717  1.00  0.00     0.193 C 
ATOM      7  N   UNL     1       0.025  -3.550  -3.314  1.00  0.00    -0.343 N 
ATOM      8  C   UNL     1      -1.404  -3.778  -3.125  1.00  0.00     0.119 C 
ATOM      9  C   UNL     1      -1.654  -4.959  -2.188  1.00  0.00     0.022 C 
ATOM     10  C   UNL     1       0.669  -5.820  -2.702  1.00  0.00     0.037 C 
ATOM     11  C   UNL     1      -0.800  -6.187  -2.494  1.00  0.00     0.005 C 
BRANCH   7  12
ATOM     12  C   UNL     1       0.489  -2.255  -3.348  1.00  0.00     0.133 A 
ATOM     13  C   UNL     1       0.627  -0.188  -2.337  1.00  0.00     0.130 A 
ATOM     14  N   UNL     1       1.381   0.341  -3.313  1.00  0.00    -0.235 NA
ATOM     15  N   UNL     1       0.144  -1.444  -2.336  1.00  0.00    -0.216 NA
ATOM     16  C   UNL     1       1.673  -0.465  -4.351  1.00  0.00     0.072 A 
ATOM     17  C   UNL     1       1.276  -1.789  -4.384  1.00  0.00     0.073 A 
BRANCH  13  18
ATOM     18  C   UNL     1       0.297   0.686  -1.159  1.00  0.00     0.074 C 
ATOM     19  C   UNL     1       0.932   0.171   0.123  1.00  0.00     0.012 C 
ENDBRANCH  13  18
BRANCH  16  20
ATOM     20  C   UNL     1       2.385   0.139  -5.542  1.00  0.00     0.216 C 
BRANCH  20  21
ATOM     21  O   UNL     1       1.591   1.090  -6.263  1.00  0.00    -0.378 OA
ATOM     22  C   UNL     1       0.418   0.533  -6.840  1.00  0.00     0.195 C 
ENDBRANCH  20  21
ENDBRANCH  16  20
ENDBRANCH   7  12
ENDBRANCH   4   6
ENDBRANCH   3   4
ENDBRANCH   2   3
ENDBRANCH   1   2
BRANCH   1  23
ATOM     23  O   UNL     1       2.560  -7.586  -6.586  1.00  0.00    -0.374 OA
BRANCH  23  24
ATOM     24  C   UNL     1       3.204  -7.319  -5.339  1.00  0.00     0.202 C 
BRANCH  24  25
ATOM     25  C   UNL     1       4.710  -7.042  -5.360  1.00  0.00     0.261 C 
BRANCH  25  26
ATOM     26  O   UNL     1       5.014  -5.768  -5.961  1.00  0.00    -0.460 OA
BRANCH  26  27
ATOM     27  C   UNL     1       5.839  -5.833  -7.029  1.00  0.00     0.338 C 
ATOM     28  O   UNL     1       6.384  -6.832  -7.489  1.00  0.00    -0.246 OA
BRANCH  27  29
ATOM     29  C   UNL     1       5.884  -4.540  -7.726  1.00  0.00     0.060 A 
ATOM     30  C   UNL     1       5.486  -4.514  -9.068  1.00  0.00     0.016 A 
ATOM     31  C   UNL     1       6.437  -3.409  -7.122  1.00  0.00     0.016 A 
ATOM     32  C   UNL     1       5.700  -3.373  -9.834  1.00  0.00     0.010 A 
ATOM     33  C   UNL     1       6.662  -2.266  -7.897  1.00  0.00     0.010 A 
ATOM     34  C   UNL     1       6.337  -2.262  -9.265  1.00  0.00    -0.014 A 
BRANCH  34  35
ATOM     35  C   UNL     1       6.819  -1.181 -10.156  1.00  0.00     0.031 A 
ATOM     36  C   UNL     1       8.246  -1.214 -10.633  1.00  0.00     0.074 A 
ATOM     37  C   UNL     1       5.983  -0.222 -10.587  1.00  0.00     0.049 A 
ATOM     38  N   UNL     1       8.867  -0.398 -11.446  1.00  0.00    -0.248 NA
ATOM     39  C   UNL     1       9.082  -2.317 -10.130  1.00  0.00     0.031 C 
ATOM     40  C   UNL     1       4.568  -0.113 -10.239  1.00  0.00     0.029 A 
ATOM     41  N   UNL     1       6.210   0.840 -11.425  1.00  0.00    -0.354 N 
ATOM     42  C   UNL     1      10.162  -0.889 -11.554  1.00  0.00     0.074 A 
ATOM     43  C   UNL     1      10.248  -2.054 -10.700  1.00  0.00     0.031 C 
ATOM     44  C   UNL     1       4.048   0.957 -10.865  1.00  0.00     0.029 A 
ATOM     45  C   UNL     1       5.099   1.619 -11.635  1.00  0.00     0.049 A 
ATOM     46  H   UNL     1       7.085   1.026 -11.836  1.00  0.00     0.167 HD
ATOM     47  C   UNL     1      11.188  -0.419 -12.303  1.00  0.00     0.031 A 
ATOM     48  C   UNL     1       4.953   2.743 -12.361  1.00  0.00     0.031 A 
ATOM     49  C   UNL     1      11.113   0.749 -13.137  1.00  0.00     0.049 A 
ATOM     50  C   UNL     1       6.133   3.297 -13.112  1.00  0.00     0.074 A 
ATOM     51  C   UNL     1      12.097   1.306 -13.936  1.00  0.00     0.029 A 
ATOM     52  N   UNL     1       9.988   1.547 -13.271  1.00  0.00    -0.354 N 
ATOM     53  N   UNL     1       7.345   2.812 -13.223  1.00  0.00    -0.248 NA
ATOM     54  C   UNL     1       5.918   4.555 -13.844  1.00  0.00     0.031 C 
ATOM     55  C   UNL     1      11.581   2.469 -14.517  1.00  0.00     0.029 A 
ATOM     56  C   UNL     1      10.260   2.607 -14.119  1.00  0.00     0.049 A 
ATOM     57  H   UNL     1       9.124   1.385 -12.829  1.00  0.00     0.167 HD
ATOM     58  C   UNL     1       8.030   3.687 -14.057  1.00  0.00     0.074 A 
ATOM     59  C   UNL     1       7.094   4.728 -14.432  1.00  0.00     0.031 C 
ATOM     60  C   UNL     1       9.317   3.633 -14.479  1.00  0.00     0.031 A 
BRANCH  47  61
ATOM     61  C   UNL     1      12.493  -1.160 -12.220  1.00  0.00    -0.014 A 
ATOM     62  C   UNL     1      12.654  -2.417 -12.824  1.00  0.00     0.009 A 
ATOM     63  C   UNL     1      13.578  -0.588 -11.540  1.00  0.00     0.009 A 
ATOM     64  C   UNL     1      13.868  -3.101 -12.718  1.00  0.00     0.001 A 
ATOM     65  C   UNL     1      14.797  -1.263 -11.457  1.00  0.00     0.001 A 
ATOM     66  C   UNL     1      14.938  -2.522 -12.037  1.00  0.00     0.000 A 
ENDBRANCH  47  61
BRANCH  48  67
ATOM     67  C   UNL     1       3.635   3.427 -12.413  1.00  0.00    -0.014 A 
ATOM     68  C   UNL     1       2.873   3.419 -13.590  1.00  0.00     0.009 A 
ATOM     69  C   UNL     1       3.140   4.102 -11.286  1.00  0.00     0.009 A 
ATOM     70  C   UNL     1       1.649   4.091 -13.644  1.00  0.00     0.001 A 
ATOM     71  C   UNL     1       1.905   4.751 -11.336  1.00  0.00     0.001 A 
ATOM     72  C   UNL     1       1.165   4.752 -12.516  1.00  0.00     0.000 A 
ENDBRANCH  48  67
BRANCH  60  73
ATOM     73  C   UNL     1       9.777   4.710 -15.419  1.00  0.00    -0.014 A 
ATOM     74  C   UNL     1      10.029   6.014 -14.965  1.00  0.00     0.009 A 
ATOM     75  C   UNL     1      10.000   4.404 -16.771  1.00  0.00     0.009 A 
ATOM     76  C   UNL     1      10.467   6.997 -15.855  1.00  0.00     0.001 A 
ATOM     77  C   UNL     1      10.462   5.382 -17.652  1.00  0.00     0.001 A 
ATOM     78  C   UNL     1      10.686   6.680 -17.195  1.00  0.00     0.000 A 
ENDBRANCH  60  73
ENDBRANCH  34  35
ENDBRANCH  27  29
ENDBRANCH  26  27
ENDBRANCH  25  26
ENDBRANCH  24  25
ENDBRANCH  23  24
ENDBRANCH   1  23
TORSDOF 18
