REMARK SMILES CN(C)S(=O)(=O)c1ccc(-n2c(CCC(=O)OCCOCCOC(=O)c3ccc(-c4c5nc(c(-c6ccccc6)c6ccc([nH]6)c(-c6ccccc6)c6nc(c(-c7ccccc7)c7ccc4[nH]7)C=C6)C=C5)cc3)ccc2-c2ccc(F)cc2)cc1
REMARK SMILES IDX 18 1 17 2 15 3 16 4 14 5 13 6 12 7 11 8 76 9 74 10 75 11
REMARK SMILES IDX 10 12 7 13 8 14 85 15 9 16 84 17 4 18 5 19 6 20 2 21 1 22
REMARK SMILES IDX 3 23 77 24 78 25 83 26 79 27 82 28 80 29 81 30 19 31 20 32
REMARK SMILES IDX 21 33 22 34 23 35 24 36 25 37 26 38 27 39 73 40 28 41 72 42
REMARK SMILES IDX 29 43 30 44 31 45 66 46 32 47 71 48 65 49 67 50 33 51 70 52
REMARK SMILES IDX 64 53 63 54 34 56 56 57 41 58 55 59 42 60 45 61 54 62 68 63
REMARK SMILES IDX 43 64 44 65 53 67 69 68 46 69 35 70 36 71 40 72 37 73 39 74
REMARK SMILES IDX 38 75 57 76 58 77 62 78 59 79 61 80 60 81 47 82 48 83 52 84
REMARK SMILES IDX 49 85 51 86 50 87
REMARK H PARENT 67 55 45 66
REMARK Flexibility Score: inf
ROOT
ATOM      1  C   UNL     1       2.015  -6.453  -3.366  1.00  0.00     0.261 C 
ENDROOT
BRANCH   1   2
ATOM      2  O   UNL     1       1.798  -7.825  -2.920  1.00  0.00    -0.463 OA
BRANCH   2   3
ATOM      3  C   UNL     1       2.811  -8.421  -2.227  1.00  0.00     0.306 C 
ATOM      4  O   UNL     1       3.995  -8.132  -2.375  1.00  0.00    -0.252 OA
BRANCH   3   5
ATOM      5  C   UNL     1       2.357  -9.416  -1.150  1.00  0.00     0.129 C 
BRANCH   5   6
ATOM      6  C   UNL     1       1.094  -9.151  -0.314  1.00  0.00     0.066 C 
BRANCH   6   7
ATOM      7  C   UNL     1      -0.145  -9.102  -1.129  1.00  0.00     0.024 A 
ATOM      8  N   UNL     1      -0.637  -7.963  -1.758  1.00  0.00    -0.314 N 
ATOM      9  C   UNL     1      -1.657  -8.399  -2.639  1.00  0.00     0.053 A 
ATOM     10  C   UNL     1      -1.002 -10.154  -1.382  1.00  0.00     0.024 A 
ATOM     11  C   UNL     1      -1.936  -9.721  -2.332  1.00  0.00     0.029 A 
BRANCH   8  12
ATOM     12  C   UNL     1      -0.141  -6.620  -1.612  1.00  0.00     0.046 A 
ATOM     13  C   UNL     1       0.958  -3.179  -1.649  1.00  0.00     0.082 A 
ATOM     14  C   UNL     1      -0.656  -3.621  -2.246  1.00  0.00     0.024 A 
ATOM     15  C   UNL     1       2.114  -4.440  -1.085  1.00  0.00     0.024 A 
ATOM     16  C   UNL     1      -1.219  -5.312  -2.209  1.00  0.00     0.028 A 
ATOM     17  C   UNL     1       1.542  -6.179  -1.005  1.00  0.00     0.028 A 
BRANCH  13  18
ATOM     18  S   UNL     1       1.401  -1.473  -1.642  1.00  0.00     0.242 S 
ATOM     19  O   UNL     1       0.675  -0.841  -2.742  1.00  0.00    -0.207 OA
ATOM     20  O   UNL     1       2.830  -1.411  -1.568  1.00  0.00    -0.207 OA
BRANCH  18  21
ATOM     21  N   UNL     1       0.748  -0.862  -0.181  1.00  0.00    -0.204 NA
ATOM     22  C   UNL     1       1.284   0.464   0.197  1.00  0.00     0.124 C 
ATOM     23  C   UNL     1      -0.731  -0.851  -0.099  1.00  0.00     0.124 C 
ENDBRANCH  18  21
ENDBRANCH  13  18
ENDBRANCH   8  12
BRANCH   9  24
ATOM     24  C   UNL     1      -2.267  -7.662  -3.761  1.00  0.00    -0.001 A 
ATOM     25  C   UNL     1      -3.657  -7.462  -3.797  1.00  0.00     0.013 A 
ATOM     26  C   UNL     1      -1.488  -7.162  -4.818  1.00  0.00     0.013 A 
ATOM     27  C   UNL     1      -4.241  -6.704  -4.817  1.00  0.00     0.040 A 
ATOM     28  C   UNL     1      -2.071  -6.393  -5.831  1.00  0.00     0.040 A 
ATOM     29  C   UNL     1      -3.440  -6.162  -5.813  1.00  0.00     0.123 A 
ATOM     30  F   UNL     1      -3.997  -5.407  -6.770  1.00  0.00    -0.207 F 
ENDBRANCH   9  24
ENDBRANCH   6   7
ENDBRANCH   5   6
ENDBRANCH   3   5
ENDBRANCH   2   3
ENDBRANCH   1   2
BRANCH   1  31
ATOM     31  C   UNL     1       1.005  -5.160  -2.768  1.00  0.00     0.202 C 
BRANCH  31  32
ATOM     32  O   UNL     1       0.186  -4.843  -0.968  1.00  0.00    -0.374 OA
BRANCH  32  33
ATOM     33  C   UNL     1       0.447  -4.774   0.583  1.00  0.00     0.202 C 
BRANCH  33  34
ATOM     34  C   UNL     1      -0.666  -5.390   1.439  1.00  0.00     0.261 C 
BRANCH  34  35
ATOM     35  O   UNL     1      -1.870  -5.571   0.734  1.00  0.00    -0.460 OA
BRANCH  35  36
ATOM     36  C   UNL     1      -2.512  -4.413   0.534  1.00  0.00     0.338 C 
ATOM     37  O   UNL     1      -2.193  -3.292   0.907  1.00  0.00    -0.246 OA
BRANCH  36  38
ATOM     38  C   UNL     1      -3.805  -4.704  -0.052  1.00  0.00     0.060 A 
ATOM     39  C   UNL     1      -4.426  -3.682  -0.773  1.00  0.00     0.016 A 
ATOM     40  C   UNL     1      -4.477  -5.837   0.421  1.00  0.00     0.016 A 
ATOM     41  C   UNL     1      -5.793  -3.711  -0.874  1.00  0.00     0.010 A 
ATOM     42  C   UNL     1      -5.843  -5.826   0.392  1.00  0.00     0.010 A 
ATOM     43  C   UNL     1      -6.479  -4.742  -0.219  1.00  0.00    -0.014 A 
BRANCH  43  44
ATOM     44  C   UNL     1      -7.932  -4.758  -0.301  1.00  0.00     0.031 A 
ATOM     45  C   UNL     1      -8.310  -5.524  -1.600  1.00  0.00     0.074 A 
ATOM     46  C   UNL     1      -8.537  -4.074   0.729  1.00  0.00     0.049 A 
ATOM     47  N   UNL     1      -9.320  -5.374  -2.393  1.00  0.00    -0.248 NA
ATOM     48  C   UNL     1      -7.371  -6.557  -2.160  1.00  0.00     0.031 C 
ATOM     49  C   UNL     1      -7.836  -3.453   1.893  1.00  0.00     0.029 A 
ATOM     50  N   UNL     1      -9.833  -3.746   1.048  1.00  0.00    -0.354 N 
ATOM     51  C   UNL     1      -9.258  -6.402  -3.368  1.00  0.00     0.074 A 
ATOM     52  C   UNL     1      -7.978  -7.012  -3.256  1.00  0.00     0.031 C 
ATOM     53  C   UNL     1      -8.685  -2.739   2.673  1.00  0.00     0.029 A 
ATOM     54  C   UNL     1     -10.021  -2.832   2.131  1.00  0.00     0.049 A 
ATOM     55  H   UNL     1     -10.596  -4.124   0.554  1.00  0.00     0.167 HD
ATOM     56  C   UNL     1     -10.358  -6.810  -4.059  1.00  0.00     0.031 A 
ATOM     57  C   UNL     1     -11.164  -2.147   2.482  1.00  0.00     0.031 A 
ATOM     58  C   UNL     1     -11.438  -5.957  -3.739  1.00  0.00     0.049 A 
ATOM     59  C   UNL     1     -12.154  -2.603   1.500  1.00  0.00     0.074 A 
ATOM     60  C   UNL     1     -11.833  -4.729  -4.173  1.00  0.00     0.029 A 
ATOM     61  N   UNL     1     -12.122  -6.288  -2.599  1.00  0.00    -0.354 N 
ATOM     62  N   UNL     1     -12.646  -3.797   1.403  1.00  0.00    -0.248 NA
ATOM     63  C   UNL     1     -12.324  -1.724   0.354  1.00  0.00     0.031 C 
ATOM     64  C   UNL     1     -12.536  -4.198  -3.073  1.00  0.00     0.029 A 
ATOM     65  C   UNL     1     -12.517  -5.115  -2.015  1.00  0.00     0.049 A 
ATOM     66  H   UNL     1     -12.296  -7.197  -2.263  1.00  0.00     0.167 HD
ATOM     67  C   UNL     1     -12.860  -3.939   0.049  1.00  0.00     0.074 A 
ATOM     68  C   UNL     1     -12.773  -2.607  -0.521  1.00  0.00     0.031 C 
ATOM     69  C   UNL     1     -12.688  -5.130  -0.581  1.00  0.00     0.031 A 
BRANCH  56  70
ATOM     70  C   UNL     1     -10.715  -8.101  -4.743  1.00  0.00    -0.014 A 
ATOM     71  C   UNL     1     -11.986  -8.140  -5.375  1.00  0.00     0.009 A 
ATOM     72  C   UNL     1     -10.105  -9.324  -4.456  1.00  0.00     0.009 A 
ATOM     73  C   UNL     1     -12.695  -9.328  -5.532  1.00  0.00     0.001 A 
ATOM     74  C   UNL     1     -10.798 -10.526  -4.669  1.00  0.00     0.001 A 
ATOM     75  C   UNL     1     -12.106 -10.524  -5.156  1.00  0.00     0.000 A 
ENDBRANCH  56  70
BRANCH  57  76
ATOM     76  C   UNL     1     -11.561  -0.933   3.304  1.00  0.00    -0.014 A 
ATOM     77  C   UNL     1     -10.848  -0.386   4.369  1.00  0.00     0.009 A 
ATOM     78  C   UNL     1     -12.741  -0.212   2.937  1.00  0.00     0.009 A 
ATOM     79  C   UNL     1     -11.234   0.850   4.946  1.00  0.00     0.001 A 
ATOM     80  C   UNL     1     -13.090   1.040   3.455  1.00  0.00     0.001 A 
ATOM     81  C   UNL     1     -12.321   1.582   4.462  1.00  0.00     0.000 A 
ENDBRANCH  57  76
BRANCH  69  82
ATOM     82  C   UNL     1     -12.333  -6.312   0.350  1.00  0.00    -0.014 A 
ATOM     83  C   UNL     1     -13.263  -6.780   1.289  1.00  0.00     0.009 A 
ATOM     84  C   UNL     1     -11.041  -6.884   0.418  1.00  0.00     0.009 A 
ATOM     85  C   UNL     1     -12.924  -7.752   2.249  1.00  0.00     0.001 A 
ATOM     86  C   UNL     1     -10.693  -7.853   1.382  1.00  0.00     0.001 A 
ATOM     87  C   UNL     1     -11.640  -8.287   2.301  1.00  0.00     0.000 A 
ENDBRANCH  69  82
ENDBRANCH  43  44
ENDBRANCH  36  38
ENDBRANCH  35  36
ENDBRANCH  34  35
ENDBRANCH  33  34
ENDBRANCH  32  33
ENDBRANCH  31  32
ENDBRANCH   1  31
TORSDOF 20
