REMARK SMILES O=C(OCCOCCOC(=O)C1([C@H]2CS(=O)(=O)C[C@H]2O)CCCC1)c1ccc(-c2c3nc(c(-c4ccccc4)c4ccc([nH]4)c(-c4ccccc4)c4nc(c(-c5ccccc5)c5ccc2[nH]5)C=C4)C=C3)cc1
REMARK SMILES IDX 6 1 5 2 4 3 3 4 2 5 1 6 25 7 26 8 72 9 27 10 71 11 28 12
REMARK SMILES IDX 29 13 30 14 65 15 31 16 70 17 64 18 66 19 32 20 69 21 63 22
REMARK SMILES IDX 62 23 33 25 55 26 40 27 54 28 41 29 44 30 53 31 67 32 42 33
REMARK SMILES IDX 43 34 52 36 68 37 45 38 34 39 35 40 39 41 36 42 38 43 37 44
REMARK SMILES IDX 56 45 57 46 61 47 58 48 60 49 59 50 46 51 47 52 51 53 48 54
REMARK SMILES IDX 50 55 49 56 7 57 8 58 9 59 10 60 11 61 12 62 21 63 24 64
REMARK SMILES IDX 22 65 23 66 13 67 14 68 19 69 15 70 18 71 16 72 17 73 20 74
REMARK H PARENT 66 24 44 35 20 75
REMARK Flexibility Score: inf
ROOT
ATOM      1  O   UNL     1       4.395  -1.031   3.644  1.00  0.00    -0.374 OA
ENDROOT
BRANCH   1   2
ATOM      2  C   UNL     1       5.628  -1.214   4.345  1.00  0.00     0.202 C 
BRANCH   2   3
ATOM      3  C   UNL     1       5.791  -2.502   5.153  1.00  0.00     0.261 C 
BRANCH   3   4
ATOM      4  O   UNL     1       5.602  -3.645   4.310  1.00  0.00    -0.460 OA
BRANCH   4   5
ATOM      5  C   UNL     1       4.406  -4.170   3.951  1.00  0.00     0.338 C 
ATOM      6  O   UNL     1       4.345  -4.940   2.997  1.00  0.00    -0.246 OA
BRANCH   5   7
ATOM      7  C   UNL     1       3.171  -3.914   4.741  1.00  0.00     0.060 A 
ATOM      8  C   UNL     1       2.854  -2.699   5.348  1.00  0.00     0.016 A 
ATOM      9  C   UNL     1       2.248  -4.965   4.834  1.00  0.00     0.016 A 
ATOM     10  C   UNL     1       1.709  -2.527   6.080  1.00  0.00     0.010 A 
ATOM     11  C   UNL     1       1.059  -4.794   5.541  1.00  0.00     0.010 A 
ATOM     12  C   UNL     1       0.806  -3.570   6.167  1.00  0.00    -0.014 A 
BRANCH  12  13
ATOM     13  C   UNL     1      -0.320  -3.340   7.066  1.00  0.00     0.031 A 
ATOM     14  C   UNL     1      -0.243  -3.942   8.426  1.00  0.00     0.074 A 
ATOM     15  C   UNL     1      -1.242  -2.428   6.714  1.00  0.00     0.049 A 
ATOM     16  N   UNL     1      -1.132  -3.938   9.375  1.00  0.00    -0.248 NA
ATOM     17  C   UNL     1       1.017  -4.628   8.774  1.00  0.00     0.031 C 
ATOM     18  C   UNL     1      -1.228  -1.641   5.473  1.00  0.00     0.029 A 
ATOM     19  N   UNL     1      -2.335  -1.969   7.386  1.00  0.00    -0.354 N 
ATOM     20  C   UNL     1      -0.566  -4.668  10.409  1.00  0.00     0.074 A 
ATOM     21  C   UNL     1       0.750  -5.083   9.987  1.00  0.00     0.031 C 
ATOM     22  C   UNL     1      -2.260  -0.784   5.486  1.00  0.00     0.029 A 
ATOM     23  C   UNL     1      -3.052  -1.035   6.680  1.00  0.00     0.049 A 
ATOM     24  H   UNL     1      -2.586  -2.276   8.287  1.00  0.00     0.167 HD
ATOM     25  C   UNL     1      -1.133  -4.976  11.595  1.00  0.00     0.031 A 
ATOM     26  C   UNL     1      -4.253  -0.503   6.959  1.00  0.00     0.031 A 
ATOM     27  C   UNL     1      -2.452  -4.535  11.949  1.00  0.00     0.049 A 
ATOM     28  C   UNL     1      -4.921  -0.973   8.221  1.00  0.00     0.074 A 
ATOM     29  C   UNL     1      -3.202  -4.841  13.066  1.00  0.00     0.029 A 
ATOM     30  N   UNL     1      -3.216  -3.675  11.166  1.00  0.00    -0.354 N 
ATOM     31  N   UNL     1      -4.451  -1.770   9.154  1.00  0.00    -0.248 NA
ATOM     32  C   UNL     1      -6.285  -0.496   8.460  1.00  0.00     0.031 C 
ATOM     33  C   UNL     1      -4.442  -4.208  12.931  1.00  0.00     0.029 A 
ATOM     34  C   UNL     1      -4.439  -3.453  11.764  1.00  0.00     0.049 A 
ATOM     35  H   UNL     1      -2.926  -3.283  10.312  1.00  0.00     0.167 HD
ATOM     36  C   UNL     1      -5.454  -1.878  10.103  1.00  0.00     0.074 A 
ATOM     37  C   UNL     1      -6.548  -1.042   9.639  1.00  0.00     0.031 C 
ATOM     38  C   UNL     1      -5.482  -2.600  11.251  1.00  0.00     0.031 A 
BRANCH  25  39
ATOM     39  C   UNL     1      -0.374  -5.910  12.491  1.00  0.00    -0.014 A 
ATOM     40  C   UNL     1       0.789  -5.513  13.169  1.00  0.00     0.009 A 
ATOM     41  C   UNL     1      -0.811  -7.238  12.613  1.00  0.00     0.009 A 
ATOM     42  C   UNL     1       1.517  -6.439  13.922  1.00  0.00     0.001 A 
ATOM     43  C   UNL     1      -0.097  -8.154  13.387  1.00  0.00     0.001 A 
ATOM     44  C   UNL     1       1.072  -7.756  14.033  1.00  0.00     0.000 A 
ENDBRANCH  25  39
BRANCH  26  45
ATOM     45  C   UNL     1      -4.923   0.413   5.999  1.00  0.00    -0.014 A 
ATOM     46  C   UNL     1      -5.240   1.732   6.354  1.00  0.00     0.009 A 
ATOM     47  C   UNL     1      -5.273  -0.039   4.714  1.00  0.00     0.009 A 
ATOM     48  C   UNL     1      -5.919   2.564   5.458  1.00  0.00     0.001 A 
ATOM     49  C   UNL     1      -5.919   0.805   3.808  1.00  0.00     0.001 A 
ATOM     50  C   UNL     1      -6.255   2.102   4.186  1.00  0.00     0.000 A 
ENDBRANCH  26  45
BRANCH  38  51
ATOM     51  C   UNL     1      -6.715  -2.463  12.091  1.00  0.00    -0.014 A 
ATOM     52  C   UNL     1      -7.927  -3.056  11.710  1.00  0.00     0.009 A 
ATOM     53  C   UNL     1      -6.636  -1.772  13.310  1.00  0.00     0.009 A 
ATOM     54  C   UNL     1      -9.051  -2.930  12.525  1.00  0.00     0.001 A 
ATOM     55  C   UNL     1      -7.752  -1.679  14.138  1.00  0.00     0.001 A 
ATOM     56  C   UNL     1      -8.960  -2.250  13.740  1.00  0.00     0.000 A 
ENDBRANCH  38  51
ENDBRANCH  12  13
ENDBRANCH   5   7
ENDBRANCH   4   5
ENDBRANCH   3   4
ENDBRANCH   2   3
ENDBRANCH   1   2
BRANCH   1  57
ATOM     57  C   UNL     1       4.418  -1.443   2.276  1.00  0.00     0.202 C 
BRANCH  57  58
ATOM     58  C   UNL     1       4.723  -0.276   1.342  1.00  0.00     0.261 C 
BRANCH  58  59
ATOM     59  O   UNL     1       5.856   0.471   1.838  1.00  0.00    -0.463 OA
BRANCH  59  60
ATOM     60  C   UNL     1       5.509   1.566   2.567  1.00  0.00     0.312 C 
ATOM     61  O   UNL     1       4.351   1.964   2.663  1.00  0.00    -0.252 OA
BRANCH  60  62
ATOM     62  C   UNL     1       6.707   2.278   3.271  1.00  0.00     0.074 C 
ATOM     63  C   UNL     1       7.475   1.381   4.255  1.00  0.00     0.019 C 
ATOM     64  C   UNL     1       7.790   2.571   2.201  1.00  0.00     0.019 C 
ATOM     65  C   UNL     1       8.919   1.833   4.245  1.00  0.00     0.001 C 
ATOM     66  C   UNL     1       9.157   2.204   2.796  1.00  0.00     0.001 C 
BRANCH  62  67
ATOM     67  C   UNL     1       6.052   3.548   3.950  1.00  0.00     0.051 C 
ATOM     68  C   UNL     1       4.991   3.191   5.031  1.00  0.00     0.144 C 
ATOM     69  C   UNL     1       6.866   4.702   4.561  1.00  0.00     0.134 C 
ATOM     70  S   UNL     1       5.630   3.675   6.620  1.00  0.00     0.153 S 
ATOM     71  C   UNL     1       7.113   4.446   6.037  1.00  0.00     0.169 C 
ATOM     72  O   UNL     1       4.766   4.698   7.175  1.00  0.00    -0.229 OA
ATOM     73  O   UNL     1       5.994   2.487   7.361  1.00  0.00    -0.229 OA
BRANCH  69  74
ATOM     74  O   UNL     1       8.032   5.021   3.831  1.00  0.00    -0.392 OA
ATOM     75  H   UNL     1       8.638   4.264   3.842  1.00  0.00     0.211 HD
ENDBRANCH  69  74
ENDBRANCH  62  67
ENDBRANCH  60  62
ENDBRANCH  59  60
ENDBRANCH  58  59
ENDBRANCH  57  58
ENDBRANCH   1  57
TORSDOF 16
