REMARK SMILES Nn1c(S[C@@H](C(=O)OCCOCCOC(=O)c2ccc(-c3c4nc(c(-c5ccccc5)c5ccc([nH]5)c(-c5ccccc5)c5nc(c(-c6ccccc6)c6ccc3[nH]6)C=C5)C=C4)cc2)c2ccccc2)nc2ccc(Br)cc2c1=O
REMARK SMILES IDX 10 1 9 2 8 3 6 4 7 5 5 6 4 7 3 8 2 9 79 10 71 11 78 12 80 13
REMARK SMILES IDX 72 14 77 15 73 16 75 17 74 18 76 19 1 20 65 23 66 24 70 25
REMARK SMILES IDX 67 26 69 27 68 28 11 29 12 30 13 31 14 32 15 33 16 34 17 35
REMARK SMILES IDX 18 36 64 37 19 38 63 39 20 40 21 41 22 42 57 43 23 44 62 45
REMARK SMILES IDX 56 46 58 47 24 48 61 49 55 50 54 51 25 53 47 54 32 55 46 56
REMARK SMILES IDX 33 57 36 58 45 59 59 60 34 61 35 62 44 64 60 65 37 66 26 67
REMARK SMILES IDX 27 68 31 69 28 70 30 71 29 72 48 73 49 74 53 75 50 76 52 77
REMARK SMILES IDX 51 78 38 79 39 80 43 81 40 82 42 83 41 84
REMARK H PARENT 1 21 1 22 58 52 36 63
REMARK Flexibility Score: inf
ROOT
ATOM      1  C   UNL     1       4.329  -1.400   2.222  1.00  0.00     0.202 C 
ENDROOT
BRANCH   1   2
ATOM      2  C   UNL     1       4.734  -0.798   0.867  1.00  0.00     0.261 C 
BRANCH   2   3
ATOM      3  O   UNL     1       3.784   0.145   0.314  1.00  0.00    -0.462 OA
BRANCH   3   4
ATOM      4  C   UNL     1       3.621   0.064  -1.041  1.00  0.00     0.324 C 
ATOM      5  O   UNL     1       4.298  -0.697  -1.734  1.00  0.00    -0.251 OA
BRANCH   4   6
ATOM      6  C   UNL     1       2.563   0.997  -1.664  1.00  0.00     0.194 C 
BRANCH   6   7
ATOM      7  S   UNL     1       1.948   2.322  -0.604  1.00  0.00    -0.066 SA
BRANCH   7   8
ATOM      8  C   UNL     1       0.454   2.074   0.275  1.00  0.00     0.191 A 
ATOM      9  N   UNL     1      -0.324   0.915   0.308  1.00  0.00    -0.202 N 
ATOM     10  C   UNL     1      -1.350   0.732   1.246  1.00  0.00     0.280 A 
ATOM     11  N   UNL     1       0.144   3.107   1.006  1.00  0.00    -0.222 NA
ATOM     12  C   UNL     1      -1.671   1.880   2.094  1.00  0.00     0.069 A 
ATOM     13  O   UNL     1      -1.939  -0.338   1.398  1.00  0.00    -0.267 OA
ATOM     14  C   UNL     1      -0.953   3.051   1.878  1.00  0.00     0.079 A 
ATOM     15  C   UNL     1      -2.666   1.787   3.074  1.00  0.00     0.031 A 
ATOM     16  C   UNL     1      -1.300   4.182   2.621  1.00  0.00     0.030 A 
ATOM     17  C   UNL     1      -2.978   2.916   3.821  1.00  0.00     0.018 A 
ATOM     18  C   UNL     1      -2.315   4.120   3.585  1.00  0.00     0.018 A 
ATOM     19  Br  UNL     1      -4.307   2.813   5.159  1.00  0.00    -0.051 Br
BRANCH   9  20
ATOM     20  N   UNL     1      -0.173  -0.154  -0.575  1.00  0.00    -0.334 N 
ATOM     21  H   UNL     1       0.522  -0.121  -1.272  1.00  0.00     0.178 HD
ATOM     22  H   UNL     1      -0.760  -0.941  -0.501  1.00  0.00     0.178 HD
ENDBRANCH   9  20
ENDBRANCH   7   8
ENDBRANCH   6   7
BRANCH   6  23
ATOM     23  C   UNL     1       1.587   0.358  -2.650  1.00  0.00    -0.023 A 
ATOM     24  C   UNL     1       1.502  -1.038  -2.837  1.00  0.00     0.005 A 
ATOM     25  C   UNL     1       0.677   1.167  -3.358  1.00  0.00     0.005 A 
ATOM     26  C   UNL     1       0.471  -1.601  -3.593  1.00  0.00     0.000 A 
ATOM     27  C   UNL     1      -0.356   0.601  -4.107  1.00  0.00     0.000 A 
ATOM     28  C   UNL     1      -0.473  -0.782  -4.204  1.00  0.00     0.000 A 
ENDBRANCH   6  23
ENDBRANCH   4   6
ENDBRANCH   3   4
ENDBRANCH   2   3
ENDBRANCH   1   2
BRANCH   1  29
ATOM     29  O   UNL     1       3.050  -2.017   2.338  1.00  0.00    -0.374 OA
BRANCH  29  30
ATOM     30  C   UNL     1       1.915  -1.217   2.042  1.00  0.00     0.202 C 
BRANCH  30  31
ATOM     31  C   UNL     1       1.585  -0.043   2.968  1.00  0.00     0.261 C 
BRANCH  31  32
ATOM     32  O   UNL     1       2.699   0.766   3.322  1.00  0.00    -0.460 OA
BRANCH  32  33
ATOM     33  C   UNL     1       2.997   0.742   4.639  1.00  0.00     0.338 C 
ATOM     34  O   UNL     1       2.410   0.161   5.538  1.00  0.00    -0.246 OA
BRANCH  33  35
ATOM     35  C   UNL     1       4.288   1.407   4.806  1.00  0.00     0.060 A 
ATOM     36  C   UNL     1       4.441   2.758   4.492  1.00  0.00     0.016 A 
ATOM     37  C   UNL     1       5.353   0.638   5.284  1.00  0.00     0.016 A 
ATOM     38  C   UNL     1       5.682   3.355   4.692  1.00  0.00     0.010 A 
ATOM     39  C   UNL     1       6.589   1.236   5.482  1.00  0.00     0.010 A 
ATOM     40  C   UNL     1       6.750   2.602   5.212  1.00  0.00    -0.014 A 
BRANCH  40  41
ATOM     41  C   UNL     1       8.002   3.267   5.623  1.00  0.00     0.031 A 
ATOM     42  C   UNL     1       9.263   3.089   4.841  1.00  0.00     0.074 A 
ATOM     43  C   UNL     1       7.978   3.991   6.757  1.00  0.00     0.049 A 
ATOM     44  N   UNL     1      10.445   3.597   5.074  1.00  0.00    -0.248 NA
ATOM     45  C   UNL     1       9.200   2.227   3.649  1.00  0.00     0.031 C 
ATOM     46  C   UNL     1       6.792   4.195   7.595  1.00  0.00     0.029 A 
ATOM     47  N   UNL     1       8.964   4.690   7.401  1.00  0.00    -0.354 N 
ATOM     48  C   UNL     1      11.263   3.132   4.055  1.00  0.00     0.074 A 
ATOM     49  C   UNL     1      10.458   2.262   3.226  1.00  0.00     0.031 C 
ATOM     50  C   UNL     1       7.112   4.996   8.620  1.00  0.00     0.029 A 
ATOM     51  C   UNL     1       8.531   5.322   8.542  1.00  0.00     0.049 A 
ATOM     52  H   UNL     1       9.893   4.735   7.078  1.00  0.00     0.167 HD
ATOM     53  C   UNL     1      12.564   3.428   3.833  1.00  0.00     0.031 A 
ATOM     54  C   UNL     1       9.205   6.080   9.427  1.00  0.00     0.031 A 
ATOM     55  C   UNL     1      13.346   4.285   4.686  1.00  0.00     0.049 A 
ATOM     56  C   UNL     1      10.663   6.344   9.179  1.00  0.00     0.074 A 
ATOM     57  C   UNL     1      14.667   4.667   4.535  1.00  0.00     0.029 A 
ATOM     58  N   UNL     1      12.884   4.886   5.848  1.00  0.00    -0.354 N 
ATOM     59  N   UNL     1      11.410   5.954   8.174  1.00  0.00    -0.248 NA
ATOM     60  C   UNL     1      11.370   7.162  10.172  1.00  0.00     0.031 C 
ATOM     61  C   UNL     1      15.026   5.436   5.642  1.00  0.00     0.029 A 
ATOM     62  C   UNL     1      13.905   5.612   6.438  1.00  0.00     0.049 A 
ATOM     63  H   UNL     1      11.968   4.809   6.200  1.00  0.00     0.167 HD
ATOM     64  C   UNL     1      12.665   6.505   8.396  1.00  0.00     0.074 A 
ATOM     65  C   UNL     1      12.572   7.272   9.621  1.00  0.00     0.031 C 
ATOM     66  C   UNL     1      13.791   6.382   7.652  1.00  0.00     0.031 A 
BRANCH  53  67
ATOM     67  C   UNL     1      13.237   2.850   2.619  1.00  0.00    -0.014 A 
ATOM     68  C   UNL     1      14.308   1.953   2.769  1.00  0.00     0.009 A 
ATOM     69  C   UNL     1      12.910   3.304   1.331  1.00  0.00     0.009 A 
ATOM     70  C   UNL     1      15.058   1.550   1.662  1.00  0.00     0.001 A 
ATOM     71  C   UNL     1      13.643   2.875   0.222  1.00  0.00     0.001 A 
ATOM     72  C   UNL     1      14.725   2.012   0.390  1.00  0.00     0.000 A 
ENDBRANCH  53  67
BRANCH  54  73
ATOM     73  C   UNL     1       8.489   6.668  10.591  1.00  0.00    -0.014 A 
ATOM     74  C   UNL     1       7.934   5.846  11.587  1.00  0.00     0.009 A 
ATOM     75  C   UNL     1       8.311   8.056  10.689  1.00  0.00     0.009 A 
ATOM     76  C   UNL     1       7.198   6.398  12.638  1.00  0.00     0.001 A 
ATOM     77  C   UNL     1       7.609   8.609  11.763  1.00  0.00     0.001 A 
ATOM     78  C   UNL     1       7.044   7.779  12.730  1.00  0.00     0.000 A 
ENDBRANCH  54  73
BRANCH  66  79
ATOM     79  C   UNL     1      15.024   7.112   8.112  1.00  0.00    -0.014 A 
ATOM     80  C   UNL     1      15.555   8.144   7.320  1.00  0.00     0.009 A 
ATOM     81  C   UNL     1      15.729   6.699   9.252  1.00  0.00     0.009 A 
ATOM     82  C   UNL     1      16.781   8.726   7.641  1.00  0.00     0.001 A 
ATOM     83  C   UNL     1      16.937   7.311   9.593  1.00  0.00     0.001 A 
ATOM     84  C   UNL     1      17.469   8.312   8.780  1.00  0.00     0.000 A 
ENDBRANCH  66  79
ENDBRANCH  40  41
ENDBRANCH  33  35
ENDBRANCH  32  33
ENDBRANCH  31  32
ENDBRANCH  30  31
ENDBRANCH  29  30
ENDBRANCH   1  29
TORSDOF 18
