REMARK SMILES O=C(OCCOCCOC(=O)c1cc(Br)ccc1OCc1ccc(O)cc1)c1ccc(-c2c3nc(c(-c4ccccc4)c4ccc([nH]4)c(-c4ccccc4)c4nc(c(-c5ccccc5)c5ccc2[nH]5)C=C4)C=C3)cc1
REMARK SMILES IDX 7 1 6 2 5 3 4 4 3 5 2 6 1 7 28 8 29 9 75 10 30 11 74 12
REMARK SMILES IDX 31 13 32 14 33 15 68 16 34 17 73 18 67 19 69 20 35 21 72 22
REMARK SMILES IDX 66 23 65 24 36 26 58 27 43 28 57 29 44 30 47 31 56 32 70 33
REMARK SMILES IDX 45 34 46 35 55 37 71 38 48 39 37 40 38 41 42 42 39 43 41 44
REMARK SMILES IDX 40 45 59 46 60 47 64 48 61 49 63 50 62 51 49 52 50 53 54 54
REMARK SMILES IDX 51 55 53 56 52 57 8 58 9 59 10 60 11 61 12 62 13 63 18 64
REMARK SMILES IDX 14 65 17 66 15 67 16 68 19 69 20 70 21 71 22 72 27 73 23 74
REMARK SMILES IDX 26 75 24 76 25 77
REMARK H PARENT 69 25 47 36 25 78
REMARK Flexibility Score: inf
ROOT
ATOM      1  C   UNL     1       1.837  -2.200  -0.310  1.00  0.00     0.202 C 
ENDROOT
BRANCH   1   2
ATOM      2  O   UNL     1       2.759  -1.127  -0.107  1.00  0.00    -0.374 OA
BRANCH   2   3
ATOM      3  C   UNL     1       3.043  -0.830   1.262  1.00  0.00     0.202 C 
BRANCH   3   4
ATOM      4  C   UNL     1       3.143   0.688   1.443  1.00  0.00     0.261 C 
BRANCH   4   5
ATOM      5  O   UNL     1       1.910   1.327   1.056  1.00  0.00    -0.460 OA
BRANCH   5   6
ATOM      6  C   UNL     1       1.467   1.474  -0.217  1.00  0.00     0.338 C 
ATOM      7  O   UNL     1       0.259   1.477  -0.445  1.00  0.00    -0.246 OA
BRANCH   6   8
ATOM      8  C   UNL     1       2.393   1.872  -1.321  1.00  0.00     0.060 A 
ATOM      9  C   UNL     1       3.618   1.262  -1.617  1.00  0.00     0.016 A 
ATOM     10  C   UNL     1       1.926   2.876  -2.184  1.00  0.00     0.016 A 
ATOM     11  C   UNL     1       4.372   1.648  -2.725  1.00  0.00     0.010 A 
ATOM     12  C   UNL     1       2.668   3.259  -3.303  1.00  0.00     0.010 A 
ATOM     13  C   UNL     1       3.896   2.645  -3.574  1.00  0.00    -0.014 A 
BRANCH  13  14
ATOM     14  C   UNL     1       4.701   3.085  -4.728  1.00  0.00     0.031 A 
ATOM     15  C   UNL     1       5.471   4.361  -4.626  1.00  0.00     0.074 A 
ATOM     16  C   UNL     1       4.723   2.351  -5.853  1.00  0.00     0.049 A 
ATOM     17  N   UNL     1       6.075   5.039  -5.564  1.00  0.00    -0.248 NA
ATOM     18  C   UNL     1       5.570   4.953  -3.282  1.00  0.00     0.031 C 
ATOM     19  C   UNL     1       4.080   1.049  -6.028  1.00  0.00     0.029 A 
ATOM     20  N   UNL     1       5.301   2.610  -7.068  1.00  0.00    -0.354 N 
ATOM     21  C   UNL     1       6.590   6.162  -4.934  1.00  0.00     0.074 A 
ATOM     22  C   UNL     1       6.246   6.064  -3.532  1.00  0.00     0.031 C 
ATOM     23  C   UNL     1       4.287   0.628  -7.287  1.00  0.00     0.029 A 
ATOM     24  C   UNL     1       5.023   1.658  -8.016  1.00  0.00     0.049 A 
ATOM     25  H   UNL     1       5.861   3.401  -7.243  1.00  0.00     0.167 HD
ATOM     26  C   UNL     1       7.266   7.195  -5.488  1.00  0.00     0.031 A 
ATOM     27  C   UNL     1       5.288   1.648  -9.335  1.00  0.00     0.031 A 
ATOM     28  C   UNL     1       7.578   7.288  -6.886  1.00  0.00     0.049 A 
ATOM     29  C   UNL     1       5.987   2.832  -9.943  1.00  0.00     0.074 A 
ATOM     30  C   UNL     1       8.210   8.311  -7.569  1.00  0.00     0.029 A 
ATOM     31  N   UNL     1       7.274   6.307  -7.819  1.00  0.00    -0.354 N 
ATOM     32  N   UNL     1       6.422   3.922  -9.356  1.00  0.00    -0.248 NA
ATOM     33  C   UNL     1       6.214   2.795 -11.394  1.00  0.00     0.031 C 
ATOM     34  C   UNL     1       8.260   7.960  -8.924  1.00  0.00     0.029 A 
ATOM     35  C   UNL     1       7.691   6.705  -9.075  1.00  0.00     0.049 A 
ATOM     36  H   UNL     1       6.826   5.454  -7.616  1.00  0.00     0.167 HD
ATOM     37  C   UNL     1       6.975   4.700 -10.363  1.00  0.00     0.074 A 
ATOM     38  C   UNL     1       6.838   3.949 -11.596  1.00  0.00     0.031 C 
ATOM     39  C   UNL     1       7.539   5.930 -10.280  1.00  0.00     0.031 A 
BRANCH  26  40
ATOM     40  C   UNL     1       7.619   8.328  -4.572  1.00  0.00    -0.014 A 
ATOM     41  C   UNL     1       8.670   8.222  -3.648  1.00  0.00     0.009 A 
ATOM     42  C   UNL     1       6.845   9.498  -4.596  1.00  0.00     0.009 A 
ATOM     43  C   UNL     1       8.910   9.251  -2.735  1.00  0.00     0.001 A 
ATOM     44  C   UNL     1       7.100  10.533  -3.695  1.00  0.00     0.001 A 
ATOM     45  C   UNL     1       8.124  10.403  -2.758  1.00  0.00     0.000 A 
ENDBRANCH  26  40
BRANCH  27  46
ATOM     46  C   UNL     1       4.829   0.509 -10.170  1.00  0.00    -0.014 A 
ATOM     47  C   UNL     1       5.746  -0.427 -10.668  1.00  0.00     0.009 A 
ATOM     48  C   UNL     1       3.463   0.338 -10.447  1.00  0.00     0.009 A 
ATOM     49  C   UNL     1       5.303  -1.510 -11.434  1.00  0.00     0.001 A 
ATOM     50  C   UNL     1       3.022  -0.757 -11.193  1.00  0.00     0.001 A 
ATOM     51  C   UNL     1       3.943  -1.677 -11.690  1.00  0.00     0.000 A 
ENDBRANCH  27  46
BRANCH  39  52
ATOM     52  C   UNL     1       8.061   6.528 -11.551  1.00  0.00    -0.014 A 
ATOM     53  C   UNL     1       7.193   7.145 -12.463  1.00  0.00     0.009 A 
ATOM     54  C   UNL     1       9.442   6.535 -11.801  1.00  0.00     0.009 A 
ATOM     55  C   UNL     1       7.700   7.750 -13.614  1.00  0.00     0.001 A 
ATOM     56  C   UNL     1       9.946   7.154 -12.945  1.00  0.00     0.001 A 
ATOM     57  C   UNL     1       9.075   7.759 -13.851  1.00  0.00     0.000 A 
ENDBRANCH  39  52
ENDBRANCH  13  14
ENDBRANCH   6   8
ENDBRANCH   5   6
ENDBRANCH   4   5
ENDBRANCH   3   4
ENDBRANCH   2   3
ENDBRANCH   1   2
BRANCH   1  58
ATOM     58  C   UNL     1       2.585  -3.499  -0.577  1.00  0.00     0.261 C 
BRANCH  58  59
ATOM     59  O   UNL     1       3.451  -3.742   0.538  1.00  0.00    -0.460 OA
BRANCH  59  60
ATOM     60  C   UNL     1       4.518  -4.540   0.294  1.00  0.00     0.342 C 
ATOM     61  O   UNL     1       4.786  -5.141  -0.726  1.00  0.00    -0.246 OA
BRANCH  60  62
ATOM     62  C   UNL     1       5.212  -4.669   1.580  1.00  0.00     0.103 A 
ATOM     63  C   UNL     1       4.514  -5.454   2.519  1.00  0.00     0.035 A 
ATOM     64  C   UNL     1       6.460  -4.121   1.898  1.00  0.00     0.134 A 
ATOM     65  C   UNL     1       5.052  -5.684   3.777  1.00  0.00     0.019 A 
ATOM     66  C   UNL     1       6.983  -4.377   3.176  1.00  0.00     0.048 A 
ATOM     67  Br  UNL     1       4.108  -6.750   5.017  1.00  0.00    -0.051 Br
ATOM     68  C   UNL     1       6.285  -5.142   4.114  1.00  0.00     0.019 A 
BRANCH  64  69
ATOM     69  O   UNL     1       7.330  -3.419   1.116  1.00  0.00    -0.488 OA
BRANCH  69  70
ATOM     70  C   UNL     1       6.846  -2.434   0.203  1.00  0.00     0.265 C 
BRANCH  70  71
ATOM     71  C   UNL     1       6.905  -2.910  -1.227  1.00  0.00    -0.010 A 
ATOM     72  C   UNL     1       7.817  -3.899  -1.631  1.00  0.00     0.011 A 
ATOM     73  C   UNL     1       6.024  -2.372  -2.177  1.00  0.00     0.011 A 
ATOM     74  C   UNL     1       7.779  -4.412  -2.927  1.00  0.00     0.046 A 
ATOM     75  C   UNL     1       5.994  -2.877  -3.477  1.00  0.00     0.046 A 
ATOM     76  C   UNL     1       6.848  -3.913  -3.831  1.00  0.00     0.115 A 
BRANCH  76  77
ATOM     77  O   UNL     1       6.732  -4.437  -5.084  1.00  0.00    -0.508 OA
ATOM     78  H   UNL     1       7.294  -5.137  -5.354  1.00  0.00     0.293 HD
ENDBRANCH  76  77
ENDBRANCH  70  71
ENDBRANCH  69  70
ENDBRANCH  64  69
ENDBRANCH  60  62
ENDBRANCH  59  60
ENDBRANCH  58  59
ENDBRANCH   1  58
TORSDOF 18
