REMARK SMILES NS(=O)(=O)c1ccc(-n2nc(C(F)(F)F)cc2-c2ccc(C(=O)OCCOCCOC(=O)c3ccc(-c4c5nc(c(-c6ccccc6)c6ccc([nH]6)c(-c6ccccc6)c6nc(c(-c7ccccc7)c7ccc4[nH]7)C=C6)C=C5)cc3)cc2)cc1
REMARK SMILES IDX 26 1 25 2 24 3 22 4 23 5 21 6 18 7 19 8 82 9 20 10 81 11
REMARK SMILES IDX 17 12 9 13 10 14 11 15 16 16 8 17 5 18 6 19 84 20 7 21 83 22
REMARK SMILES IDX 2 23 3 24 4 25 1 26 12 29 13 30 14 31 15 32 27 33 28 34
REMARK SMILES IDX 29 35 30 36 31 37 32 38 33 39 34 40 80 41 35 42 79 43 36 44
REMARK SMILES IDX 37 45 38 46 73 47 39 48 78 49 72 50 74 51 40 52 77 53 71 54
REMARK SMILES IDX 70 55 41 57 63 58 48 59 62 60 49 61 52 62 61 63 75 64 50 65
REMARK SMILES IDX 51 66 60 68 76 69 53 70 42 71 43 72 47 73 44 74 46 75 45 76
REMARK SMILES IDX 64 77 65 78 69 79 66 80 68 81 67 82 54 83 55 84 59 85 56 86
REMARK SMILES IDX 58 87 57 88
REMARK H PARENT 1 27 1 28 74 56 52 67
REMARK Flexibility Score: inf
ROOT
ATOM      1  C   UNL     1       5.331  -5.148  -4.791  1.00  0.00     0.202 C 
ENDROOT
BRANCH   1   2
ATOM      2  C   UNL     1       5.615  -6.455  -4.048  1.00  0.00     0.261 C 
BRANCH   2   3
ATOM      3  O   UNL     1       4.817  -6.614  -2.866  1.00  0.00    -0.460 OA
BRANCH   3   4
ATOM      4  C   UNL     1       5.514  -6.462  -1.714  1.00  0.00     0.338 C 
ATOM      5  O   UNL     1       6.708  -6.233  -1.603  1.00  0.00    -0.246 OA
BRANCH   4   6
ATOM      6  C   UNL     1       4.602  -6.434  -0.554  1.00  0.00     0.060 A 
ATOM      7  C   UNL     1       3.142  -6.477   1.824  1.00  0.00     0.000 A 
ATOM      8  C   UNL     1       4.177  -5.548   1.652  1.00  0.00     0.011 A 
ATOM      9  C   UNL     1       2.803  -7.341   0.773  1.00  0.00     0.011 A 
ATOM     10  C   UNL     1       4.908  -5.530   0.469  1.00  0.00     0.016 A 
ATOM     11  C   UNL     1       3.524  -7.312  -0.425  1.00  0.00     0.016 A 
BRANCH   7  12
ATOM     12  C   UNL     1       2.510  -6.610   3.133  1.00  0.00     0.075 A 
ATOM     13  N   UNL     1       1.943  -5.580   3.872  1.00  0.00    -0.233 N 
ATOM     14  N   UNL     1       1.776  -5.925   5.175  1.00  0.00    -0.163 NA
ATOM     15  C   UNL     1       2.046  -7.245   5.222  1.00  0.00     0.167 A 
ATOM     16  C   UNL     1       2.532  -7.703   3.974  1.00  0.00     0.064 A 
BRANCH  13  17
ATOM     17  C   UNL     1       1.553  -4.298   3.403  1.00  0.00     0.065 A 
ATOM     18  C   UNL     1       0.913  -1.776   2.418  1.00  0.00     0.082 A 
ATOM     19  C   UNL     1       0.645  -2.906   1.641  1.00  0.00     0.024 A 
ATOM     20  C   UNL     1       1.470  -1.900   3.696  1.00  0.00     0.024 A 
ATOM     21  C   UNL     1       0.979  -4.168   2.128  1.00  0.00     0.030 A 
ATOM     22  C   UNL     1       1.764  -3.169   4.204  1.00  0.00     0.030 A 
BRANCH  18  23
ATOM     23  S   UNL     1       0.553  -0.174   1.762  1.00  0.00     0.238 S 
ATOM     24  O   UNL     1       1.259   0.824   2.516  1.00  0.00    -0.207 OA
ATOM     25  O   UNL     1      -0.870  -0.104   1.490  1.00  0.00    -0.207 OA
BRANCH  23  26
ATOM     26  N   UNL     1       1.309  -0.211   0.257  1.00  0.00    -0.225 NA
ATOM     27  H   UNL     1       1.163   0.679  -0.218  1.00  0.00     0.137 HD
ATOM     28  H   UNL     1       0.912  -0.965  -0.304  1.00  0.00     0.137 HD
ENDBRANCH  23  26
ENDBRANCH  18  23
ENDBRANCH  13  17
BRANCH  15  29
ATOM     29  C   UNL     1       1.873  -8.091   6.456  1.00  0.00     0.435 C 
ATOM     30  F   UNL     1       2.454  -7.554   7.559  1.00  0.00    -0.164 F 
ATOM     31  F   UNL     1       0.562  -8.300   6.750  1.00  0.00    -0.164 F 
ATOM     32  F   UNL     1       2.426  -9.327   6.293  1.00  0.00    -0.164 F 
ENDBRANCH  15  29
ENDBRANCH   7  12
ENDBRANCH   4   6
ENDBRANCH   3   4
ENDBRANCH   2   3
ENDBRANCH   1   2
BRANCH   1  33
ATOM     33  O   UNL     1       5.577  -3.905  -4.136  1.00  0.00    -0.374 OA
BRANCH  33  34
ATOM     34  C   UNL     1       4.794  -3.502  -3.019  1.00  0.00     0.202 C 
BRANCH  34  35
ATOM     35  C   UNL     1       3.342  -3.112  -3.250  1.00  0.00     0.261 C 
BRANCH  35  36
ATOM     36  O   UNL     1       2.606  -4.172  -3.833  1.00  0.00    -0.460 OA
BRANCH  36  37
ATOM     37  C   UNL     1       2.416  -4.046  -5.166  1.00  0.00     0.338 C 
ATOM     38  O   UNL     1       2.927  -3.234  -5.916  1.00  0.00    -0.246 OA
BRANCH  37  39
ATOM     39  C   UNL     1       1.349  -4.970  -5.565  1.00  0.00     0.060 A 
ATOM     40  C   UNL     1       0.920  -4.858  -6.889  1.00  0.00     0.016 A 
ATOM     41  C   UNL     1       0.548  -5.525  -4.559  1.00  0.00     0.016 A 
ATOM     42  C   UNL     1      -0.427  -4.968  -7.130  1.00  0.00     0.010 A 
ATOM     43  C   UNL     1      -0.795  -5.609  -4.796  1.00  0.00     0.010 A 
ATOM     44  C   UNL     1      -1.268  -5.203  -6.041  1.00  0.00    -0.014 A 
BRANCH  44  45
ATOM     45  C   UNL     1      -2.693  -5.083  -6.220  1.00  0.00     0.031 A 
ATOM     46  C   UNL     1      -3.271  -6.329  -6.753  1.00  0.00     0.074 A 
ATOM     47  C   UNL     1      -3.386  -4.013  -5.791  1.00  0.00     0.049 A 
ATOM     48  N   UNL     1      -3.607  -6.571  -7.975  1.00  0.00    -0.248 NA
ATOM     49  C   UNL     1      -3.211  -7.523  -5.890  1.00  0.00     0.031 C 
ATOM     50  C   UNL     1      -2.932  -2.881  -4.976  1.00  0.00     0.029 A 
ATOM     51  N   UNL     1      -4.713  -3.771  -5.918  1.00  0.00    -0.354 N 
ATOM     52  C   UNL     1      -4.020  -7.895  -7.967  1.00  0.00     0.074 A 
ATOM     53  C   UNL     1      -3.467  -8.483  -6.777  1.00  0.00     0.031 C 
ATOM     54  C   UNL     1      -4.013  -2.229  -4.480  1.00  0.00     0.029 A 
ATOM     55  C   UNL     1      -5.217  -2.814  -5.048  1.00  0.00     0.049 A 
ATOM     56  H   UNL     1      -5.276  -4.239  -6.576  1.00  0.00     0.167 HD
ATOM     57  C   UNL     1      -5.079  -8.306  -8.715  1.00  0.00     0.031 A 
ATOM     58  C   UNL     1      -6.532  -2.602  -4.778  1.00  0.00     0.031 A 
ATOM     59  C   UNL     1      -5.433  -7.327  -9.711  1.00  0.00     0.049 A 
ATOM     60  C   UNL     1      -7.315  -3.261  -5.857  1.00  0.00     0.074 A 
ATOM     61  C   UNL     1      -4.777  -6.743 -10.776  1.00  0.00     0.029 A 
ATOM     62  N   UNL     1      -6.490  -6.499  -9.410  1.00  0.00    -0.354 N 
ATOM     63  N   UNL     1      -7.301  -2.858  -7.096  1.00  0.00    -0.248 NA
ATOM     64  C   UNL     1      -7.698  -4.653  -5.660  1.00  0.00     0.031 C 
ATOM     65  C   UNL     1      -5.194  -5.380 -10.763  1.00  0.00     0.029 A 
ATOM     66  C   UNL     1      -6.140  -5.218  -9.748  1.00  0.00     0.049 A 
ATOM     67  H   UNL     1      -7.350  -6.779  -9.020  1.00  0.00     0.167 HD
ATOM     68  C   UNL     1      -7.240  -4.022  -7.850  1.00  0.00     0.074 A 
ATOM     69  C   UNL     1      -7.568  -5.099  -6.914  1.00  0.00     0.031 C 
ATOM     70  C   UNL     1      -6.634  -4.037  -9.074  1.00  0.00     0.031 A 
BRANCH  57  71
ATOM     71  C   UNL     1      -6.062  -9.342  -8.227  1.00  0.00    -0.014 A 
ATOM     72  C   UNL     1      -7.088  -9.745  -9.095  1.00  0.00     0.009 A 
ATOM     73  C   UNL     1      -6.187  -9.734  -6.878  1.00  0.00     0.009 A 
ATOM     74  C   UNL     1      -8.207 -10.440  -8.621  1.00  0.00     0.001 A 
ATOM     75  C   UNL     1      -7.278 -10.464  -6.409  1.00  0.00     0.001 A 
ATOM     76  C   UNL     1      -8.304 -10.792  -7.278  1.00  0.00     0.000 A 
ENDBRANCH  57  71
BRANCH  58  77
ATOM     77  C   UNL     1      -7.155  -2.205  -3.492  1.00  0.00    -0.014 A 
ATOM     78  C   UNL     1      -8.469  -1.711  -3.440  1.00  0.00     0.009 A 
ATOM     79  C   UNL     1      -6.552  -2.574  -2.275  1.00  0.00     0.009 A 
ATOM     80  C   UNL     1      -9.158  -1.615  -2.220  1.00  0.00     0.001 A 
ATOM     81  C   UNL     1      -7.240  -2.480  -1.059  1.00  0.00     0.001 A 
ATOM     82  C   UNL     1      -8.548  -2.011  -1.033  1.00  0.00     0.000 A 
ENDBRANCH  58  77
BRANCH  70  83
ATOM     83  C   UNL     1      -6.237  -2.713  -9.682  1.00  0.00    -0.014 A 
ATOM     84  C   UNL     1      -5.263  -1.863  -9.126  1.00  0.00     0.009 A 
ATOM     85  C   UNL     1      -6.740  -2.404 -10.954  1.00  0.00     0.009 A 
ATOM     86  C   UNL     1      -4.821  -0.730  -9.820  1.00  0.00     0.001 A 
ATOM     87  C   UNL     1      -6.285  -1.286 -11.654  1.00  0.00     0.001 A 
ATOM     88  C   UNL     1      -5.328  -0.448 -11.087  1.00  0.00     0.000 A 
ENDBRANCH  70  83
ENDBRANCH  44  45
ENDBRANCH  37  39
ENDBRANCH  36  37
ENDBRANCH  35  36
ENDBRANCH  34  35
ENDBRANCH  33  34
ENDBRANCH   1  33
TORSDOF 19
