REMARK SMILES CCC(CC)([NH2+]Cc1ccc(Cl)cc1[N+](=O)[O-])C(=O)OCCOCCOC(=O)c1ccc(-c2c3nc(c(-c4ccccc4)c4ccc([nH]4)c(-c4ccccc4)c4nc(c(-c5ccccc5)c5ccc2[nH]5)C=C4)C=C3)cc1
REMARK SMILES IDX 22 1 21 2 20 3 18 4 19 5 3 6 2 7 1 8 4 9 5 10 6 11 7 14 8 15
REMARK SMILES IDX 9 16 14 17 10 18 13 19 11 20 12 21 15 22 16 23 17 24 23 25
REMARK SMILES IDX 24 26 25 27 26 28 27 29 28 30 29 31 30 32 76 33 31 34 75 35
REMARK SMILES IDX 32 36 33 37 34 38 69 39 35 40 74 41 68 42 70 43 36 44 73 45
REMARK SMILES IDX 67 46 66 47 37 49 59 50 44 51 58 52 45 53 48 54 57 55 71 56
REMARK SMILES IDX 46 57 47 58 56 60 72 61 49 62 38 63 39 64 43 65 40 66 42 67
REMARK SMILES IDX 41 68 60 69 61 70 65 71 62 72 64 73 63 74 50 75 51 76 55 77
REMARK SMILES IDX 52 78 54 79 53 80
REMARK H PARENT 6 12 6 13 70 48 48 59
REMARK Flexibility Score: inf
ROOT
ATOM      1  C   UNL     1       5.472   2.694   1.697  1.00  0.00     0.202 C 
ENDROOT
BRANCH   1   2
ATOM      2  C   UNL     1       4.879   2.954   0.312  1.00  0.00     0.261 C 
BRANCH   2   3
ATOM      3  O   UNL     1       3.454   3.101   0.375  1.00  0.00    -0.459 OA
BRANCH   3   4
ATOM      4  C   UNL     1       2.766   2.000  -0.028  1.00  0.00     0.368 C 
ATOM      5  O   UNL     1       3.305   1.057  -0.599  1.00  0.00    -0.245 OA
BRANCH   4   6
ATOM      6  C   UNL     1       1.227   2.091   0.199  1.00  0.00     0.194 C 
BRANCH   6   7
ATOM      7  C   UNL     1       0.739   0.668   0.661  1.00  0.00     0.077 C 
ATOM      8  C   UNL     1       0.997  -0.533  -0.240  1.00  0.00     0.011 C 
ENDBRANCH   6   7
BRANCH   6   9
ATOM      9  C   UNL     1       0.687   2.506  -1.201  1.00  0.00     0.077 C 
ATOM     10  C   UNL     1      -0.731   2.135  -1.605  1.00  0.00     0.011 C 
ENDBRANCH   6   9
BRANCH   6  11
ATOM     11  N   UNL     1       0.808   2.900   1.386  1.00  0.00    -0.328 N 
ATOM     12  H   UNL     1       1.202   2.408   2.188  1.00  0.00     0.347 HD
ATOM     13  H   UNL     1      -0.191   2.965   1.189  1.00  0.00     0.347 HD
BRANCH  11  14
ATOM     14  C   UNL     1       1.080   4.304   1.642  1.00  0.00     0.305 C 
BRANCH  14  15
ATOM     15  C   UNL     1       0.361   5.268   0.737  1.00  0.00     0.084 A 
ATOM     16  C   UNL     1       1.091   6.306   0.139  1.00  0.00     0.018 A 
ATOM     17  C   UNL     1      -1.000   5.146   0.401  1.00  0.00     0.279 A 
ATOM     18  C   UNL     1       0.534   7.050  -0.902  1.00  0.00     0.021 A 
ATOM     19  C   UNL     1      -1.542   5.823  -0.694  1.00  0.00     0.106 A 
ATOM     20  C   UNL     1      -0.749   6.750  -1.361  1.00  0.00     0.047 A 
ATOM     21  Cl  UNL     1      -1.351   7.537  -2.766  1.00  0.00    -0.084 Cl
BRANCH  17  22
ATOM     22  N   UNL     1      -1.894   4.342   1.227  1.00  0.00     0.063 N 
ATOM     23  O   UNL     1      -2.650   3.544   0.660  1.00  0.00    -0.258 OA
ATOM     24  O   UNL     1      -1.843   4.522   2.451  1.00  0.00    -0.258 OA
ENDBRANCH  17  22
ENDBRANCH  14  15
ENDBRANCH  11  14
ENDBRANCH   6  11
ENDBRANCH   4   6
ENDBRANCH   3   4
ENDBRANCH   2   3
ENDBRANCH   1   2
BRANCH   1  25
ATOM     25  O   UNL     1       5.012   1.554   2.417  1.00  0.00    -0.374 OA
BRANCH  25  26
ATOM     26  C   UNL     1       3.747   1.644   3.074  1.00  0.00     0.202 C 
BRANCH  26  27
ATOM     27  C   UNL     1       3.659   2.481   4.356  1.00  0.00     0.261 C 
BRANCH  27  28
ATOM     28  O   UNL     1       3.875   3.883   4.111  1.00  0.00    -0.460 OA
BRANCH  28  29
ATOM     29  C   UNL     1       5.057   4.358   4.563  1.00  0.00     0.338 C 
ATOM     30  O   UNL     1       5.902   3.755   5.216  1.00  0.00    -0.246 OA
BRANCH  29  31
ATOM     31  C   UNL     1       5.321   5.682   3.975  1.00  0.00     0.060 A 
ATOM     32  C   UNL     1       6.516   5.844   3.259  1.00  0.00     0.016 A 
ATOM     33  C   UNL     1       4.461   6.761   4.178  1.00  0.00     0.016 A 
ATOM     34  C   UNL     1       6.883   7.100   2.789  1.00  0.00     0.010 A 
ATOM     35  C   UNL     1       4.839   8.026   3.719  1.00  0.00     0.010 A 
ATOM     36  C   UNL     1       6.070   8.207   3.060  1.00  0.00    -0.014 A 
BRANCH  36  37
ATOM     37  C   UNL     1       6.596   9.569   2.812  1.00  0.00     0.031 A 
ATOM     38  C   UNL     1       7.149  10.353   3.970  1.00  0.00     0.074 A 
ATOM     39  C   UNL     1       6.624  10.085   1.571  1.00  0.00     0.049 A 
ATOM     40  N   UNL     1       7.631  11.569   3.995  1.00  0.00    -0.248 NA
ATOM     41  C   UNL     1       7.159   9.674   5.277  1.00  0.00     0.031 C 
ATOM     42  C   UNL     1       6.178   9.400   0.358  1.00  0.00     0.029 A 
ATOM     43  N   UNL     1       7.050  11.312   1.130  1.00  0.00    -0.354 N 
ATOM     44  C   UNL     1       7.988  11.805   5.317  1.00  0.00     0.074 A 
ATOM     45  C   UNL     1       7.640  10.620   6.069  1.00  0.00     0.031 C 
ATOM     46  C   UNL     1       6.348  10.222  -0.692  1.00  0.00     0.029 A 
ATOM     47  C   UNL     1       6.878  11.500  -0.219  1.00  0.00     0.049 A 
ATOM     48  H   UNL     1       7.441  11.992   1.724  1.00  0.00     0.167 HD
ATOM     49  C   UNL     1       8.558  12.909   5.856  1.00  0.00     0.031 A 
ATOM     50  C   UNL     1       7.103  12.588  -0.981  1.00  0.00     0.031 A 
ATOM     51  C   UNL     1       8.893  14.091   5.109  1.00  0.00     0.049 A 
ATOM     52  C   UNL     1       7.654  13.835  -0.341  1.00  0.00     0.074 A 
ATOM     53  C   UNL     1       9.485  15.258   5.561  1.00  0.00     0.029 A 
ATOM     54  N   UNL     1       8.656  14.261   3.754  1.00  0.00    -0.354 N 
ATOM     55  N   UNL     1       8.004  14.041   0.906  1.00  0.00    -0.248 NA
ATOM     56  C   UNL     1       7.849  14.997  -1.220  1.00  0.00     0.031 C 
ATOM     57  C   UNL     1       9.547  16.157   4.492  1.00  0.00     0.029 A 
ATOM     58  C   UNL     1       9.060  15.525   3.359  1.00  0.00     0.049 A 
ATOM     59  H   UNL     1       8.260  13.583   3.160  1.00  0.00     0.167 HD
ATOM     60  C   UNL     1       8.488  15.343   0.954  1.00  0.00     0.074 A 
ATOM     61  C   UNL     1       8.400  15.872  -0.391  1.00  0.00     0.031 C 
ATOM     62  C   UNL     1       8.965  16.038   2.016  1.00  0.00     0.031 A 
BRANCH  49  63
ATOM     63  C   UNL     1       8.815  12.901   7.338  1.00  0.00    -0.014 A 
ATOM     64  C   UNL     1       9.809  12.090   7.907  1.00  0.00     0.009 A 
ATOM     65  C   UNL     1       8.066  13.744   8.175  1.00  0.00     0.009 A 
ATOM     66  C   UNL     1      10.022  12.096   9.288  1.00  0.00     0.001 A 
ATOM     67  C   UNL     1       8.302  13.771   9.550  1.00  0.00     0.001 A 
ATOM     68  C   UNL     1       9.273  12.940  10.107  1.00  0.00     0.000 A 
ENDBRANCH  49  63
BRANCH  50  69
ATOM     69  C   UNL     1       6.783  12.559  -2.432  1.00  0.00    -0.014 A 
ATOM     70  C   UNL     1       7.803  12.620  -3.394  1.00  0.00     0.009 A 
ATOM     71  C   UNL     1       5.448  12.493  -2.864  1.00  0.00     0.009 A 
ATOM     72  C   UNL     1       7.492  12.641  -4.755  1.00  0.00     0.001 A 
ATOM     73  C   UNL     1       5.142  12.482  -4.226  1.00  0.00     0.001 A 
ATOM     74  C   UNL     1       6.163  12.567  -5.170  1.00  0.00     0.000 A 
ENDBRANCH  50  69
BRANCH  62  75
ATOM     75  C   UNL     1       9.469  17.433   1.761  1.00  0.00    -0.014 A 
ATOM     76  C   UNL     1       8.591  18.487   1.462  1.00  0.00     0.009 A 
ATOM     77  C   UNL     1      10.843  17.703   1.865  1.00  0.00     0.009 A 
ATOM     78  C   UNL     1       9.085  19.774   1.237  1.00  0.00     0.001 A 
ATOM     79  C   UNL     1      11.329  18.996   1.673  1.00  0.00     0.001 A 
ATOM     80  C   UNL     1      10.451  20.029   1.348  1.00  0.00     0.000 A 
ENDBRANCH  62  75
ENDBRANCH  36  37
ENDBRANCH  29  31
ENDBRANCH  28  29
ENDBRANCH  27  28
ENDBRANCH  26  27
ENDBRANCH  25  26
ENDBRANCH   1  25
TORSDOF 20
