REMARK SMILES CCC(CC)(NC(=O)Nc1cc(Cl)cc(Cl)c1)C(=O)OCCOCCOC(=O)c1ccc(-c2c3nc(c(-c4ccccc4)c4ccc([nH]4)c(-c4ccccc4)c4nc(c(-c5ccccc5)c5ccc2[nH]5)C=C4)C=C3)cc1
REMARK SMILES IDX 23 1 22 2 21 3 20 4 18 5 19 6 3 7 2 8 1 9 4 10 5 11 6 12
REMARK SMILES IDX 7 13 8 15 9 16 10 18 11 19 17 20 12 21 15 22 13 23 14 24
REMARK SMILES IDX 16 25 24 26 25 27 26 28 27 29 28 30 29 31 30 32 76 33 31 34
REMARK SMILES IDX 75 35 32 36 33 37 34 38 69 39 35 40 74 41 68 42 70 43 36 44
REMARK SMILES IDX 73 45 67 46 66 47 37 49 59 50 44 51 58 52 45 53 48 54 57 55
REMARK SMILES IDX 71 56 46 57 47 58 56 60 72 61 49 62 38 63 39 64 43 65 40 66
REMARK SMILES IDX 42 67 41 68 60 69 61 70 65 71 62 72 64 73 63 74 50 75 51 76
REMARK SMILES IDX 55 77 52 78 54 79 53 80
REMARK H PARENT 6 14 9 17 70 48 48 59
REMARK Flexibility Score: inf
ROOT
ATOM      1  O   UNL     1       4.429  -1.461   3.216  1.00  0.00    -0.374 OA
ENDROOT
BRANCH   1   2
ATOM      2  C   UNL     1       4.848  -0.454   4.128  1.00  0.00     0.202 C 
BRANCH   2   3
ATOM      3  C   UNL     1       3.963   0.863   4.220  1.00  0.00     0.261 C 
BRANCH   3   4
ATOM      4  O   UNL     1       2.536   0.662   4.005  1.00  0.00    -0.461 OA
BRANCH   4   5
ATOM      5  C   UNL     1       1.712   1.547   3.307  1.00  0.00     0.331 C 
ATOM      6  O   UNL     1       1.970   2.744   3.205  1.00  0.00    -0.249 OA
BRANCH   5   7
ATOM      7  C   UNL     1       0.410   0.821   2.583  1.00  0.00     0.139 C 
BRANCH   7   8
ATOM      8  C   UNL     1       0.088   0.274   1.127  1.00  0.00     0.037 C 
ATOM      9  C   UNL     1       0.286   1.017  -0.166  1.00  0.00     0.007 C 
ENDBRANCH   7   8
BRANCH   7  10
ATOM     10  C   UNL     1      -0.758   1.780   2.975  1.00  0.00     0.037 C 
ATOM     11  C   UNL     1      -2.199   1.311   2.796  1.00  0.00     0.007 C 
ENDBRANCH   7  10
BRANCH   7  12
ATOM     12  N   UNL     1       0.508  -0.428   3.289  1.00  0.00    -0.322 N 
ATOM     13  C   UNL     1       1.445  -1.364   2.999  1.00  0.00     0.320 C 
ATOM     14  H   UNL     1      -0.134  -0.612   4.013  1.00  0.00     0.166 HD
ATOM     15  O   UNL     1       1.400  -2.391   3.683  1.00  0.00    -0.248 OA
ATOM     16  N   UNL     1       2.365  -1.286   1.982  1.00  0.00    -0.308 N 
ATOM     17  H   UNL     1       2.648  -2.212   1.806  1.00  0.00     0.171 HD
BRANCH  16  18
ATOM     18  C   UNL     1       3.115  -0.458   1.043  1.00  0.00     0.045 A 
ATOM     19  C   UNL     1       3.354   0.922   0.995  1.00  0.00     0.046 A 
ATOM     20  C   UNL     1       3.835  -1.180   0.081  1.00  0.00     0.046 A 
ATOM     21  C   UNL     1       4.175   1.556   0.042  1.00  0.00     0.044 A 
ATOM     22  C   UNL     1       4.664  -0.558  -0.874  1.00  0.00     0.044 A 
ATOM     23  Cl  UNL     1       4.389   3.270   0.093  1.00  0.00    -0.084 Cl
ATOM     24  C   UNL     1       4.823   0.817  -0.916  1.00  0.00     0.041 A 
ATOM     25  Cl  UNL     1       5.524  -1.528  -2.003  1.00  0.00    -0.084 Cl
ENDBRANCH  16  18
ENDBRANCH   7  12
ENDBRANCH   5   7
ENDBRANCH   4   5
ENDBRANCH   3   4
ENDBRANCH   2   3
ENDBRANCH   1   2
BRANCH   1  26
ATOM     26  C   UNL     1       4.956  -2.795   3.280  1.00  0.00     0.202 C 
BRANCH  26  27
ATOM     27  C   UNL     1       4.192  -3.740   4.234  1.00  0.00     0.261 C 
BRANCH  27  28
ATOM     28  O   UNL     1       4.277  -3.278   5.578  1.00  0.00    -0.460 OA
BRANCH  28  29
ATOM     29  C   UNL     1       5.534  -3.347   6.056  1.00  0.00     0.338 C 
ATOM     30  O   UNL     1       6.453  -4.029   5.619  1.00  0.00    -0.246 OA
BRANCH  29  31
ATOM     31  C   UNL     1       5.724  -2.221   6.976  1.00  0.00     0.060 A 
ATOM     32  C   UNL     1       6.933  -1.524   6.861  1.00  0.00     0.016 A 
ATOM     33  C   UNL     1       4.722  -1.798   7.857  1.00  0.00     0.016 A 
ATOM     34  C   UNL     1       7.207  -0.490   7.736  1.00  0.00     0.010 A 
ATOM     35  C   UNL     1       4.999  -0.762   8.744  1.00  0.00     0.010 A 
ATOM     36  C   UNL     1       6.279  -0.183   8.738  1.00  0.00    -0.014 A 
BRANCH  36  37
ATOM     37  C   UNL     1       6.817   0.434   9.964  1.00  0.00     0.031 A 
ATOM     38  C   UNL     1       7.272  -0.502  11.052  1.00  0.00     0.074 A 
ATOM     39  C   UNL     1       7.032   1.754  10.040  1.00  0.00     0.049 A 
ATOM     40  N   UNL     1       7.906  -0.237  12.163  1.00  0.00    -0.248 NA
ATOM     41  C   UNL     1       6.987  -1.935  10.852  1.00  0.00     0.031 C 
ATOM     42  C   UNL     1       6.700   2.732   9.006  1.00  0.00     0.029 A 
ATOM     43  N   UNL     1       7.617   2.490  11.034  1.00  0.00    -0.354 N 
ATOM     44  C   UNL     1       8.090  -1.465  12.787  1.00  0.00     0.074 A 
ATOM     45  C   UNL     1       7.471  -2.471  11.959  1.00  0.00     0.031 C 
ATOM     46  C   UNL     1       7.106   3.947   9.416  1.00  0.00     0.029 A 
ATOM     47  C   UNL     1       7.700   3.827  10.746  1.00  0.00     0.049 A 
ATOM     48  H   UNL     1       7.947   2.096  11.874  1.00  0.00     0.167 HD
ATOM     49  C   UNL     1       8.731  -1.736  13.945  1.00  0.00     0.031 A 
ATOM     50  C   UNL     1       8.203   4.833  11.485  1.00  0.00     0.031 A 
ATOM     51  C   UNL     1       9.329  -0.729  14.774  1.00  0.00     0.049 A 
ATOM     52  C   UNL     1       8.820   4.516  12.822  1.00  0.00     0.074 A 
ATOM     53  C   UNL     1      10.003  -0.886  15.970  1.00  0.00     0.029 A 
ATOM     54  N   UNL     1       9.309   0.628  14.493  1.00  0.00    -0.354 N 
ATOM     55  N   UNL     1       9.013   3.351  13.394  1.00  0.00    -0.248 NA
ATOM     56  C   UNL     1       9.302   5.660  13.608  1.00  0.00     0.031 C 
ATOM     57  C   UNL     1      10.328   0.387  16.450  1.00  0.00     0.029 A 
ATOM     58  C   UNL     1       9.928   1.327  15.512  1.00  0.00     0.049 A 
ATOM     59  H   UNL     1       8.914   1.034  13.687  1.00  0.00     0.167 HD
ATOM     60  C   UNL     1       9.674   3.618  14.588  1.00  0.00     0.074 A 
ATOM     61  C   UNL     1       9.858   5.054  14.647  1.00  0.00     0.031 C 
ATOM     62  C   UNL     1      10.097   2.757  15.547  1.00  0.00     0.031 A 
BRANCH  49  63
ATOM     63  C   UNL     1       8.751  -3.168  14.402  1.00  0.00    -0.014 A 
ATOM     64  C   UNL     1       9.498  -4.149  13.728  1.00  0.00     0.009 A 
ATOM     65  C   UNL     1       7.999  -3.541  15.526  1.00  0.00     0.009 A 
ATOM     66  C   UNL     1       9.459  -5.480  14.149  1.00  0.00     0.001 A 
ATOM     67  C   UNL     1       7.989  -4.865  15.965  1.00  0.00     0.001 A 
ATOM     68  C   UNL     1       8.709  -5.835  15.271  1.00  0.00     0.000 A 
ENDBRANCH  49  63
BRANCH  50  69
ATOM     69  C   UNL     1       8.141   6.231  10.985  1.00  0.00    -0.014 A 
ATOM     70  C   UNL     1       9.313   6.931  10.663  1.00  0.00     0.009 A 
ATOM     71  C   UNL     1       6.905   6.883  10.856  1.00  0.00     0.009 A 
ATOM     72  C   UNL     1       9.250   8.266  10.257  1.00  0.00     0.001 A 
ATOM     73  C   UNL     1       6.842   8.207  10.419  1.00  0.00     0.001 A 
ATOM     74  C   UNL     1       8.015   8.901  10.132  1.00  0.00     0.000 A 
ENDBRANCH  50  69
BRANCH  62  75
ATOM     75  C   UNL     1      10.843   3.342  16.715  1.00  0.00    -0.014 A 
ATOM     76  C   UNL     1      10.203   4.141  17.673  1.00  0.00     0.009 A 
ATOM     77  C   UNL     1      12.209   3.053  16.873  1.00  0.00     0.009 A 
ATOM     78  C   UNL     1      10.926   4.678  18.740  1.00  0.00     0.001 A 
ATOM     79  C   UNL     1      12.920   3.558  17.961  1.00  0.00     0.001 A 
ATOM     80  C   UNL     1      12.281   4.382  18.886  1.00  0.00     0.000 A 
ENDBRANCH  62  75
ENDBRANCH  36  37
ENDBRANCH  29  31
ENDBRANCH  28  29
ENDBRANCH  27  28
ENDBRANCH  26  27
ENDBRANCH   1  26
TORSDOF 18
