REMARK SMILES CCC[NH2+][C@]1(C(=O)OCCOCCOC(=O)c2ccc(-c3c4nc(c(-c5ccccc5)c5ccc([nH]5)c(-c5ccccc5)c5nc(c(-c6ccccc6)c6ccc3[nH]6)C=C5)C=C4)cc2)CCC[C@H](n2ccc(C)n2)C1
REMARK SMILES IDX 10 1 9 2 8 3 6 4 7 5 5 6 65 7 75 8 66 9 68 10 67 11 4 12
REMARK SMILES IDX 3 15 2 16 1 17 69 18 70 19 74 20 71 21 72 22 73 23 11 24
REMARK SMILES IDX 12 25 13 26 14 27 15 28 16 29 17 30 18 31 64 32 19 33 63 34
REMARK SMILES IDX 20 35 21 36 22 37 57 38 23 39 62 40 56 41 58 42 24 43 61 44
REMARK SMILES IDX 55 45 54 46 25 48 47 49 32 50 46 51 33 52 36 53 45 54 59 55
REMARK SMILES IDX 34 56 35 57 44 59 60 60 37 61 26 62 27 63 31 64 28 65 30 66
REMARK SMILES IDX 29 67 48 68 49 69 53 70 50 71 52 72 51 73 38 74 39 75 43 76
REMARK SMILES IDX 40 77 42 78 41 79
REMARK H PARENT 4 13 4 14 58 47 36 58
REMARK Flexibility Score: inf
ROOT
ATOM      1  C   UNL     1      -0.921   0.176   0.305  1.00  0.00     0.202 C 
ENDROOT
BRANCH   1   2
ATOM      2  C   UNL     1       0.431   0.203   1.026  1.00  0.00     0.261 C 
BRANCH   2   3
ATOM      3  O   UNL     1       0.628   1.393   1.809  1.00  0.00    -0.459 OA
BRANCH   3   4
ATOM      4  C   UNL     1       1.382   2.354   1.208  1.00  0.00     0.368 C 
ATOM      5  O   UNL     1       1.815   2.264   0.059  1.00  0.00    -0.245 OA
BRANCH   4   6
ATOM      6  C   UNL     1       1.621   3.626   2.101  1.00  0.00     0.196 C 
ATOM      7  C   UNL     1       0.897   4.807   1.411  1.00  0.00     0.081 C 
ATOM      8  C   UNL     1       0.986   3.472   3.515  1.00  0.00     0.108 C 
ATOM      9  C   UNL     1       1.008   6.105   2.203  1.00  0.00     0.009 C 
ATOM     10  C   UNL     1       0.826   4.749   4.402  1.00  0.00     0.114 C 
ATOM     11  C   UNL     1       0.357   5.969   3.577  1.00  0.00     0.028 C 
BRANCH   6  12
ATOM     12  N   UNL     1       3.071   3.815   1.947  1.00  0.00    -0.332 N 
ATOM     13  H   UNL     1       3.437   2.923   1.614  1.00  0.00     0.347 HD
ATOM     14  H   UNL     1       3.106   4.637   1.344  1.00  0.00     0.347 HD
BRANCH  12  15
ATOM     15  C   UNL     1       3.921   4.213   3.024  1.00  0.00     0.261 C 
BRANCH  15  16
ATOM     16  C   UNL     1       5.409   4.169   2.675  1.00  0.00     0.058 C 
ATOM     17  C   UNL     1       5.787   5.006   1.465  1.00  0.00     0.010 C 
ENDBRANCH  15  16
ENDBRANCH  12  15
ENDBRANCH   6  12
BRANCH  10  18
ATOM     18  N   UNL     1       1.947   4.975   5.315  1.00  0.00    -0.269 N 
ATOM     19  C   UNL     1       2.547   6.140   5.704  1.00  0.00     0.109 A 
ATOM     20  N   UNL     1       2.523   3.900   5.896  1.00  0.00    -0.178 NA
ATOM     21  C   UNL     1       3.720   5.772   6.329  1.00  0.00     0.045 A 
ATOM     22  C   UNL     1       3.694   4.362   6.346  1.00  0.00     0.059 A 
ATOM     23  C   UNL     1       4.782   3.412   6.679  1.00  0.00     0.069 C 
ENDBRANCH  10  18
ENDBRANCH   4   6
ENDBRANCH   3   4
ENDBRANCH   2   3
ENDBRANCH   1   2
BRANCH   1  24
ATOM     24  O   UNL     1      -1.157   1.155  -0.707  1.00  0.00    -0.374 OA
BRANCH  24  25
ATOM     25  C   UNL     1      -1.460   2.478  -0.271  1.00  0.00     0.202 C 
BRANCH  25  26
ATOM     26  C   UNL     1      -2.915   2.773   0.094  1.00  0.00     0.261 C 
BRANCH  26  27
ATOM     27  O   UNL     1      -3.333   1.991   1.224  1.00  0.00    -0.460 OA
BRANCH  27  28
ATOM     28  C   UNL     1      -4.126   0.949   0.901  1.00  0.00     0.338 C 
ATOM     29  O   UNL     1      -4.618   0.705  -0.199  1.00  0.00    -0.246 OA
BRANCH  28  30
ATOM     30  C   UNL     1      -4.215  -0.003   2.017  1.00  0.00     0.060 A 
ATOM     31  C   UNL     1      -4.051  -1.358   1.701  1.00  0.00     0.016 A 
ATOM     32  C   UNL     1      -4.550   0.393   3.315  1.00  0.00     0.016 A 
ATOM     33  C   UNL     1      -4.338  -2.330   2.648  1.00  0.00     0.010 A 
ATOM     34  C   UNL     1      -4.840  -0.588   4.269  1.00  0.00     0.010 A 
ATOM     35  C   UNL     1      -4.805  -1.948   3.912  1.00  0.00    -0.014 A 
BRANCH  35  36
ATOM     36  C   UNL     1      -5.484  -2.972   4.738  1.00  0.00     0.031 A 
ATOM     37  C   UNL     1      -6.988  -3.038   4.704  1.00  0.00     0.074 A 
ATOM     38  C   UNL     1      -4.779  -3.890   5.418  1.00  0.00     0.049 A 
ATOM     39  N   UNL     1      -7.795  -3.897   5.272  1.00  0.00    -0.248 NA
ATOM     40  C   UNL     1      -7.673  -1.995   3.923  1.00  0.00     0.031 C 
ATOM     41  C   UNL     1      -3.321  -3.955   5.488  1.00  0.00     0.029 A 
ATOM     42  N   UNL     1      -5.206  -4.954   6.170  1.00  0.00    -0.354 N 
ATOM     43  C   UNL     1      -9.078  -3.497   4.918  1.00  0.00     0.074 A 
ATOM     44  C   UNL     1      -8.945  -2.293   4.128  1.00  0.00     0.031 C 
ATOM     45  C   UNL     1      -2.972  -5.011   6.243  1.00  0.00     0.029 A 
ATOM     46  C   UNL     1      -4.181  -5.678   6.722  1.00  0.00     0.049 A 
ATOM     47  H   UNL     1      -6.156  -5.176   6.301  1.00  0.00     0.167 HD
ATOM     48  C   UNL     1     -10.263  -4.083   5.211  1.00  0.00     0.031 A 
ATOM     49  C   UNL     1      -4.217  -6.757   7.526  1.00  0.00     0.031 A 
ATOM     50  C   UNL     1     -10.397  -5.269   6.013  1.00  0.00     0.049 A 
ATOM     51  C   UNL     1      -5.545  -7.364   7.886  1.00  0.00     0.074 A 
ATOM     52  C   UNL     1     -11.549  -5.945   6.374  1.00  0.00     0.029 A 
ATOM     53  N   UNL     1      -9.334  -5.952   6.586  1.00  0.00    -0.354 N 
ATOM     54  N   UNL     1      -6.751  -6.989   7.531  1.00  0.00    -0.248 NA
ATOM     55  C   UNL     1      -5.513  -8.559   8.741  1.00  0.00     0.031 C 
ATOM     56  C   UNL     1     -11.186  -7.008   7.210  1.00  0.00     0.029 A 
ATOM     57  C   UNL     1      -9.804  -7.032   7.315  1.00  0.00     0.049 A 
ATOM     58  H   UNL     1      -8.386  -5.706   6.489  1.00  0.00     0.167 HD
ATOM     59  C   UNL     1      -7.619  -7.918   8.091  1.00  0.00     0.074 A 
ATOM     60  C   UNL     1      -6.798  -8.880   8.799  1.00  0.00     0.031 C 
ATOM     61  C   UNL     1      -8.973  -7.974   8.021  1.00  0.00     0.031 A 
BRANCH  48  62
ATOM     62  C   UNL     1     -11.504  -3.410   4.689  1.00  0.00    -0.014 A 
ATOM     63  C   UNL     1     -11.802  -3.385   3.316  1.00  0.00     0.009 A 
ATOM     64  C   UNL     1     -12.379  -2.775   5.583  1.00  0.00     0.009 A 
ATOM     65  C   UNL     1     -12.921  -2.693   2.847  1.00  0.00     0.001 A 
ATOM     66  C   UNL     1     -13.515  -2.112   5.114  1.00  0.00     0.001 A 
ATOM     67  C   UNL     1     -13.777  -2.059   3.746  1.00  0.00     0.000 A 
ENDBRANCH  48  62
BRANCH  49  68
ATOM     68  C   UNL     1      -2.946  -7.329   8.040  1.00  0.00    -0.014 A 
ATOM     69  C   UNL     1      -2.469  -8.563   7.574  1.00  0.00     0.009 A 
ATOM     70  C   UNL     1      -2.192  -6.624   8.992  1.00  0.00     0.009 A 
ATOM     71  C   UNL     1      -1.270  -9.087   8.064  1.00  0.00     0.001 A 
ATOM     72  C   UNL     1      -0.981  -7.138   9.459  1.00  0.00     0.001 A 
ATOM     73  C   UNL     1      -0.524  -8.371   9.000  1.00  0.00     0.000 A 
ENDBRANCH  49  68
BRANCH  61  74
ATOM     74  C   UNL     1      -9.646  -9.140   8.693  1.00  0.00    -0.014 A 
ATOM     75  C   UNL     1      -9.703  -9.251  10.091  1.00  0.00     0.009 A 
ATOM     76  C   UNL     1     -10.257 -10.131   7.907  1.00  0.00     0.009 A 
ATOM     77  C   UNL     1     -10.317 -10.355  10.687  1.00  0.00     0.001 A 
ATOM     78  C   UNL     1     -10.898 -11.216   8.506  1.00  0.00     0.001 A 
ATOM     79  C   UNL     1     -10.917 -11.334   9.894  1.00  0.00     0.000 A 
ENDBRANCH  61  74
ENDBRANCH  35  36
ENDBRANCH  28  30
ENDBRANCH  27  28
ENDBRANCH  26  27
ENDBRANCH  25  26
ENDBRANCH  24  25
ENDBRANCH   1  24
TORSDOF 18
