REMARK SMILES CCCCCC[C@@H](C)N1C[C@H](C(=O)OCCOCCOC(=O)c2ccc(-c3c4nc(c(-c5ccccc5)c5ccc([nH]5)c(-c5ccccc5)c5nc(c(-c6ccccc6)c6ccc3[nH]6)C=C5)C=C4)cc2)CC1=O
REMARK SMILES IDX 15 1 14 2 12 3 13 4 11 5 9 6 10 7 72 8 71 9 73 10 7 11 8 12
REMARK SMILES IDX 6 13 5 14 4 15 3 16 2 17 1 18 16 19 17 20 18 21 19 22 20 23
REMARK SMILES IDX 21 24 22 25 23 26 24 27 70 28 25 29 69 30 26 31 27 32 28 33
REMARK SMILES IDX 63 34 29 35 68 36 62 37 64 38 30 39 67 40 61 41 60 42 31 44
REMARK SMILES IDX 53 45 38 46 52 47 39 48 42 49 51 50 65 51 40 52 41 53 50 55
REMARK SMILES IDX 66 56 43 57 32 58 33 59 37 60 34 61 36 62 35 63 54 64 55 65
REMARK SMILES IDX 59 66 56 67 58 68 57 69 44 70 45 71 49 72 46 73 48 74 47 75
REMARK H PARENT 64 43 42 54
REMARK Flexibility Score: inf
ROOT
ATOM      1  C   UNL     1       2.221  -7.137  -5.270  1.00  0.00     0.261 C 
ENDROOT
BRANCH   1   2
ATOM      2  O   UNL     1       0.955  -7.544  -4.731  1.00  0.00    -0.463 OA
BRANCH   2   3
ATOM      3  C   UNL     1       0.102  -6.519  -4.455  1.00  0.00     0.311 C 
ATOM      4  O   UNL     1       0.398  -5.333  -4.478  1.00  0.00    -0.252 OA
BRANCH   3   5
ATOM      5  C   UNL     1      -1.283  -7.057  -4.158  1.00  0.00     0.128 C 
ATOM      6  N   UNL     1      -1.867  -5.714  -2.372  1.00  0.00    -0.339 N 
ATOM      7  C   UNL     1      -1.479  -7.076  -2.669  1.00  0.00     0.135 C 
ATOM      8  C   UNL     1      -2.441  -5.106  -3.492  1.00  0.00     0.223 C 
ATOM      9  C   UNL     1      -2.353  -6.085  -4.642  1.00  0.00     0.117 C 
ATOM     10  O   UNL     1      -2.945  -4.000  -3.582  1.00  0.00    -0.275 OA
BRANCH   6  11
ATOM     11  C   UNL     1      -1.327  -5.041  -1.180  1.00  0.00     0.082 C 
ATOM     12  C   UNL     1      -1.691  -5.830   0.082  1.00  0.00     0.031 C 
BRANCH  11  13
ATOM     13  C   UNL     1      -1.688  -3.549  -1.052  1.00  0.00     0.025 C 
BRANCH  13  14
ATOM     14  C   UNL     1      -0.989  -2.809   0.097  1.00  0.00     0.002 C 
BRANCH  14  15
ATOM     15  C   UNL     1       0.542  -2.789   0.017  1.00  0.00     0.000 C 
BRANCH  15  16
ATOM     16  C   UNL     1       1.124  -2.059  -1.200  1.00  0.00    -0.000 C 
BRANCH  16  17
ATOM     17  C   UNL     1       0.717  -0.589  -1.336  1.00  0.00    -0.003 C 
ATOM     18  C   UNL     1       1.098   0.259  -0.132  1.00  0.00     0.004 C 
ENDBRANCH  16  17
ENDBRANCH  15  16
ENDBRANCH  14  15
ENDBRANCH  13  14
ENDBRANCH  11  13
ENDBRANCH   6  11
ENDBRANCH   3   5
ENDBRANCH   2   3
ENDBRANCH   1   2
BRANCH   1  19
ATOM     19  C   UNL     1       2.336  -7.502  -6.752  1.00  0.00     0.202 C 
BRANCH  19  20
ATOM     20  O   UNL     1       1.409  -6.900  -7.652  1.00  0.00    -0.374 OA
BRANCH  20  21
ATOM     21  C   UNL     1       0.061  -7.366  -7.664  1.00  0.00     0.202 C 
BRANCH  21  22
ATOM     22  C   UNL     1      -0.221  -8.746  -8.271  1.00  0.00     0.261 C 
BRANCH  22  23
ATOM     23  O   UNL     1       0.429  -9.812  -7.558  1.00  0.00    -0.460 OA
BRANCH  23  24
ATOM     24  C   UNL     1       1.426 -10.417  -8.246  1.00  0.00     0.338 C 
ATOM     25  O   UNL     1       1.774 -10.195  -9.399  1.00  0.00    -0.246 OA
BRANCH  24  26
ATOM     26  C   UNL     1       2.200 -11.296  -7.356  1.00  0.00     0.060 A 
ATOM     27  C   UNL     1       3.577 -11.061  -7.252  1.00  0.00     0.016 A 
ATOM     28  C   UNL     1       1.612 -12.388  -6.714  1.00  0.00     0.016 A 
ATOM     29  C   UNL     1       4.384 -11.946  -6.544  1.00  0.00     0.010 A 
ATOM     30  C   UNL     1       2.427 -13.283  -6.014  1.00  0.00     0.010 A 
ATOM     31  C   UNL     1       3.819 -13.086  -5.958  1.00  0.00    -0.014 A 
BRANCH  31  32
ATOM     32  C   UNL     1       4.708 -14.145  -5.428  1.00  0.00     0.031 A 
ATOM     33  C   UNL     1       5.005 -15.343  -6.289  1.00  0.00     0.074 A 
ATOM     34  C   UNL     1       5.277 -14.024  -4.216  1.00  0.00     0.049 A 
ATOM     35  N   UNL     1       5.736 -16.395  -6.021  1.00  0.00    -0.248 NA
ATOM     36  C   UNL     1       4.399 -15.355  -7.631  1.00  0.00     0.031 C 
ATOM     37  C   UNL     1       5.111 -12.886  -3.313  1.00  0.00     0.029 A 
ATOM     38  N   UNL     1       6.114 -14.874  -3.539  1.00  0.00    -0.354 N 
ATOM     39  C   UNL     1       5.673 -17.195  -7.155  1.00  0.00     0.074 A 
ATOM     40  C   UNL     1       4.812 -16.522  -8.103  1.00  0.00     0.031 C 
ATOM     41  C   UNL     1       5.821 -13.114  -2.193  1.00  0.00     0.029 A 
ATOM     42  C   UNL     1       6.461 -14.423  -2.290  1.00  0.00     0.049 A 
ATOM     43  H   UNL     1       6.434 -15.727  -3.913  1.00  0.00     0.167 HD
ATOM     44  C   UNL     1       6.284 -18.380  -7.390  1.00  0.00     0.031 A 
ATOM     45  C   UNL     1       7.197 -15.012  -1.328  1.00  0.00     0.031 A 
ATOM     46  C   UNL     1       7.131 -19.055  -6.444  1.00  0.00     0.049 A 
ATOM     47  C   UNL     1       7.795 -16.370  -1.582  1.00  0.00     0.074 A 
ATOM     48  C   UNL     1       7.799 -20.259  -6.590  1.00  0.00     0.029 A 
ATOM     49  N   UNL     1       7.422 -18.587  -5.173  1.00  0.00    -0.354 N 
ATOM     50  N   UNL     1       7.742 -17.108  -2.665  1.00  0.00    -0.248 NA
ATOM     51  C   UNL     1       8.560 -16.973  -0.481  1.00  0.00     0.031 C 
ATOM     52  C   UNL     1       8.454 -20.543  -5.387  1.00  0.00     0.029 A 
ATOM     53  C   UNL     1       8.240 -19.488  -4.514  1.00  0.00     0.049 A 
ATOM     54  H   UNL     1       7.096 -17.738  -4.795  1.00  0.00     0.167 HD
ATOM     55  C   UNL     1       8.491 -18.245  -2.386  1.00  0.00     0.074 A 
ATOM     56  C   UNL     1       8.998 -18.093  -1.038  1.00  0.00     0.031 C 
ATOM     57  C   UNL     1       8.739 -19.319  -3.175  1.00  0.00     0.031 A 
BRANCH  44  58
ATOM     58  C   UNL     1       6.032 -19.039  -8.716  1.00  0.00    -0.014 A 
ATOM     59  C   UNL     1       6.599 -18.539  -9.898  1.00  0.00     0.009 A 
ATOM     60  C   UNL     1       5.247 -20.202  -8.777  1.00  0.00     0.009 A 
ATOM     61  C   UNL     1       6.364 -19.175 -11.119  1.00  0.00     0.001 A 
ATOM     62  C   UNL     1       5.035 -20.850  -9.995  1.00  0.00     0.001 A 
ATOM     63  C   UNL     1       5.587 -20.332 -11.166  1.00  0.00     0.000 A 
ENDBRANCH  44  58
BRANCH  45  64
ATOM     64  C   UNL     1       7.394 -14.337  -0.018  1.00  0.00    -0.014 A 
ATOM     65  C   UNL     1       8.659 -13.865   0.362  1.00  0.00     0.009 A 
ATOM     66  C   UNL     1       6.320 -14.194   0.874  1.00  0.00     0.009 A 
ATOM     67  C   UNL     1       8.851 -13.291   1.622  1.00  0.00     0.001 A 
ATOM     68  C   UNL     1       6.508 -13.593   2.120  1.00  0.00     0.001 A 
ATOM     69  C   UNL     1       7.775 -13.153   2.498  1.00  0.00     0.000 A 
ENDBRANCH  45  64
BRANCH  57  70
ATOM     70  C   UNL     1       9.631 -20.392  -2.618  1.00  0.00    -0.014 A 
ATOM     71  C   UNL     1       9.186 -21.263  -1.612  1.00  0.00     0.009 A 
ATOM     72  C   UNL     1      10.924 -20.558  -3.139  1.00  0.00     0.009 A 
ATOM     73  C   UNL     1      10.031 -22.258  -1.116  1.00  0.00     0.001 A 
ATOM     74  C   UNL     1      11.756 -21.572  -2.662  1.00  0.00     0.001 A 
ATOM     75  C   UNL     1      11.312 -22.414  -1.644  1.00  0.00     0.000 A 
ENDBRANCH  57  70
ENDBRANCH  31  32
ENDBRANCH  24  26
ENDBRANCH  23  24
ENDBRANCH  22  23
ENDBRANCH  21  22
ENDBRANCH  20  21
ENDBRANCH  19  20
ENDBRANCH   1  19
TORSDOF 20
