REMARK SMILES COC(=O)c1ccc(NC(=O)[C@@H]2CC=CC[C@@H]2C(=O)OCCOCCOC(=O)c2ccc(-c3c4nc(c(-c5ccccc5)c5ccc([nH]5)c(-c5ccccc5)c5nc(c(-c6ccccc6)c6ccc3[nH]6)C=C5)C=C4)cc2)c(C)c1
REMARK SMILES IDX 22 1 21 2 20 3 18 4 19 5 17 6 12 7 13 8 14 9 16 10 15 11
REMARK SMILES IDX 10 12 9 13 11 15 8 16 5 17 6 18 79 19 7 20 77 21 78 22 3 23
REMARK SMILES IDX 4 24 2 25 1 26 23 27 24 28 25 29 26 30 27 31 28 32 29 33
REMARK SMILES IDX 30 34 76 35 31 36 75 37 32 38 33 39 34 40 69 41 35 42 74 43
REMARK SMILES IDX 68 44 70 45 36 46 73 47 67 48 66 49 37 51 59 52 44 53 58 54
REMARK SMILES IDX 45 55 48 56 57 57 71 58 46 59 47 60 56 62 72 63 49 64 38 65
REMARK SMILES IDX 39 66 43 67 40 68 42 69 41 70 60 71 61 72 65 73 62 74 64 75
REMARK SMILES IDX 63 76 50 77 51 78 55 79 52 80 54 81 53 82
REMARK H PARENT 9 14 70 50 48 61
REMARK Flexibility Score: inf
ROOT
ATOM      1  C   UNL     1       1.939  -2.554   2.676  1.00  0.00     0.202 C 
ENDROOT
BRANCH   1   2
ATOM      2  C   UNL     1       2.308  -3.363   3.888  1.00  0.00     0.261 C 
BRANCH   2   3
ATOM      3  O   UNL     1       3.621  -3.931   3.766  1.00  0.00    -0.463 OA
BRANCH   3   4
ATOM      4  C   UNL     1       3.903  -4.756   2.712  1.00  0.00     0.310 C 
ATOM      5  O   UNL     1       3.234  -5.692   2.343  1.00  0.00    -0.252 OA
BRANCH   4   6
ATOM      6  C   UNL     1       5.167  -4.309   2.033  1.00  0.00     0.116 C 
ATOM      7  C   UNL     1       6.209  -5.409   1.956  1.00  0.00     0.097 C 
ATOM      8  C   UNL     1       6.541  -5.960   3.349  1.00  0.00     0.041 C 
ATOM      9  C   UNL     1       6.827  -4.867   4.334  1.00  0.00    -0.030 C 
ATOM     10  C   UNL     1       5.851  -3.131   2.806  1.00  0.00     0.043 C 
ATOM     11  C   UNL     1       6.556  -3.579   4.072  1.00  0.00    -0.030 C 
BRANCH   7  12
ATOM     12  C   UNL     1       6.263  -6.516   0.944  1.00  0.00     0.228 C 
ATOM     13  N   UNL     1       7.508  -7.086   0.704  1.00  0.00    -0.326 N 
ATOM     14  H   UNL     1       7.470  -7.880   0.122  1.00  0.00     0.169 HD
ATOM     15  O   UNL     1       5.275  -6.937   0.349  1.00  0.00    -0.274 OA
BRANCH  13  16
ATOM     16  C   UNL     1       8.836  -6.754   1.130  1.00  0.00     0.044 A 
ATOM     17  C   UNL     1      11.471  -6.213   2.054  1.00  0.00     0.060 A 
ATOM     18  C   UNL     1      10.481  -5.277   2.232  1.00  0.00     0.018 A 
ATOM     19  C   UNL     1      11.166  -7.426   1.426  1.00  0.00     0.021 A 
ATOM     20  C   UNL     1       9.208  -5.543   1.748  1.00  0.00     0.027 A 
ATOM     21  C   UNL     1       9.865  -7.697   0.935  1.00  0.00    -0.027 A 
ATOM     22  C   UNL     1       9.631  -9.012   0.241  1.00  0.00     0.046 C 
BRANCH  17  23
ATOM     23  C   UNL     1      12.828  -5.826   2.501  1.00  0.00     0.337 C 
ATOM     24  O   UNL     1      13.020  -5.134   3.488  1.00  0.00    -0.246 OA
BRANCH  23  25
ATOM     25  O   UNL     1      13.815  -6.296   1.702  1.00  0.00    -0.465 OA
ATOM     26  C   UNL     1      13.745  -5.870   0.335  1.00  0.00     0.282 C 
ENDBRANCH  23  25
ENDBRANCH  17  23
ENDBRANCH  13  16
ENDBRANCH   7  12
ENDBRANCH   4   6
ENDBRANCH   3   4
ENDBRANCH   2   3
ENDBRANCH   1   2
BRANCH   1  27
ATOM     27  O   UNL     1       1.833  -3.465   1.597  1.00  0.00    -0.374 OA
BRANCH  27  28
ATOM     28  C   UNL     1       1.627  -2.901   0.319  1.00  0.00     0.202 C 
BRANCH  28  29
ATOM     29  C   UNL     1       0.322  -2.102   0.247  1.00  0.00     0.261 C 
BRANCH  29  30
ATOM     30  O   UNL     1      -0.805  -2.974   0.491  1.00  0.00    -0.460 OA
BRANCH  30  31
ATOM     31  C   UNL     1      -1.289  -2.990   1.767  1.00  0.00     0.338 C 
ATOM     32  O   UNL     1      -1.608  -2.003   2.410  1.00  0.00    -0.246 OA
BRANCH  31  33
ATOM     33  C   UNL     1      -1.104  -4.346   2.366  1.00  0.00     0.060 A 
ATOM     34  C   UNL     1      -1.245  -4.531   3.758  1.00  0.00     0.016 A 
ATOM     35  C   UNL     1      -0.456  -5.310   1.603  1.00  0.00     0.016 A 
ATOM     36  C   UNL     1      -0.590  -5.595   4.401  1.00  0.00     0.010 A 
ATOM     37  C   UNL     1       0.289  -6.267   2.254  1.00  0.00     0.010 A 
ATOM     38  C   UNL     1       0.252  -6.410   3.651  1.00  0.00    -0.014 A 
BRANCH  38  39
ATOM     39  C   UNL     1       1.189  -7.414   4.167  1.00  0.00     0.031 A 
ATOM     40  C   UNL     1       1.020  -8.805   3.694  1.00  0.00     0.074 A 
ATOM     41  C   UNL     1       2.346  -7.058   4.778  1.00  0.00     0.049 A 
ATOM     42  N   UNL     1       1.721  -9.798   4.109  1.00  0.00    -0.248 NA
ATOM     43  C   UNL     1       0.005  -9.214   2.722  1.00  0.00     0.031 C 
ATOM     44  C   UNL     1       3.603  -7.804   4.843  1.00  0.00     0.029 A 
ATOM     45  N   UNL     1       2.652  -5.891   5.472  1.00  0.00    -0.354 N 
ATOM     46  C   UNL     1       1.534 -10.835   3.231  1.00  0.00     0.074 A 
ATOM     47  C   UNL     1       0.360 -10.477   2.479  1.00  0.00     0.031 C 
ATOM     48  C   UNL     1       4.428  -7.235   5.739  1.00  0.00     0.029 A 
ATOM     49  C   UNL     1       3.699  -6.149   6.364  1.00  0.00     0.049 A 
ATOM     50  H   UNL     1       2.204  -5.022   5.354  1.00  0.00     0.167 HD
ATOM     51  C   UNL     1       2.492 -11.801   3.167  1.00  0.00     0.031 A 
ATOM     52  C   UNL     1       3.538  -5.940   7.696  1.00  0.00     0.031 A 
ATOM     53  C   UNL     1       3.523 -11.585   4.202  1.00  0.00     0.049 A 
ATOM     54  C   UNL     1       3.597  -7.301   8.331  1.00  0.00     0.074 A 
ATOM     55  C   UNL     1       4.851 -11.194   4.160  1.00  0.00     0.029 A 
ATOM     56  N   UNL     1       3.121 -11.438   5.535  1.00  0.00    -0.354 N 
ATOM     57  N   UNL     1       3.195  -8.389   7.718  1.00  0.00    -0.248 NA
ATOM     58  C   UNL     1       4.347  -7.573   9.553  1.00  0.00     0.031 C 
ATOM     59  C   UNL     1       5.210 -10.732   5.466  1.00  0.00     0.029 A 
ATOM     60  C   UNL     1       4.112 -10.862   6.309  1.00  0.00     0.049 A 
ATOM     61  H   UNL     1       2.241 -11.712   5.880  1.00  0.00     0.167 HD
ATOM     62  C   UNL     1       3.807  -9.458   8.302  1.00  0.00     0.074 A 
ATOM     63  C   UNL     1       4.446  -8.913   9.495  1.00  0.00     0.031 C 
ATOM     64  C   UNL     1       3.933 -10.700   7.752  1.00  0.00     0.031 A 
BRANCH  51  65
ATOM     65  C   UNL     1       2.604 -12.824   2.052  1.00  0.00    -0.014 A 
ATOM     66  C   UNL     1       3.712 -13.690   2.009  1.00  0.00     0.009 A 
ATOM     67  C   UNL     1       1.691 -12.968   0.988  1.00  0.00     0.009 A 
ATOM     68  C   UNL     1       3.892 -14.625   0.975  1.00  0.00     0.001 A 
ATOM     69  C   UNL     1       1.855 -13.905  -0.043  1.00  0.00     0.001 A 
ATOM     70  C   UNL     1       2.961 -14.736  -0.051  1.00  0.00     0.000 A 
ENDBRANCH  51  65
BRANCH  52  71
ATOM     71  C   UNL     1       2.668  -4.756   7.972  1.00  0.00    -0.014 A 
ATOM     72  C   UNL     1       3.245  -3.478   7.761  1.00  0.00     0.009 A 
ATOM     73  C   UNL     1       1.269  -4.853   7.922  1.00  0.00     0.009 A 
ATOM     74  C   UNL     1       2.461  -2.372   7.404  1.00  0.00     0.001 A 
ATOM     75  C   UNL     1       0.490  -3.746   7.539  1.00  0.00     0.001 A 
ATOM     76  C   UNL     1       1.086  -2.518   7.253  1.00  0.00     0.000 A 
ENDBRANCH  52  71
BRANCH  64  77
ATOM     77  C   UNL     1       3.880 -11.927   8.620  1.00  0.00    -0.014 A 
ATOM     78  C   UNL     1       3.525 -11.888   9.976  1.00  0.00     0.009 A 
ATOM     79  C   UNL     1       3.981 -13.198   8.021  1.00  0.00     0.009 A 
ATOM     80  C   UNL     1       3.325 -13.057  10.709  1.00  0.00     0.001 A 
ATOM     81  C   UNL     1       3.718 -14.367   8.733  1.00  0.00     0.001 A 
ATOM     82  C   UNL     1       3.405 -14.295  10.082  1.00  0.00     0.000 A 
ENDBRANCH  64  77
ENDBRANCH  38  39
ENDBRANCH  31  33
ENDBRANCH  30  31
ENDBRANCH  29  30
ENDBRANCH  28  29
ENDBRANCH  27  28
ENDBRANCH   1  27
TORSDOF 18
