REMARK SMILES COc1ccc(Cl)c(NS(=O)(=O)c2ccc(C)c(C(=O)OCCOCCOC(=O)c3ccc(-c4c5nc(c(-c6ccccc6)c6ccc([nH]6)c(-c6ccccc6)c6nc(c(-c7ccccc7)c7ccc4[nH]7)C=C6)C=C5)cc3)c2)c1
REMARK SMILES IDX 23 1 22 2 21 3 19 4 20 5 18 6 13 7 14 8 78 9 15 10 16 11
REMARK SMILES IDX 17 12 10 13 11 14 12 15 9 16 8 18 3 19 4 20 79 21 5 22 6 23
REMARK SMILES IDX 7 24 2 25 1 26 24 27 25 28 26 29 27 30 28 31 29 32 30 33
REMARK SMILES IDX 31 34 77 35 32 36 76 37 33 38 34 39 35 40 70 41 36 42 75 43
REMARK SMILES IDX 69 44 71 45 37 46 74 47 68 48 67 49 38 51 60 52 45 53 59 54
REMARK SMILES IDX 46 55 49 56 58 57 72 58 47 59 48 60 57 62 73 63 50 64 39 65
REMARK SMILES IDX 40 66 44 67 41 68 43 69 42 70 61 71 62 72 66 73 63 74 65 75
REMARK SMILES IDX 64 76 51 77 52 78 56 79 53 80 55 81 54 82
REMARK H PARENT 9 17 71 50 49 61
REMARK Flexibility Score: inf
ROOT
ATOM      1  C   UNL     1      -4.309  -0.583   1.364  1.00  0.00     0.202 C 
ENDROOT
BRANCH   1   2
ATOM      2  C   UNL     1      -4.634  -1.085   0.004  1.00  0.00     0.261 C 
BRANCH   2   3
ATOM      3  O   UNL     1      -4.004  -0.271  -0.996  1.00  0.00    -0.460 OA
BRANCH   3   4
ATOM      4  C   UNL     1      -4.457   0.946  -1.377  1.00  0.00     0.338 C 
ATOM      5  O   UNL     1      -5.521   1.455  -1.139  1.00  0.00    -0.246 OA
BRANCH   4   6
ATOM      6  C   UNL     1      -3.350   1.606  -2.134  1.00  0.00     0.064 A 
ATOM      7  C   UNL     1      -2.349   3.726  -2.705  1.00  0.00     0.088 A 
ATOM      8  C   UNL     1      -1.325   3.087  -3.401  1.00  0.00     0.022 A 
ATOM      9  C   UNL     1      -3.428   3.002  -2.194  1.00  0.00     0.038 A 
ATOM     10  C   UNL     1      -1.248   1.697  -3.353  1.00  0.00     0.006 A 
ATOM     11  C   UNL     1      -2.199   0.949  -2.638  1.00  0.00    -0.036 A 
ATOM     12  C   UNL     1      -1.852  -0.487  -2.332  1.00  0.00     0.045 C 
BRANCH   7  13
ATOM     13  S   UNL     1      -2.177   5.427  -2.237  1.00  0.00     0.261 S 
ATOM     14  O   UNL     1      -3.308   5.779  -1.405  1.00  0.00    -0.201 OA
ATOM     15  O   UNL     1      -1.892   6.169  -3.447  1.00  0.00    -0.201 OA
BRANCH  13  16
ATOM     16  N   UNL     1      -0.805   5.611  -1.240  1.00  0.00    -0.278 N 
ATOM     17  H   UNL     1      -0.688   6.473  -0.778  1.00  0.00     0.180 HD
BRANCH  16  18
ATOM     18  C   UNL     1       0.198   4.591  -1.024  1.00  0.00     0.071 A 
ATOM     19  C   UNL     1       0.854   2.309  -0.476  1.00  0.00     0.121 A 
ATOM     20  C   UNL     1       2.197   2.642  -0.622  1.00  0.00     0.048 A 
ATOM     21  C   UNL     1      -0.128   3.304  -0.601  1.00  0.00     0.074 A 
ATOM     22  C   UNL     1       2.552   3.966  -0.890  1.00  0.00     0.026 A 
ATOM     23  C   UNL     1       1.560   4.930  -1.098  1.00  0.00     0.065 A 
ATOM     24  Cl  UNL     1       2.054   6.546  -1.462  1.00  0.00    -0.082 Cl
BRANCH  19  25
ATOM     25  O   UNL     1       0.361   1.043  -0.341  1.00  0.00    -0.497 OA
ATOM     26  C   UNL     1       1.143   0.099   0.375  1.00  0.00     0.278 C 
ENDBRANCH  19  25
ENDBRANCH  16  18
ENDBRANCH  13  16
ENDBRANCH   7  13
ENDBRANCH   4   6
ENDBRANCH   3   4
ENDBRANCH   2   3
ENDBRANCH   1   2
BRANCH   1  27
ATOM     27  O   UNL     1      -5.042   0.623   1.473  1.00  0.00    -0.374 OA
BRANCH  27  28
ATOM     28  C   UNL     1      -4.776   1.395   2.618  1.00  0.00     0.202 C 
BRANCH  28  29
ATOM     29  C   UNL     1      -5.071   0.618   3.905  1.00  0.00     0.261 C 
BRANCH  29  30
ATOM     30  O   UNL     1      -6.470   0.251   3.953  1.00  0.00    -0.460 OA
BRANCH  30  31
ATOM     31  C   UNL     1      -6.784  -1.029   3.593  1.00  0.00     0.338 C 
ATOM     32  O   UNL     1      -6.246  -2.035   4.026  1.00  0.00    -0.246 OA
BRANCH  31  33
ATOM     33  C   UNL     1      -7.661  -1.017   2.381  1.00  0.00     0.060 A 
ATOM     34  C   UNL     1      -7.874  -2.200   1.642  1.00  0.00     0.016 A 
ATOM     35  C   UNL     1      -7.926   0.217   1.799  1.00  0.00     0.016 A 
ATOM     36  C   UNL     1      -8.181  -2.132   0.272  1.00  0.00     0.010 A 
ATOM     37  C   UNL     1      -8.065   0.274   0.432  1.00  0.00     0.010 A 
ATOM     38  C   UNL     1      -8.179  -0.887  -0.350  1.00  0.00    -0.014 A 
BRANCH  38  39
ATOM     39  C   UNL     1      -8.223  -0.622  -1.790  1.00  0.00     0.031 A 
ATOM     40  C   UNL     1      -9.389   0.132  -2.292  1.00  0.00     0.074 A 
ATOM     41  C   UNL     1      -7.145  -0.811  -2.595  1.00  0.00     0.049 A 
ATOM     42  N   UNL     1      -9.743   0.131  -3.527  1.00  0.00    -0.248 NA
ATOM     43  C   UNL     1     -10.301   0.909  -1.448  1.00  0.00     0.031 C 
ATOM     44  C   UNL     1      -6.810  -0.154  -3.861  1.00  0.00     0.029 A 
ATOM     45  N   UNL     1      -6.056  -1.663  -2.411  1.00  0.00    -0.354 N 
ATOM     46  C   UNL     1     -10.633   1.164  -3.684  1.00  0.00     0.074 A 
ATOM     47  C   UNL     1     -11.065   1.516  -2.358  1.00  0.00     0.031 C 
ATOM     48  C   UNL     1      -5.775  -0.796  -4.442  1.00  0.00     0.029 A 
ATOM     49  C   UNL     1      -5.492  -1.984  -3.651  1.00  0.00     0.049 A 
ATOM     50  H   UNL     1      -5.733  -1.990  -1.540  1.00  0.00     0.167 HD
ATOM     51  C   UNL     1     -10.770   1.727  -4.913  1.00  0.00     0.031 A 
ATOM     52  C   UNL     1      -5.420  -3.287  -4.038  1.00  0.00     0.031 A 
ATOM     53  C   UNL     1      -9.844   1.120  -5.878  1.00  0.00     0.049 A 
ATOM     54  C   UNL     1      -6.382  -3.497  -5.177  1.00  0.00     0.074 A 
ATOM     55  C   UNL     1      -8.663   1.532  -6.476  1.00  0.00     0.029 A 
ATOM     56  N   UNL     1      -9.885  -0.255  -6.057  1.00  0.00    -0.354 N 
ATOM     57  N   UNL     1      -7.155  -2.540  -5.611  1.00  0.00    -0.248 NA
ATOM     58  C   UNL     1      -6.608  -4.743  -5.895  1.00  0.00     0.031 C 
ATOM     59  C   UNL     1      -8.033   0.384  -7.054  1.00  0.00     0.029 A 
ATOM     60  C   UNL     1      -8.841  -0.717  -6.830  1.00  0.00     0.049 A 
ATOM     61  H   UNL     1     -10.582  -0.836  -5.674  1.00  0.00     0.167 HD
ATOM     62  C   UNL     1      -7.957  -2.976  -6.606  1.00  0.00     0.074 A 
ATOM     63  C   UNL     1      -7.611  -4.387  -6.723  1.00  0.00     0.031 C 
ATOM     64  C   UNL     1      -8.836  -2.127  -7.215  1.00  0.00     0.031 A 
BRANCH  51  65
ATOM     65  C   UNL     1     -11.573   2.973  -5.179  1.00  0.00    -0.014 A 
ATOM     66  C   UNL     1     -11.300   3.735  -6.328  1.00  0.00     0.009 A 
ATOM     67  C   UNL     1     -12.624   3.439  -4.367  1.00  0.00     0.009 A 
ATOM     68  C   UNL     1     -11.996   4.914  -6.621  1.00  0.00     0.001 A 
ATOM     69  C   UNL     1     -13.302   4.637  -4.633  1.00  0.00     0.001 A 
ATOM     70  C   UNL     1     -12.987   5.375  -5.765  1.00  0.00     0.000 A 
ENDBRANCH  51  65
BRANCH  52  71
ATOM     71  C   UNL     1      -5.121  -4.201  -2.881  1.00  0.00    -0.014 A 
ATOM     72  C   UNL     1      -3.801  -4.209  -2.368  1.00  0.00     0.009 A 
ATOM     73  C   UNL     1      -6.152  -4.623  -2.025  1.00  0.00     0.009 A 
ATOM     74  C   UNL     1      -3.544  -4.503  -1.019  1.00  0.00     0.001 A 
ATOM     75  C   UNL     1      -5.892  -4.893  -0.670  1.00  0.00     0.001 A 
ATOM     76  C   UNL     1      -4.598  -4.802  -0.160  1.00  0.00     0.000 A 
ENDBRANCH  52  71
BRANCH  64  77
ATOM     77  C   UNL     1      -9.856  -2.593  -8.204  1.00  0.00    -0.014 A 
ATOM     78  C   UNL     1      -9.613  -3.615  -9.121  1.00  0.00     0.009 A 
ATOM     79  C   UNL     1     -11.120  -1.969  -8.252  1.00  0.00     0.009 A 
ATOM     80  C   UNL     1     -10.638  -4.096  -9.936  1.00  0.00     0.001 A 
ATOM     81  C   UNL     1     -12.136  -2.421  -9.085  1.00  0.00     0.001 A 
ATOM     82  C   UNL     1     -11.903  -3.512  -9.904  1.00  0.00     0.000 A 
ENDBRANCH  64  77
ENDBRANCH  38  39
ENDBRANCH  31  33
ENDBRANCH  30  31
ENDBRANCH  29  30
ENDBRANCH  28  29
ENDBRANCH  27  28
ENDBRANCH   1  27
TORSDOF 18
