REMARK SMILES C[C@H](C(=O)OCCOCCOC(=O)c1ccc(-c2c3nc(c(-c4ccccc4)c4ccc([nH]4)c(-c4ccccc4)c4nc(c(-c5ccccc5)c5ccc2[nH]5)C=C4)C=C3)cc1)c1ccc2c3cc(Cl)ccc3n(C(=O)c3cocn3)c2c1
REMARK SMILES IDX 7 1 6 2 5 3 3 4 4 5 2 6 1 7 62 8 63 9 82 10 64 11 81 12
REMARK SMILES IDX 65 13 73 14 66 15 72 16 67 17 71 18 68 19 70 20 69 21 74 22
REMARK SMILES IDX 75 23 76 24 77 25 80 26 78 27 79 28 8 29 9 30 10 31 11 32
REMARK SMILES IDX 12 33 13 34 14 35 15 36 61 37 16 38 60 39 17 40 18 41 19 42
REMARK SMILES IDX 54 43 20 44 59 45 53 46 55 47 21 48 58 49 52 50 51 51 22 53
REMARK SMILES IDX 44 54 29 55 43 56 30 57 33 58 42 59 56 60 31 61 32 62 41 64
REMARK SMILES IDX 57 65 34 66 23 67 24 68 28 69 25 70 27 71 26 72 45 73 46 74
REMARK SMILES IDX 50 75 47 76 49 77 48 78 35 79 36 80 40 81 37 82 39 83 38 84
REMARK H PARENT 55 52 33 63
REMARK Flexibility Score: inf
ROOT
ATOM      1  C   UNL     1       3.234   1.498   0.785  1.00  0.00     0.202 C 
ENDROOT
BRANCH   1   2
ATOM      2  C   UNL     1       2.122   1.489  -0.276  1.00  0.00     0.261 C 
BRANCH   2   3
ATOM      3  O   UNL     1       1.179   0.417  -0.071  1.00  0.00    -0.463 OA
BRANCH   3   4
ATOM      4  C   UNL     1       1.064  -0.479  -1.094  1.00  0.00     0.313 C 
ATOM      5  O   UNL     1       1.607  -0.356  -2.186  1.00  0.00    -0.252 OA
BRANCH   4   6
ATOM      6  C   UNL     1       0.214  -1.691  -0.735  1.00  0.00     0.126 C 
ATOM      7  C   UNL     1       0.784  -2.481   0.454  1.00  0.00     0.025 C 
BRANCH   6   8
ATOM      8  C   UNL     1      -1.275  -1.455  -0.562  1.00  0.00    -0.032 A 
ATOM      9  C   UNL     1      -1.903  -0.209  -0.597  1.00  0.00     0.005 A 
ATOM     10  C   UNL     1      -2.056  -2.601  -0.348  1.00  0.00     0.032 A 
ATOM     11  C   UNL     1      -3.301  -0.108  -0.494  1.00  0.00     0.011 A 
ATOM     12  C   UNL     1      -3.423  -2.473  -0.099  1.00  0.00     0.058 A 
ATOM     13  C   UNL     1      -4.074  -1.266  -0.267  1.00  0.00     0.008 A 
ATOM     14  N   UNL     1      -4.335  -3.429   0.344  1.00  0.00    -0.274 N 
ATOM     15  C   UNL     1      -5.464  -1.552  -0.198  1.00  0.00     0.009 A 
ATOM     16  C   UNL     1      -5.617  -2.884   0.229  1.00  0.00     0.057 A 
ATOM     17  C   UNL     1      -6.604  -0.763  -0.450  1.00  0.00     0.031 A 
ATOM     18  C   UNL     1      -6.892  -3.391   0.542  1.00  0.00     0.029 A 
ATOM     19  C   UNL     1      -7.867  -1.299  -0.221  1.00  0.00     0.041 A 
ATOM     20  C   UNL     1      -8.010  -2.581   0.295  1.00  0.00     0.023 A 
ATOM     21  Cl  UNL     1      -9.261  -0.350  -0.565  1.00  0.00    -0.084 Cl
BRANCH  14  22
ATOM     22  C   UNL     1      -3.918  -4.673   0.887  1.00  0.00     0.284 C 
ATOM     23  O   UNL     1      -2.862  -4.638   1.520  1.00  0.00    -0.266 OA
BRANCH  22  24
ATOM     24  C   UNL     1      -4.580  -5.955   0.691  1.00  0.00     0.167 A 
ATOM     25  C   UNL     1      -5.483  -6.339  -0.275  1.00  0.00     0.231 A 
ATOM     26  N   UNL     1      -4.217  -7.079   1.424  1.00  0.00    -0.211 NA
ATOM     27  O   UNL     1      -5.694  -7.683  -0.158  1.00  0.00    -0.451 OA
ATOM     28  C   UNL     1      -4.889  -8.059   0.871  1.00  0.00     0.308 A 
ENDBRANCH  22  24
ENDBRANCH  14  22
ENDBRANCH   6   8
ENDBRANCH   4   6
ENDBRANCH   3   4
ENDBRANCH   2   3
ENDBRANCH   1   2
BRANCH   1  29
ATOM     29  O   UNL     1       4.129   0.382   0.835  1.00  0.00    -0.374 OA
BRANCH  29  30
ATOM     30  C   UNL     1       3.583  -0.846   1.303  1.00  0.00     0.202 C 
BRANCH  30  31
ATOM     31  C   UNL     1       3.489  -1.082   2.814  1.00  0.00     0.261 C 
BRANCH  31  32
ATOM     32  O   UNL     1       2.856   0.005   3.496  1.00  0.00    -0.460 OA
BRANCH  32  33
ATOM     33  C   UNL     1       3.734   0.863   4.055  1.00  0.00     0.338 C 
ATOM     34  O   UNL     1       4.952   0.735   4.136  1.00  0.00    -0.246 OA
BRANCH  33  35
ATOM     35  C   UNL     1       3.058   2.111   4.428  1.00  0.00     0.060 A 
ATOM     36  C   UNL     1       3.655   3.301   3.997  1.00  0.00     0.016 A 
ATOM     37  C   UNL     1       1.924   2.128   5.244  1.00  0.00     0.016 A 
ATOM     38  C   UNL     1       3.177   4.519   4.455  1.00  0.00     0.010 A 
ATOM     39  C   UNL     1       1.444   3.356   5.707  1.00  0.00     0.010 A 
ATOM     40  C   UNL     1       2.106   4.547   5.357  1.00  0.00    -0.014 A 
BRANCH  40  41
ATOM     41  C   UNL     1       1.814   5.810   6.067  1.00  0.00     0.031 A 
ATOM     42  C   UNL     1       2.336   5.989   7.466  1.00  0.00     0.074 A 
ATOM     43  C   UNL     1       1.163   6.806   5.443  1.00  0.00     0.049 A 
ATOM     44  N   UNL     1       2.221   7.015   8.268  1.00  0.00    -0.248 NA
ATOM     45  C   UNL     1       3.092   4.860   8.036  1.00  0.00     0.031 C 
ATOM     46  C   UNL     1       0.664   6.758   4.069  1.00  0.00     0.029 A 
ATOM     47  N   UNL     1       0.818   8.055   5.887  1.00  0.00    -0.354 N 
ATOM     48  C   UNL     1       2.883   6.654   9.436  1.00  0.00     0.074 A 
ATOM     49  C   UNL     1       3.365   5.304   9.253  1.00  0.00     0.031 C 
ATOM     50  C   UNL     1       0.074   7.930   3.781  1.00  0.00     0.029 A 
ATOM     51  C   UNL     1       0.125   8.791   4.960  1.00  0.00     0.049 A 
ATOM     52  H   UNL     1       1.046   8.392   6.783  1.00  0.00     0.167 HD
ATOM     53  C   UNL     1       3.077   7.387  10.557  1.00  0.00     0.031 A 
ATOM     54  C   UNL     1      -0.423  10.017   5.062  1.00  0.00     0.031 A 
ATOM     55  C   UNL     1       2.579   8.725  10.735  1.00  0.00     0.049 A 
ATOM     56  C   UNL     1      -0.264  10.781   6.348  1.00  0.00     0.074 A 
ATOM     57  C   UNL     1       2.720   9.560  11.829  1.00  0.00     0.029 A 
ATOM     58  N   UNL     1       1.837   9.419   9.792  1.00  0.00    -0.354 N 
ATOM     59  N   UNL     1       0.376  10.437   7.441  1.00  0.00    -0.248 NA
ATOM     60  C   UNL     1      -0.894  12.106   6.411  1.00  0.00     0.031 C 
ATOM     61  C   UNL     1       2.010  10.737  11.570  1.00  0.00     0.029 A 
ATOM     62  C   UNL     1       1.486  10.662  10.289  1.00  0.00     0.049 A 
ATOM     63  H   UNL     1       1.595   9.078   8.900  1.00  0.00     0.167 HD
ATOM     64  C   UNL     1       0.249  11.512   8.310  1.00  0.00     0.074 A 
ATOM     65  C   UNL     1      -0.514  12.526   7.610  1.00  0.00     0.031 C 
ATOM     66  C   UNL     1       0.721  11.652   9.574  1.00  0.00     0.031 A 
BRANCH  53  67
ATOM     67  C   UNL     1       3.825   6.737  11.689  1.00  0.00    -0.014 A 
ATOM     68  C   UNL     1       5.201   6.469  11.601  1.00  0.00     0.009 A 
ATOM     69  C   UNL     1       3.145   6.406  12.872  1.00  0.00     0.009 A 
ATOM     70  C   UNL     1       5.870   5.849  12.659  1.00  0.00     0.001 A 
ATOM     71  C   UNL     1       3.823   5.815  13.939  1.00  0.00     0.001 A 
ATOM     72  C   UNL     1       5.182   5.527  13.829  1.00  0.00     0.000 A 
ENDBRANCH  53  67
BRANCH  54  73
ATOM     73  C   UNL     1      -1.191  10.582   3.922  1.00  0.00    -0.014 A 
ATOM     74  C   UNL     1      -0.709  11.686   3.204  1.00  0.00     0.009 A 
ATOM     75  C   UNL     1      -2.420  10.014   3.548  1.00  0.00     0.009 A 
ATOM     76  C   UNL     1      -1.453  12.224   2.151  1.00  0.00     0.001 A 
ATOM     77  C   UNL     1      -3.146  10.534   2.475  1.00  0.00     0.001 A 
ATOM     78  C   UNL     1      -2.667  11.644   1.783  1.00  0.00     0.000 A 
ENDBRANCH  54  73
BRANCH  66  79
ATOM     79  C   UNL     1       0.453  12.960  10.265  1.00  0.00    -0.014 A 
ATOM     80  C   UNL     1      -0.833  13.304  10.707  1.00  0.00     0.009 A 
ATOM     81  C   UNL     1       1.517  13.842  10.512  1.00  0.00     0.009 A 
ATOM     82  C   UNL     1      -1.055  14.523  11.350  1.00  0.00     0.001 A 
ATOM     83  C   UNL     1       1.298  15.045  11.185  1.00  0.00     0.001 A 
ATOM     84  C   UNL     1       0.011  15.389  11.593  1.00  0.00     0.000 A 
ENDBRANCH  66  79
ENDBRANCH  40  41
ENDBRANCH  33  35
ENDBRANCH  32  33
ENDBRANCH  31  32
ENDBRANCH  30  31
ENDBRANCH  29  30
ENDBRANCH   1  29
TORSDOF 17
