REMARK SMILES Cc1ccccc1OCCC(=O)N[C@@](C)(C(=O)OCCOCCOC(=O)c1ccc(-c2c3nc(c(-c4ccccc4)c4ccc([nH]4)c(-c4ccccc4)c4nc(c(-c5ccccc5)c5ccc2[nH]5)C=C4)C=C3)cc1)C1CC1
REMARK SMILES IDX 19 1 18 2 16 3 17 4 14 5 15 6 13 7 11 8 12 9 10 11 9 12 8 13
REMARK SMILES IDX 7 14 1 15 2 16 3 17 4 18 6 19 5 20 75 21 76 22 77 23 20 24
REMARK SMILES IDX 21 25 22 26 23 27 24 28 25 29 26 30 27 31 28 32 74 33 29 34
REMARK SMILES IDX 73 35 30 36 31 37 32 38 67 39 33 40 72 41 66 42 68 43 34 44
REMARK SMILES IDX 71 45 65 46 64 47 35 49 57 50 42 51 56 52 43 53 46 54 55 55
REMARK SMILES IDX 69 56 44 57 45 58 54 60 70 61 47 62 36 63 37 64 41 65 38 66
REMARK SMILES IDX 40 67 39 68 58 69 59 70 63 71 60 72 62 73 61 74 48 75 49 76
REMARK SMILES IDX 53 77 50 78 52 79 51 80
REMARK H PARENT 13 10 68 48 46 59
REMARK Flexibility Score: inf
ROOT
ATOM      1  C   UNL     1      -0.824  -0.835   2.856  1.00  0.00     0.261 C 
ENDROOT
BRANCH   1   2
ATOM      2  O   UNL     1      -1.364   0.507   2.861  1.00  0.00    -0.461 OA
BRANCH   2   3
ATOM      3  C   UNL     1      -0.747   1.713   2.734  1.00  0.00     0.331 C 
ATOM      4  O   UNL     1      -1.198   2.680   3.353  1.00  0.00    -0.249 OA
BRANCH   3   5
ATOM      5  C   UNL     1       0.303   1.924   1.605  1.00  0.00     0.138 C 
ATOM      6  C   UNL     1      -0.486   1.660   0.333  1.00  0.00     0.048 C 
BRANCH   5   7
ATOM      7  N   UNL     1       1.415   0.957   1.716  1.00  0.00    -0.340 N 
ATOM      8  C   UNL     1       2.625   0.777   1.142  1.00  0.00     0.224 C 
ATOM      9  O   UNL     1       3.179  -0.301   1.386  1.00  0.00    -0.275 OA
ATOM     10  H   UNL     1       1.224   0.260   2.385  1.00  0.00     0.164 HD
BRANCH   8  11
ATOM     11  C   UNL     1       3.371   1.871   0.420  1.00  0.00     0.141 C 
BRANCH  11  12
ATOM     12  C   UNL     1       3.437   1.938  -1.103  1.00  0.00     0.239 C 
BRANCH  12  13
ATOM     13  O   UNL     1       2.253   1.830  -1.867  1.00  0.00    -0.493 OA
BRANCH  13  14
ATOM     14  C   UNL     1       1.590   0.665  -2.115  1.00  0.00     0.122 A 
ATOM     15  C   UNL     1       3.268  -1.210  -1.467  1.00  0.00     0.048 C 
ATOM     16  C   UNL     1       1.913  -0.656  -1.797  1.00  0.00    -0.009 A 
ATOM     17  C   UNL     1       0.887  -1.629  -1.885  1.00  0.00     0.007 A 
ATOM     18  C   UNL     1      -0.398  -1.319  -2.330  1.00  0.00     0.001 A 
ATOM     19  C   UNL     1       0.328   0.933  -2.693  1.00  0.00     0.047 A 
ATOM     20  C   UNL     1      -0.669  -0.037  -2.775  1.00  0.00     0.004 A 
ENDBRANCH  13  14
ENDBRANCH  12  13
ENDBRANCH  11  12
ENDBRANCH   8  11
ENDBRANCH   5   7
BRANCH   5  21
ATOM     21  C   UNL     1       0.870   3.348   1.665  1.00  0.00     0.026 C 
ATOM     22  C   UNL     1       0.895   4.276   0.454  1.00  0.00     0.007 C 
ATOM     23  C   UNL     1       0.025   4.608   1.622  1.00  0.00     0.007 C 
ENDBRANCH   5  21
ENDBRANCH   3   5
ENDBRANCH   2   3
ENDBRANCH   1   2
BRANCH   1  24
ATOM     24  C   UNL     1       0.187  -1.077   3.978  1.00  0.00     0.202 C 
BRANCH  24  25
ATOM     25  O   UNL     1       0.460   0.160   4.616  1.00  0.00    -0.374 OA
BRANCH  25  26
ATOM     26  C   UNL     1       1.537   0.187   5.539  1.00  0.00     0.202 C 
BRANCH  26  27
ATOM     27  C   UNL     1       1.385  -0.774   6.726  1.00  0.00     0.261 C 
BRANCH  27  28
ATOM     28  O   UNL     1       0.209  -0.429   7.483  1.00  0.00    -0.460 OA
BRANCH  28  29
ATOM     29  C   UNL     1      -0.876  -1.224   7.282  1.00  0.00     0.338 C 
ATOM     30  O   UNL     1      -0.872  -2.446   7.290  1.00  0.00    -0.246 OA
BRANCH  29  31
ATOM     31  C   UNL     1      -2.005  -0.400   6.765  1.00  0.00     0.060 A 
ATOM     32  C   UNL     1      -3.128  -1.015   6.184  1.00  0.00     0.016 A 
ATOM     33  C   UNL     1      -1.809   0.964   6.594  1.00  0.00     0.016 A 
ATOM     34  C   UNL     1      -3.974  -0.289   5.324  1.00  0.00     0.010 A 
ATOM     35  C   UNL     1      -2.603   1.645   5.695  1.00  0.00     0.010 A 
ATOM     36  C   UNL     1      -3.675   1.041   5.021  1.00  0.00    -0.014 A 
BRANCH  36  37
ATOM     37  C   UNL     1      -4.266   1.835   3.924  1.00  0.00     0.031 A 
ATOM     38  C   UNL     1      -4.756   3.229   4.135  1.00  0.00     0.074 A 
ATOM     39  C   UNL     1      -4.155   1.444   2.629  1.00  0.00     0.049 A 
ATOM     40  N   UNL     1      -5.549   3.836   3.307  1.00  0.00    -0.248 NA
ATOM     41  C   UNL     1      -4.411   4.067   5.281  1.00  0.00     0.031 C 
ATOM     42  C   UNL     1      -4.118   2.324   1.456  1.00  0.00     0.029 A 
ATOM     43  N   UNL     1      -3.991   0.192   2.069  1.00  0.00    -0.354 N 
ATOM     44  C   UNL     1      -5.492   5.178   3.595  1.00  0.00     0.074 A 
ATOM     45  C   UNL     1      -4.845   5.264   4.881  1.00  0.00     0.031 C 
ATOM     46  C   UNL     1      -4.111   1.591   0.334  1.00  0.00     0.029 A 
ATOM     47  C   UNL     1      -4.287   0.204   0.707  1.00  0.00     0.049 A 
ATOM     48  H   UNL     1      -3.701  -0.606   2.567  1.00  0.00     0.167 HD
ATOM     49  C   UNL     1      -5.852   6.102   2.662  1.00  0.00     0.031 A 
ATOM     50  C   UNL     1      -5.192  -0.646   0.142  1.00  0.00     0.031 A 
ATOM     51  C   UNL     1      -6.181   5.502   1.367  1.00  0.00     0.049 A 
ATOM     52  C   UNL     1      -6.415   0.090  -0.356  1.00  0.00     0.074 A 
ATOM     53  C   UNL     1      -5.520   5.477   0.149  1.00  0.00     0.029 A 
ATOM     54  N   UNL     1      -7.209   4.569   1.270  1.00  0.00    -0.354 N 
ATOM     55  N   UNL     1      -6.631   1.343  -0.069  1.00  0.00    -0.248 NA
ATOM     56  C   UNL     1      -7.485  -0.464  -1.182  1.00  0.00     0.031 C 
ATOM     57  C   UNL     1      -6.165   4.530  -0.686  1.00  0.00     0.029 A 
ATOM     58  C   UNL     1      -7.226   3.987   0.017  1.00  0.00     0.049 A 
ATOM     59  H   UNL     1      -7.838   4.353   1.996  1.00  0.00     0.167 HD
ATOM     60  C   UNL     1      -7.816   1.759  -0.592  1.00  0.00     0.074 A 
ATOM     61  C   UNL     1      -8.320   0.590  -1.288  1.00  0.00     0.031 C 
ATOM     62  C   UNL     1      -8.261   3.027  -0.359  1.00  0.00     0.031 A 
BRANCH  49  63
ATOM     63  C   UNL     1      -5.657   7.589   2.856  1.00  0.00    -0.014 A 
ATOM     64  C   UNL     1      -5.501   8.438   1.745  1.00  0.00     0.009 A 
ATOM     65  C   UNL     1      -5.639   8.217   4.114  1.00  0.00     0.009 A 
ATOM     66  C   UNL     1      -5.253   9.811   1.884  1.00  0.00     0.001 A 
ATOM     67  C   UNL     1      -5.345   9.579   4.265  1.00  0.00     0.001 A 
ATOM     68  C   UNL     1      -5.146  10.377   3.147  1.00  0.00     0.000 A 
ENDBRANCH  49  63
BRANCH  50  69
ATOM     69  C   UNL     1      -5.113  -2.022   0.701  1.00  0.00    -0.014 A 
ATOM     70  C   UNL     1      -4.079  -2.840   0.203  1.00  0.00     0.009 A 
ATOM     71  C   UNL     1      -5.627  -2.296   1.980  1.00  0.00     0.009 A 
ATOM     72  C   UNL     1      -3.470  -3.797   1.020  1.00  0.00     0.001 A 
ATOM     73  C   UNL     1      -5.001  -3.244   2.800  1.00  0.00     0.001 A 
ATOM     74  C   UNL     1      -3.902  -3.966   2.333  1.00  0.00     0.000 A 
ENDBRANCH  50  69
BRANCH  62  75
ATOM     75  C   UNL     1      -9.678   3.513  -0.514  1.00  0.00    -0.014 A 
ATOM     76  C   UNL     1     -10.786   2.670  -0.660  1.00  0.00     0.009 A 
ATOM     77  C   UNL     1      -9.951   4.891  -0.349  1.00  0.00     0.009 A 
ATOM     78  C   UNL     1     -12.093   3.177  -0.666  1.00  0.00     0.001 A 
ATOM     79  C   UNL     1     -11.252   5.394  -0.304  1.00  0.00     0.001 A 
ATOM     80  C   UNL     1     -12.326   4.535  -0.473  1.00  0.00     0.000 A 
ENDBRANCH  62  75
ENDBRANCH  36  37
ENDBRANCH  29  31
ENDBRANCH  28  29
ENDBRANCH  27  28
ENDBRANCH  26  27
ENDBRANCH  25  26
ENDBRANCH  24  25
ENDBRANCH   1  24
TORSDOF 20
