REMARK SMILES [NH3+][C@H](C(=O)OCCOCCOC(=O)c1ccc(-c2c3nc(c(-c4ccccc4)c4ccc([nH]4)c(-c4ccccc4)c4nc(c(-c5ccccc5)c5ccc2[nH]5)C=C4)C=C3)cc1)c1ccc(Cl)c(OC(F)(F)F)c1
REMARK SMILES IDX 7 1 6 2 5 3 3 4 4 5 2 6 1 7 62 11 63 12 73 13 64 14 67 15
REMARK SMILES IDX 65 16 66 17 68 18 69 19 70 20 71 21 72 22 8 23 9 24 10 25
REMARK SMILES IDX 11 26 12 27 13 28 14 29 15 30 61 31 16 32 60 33 17 34 18 35
REMARK SMILES IDX 19 36 54 37 20 38 59 39 53 40 55 41 21 42 58 43 52 44 51 45
REMARK SMILES IDX 22 47 44 48 29 49 43 50 30 51 33 52 42 53 56 54 31 55 32 56
REMARK SMILES IDX 41 58 57 59 34 60 23 61 24 62 28 63 25 64 27 65 26 66 45 67
REMARK SMILES IDX 46 68 50 69 47 70 49 71 48 72 35 73 36 74 40 75 37 76 39 77
REMARK SMILES IDX 38 78
REMARK H PARENT 1 8 1 9 1 10 55 46 33 57
REMARK Flexibility Score: inf
ROOT
ATOM      1  C   UNL     1       1.067   1.680   2.251  1.00  0.00     0.202 C 
ENDROOT
BRANCH   1   2
ATOM      2  C   UNL     1       1.774   1.785   0.898  1.00  0.00     0.261 C 
BRANCH   2   3
ATOM      3  O   UNL     1       1.009   1.092  -0.105  1.00  0.00    -0.459 OA
BRANCH   3   4
ATOM      4  C   UNL     1       1.679   0.169  -0.838  1.00  0.00     0.369 C 
ATOM      5  O   UNL     1       2.903   0.046  -0.835  1.00  0.00    -0.245 OA
BRANCH   4   6
ATOM      6  C   UNL     1       0.768  -0.781  -1.666  1.00  0.00     0.323 C 
BRANCH   6   7
ATOM      7  N   UNL     1       1.362  -2.143  -1.552  1.00  0.00    -0.342 N 
ATOM      8  H   UNL     1       0.796  -2.806  -2.082  1.00  0.00     0.345 HD
ATOM      9  H   UNL     1       1.384  -2.423  -0.571  1.00  0.00     0.345 HD
ATOM     10  H   UNL     1       2.311  -2.133  -1.924  1.00  0.00     0.345 HD
ENDBRANCH   6   7
BRANCH   6  11
ATOM     11  C   UNL     1      -0.739  -0.790  -1.371  1.00  0.00     0.025 A 
ATOM     12  C   UNL     1      -1.480   0.401  -1.412  1.00  0.00     0.012 A 
ATOM     13  C   UNL     1      -1.450  -1.996  -1.158  1.00  0.00     0.059 A 
ATOM     14  C   UNL     1      -2.860   0.399  -1.192  1.00  0.00     0.025 A 
ATOM     15  C   UNL     1      -2.837  -2.017  -0.946  1.00  0.00     0.148 A 
ATOM     16  C   UNL     1      -3.531  -0.800  -0.952  1.00  0.00     0.083 A 
ATOM     17  Cl  UNL     1      -5.237  -0.731  -0.680  1.00  0.00    -0.080 Cl
BRANCH  15  18
ATOM     18  O   UNL     1      -3.589  -3.143  -0.742  1.00  0.00    -0.404 OA
BRANCH  18  19
ATOM     19  C   UNL     1      -2.942  -4.401  -0.732  1.00  0.00     0.573 C 
ATOM     20  F   UNL     1      -2.350  -4.656  -1.917  1.00  0.00    -0.132 F 
ATOM     21  F   UNL     1      -2.023  -4.461   0.257  1.00  0.00    -0.132 F 
ATOM     22  F   UNL     1      -3.863  -5.363  -0.506  1.00  0.00    -0.132 F 
ENDBRANCH  18  19
ENDBRANCH  15  18
ENDBRANCH   6  11
ENDBRANCH   4   6
ENDBRANCH   3   4
ENDBRANCH   2   3
ENDBRANCH   1   2
BRANCH   1  23
ATOM     23  O   UNL     1       1.101   0.384   2.852  1.00  0.00    -0.374 OA
BRANCH  23  24
ATOM     24  C   UNL     1       0.213  -0.606   2.331  1.00  0.00     0.202 C 
BRANCH  24  25
ATOM     25  C   UNL     1      -1.241  -0.518   2.808  1.00  0.00     0.261 C 
BRANCH  25  26
ATOM     26  O   UNL     1      -1.896   0.666   2.318  1.00  0.00    -0.460 OA
BRANCH  26  27
ATOM     27  C   UNL     1      -2.209   1.576   3.270  1.00  0.00     0.338 C 
ATOM     28  O   UNL     1      -2.070   1.464   4.479  1.00  0.00    -0.246 OA
BRANCH  27  29
ATOM     29  C   UNL     1      -2.596   2.853   2.640  1.00  0.00     0.060 A 
ATOM     30  C   UNL     1      -1.963   4.014   3.102  1.00  0.00     0.016 A 
ATOM     31  C   UNL     1      -3.601   2.931   1.674  1.00  0.00     0.016 A 
ATOM     32  C   UNL     1      -2.369   5.263   2.638  1.00  0.00     0.010 A 
ATOM     33  C   UNL     1      -4.010   4.187   1.209  1.00  0.00     0.010 A 
ATOM     34  C   UNL     1      -3.422   5.359   1.718  1.00  0.00    -0.014 A 
BRANCH  34  35
ATOM     35  C   UNL     1      -4.002   6.692   1.422  1.00  0.00     0.031 A 
ATOM     36  C   UNL     1      -5.255   7.118   2.138  1.00  0.00     0.074 A 
ATOM     37  C   UNL     1      -3.397   7.537   0.568  1.00  0.00     0.049 A 
ATOM     38  N   UNL     1      -5.918   8.243   2.049  1.00  0.00    -0.248 NA
ATOM     39  C   UNL     1      -5.835   6.149   3.082  1.00  0.00     0.031 C 
ATOM     40  C   UNL     1      -2.155   7.267  -0.155  1.00  0.00     0.029 A 
ATOM     41  N   UNL     1      -3.750   8.803   0.173  1.00  0.00    -0.354 N 
ATOM     42  C   UNL     1      -6.993   8.116   2.920  1.00  0.00     0.074 A 
ATOM     43  C   UNL     1      -6.911   6.795   3.505  1.00  0.00     0.031 C 
ATOM     44  C   UNL     1      -1.849   8.339  -0.907  1.00  0.00     0.029 A 
ATOM     45  C   UNL     1      -2.885   9.356  -0.738  1.00  0.00     0.049 A 
ATOM     46  H   UNL     1      -4.548   9.270   0.510  1.00  0.00     0.167 HD
ATOM     47  C   UNL     1      -7.959   9.018   3.215  1.00  0.00     0.031 A 
ATOM     48  C   UNL     1      -2.929  10.544  -1.372  1.00  0.00     0.031 A 
ATOM     49  C   UNL     1      -8.054  10.329   2.631  1.00  0.00     0.049 A 
ATOM     50  C   UNL     1      -4.056  11.499  -1.085  1.00  0.00     0.074 A 
ATOM     51  C   UNL     1      -8.989  11.318   2.882  1.00  0.00     0.029 A 
ATOM     52  N   UNL     1      -7.187  10.829   1.674  1.00  0.00    -0.354 N 
ATOM     53  N   UNL     1      -5.050  11.376  -0.239  1.00  0.00    -0.248 NA
ATOM     54  C   UNL     1      -4.061  12.762  -1.840  1.00  0.00     0.031 C 
ATOM     55  C   UNL     1      -8.716  12.400   2.038  1.00  0.00     0.029 A 
ATOM     56  C   UNL     1      -7.581  12.102   1.301  1.00  0.00     0.049 A 
ATOM     57  H   UNL     1      -6.406  10.350   1.313  1.00  0.00     0.167 HD
ATOM     58  C   UNL     1      -5.782  12.553  -0.341  1.00  0.00     0.074 A 
ATOM     59  C   UNL     1      -5.112  13.382  -1.321  1.00  0.00     0.031 C 
ATOM     60  C   UNL     1      -6.907  12.915   0.322  1.00  0.00     0.031 A 
BRANCH  47  61
ATOM     61  C   UNL     1      -9.015   8.597   4.196  1.00  0.00    -0.014 A 
ATOM     62  C   UNL     1      -8.735   8.491   5.567  1.00  0.00     0.009 A 
ATOM     63  C   UNL     1     -10.316   8.325   3.744  1.00  0.00     0.009 A 
ATOM     64  C   UNL     1      -9.729   8.090   6.462  1.00  0.00     0.001 A 
ATOM     65  C   UNL     1     -11.313   7.948   4.644  1.00  0.00     0.001 A 
ATOM     66  C   UNL     1     -11.017   7.822   6.000  1.00  0.00     0.000 A 
ENDBRANCH  47  61
BRANCH  48  67
ATOM     67  C   UNL     1      -1.877  10.898  -2.360  1.00  0.00    -0.014 A 
ATOM     68  C   UNL     1      -0.932  11.894  -2.074  1.00  0.00     0.009 A 
ATOM     69  C   UNL     1      -1.829  10.252  -3.605  1.00  0.00     0.009 A 
ATOM     70  C   UNL     1       0.027  12.251  -3.024  1.00  0.00     0.001 A 
ATOM     71  C   UNL     1      -0.853  10.593  -4.543  1.00  0.00     0.001 A 
ATOM     72  C   UNL     1       0.069  11.598  -4.255  1.00  0.00     0.000 A 
ENDBRANCH  48  67
BRANCH  60  73
ATOM     73  C   UNL     1      -7.470  14.278   0.034  1.00  0.00    -0.014 A 
ATOM     74  C   UNL     1      -8.142  14.549  -1.168  1.00  0.00     0.009 A 
ATOM     75  C   UNL     1      -7.362  15.293   0.998  1.00  0.00     0.009 A 
ATOM     76  C   UNL     1      -8.671  15.818  -1.409  1.00  0.00     0.001 A 
ATOM     77  C   UNL     1      -7.914  16.553   0.764  1.00  0.00     0.001 A 
ATOM     78  C   UNL     1      -8.561  16.817  -0.442  1.00  0.00     0.000 A 
ENDBRANCH  60  73
ENDBRANCH  34  35
ENDBRANCH  27  29
ENDBRANCH  26  27
ENDBRANCH  25  26
ENDBRANCH  24  25
ENDBRANCH  23  24
ENDBRANCH   1  23
TORSDOF 18
