REMARK SMILES CCOCC[C@@H]1CCC[C@@]1([NH2+]C1CC1)C(=O)OCCOCCOC(=O)c1ccc(-c2c3nc(c(-c4ccccc4)c4ccc([nH]4)c(-c4ccccc4)c4nc(c(-c5ccccc5)c5ccc2[nH]5)C=C4)C=C3)cc1
REMARK SMILES IDX 19 1 18 2 17 3 15 4 16 5 10 6 6 7 7 8 8 9 9 10 5 11 4 12
REMARK SMILES IDX 3 13 2 14 1 15 11 16 12 19 13 20 14 21 20 22 21 23 22 24
REMARK SMILES IDX 23 25 24 26 25 27 26 28 27 29 73 30 28 31 72 32 29 33 30 34
REMARK SMILES IDX 31 35 66 36 32 37 71 38 65 39 67 40 33 41 70 42 64 43 63 44
REMARK SMILES IDX 34 46 56 47 41 48 55 49 42 50 45 51 54 52 68 53 43 54 44 55
REMARK SMILES IDX 53 57 69 58 46 59 35 60 36 61 40 62 37 63 39 64 38 65 57 66
REMARK SMILES IDX 58 67 62 68 59 69 61 70 60 71 47 72 48 73 52 74 49 75 51 76
REMARK SMILES IDX 50 77
REMARK H PARENT 11 17 11 18 67 45 45 56
REMARK Flexibility Score: inf
ROOT
ATOM      1  C   UNL     1      -0.317   2.050   1.022  1.00  0.00     0.202 C 
ENDROOT
BRANCH   1   2
ATOM      2  C   UNL     1       0.747   0.963   1.176  1.00  0.00     0.261 C 
BRANCH   2   3
ATOM      3  O   UNL     1       1.815   0.959   0.223  1.00  0.00    -0.459 OA
BRANCH   3   4
ATOM      4  C   UNL     1       1.696   0.050  -0.781  1.00  0.00     0.368 C 
ATOM      5  O   UNL     1       0.615  -0.414  -1.135  1.00  0.00    -0.245 OA
BRANCH   4   6
ATOM      6  C   UNL     1       3.016  -0.321  -1.491  1.00  0.00     0.197 C 
ATOM      7  C   UNL     1       2.889  -1.817  -1.957  1.00  0.00     0.065 C 
ATOM      8  C   UNL     1       3.762  -1.884  -3.214  1.00  0.00     0.011 C 
ATOM      9  C   UNL     1       3.536  -0.555  -3.913  1.00  0.00     0.008 C 
ATOM     10  C   UNL     1       3.111   0.443  -2.836  1.00  0.00     0.081 C 
BRANCH   7  11
ATOM     11  C   UNL     1       3.266  -2.939  -0.969  1.00  0.00     0.039 C 
BRANCH  11  12
ATOM     12  C   UNL     1       2.573  -2.930   0.398  1.00  0.00     0.160 C 
BRANCH  12  13
ATOM     13  O   UNL     1       1.593  -3.959   0.529  1.00  0.00    -0.382 OA
BRANCH  13  14
ATOM     14  C   UNL     1       0.281  -3.653   0.067  1.00  0.00     0.156 C 
ATOM     15  C   UNL     1      -0.431  -2.627   0.931  1.00  0.00     0.035 C 
ENDBRANCH  13  14
ENDBRANCH  12  13
ENDBRANCH  11  12
ENDBRANCH   7  11
BRANCH   6  16
ATOM     16  N   UNL     1       4.253  -0.136  -0.679  1.00  0.00    -0.329 N 
ATOM     17  H   UNL     1       5.049  -0.394  -1.262  1.00  0.00     0.347 HD
ATOM     18  H   UNL     1       4.130  -0.722   0.146  1.00  0.00     0.347 HD
BRANCH  16  19
ATOM     19  C   UNL     1       4.495   1.225  -0.164  1.00  0.00     0.183 C 
ATOM     20  C   UNL     1       4.614   1.402   1.327  1.00  0.00     0.071 C 
ATOM     21  C   UNL     1       5.823   1.560   0.458  1.00  0.00     0.071 C 
ENDBRANCH  16  19
ENDBRANCH   6  16
ENDBRANCH   4   6
ENDBRANCH   3   4
ENDBRANCH   2   3
ENDBRANCH   1   2
BRANCH   1  22
ATOM     22  O   UNL     1      -1.029   2.182  -0.198  1.00  0.00    -0.374 OA
BRANCH  22  23
ATOM     23  C   UNL     1      -0.336   2.601  -1.368  1.00  0.00     0.202 C 
BRANCH  23  24
ATOM     24  C   UNL     1       0.213   4.029  -1.436  1.00  0.00     0.261 C 
BRANCH  24  25
ATOM     25  O   UNL     1       1.141   4.326  -0.382  1.00  0.00    -0.460 OA
BRANCH  25  26
ATOM     26  C   UNL     1       0.660   5.193   0.541  1.00  0.00     0.338 C 
ATOM     27  O   UNL     1      -0.414   5.768   0.532  1.00  0.00    -0.246 OA
BRANCH  26  28
ATOM     28  C   UNL     1       1.554   5.231   1.711  1.00  0.00     0.060 A 
ATOM     29  C   UNL     1       0.964   5.060   2.971  1.00  0.00     0.016 A 
ATOM     30  C   UNL     1       2.910   5.537   1.588  1.00  0.00     0.016 A 
ATOM     31  C   UNL     1       1.710   5.278   4.120  1.00  0.00     0.010 A 
ATOM     32  C   UNL     1       3.657   5.771   2.745  1.00  0.00     0.010 A 
ATOM     33  C   UNL     1       3.041   5.697   4.007  1.00  0.00    -0.014 A 
BRANCH  33  34
ATOM     34  C   UNL     1       3.699   6.275   5.198  1.00  0.00     0.031 A 
ATOM     35  C   UNL     1       3.670   7.769   5.371  1.00  0.00     0.074 A 
ATOM     36  C   UNL     1       4.229   5.480   6.142  1.00  0.00     0.049 A 
ATOM     37  N   UNL     1       4.165   8.502   6.335  1.00  0.00    -0.248 NA
ATOM     38  C   UNL     1       2.982   8.541   4.320  1.00  0.00     0.031 C 
ATOM     39  C   UNL     1       4.238   4.018   6.111  1.00  0.00     0.029 A 
ATOM     40  N   UNL     1       4.851   5.799   7.321  1.00  0.00    -0.354 N 
ATOM     41  C   UNL     1       3.845   9.815   6.008  1.00  0.00     0.074 A 
ATOM     42  C   UNL     1       3.147   9.785   4.743  1.00  0.00     0.031 C 
ATOM     43  C   UNL     1       4.837   3.565   7.226  1.00  0.00     0.029 A 
ATOM     44  C   UNL     1       5.281   4.704   8.026  1.00  0.00     0.049 A 
ATOM     45  H   UNL     1       4.977   6.725   7.631  1.00  0.00     0.167 HD
ATOM     46  C   UNL     1       4.100  10.945   6.708  1.00  0.00     0.031 A 
ATOM     47  C   UNL     1       5.973   4.637   9.179  1.00  0.00     0.031 A 
ATOM     48  C   UNL     1       4.814  10.969   7.955  1.00  0.00     0.049 A 
ATOM     49  C   UNL     1       6.345   5.918   9.878  1.00  0.00     0.074 A 
ATOM     50  C   UNL     1       5.155  12.059   8.735  1.00  0.00     0.029 A 
ATOM     51  N   UNL     1       5.298   9.843   8.603  1.00  0.00    -0.354 N 
ATOM     52  N   UNL     1       6.045   7.155   9.558  1.00  0.00    -0.248 NA
ATOM     53  C   UNL     1       7.148   5.792  11.102  1.00  0.00     0.031 C 
ATOM     54  C   UNL     1       5.890  11.596   9.831  1.00  0.00     0.029 A 
ATOM     55  C   UNL     1       5.953  10.213   9.764  1.00  0.00     0.049 A 
ATOM     56  H   UNL     1       5.191   8.918   8.284  1.00  0.00     0.167 HD
ATOM     57  C   UNL     1       6.592   7.949  10.558  1.00  0.00     0.074 A 
ATOM     58  C   UNL     1       7.228   7.053  11.502  1.00  0.00     0.031 C 
ATOM     59  C   UNL     1       6.570   9.298  10.689  1.00  0.00     0.031 A 
BRANCH  46  60
ATOM     60  C   UNL     1       3.632  12.246   6.119  1.00  0.00    -0.014 A 
ATOM     61  C   UNL     1       2.269  12.582   6.088  1.00  0.00     0.009 A 
ATOM     62  C   UNL     1       4.568  13.162   5.615  1.00  0.00     0.009 A 
ATOM     63  C   UNL     1       1.851  13.797   5.539  1.00  0.00     0.001 A 
ATOM     64  C   UNL     1       4.150  14.387   5.091  1.00  0.00     0.001 A 
ATOM     65  C   UNL     1       2.792  14.700   5.046  1.00  0.00     0.000 A 
ENDBRANCH  46  60
BRANCH  47  66
ATOM     66  C   UNL     1       6.383   3.322   9.737  1.00  0.00    -0.014 A 
ATOM     67  C   UNL     1       5.857   2.860  10.953  1.00  0.00     0.009 A 
ATOM     68  C   UNL     1       7.339   2.536   9.072  1.00  0.00     0.009 A 
ATOM     69  C   UNL     1       6.303   1.657  11.507  1.00  0.00     0.001 A 
ATOM     70  C   UNL     1       7.760   1.320   9.613  1.00  0.00     0.001 A 
ATOM     71  C   UNL     1       7.252   0.887  10.835  1.00  0.00     0.000 A 
ENDBRANCH  47  66
BRANCH  59  72
ATOM     72  C   UNL     1       7.211   9.878  11.918  1.00  0.00    -0.014 A 
ATOM     73  C   UNL     1       8.605   9.898  12.076  1.00  0.00     0.009 A 
ATOM     74  C   UNL     1       6.403  10.448  12.915  1.00  0.00     0.009 A 
ATOM     75  C   UNL     1       9.175  10.444  13.227  1.00  0.00     0.001 A 
ATOM     76  C   UNL     1       6.977  11.022  14.049  1.00  0.00     0.001 A 
ATOM     77  C   UNL     1       8.362  11.010  14.209  1.00  0.00     0.000 A 
ENDBRANCH  59  72
ENDBRANCH  33  34
ENDBRANCH  26  28
ENDBRANCH  25  26
ENDBRANCH  24  25
ENDBRANCH  23  24
ENDBRANCH  22  23
ENDBRANCH   1  22
TORSDOF 20
