REMARK SMILES C[C@@H]1[C@@H](C(=O)OCCOCCOC(=O)c2ccc(-c3c4nc(c(-c5ccccc5)c5ccc([nH]5)c(-c5ccccc5)c5nc(c(-c6ccccc6)c6ccc3[nH]6)C=C5)C=C4)cc2)CCN1C(=O)CN1C(=O)CNC1=O
REMARK SMILES IDX 8 1 7 2 6 3 4 4 5 5 3 6 1 7 2 8 65 9 63 10 64 11 66 12 67 13
REMARK SMILES IDX 68 14 69 15 70 16 74 17 71 18 72 19 73 20 75 21 9 23 10 24
REMARK SMILES IDX 11 25 12 26 13 27 14 28 15 29 16 30 62 31 17 32 61 33 18 34
REMARK SMILES IDX 19 35 20 36 55 37 21 38 60 39 54 40 56 41 22 42 59 43 53 44
REMARK SMILES IDX 52 45 23 47 45 48 30 49 44 50 31 51 34 52 43 53 57 54 32 55
REMARK SMILES IDX 33 56 42 58 58 59 35 60 24 61 25 62 29 63 26 64 28 65 27 66
REMARK SMILES IDX 46 67 47 68 51 69 48 70 50 71 49 72 36 73 37 74 41 75 38 76
REMARK SMILES IDX 40 77 39 78
REMARK H PARENT 73 22 56 46 34 57
REMARK Flexibility Score: inf
ROOT
ATOM      1  C   UNL     1      -1.438   2.361  -4.441  1.00  0.00     0.202 C 
ENDROOT
BRANCH   1   2
ATOM      2  C   UNL     1      -2.254   1.598  -3.391  1.00  0.00     0.261 C 
BRANCH   2   3
ATOM      3  O   UNL     1      -1.761   1.725  -2.049  1.00  0.00    -0.463 OA
BRANCH   3   4
ATOM      4  C   UNL     1      -1.105   0.614  -1.605  1.00  0.00     0.311 C 
ATOM      5  O   UNL     1      -0.987  -0.414  -2.258  1.00  0.00    -0.252 OA
BRANCH   4   6
ATOM      6  C   UNL     1      -0.567   0.819  -0.188  1.00  0.00     0.123 C 
ATOM      7  C   UNL     1       1.471   0.220   1.282  1.00  0.00     0.032 C 
ATOM      8  C   UNL     1       0.617  -0.121   0.062  1.00  0.00     0.096 C 
ATOM      9  N   UNL     1      -0.040  -1.414   0.216  1.00  0.00    -0.338 N 
ATOM     10  C   UNL     1      -1.591   0.301   0.816  1.00  0.00     0.039 C 
ATOM     11  C   UNL     1      -1.389  -1.222   0.757  1.00  0.00     0.121 C 
BRANCH   9  12
ATOM     12  C   UNL     1       0.267  -2.542  -0.547  1.00  0.00     0.243 C 
ATOM     13  O   UNL     1      -0.554  -3.449  -0.704  1.00  0.00    -0.273 OA
BRANCH  12  14
ATOM     14  C   UNL     1       1.670  -2.626  -1.194  1.00  0.00     0.230 C 
BRANCH  14  15
ATOM     15  N   UNL     1       1.748  -2.393  -2.632  1.00  0.00    -0.253 N 
ATOM     16  C   UNL     1       1.942  -3.385  -3.556  1.00  0.00     0.250 C 
ATOM     17  C   UNL     1       1.881  -1.181  -3.244  1.00  0.00     0.325 C 
ATOM     18  O   UNL     1       2.048  -4.585  -3.338  1.00  0.00    -0.272 OA
ATOM     19  C   UNL     1       2.131  -2.752  -4.928  1.00  0.00     0.218 C 
ATOM     20  N   UNL     1       1.991  -1.370  -4.599  1.00  0.00    -0.329 N 
ATOM     21  O   UNL     1       2.007  -0.075  -2.745  1.00  0.00    -0.248 OA
ATOM     22  H   UNL     1       1.975  -0.643  -5.263  1.00  0.00     0.165 HD
ENDBRANCH  14  15
ENDBRANCH  12  14
ENDBRANCH   9  12
ENDBRANCH   4   6
ENDBRANCH   3   4
ENDBRANCH   2   3
ENDBRANCH   1   2
BRANCH   1  23
ATOM     23  O   UNL     1      -0.021   2.262  -4.438  1.00  0.00    -0.374 OA
BRANCH  23  24
ATOM     24  C   UNL     1       0.710   2.788  -3.331  1.00  0.00     0.202 C 
BRANCH  24  25
ATOM     25  C   UNL     1       0.615   4.285  -3.008  1.00  0.00     0.261 C 
BRANCH  25  26
ATOM     26  O   UNL     1      -0.721   4.742  -2.733  1.00  0.00    -0.460 OA
BRANCH  26  27
ATOM     27  C   UNL     1      -1.212   5.619  -3.646  1.00  0.00     0.338 C 
ATOM     28  O   UNL     1      -0.649   6.061  -4.630  1.00  0.00    -0.246 OA
BRANCH  27  29
ATOM     29  C   UNL     1      -2.643   5.861  -3.391  1.00  0.00     0.060 A 
ATOM     30  C   UNL     1      -3.556   5.503  -4.391  1.00  0.00     0.016 A 
ATOM     31  C   UNL     1      -3.065   6.535  -2.246  1.00  0.00     0.016 A 
ATOM     32  C   UNL     1      -4.898   5.851  -4.265  1.00  0.00     0.010 A 
ATOM     33  C   UNL     1      -4.411   6.893  -2.126  1.00  0.00     0.010 A 
ATOM     34  C   UNL     1      -5.325   6.582  -3.150  1.00  0.00    -0.014 A 
BRANCH  34  35
ATOM     35  C   UNL     1      -6.698   7.141  -3.124  1.00  0.00     0.031 A 
ATOM     36  C   UNL     1      -6.902   8.596  -3.443  1.00  0.00     0.074 A 
ATOM     37  C   UNL     1      -7.751   6.353  -2.848  1.00  0.00     0.049 A 
ATOM     38  N   UNL     1      -8.007   9.297  -3.443  1.00  0.00    -0.248 NA
ATOM     39  C   UNL     1      -5.701   9.364  -3.808  1.00  0.00     0.031 C 
ATOM     40  C   UNL     1      -7.686   4.918  -2.575  1.00  0.00     0.029 A 
ATOM     41  N   UNL     1      -9.086   6.656  -2.751  1.00  0.00    -0.354 N 
ATOM     42  C   UNL     1      -7.634  10.588  -3.796  1.00  0.00     0.074 A 
ATOM     43  C   UNL     1      -6.198  10.581  -3.972  1.00  0.00     0.031 C 
ATOM     44  C   UNL     1      -8.929   4.465  -2.335  1.00  0.00     0.029 A 
ATOM     45  C   UNL     1      -9.867   5.583  -2.400  1.00  0.00     0.049 A 
ATOM     46  H   UNL     1      -9.448   7.556  -2.917  1.00  0.00     0.167 HD
ATOM     47  C   UNL     1      -8.418  11.680  -3.963  1.00  0.00     0.031 A 
ATOM     48  C   UNL     1     -11.186   5.517  -2.137  1.00  0.00     0.031 A 
ATOM     49  C   UNL     1      -9.844  11.687  -3.773  1.00  0.00     0.049 A 
ATOM     50  C   UNL     1     -12.022   6.765  -2.245  1.00  0.00     0.074 A 
ATOM     51  C   UNL     1     -10.729  12.739  -3.932  1.00  0.00     0.029 A 
ATOM     52  N   UNL     1     -10.592  10.591  -3.374  1.00  0.00    -0.354 N 
ATOM     53  N   UNL     1     -11.662   7.974  -2.602  1.00  0.00    -0.248 NA
ATOM     54  C   UNL     1     -13.450   6.633  -1.921  1.00  0.00     0.031 C 
ATOM     55  C   UNL     1     -12.004  12.296  -3.564  1.00  0.00     0.029 A 
ATOM     56  C   UNL     1     -11.924  10.949  -3.249  1.00  0.00     0.049 A 
ATOM     57  H   UNL     1     -10.230   9.691  -3.204  1.00  0.00     0.167 HD
ATOM     58  C   UNL     1     -12.823   8.739  -2.577  1.00  0.00     0.074 A 
ATOM     59  C   UNL     1     -13.899   7.852  -2.186  1.00  0.00     0.031 C 
ATOM     60  C   UNL     1     -12.984  10.055  -2.857  1.00  0.00     0.031 A 
BRANCH  47  61
ATOM     61  C   UNL     1      -7.739  12.971  -4.332  1.00  0.00    -0.014 A 
ATOM     62  C   UNL     1      -7.168  13.164  -5.600  1.00  0.00     0.009 A 
ATOM     63  C   UNL     1      -7.703  14.026  -3.406  1.00  0.00     0.009 A 
ATOM     64  C   UNL     1      -6.545  14.373  -5.919  1.00  0.00     0.001 A 
ATOM     65  C   UNL     1      -7.107  15.243  -3.738  1.00  0.00     0.001 A 
ATOM     66  C   UNL     1      -6.519  15.412  -4.991  1.00  0.00     0.000 A 
ENDBRANCH  47  61
BRANCH  48  67
ATOM     67  C   UNL     1     -11.801   4.228  -1.723  1.00  0.00    -0.014 A 
ATOM     68  C   UNL     1     -12.719   3.570  -2.556  1.00  0.00     0.009 A 
ATOM     69  C   UNL     1     -11.488   3.659  -0.478  1.00  0.00     0.009 A 
ATOM     70  C   UNL     1     -13.332   2.386  -2.138  1.00  0.00     0.001 A 
ATOM     71  C   UNL     1     -12.077   2.458  -0.077  1.00  0.00     0.001 A 
ATOM     72  C   UNL     1     -13.007   1.829  -0.902  1.00  0.00     0.000 A 
ENDBRANCH  48  67
BRANCH  60  73
ATOM     73  C   UNL     1     -14.382  10.609  -2.793  1.00  0.00    -0.014 A 
ATOM     74  C   UNL     1     -15.052  10.776  -1.571  1.00  0.00     0.009 A 
ATOM     75  C   UNL     1     -15.023  11.007  -3.978  1.00  0.00     0.009 A 
ATOM     76  C   UNL     1     -16.348  11.295  -1.541  1.00  0.00     0.001 A 
ATOM     77  C   UNL     1     -16.305  11.556  -3.942  1.00  0.00     0.001 A 
ATOM     78  C   UNL     1     -16.971  11.690  -2.725  1.00  0.00     0.000 A 
ENDBRANCH  60  73
ENDBRANCH  34  35
ENDBRANCH  27  29
ENDBRANCH  26  27
ENDBRANCH  25  26
ENDBRANCH  24  25
ENDBRANCH  23  24
ENDBRANCH   1  23
TORSDOF 17
