REMARK SMILES O=C(CSc1nc(O)cc(=O)[nH]1)Nc1cccc(C(=O)OCCOCCOC(=O)c2ccc(-c3c4nc(c(-c5ccccc5)c5ccc([nH]5)c(-c5ccccc5)c5nc(c(-c6ccccc6)c6ccc3[nH]6)C=C5)C=C4)cc2)c1
REMARK SMILES IDX 22 1 21 2 19 3 20 4 18 5 14 6 15 7 78 8 16 9 17 10 13 11
REMARK SMILES IDX 1 12 2 13 3 15 4 16 5 17 6 18 12 19 7 20 10 21 9 23 11 24
REMARK SMILES IDX 8 25 23 27 24 28 25 29 26 30 27 31 28 32 29 33 30 34 31 35
REMARK SMILES IDX 77 36 32 37 76 38 33 39 34 40 35 41 70 42 36 43 75 44 69 45
REMARK SMILES IDX 71 46 37 47 74 48 68 49 67 50 38 52 60 53 45 54 59 55 46 56
REMARK SMILES IDX 49 57 58 58 72 59 47 60 48 61 57 63 73 64 50 65 39 66 40 67
REMARK SMILES IDX 44 68 41 69 43 70 42 71 61 72 62 73 66 74 63 75 65 76 64 77
REMARK SMILES IDX 51 78 52 79 56 80 53 81 55 82 54 83
REMARK H PARENT 13 14 12 22 8 26 71 51 49 62
REMARK Flexibility Score: inf
ROOT
ATOM      1  C   UNL     1      -2.430   1.176  -4.380  1.00  0.00     0.261 C 
ENDROOT
BRANCH   1   2
ATOM      2  O   UNL     1      -1.326   0.552  -3.702  1.00  0.00    -0.460 OA
BRANCH   2   3
ATOM      3  C   UNL     1      -1.228  -0.791  -3.845  1.00  0.00     0.338 C 
ATOM      4  O   UNL     1      -2.035  -1.536  -4.383  1.00  0.00    -0.246 OA
BRANCH   3   5
ATOM      5  C   UNL     1       0.123  -1.230  -3.431  1.00  0.00     0.062 A 
ATOM      6  C   UNL     1       2.066  -1.088  -1.992  1.00  0.00     0.042 A 
ATOM      7  C   UNL     1       2.711  -2.035  -2.802  1.00  0.00     0.026 A 
ATOM      8  C   UNL     1       0.778  -0.666  -2.329  1.00  0.00     0.041 A 
ATOM      9  C   UNL     1       2.056  -2.601  -3.898  1.00  0.00     0.003 A 
ATOM     10  C   UNL     1       0.756  -2.209  -4.205  1.00  0.00     0.016 A 
BRANCH   6  11
ATOM     11  N   UNL     1       2.767  -0.630  -0.858  1.00  0.00    -0.325 N 
ATOM     12  O   UNL     1       1.091   0.476   0.321  1.00  0.00    -0.274 OA
ATOM     13  C   UNL     1       2.249   0.079   0.215  1.00  0.00     0.234 C 
ATOM     14  H   UNL     1       3.729  -0.836  -0.824  1.00  0.00     0.169 HD
BRANCH  13  15
ATOM     15  C   UNL     1       3.279   0.421   1.284  1.00  0.00     0.178 C 
BRANCH  15  16
ATOM     16  S   UNL     1       4.397  -0.965   1.658  1.00  0.00    -0.078 SA
BRANCH  16  17
ATOM     17  C   UNL     1       3.265  -2.134   2.267  1.00  0.00     0.172 A 
ATOM     18  N   UNL     1       2.128  -1.815   2.782  1.00  0.00    -0.189 NA
ATOM     19  N   UNL     1       3.725  -3.404   2.133  1.00  0.00    -0.301 N 
ATOM     20  C   UNL     1       1.354  -2.857   3.209  1.00  0.00     0.218 A 
ATOM     21  C   UNL     1       2.985  -4.475   2.528  1.00  0.00     0.255 A 
ATOM     22  H   UNL     1       4.615  -3.554   1.741  1.00  0.00     0.172 HD
ATOM     23  C   UNL     1       1.685  -4.147   3.122  1.00  0.00     0.139 A 
ATOM     24  O   UNL     1       3.366  -5.630   2.395  1.00  0.00    -0.269 OA
BRANCH  20  25
ATOM     25  O   UNL     1       0.148  -2.510   3.757  1.00  0.00    -0.493 OA
ATOM     26  H   UNL     1      -0.095  -1.607   3.823  1.00  0.00     0.295 HD
ENDBRANCH  20  25
ENDBRANCH  16  17
ENDBRANCH  15  16
ENDBRANCH  13  15
ENDBRANCH   6  11
ENDBRANCH   3   5
ENDBRANCH   2   3
ENDBRANCH   1   2
BRANCH   1  27
ATOM     27  C   UNL     1      -1.934   2.060  -5.529  1.00  0.00     0.202 C 
BRANCH  27  28
ATOM     28  O   UNL     1      -1.371   1.367  -6.644  1.00  0.00    -0.374 OA
BRANCH  28  29
ATOM     29  C   UNL     1      -0.010   0.956  -6.522  1.00  0.00     0.202 C 
BRANCH  29  30
ATOM     30  C   UNL     1       1.041   2.018  -6.864  1.00  0.00     0.261 C 
BRANCH  30  31
ATOM     31  O   UNL     1       1.022   3.109  -5.926  1.00  0.00    -0.460 OA
BRANCH  31  32
ATOM     32  C   UNL     1       0.482   4.253  -6.405  1.00  0.00     0.338 C 
ATOM     33  O   UNL     1       0.102   4.474  -7.546  1.00  0.00    -0.246 OA
BRANCH  32  34
ATOM     34  C   UNL     1       0.256   5.210  -5.306  1.00  0.00     0.060 A 
ATOM     35  C   UNL     1      -1.006   5.811  -5.227  1.00  0.00     0.016 A 
ATOM     36  C   UNL     1       1.275   5.580  -4.425  1.00  0.00     0.016 A 
ATOM     37  C   UNL     1      -1.236   6.832  -4.308  1.00  0.00     0.010 A 
ATOM     38  C   UNL     1       1.043   6.609  -3.505  1.00  0.00     0.010 A 
ATOM     39  C   UNL     1      -0.200   7.268  -3.472  1.00  0.00    -0.014 A 
BRANCH  39  40
ATOM     40  C   UNL     1      -0.380   8.505  -2.674  1.00  0.00     0.031 A 
ATOM     41  C   UNL     1       0.221   9.792  -3.173  1.00  0.00     0.074 A 
ATOM     42  C   UNL     1      -1.099   8.493  -1.538  1.00  0.00     0.049 A 
ATOM     43  N   UNL     1       0.193  10.984  -2.633  1.00  0.00    -0.248 NA
ATOM     44  C   UNL     1       0.952   9.727  -4.450  1.00  0.00     0.031 C 
ATOM     45  C   UNL     1      -1.760   7.321  -0.965  1.00  0.00     0.029 A 
ATOM     46  N   UNL     1      -1.391   9.507  -0.659  1.00  0.00    -0.354 N 
ATOM     47  C   UNL     1       0.912  11.805  -3.494  1.00  0.00     0.074 A 
ATOM     48  C   UNL     1       1.384  10.974  -4.579  1.00  0.00     0.031 C 
ATOM     49  C   UNL     1      -2.374   7.682   0.176  1.00  0.00     0.029 A 
ATOM     50  C   UNL     1      -2.126   9.100   0.426  1.00  0.00     0.049 A 
ATOM     51  H   UNL     1      -1.100  10.438  -0.795  1.00  0.00     0.167 HD
ATOM     52  C   UNL     1       1.152  13.134  -3.393  1.00  0.00     0.031 A 
ATOM     53  C   UNL     1      -2.536   9.789   1.509  1.00  0.00     0.031 A 
ATOM     54  C   UNL     1       0.680  13.965  -2.318  1.00  0.00     0.049 A 
ATOM     55  C   UNL     1      -2.216  11.256   1.617  1.00  0.00     0.074 A 
ATOM     56  C   UNL     1       0.849  15.328  -2.146  1.00  0.00     0.029 A 
ATOM     57  N   UNL     1      -0.050  13.510  -1.232  1.00  0.00    -0.354 N 
ATOM     58  N   UNL     1      -1.568  12.027   0.777  1.00  0.00    -0.248 NA
ATOM     59  C   UNL     1      -2.697  11.952   2.820  1.00  0.00     0.031 C 
ATOM     60  C   UNL     1       0.267  15.689  -0.927  1.00  0.00     0.029 A 
ATOM     61  C   UNL     1      -0.318  14.562  -0.373  1.00  0.00     0.049 A 
ATOM     62  H   UNL     1      -0.336  12.579  -1.092  1.00  0.00     0.167 HD
ATOM     63  C   UNL     1      -1.598  13.301   1.331  1.00  0.00     0.074 A 
ATOM     64  C   UNL     1      -2.336  13.203   2.572  1.00  0.00     0.031 C 
ATOM     65  C   UNL     1      -1.063  14.452   0.853  1.00  0.00     0.031 A 
BRANCH  52  66
ATOM     66  C   UNL     1       1.991  13.776  -4.462  1.00  0.00    -0.014 A 
ATOM     67  C   UNL     1       1.485  14.003  -5.751  1.00  0.00     0.009 A 
ATOM     68  C   UNL     1       3.288  14.217  -4.153  1.00  0.00     0.009 A 
ATOM     69  C   UNL     1       2.270  14.640  -6.715  1.00  0.00     0.001 A 
ATOM     70  C   UNL     1       4.060  14.876  -5.110  1.00  0.00     0.001 A 
ATOM     71  C   UNL     1       3.553  15.082  -6.392  1.00  0.00     0.000 A 
ENDBRANCH  52  66
BRANCH  53  72
ATOM     72  C   UNL     1      -3.279   9.100   2.598  1.00  0.00    -0.014 A 
ATOM     73  C   UNL     1      -4.628   9.395   2.849  1.00  0.00     0.009 A 
ATOM     74  C   UNL     1      -2.624   8.170   3.420  1.00  0.00     0.009 A 
ATOM     75  C   UNL     1      -5.294   8.800   3.923  1.00  0.00     0.001 A 
ATOM     76  C   UNL     1      -3.301   7.553   4.473  1.00  0.00     0.001 A 
ATOM     77  C   UNL     1      -4.631   7.877   4.732  1.00  0.00     0.000 A 
ENDBRANCH  53  72
BRANCH  65  78
ATOM     78  C   UNL     1      -1.304  15.707   1.644  1.00  0.00    -0.014 A 
ATOM     79  C   UNL     1      -0.665  15.935   2.872  1.00  0.00     0.009 A 
ATOM     80  C   UNL     1      -2.159  16.695   1.129  1.00  0.00     0.009 A 
ATOM     81  C   UNL     1      -0.907  17.111   3.586  1.00  0.00     0.001 A 
ATOM     82  C   UNL     1      -2.375  17.882   1.829  1.00  0.00     0.001 A 
ATOM     83  C   UNL     1      -1.757  18.085   3.062  1.00  0.00     0.000 A 
ENDBRANCH  65  78
ENDBRANCH  39  40
ENDBRANCH  32  34
ENDBRANCH  31  32
ENDBRANCH  30  31
ENDBRANCH  29  30
ENDBRANCH  28  29
ENDBRANCH  27  28
ENDBRANCH   1  27
TORSDOF 19
