REMARK SMILES C[C@@H]1CCCCN1S(=O)(=O)c1ccc(CCC(=O)OCCOCCOC(=O)c2ccc(-c3c4nc(c(-c5ccccc5)c5ccc([nH]5)c(-c5ccccc5)c5nc(c(-c6ccccc6)c6ccc3[nH]6)C=C5)C=C4)cc2)cc1
REMARK SMILES IDX 21 1 20 2 19 3 17 4 18 5 16 6 15 7 14 8 11 9 12 10 77 11
REMARK SMILES IDX 13 12 76 13 8 14 9 15 10 16 7 17 1 18 2 19 3 20 4 21 6 22
REMARK SMILES IDX 5 23 22 24 23 25 24 26 25 27 26 28 27 29 28 30 29 31 75 32
REMARK SMILES IDX 30 33 74 34 31 35 32 36 33 37 68 38 34 39 73 40 67 41 69 42
REMARK SMILES IDX 35 43 72 44 66 45 65 46 36 48 58 49 43 50 57 51 44 52 47 53
REMARK SMILES IDX 56 54 70 55 45 56 46 57 55 59 71 60 48 61 37 62 38 63 42 64
REMARK SMILES IDX 39 65 41 66 40 67 59 68 60 69 64 70 61 71 63 72 62 73 49 74
REMARK SMILES IDX 50 75 54 76 51 77 53 78 52 79
REMARK H PARENT 69 47 47 58
REMARK Flexibility Score: inf
ROOT
ATOM      1  C   UNL     1       4.882  -6.002  -5.262  1.00  0.00     0.202 C 
ENDROOT
BRANCH   1   2
ATOM      2  C   UNL     1       6.102  -6.003  -4.330  1.00  0.00     0.261 C 
BRANCH   2   3
ATOM      3  O   UNL     1       6.335  -4.697  -3.758  1.00  0.00    -0.463 OA
BRANCH   3   4
ATOM      4  C   UNL     1       7.379  -3.976  -4.239  1.00  0.00     0.306 C 
ATOM      5  O   UNL     1       8.149  -4.348  -5.115  1.00  0.00    -0.252 OA
BRANCH   4   6
ATOM      6  C   UNL     1       7.474  -2.622  -3.571  1.00  0.00     0.127 C 
BRANCH   6   7
ATOM      7  C   UNL     1       6.402  -1.622  -4.019  1.00  0.00     0.047 C 
BRANCH   7   8
ATOM      8  C   UNL     1       5.178  -1.617  -3.129  1.00  0.00    -0.047 A 
ATOM      9  C   UNL     1       3.038  -1.767  -1.299  1.00  0.00     0.082 A 
ATOM     10  C   UNL     1       3.156  -2.700  -2.330  1.00  0.00     0.022 A 
ATOM     11  C   UNL     1       3.979  -0.743  -1.199  1.00  0.00     0.022 A 
ATOM     12  C   UNL     1       4.200  -2.605  -3.248  1.00  0.00     0.005 A 
ATOM     13  C   UNL     1       5.038  -0.665  -2.114  1.00  0.00     0.005 A 
BRANCH   9  14
ATOM     14  S   UNL     1       1.843  -2.079  -0.013  1.00  0.00     0.243 S 
ATOM     15  O   UNL     1       2.542  -2.059   1.252  1.00  0.00    -0.207 OA
ATOM     16  O   UNL     1       1.129  -3.273  -0.417  1.00  0.00    -0.207 OA
BRANCH  14  17
ATOM     17  N   UNL     1       0.703  -0.802  -0.051  1.00  0.00    -0.195 NA
ATOM     18  C   UNL     1       1.986   0.786   1.477  1.00  0.00     0.026 C 
ATOM     19  C   UNL     1       1.139   0.611   0.216  1.00  0.00     0.070 C 
ATOM     20  C   UNL     1      -0.078   1.557   0.337  1.00  0.00     0.020 C 
ATOM     21  C   UNL     1      -1.288   1.056  -0.430  1.00  0.00     0.003 C 
ATOM     22  C   UNL     1      -0.574  -1.146   0.646  1.00  0.00     0.103 C 
ATOM     23  C   UNL     1      -1.727  -0.304   0.099  1.00  0.00     0.017 C 
ENDBRANCH  14  17
ENDBRANCH   9  14
ENDBRANCH   7   8
ENDBRANCH   6   7
ENDBRANCH   4   6
ENDBRANCH   3   4
ENDBRANCH   2   3
ENDBRANCH   1   2
BRANCH   1  24
ATOM     24  O   UNL     1       5.166  -5.578  -6.598  1.00  0.00    -0.374 OA
BRANCH  24  25
ATOM     25  C   UNL     1       5.189  -4.169  -6.813  1.00  0.00     0.202 C 
BRANCH  25  26
ATOM     26  C   UNL     1       3.855  -3.588  -7.295  1.00  0.00     0.261 C 
BRANCH  26  27
ATOM     27  O   UNL     1       2.855  -3.663  -6.261  1.00  0.00    -0.460 OA
BRANCH  27  28
ATOM     28  C   UNL     1       1.948  -4.658  -6.412  1.00  0.00     0.338 C 
ATOM     29  O   UNL     1       1.843  -5.425  -7.354  1.00  0.00    -0.246 OA
BRANCH  28  30
ATOM     30  C   UNL     1       1.152  -4.803  -5.175  1.00  0.00     0.060 A 
ATOM     31  C   UNL     1       0.928  -6.101  -4.700  1.00  0.00     0.016 A 
ATOM     32  C   UNL     1       0.600  -3.707  -4.507  1.00  0.00     0.016 A 
ATOM     33  C   UNL     1       0.123  -6.311  -3.579  1.00  0.00     0.010 A 
ATOM     34  C   UNL     1      -0.198  -3.920  -3.374  1.00  0.00     0.010 A 
ATOM     35  C   UNL     1      -0.469  -5.225  -2.920  1.00  0.00    -0.014 A 
BRANCH  35  36
ATOM     36  C   UNL     1      -1.481  -5.467  -1.857  1.00  0.00     0.031 A 
ATOM     37  C   UNL     1      -2.936  -5.225  -2.164  1.00  0.00     0.074 A 
ATOM     38  C   UNL     1      -1.134  -5.936  -0.642  1.00  0.00     0.049 A 
ATOM     39  N   UNL     1      -3.986  -5.380  -1.395  1.00  0.00    -0.248 NA
ATOM     40  C   UNL     1      -3.252  -4.747  -3.520  1.00  0.00     0.031 C 
ATOM     41  C   UNL     1       0.228  -6.236  -0.204  1.00  0.00     0.029 A 
ATOM     42  N   UNL     1      -1.910  -6.233   0.453  1.00  0.00    -0.354 N 
ATOM     43  C   UNL     1      -5.079  -5.023  -2.174  1.00  0.00     0.074 A 
ATOM     44  C   UNL     1      -4.565  -4.593  -3.455  1.00  0.00     0.031 C 
ATOM     45  C   UNL     1       0.196  -6.654   1.073  1.00  0.00     0.029 A 
ATOM     46  C   UNL     1      -1.186  -6.643   1.546  1.00  0.00     0.049 A 
ATOM     47  H   UNL     1      -2.892  -6.158   0.455  1.00  0.00     0.167 HD
ATOM     48  C   UNL     1      -6.396  -5.072  -1.867  1.00  0.00     0.031 A 
ATOM     49  C   UNL     1      -1.587  -6.962   2.792  1.00  0.00     0.031 A 
ATOM     50  C   UNL     1      -6.925  -5.502  -0.601  1.00  0.00     0.049 A 
ATOM     51  C   UNL     1      -3.052  -6.935   3.135  1.00  0.00     0.074 A 
ATOM     52  C   UNL     1      -8.249  -5.612  -0.213  1.00  0.00     0.029 A 
ATOM     53  N   UNL     1      -6.155  -5.891   0.482  1.00  0.00    -0.354 N 
ATOM     54  N   UNL     1      -4.077  -6.640   2.373  1.00  0.00    -0.248 NA
ATOM     55  C   UNL     1      -3.417  -7.305   4.512  1.00  0.00     0.031 C 
ATOM     56  C   UNL     1      -8.280  -6.025   1.123  1.00  0.00     0.029 A 
ATOM     57  C   UNL     1      -6.976  -6.219   1.548  1.00  0.00     0.049 A 
ATOM     58  H   UNL     1      -5.171  -5.929   0.493  1.00  0.00     0.167 HD
ATOM     59  C   UNL     1      -5.204  -6.830   3.162  1.00  0.00     0.074 A 
ATOM     60  C   UNL     1      -4.741  -7.268   4.462  1.00  0.00     0.031 C 
ATOM     61  C   UNL     1      -6.508  -6.664   2.834  1.00  0.00     0.031 A 
BRANCH  48  62
ATOM     62  C   UNL     1      -7.363  -4.638  -2.931  1.00  0.00    -0.014 A 
ATOM     63  C   UNL     1      -7.602  -5.438  -4.060  1.00  0.00     0.009 A 
ATOM     64  C   UNL     1      -8.059  -3.428  -2.792  1.00  0.00     0.009 A 
ATOM     65  C   UNL     1      -8.494  -5.016  -5.047  1.00  0.00     0.001 A 
ATOM     66  C   UNL     1      -8.970  -3.022  -3.769  1.00  0.00     0.001 A 
ATOM     67  C   UNL     1      -9.179  -3.811  -4.899  1.00  0.00     0.000 A 
ENDBRANCH  48  62
BRANCH  49  68
ATOM     68  C   UNL     1      -0.589  -7.342   3.827  1.00  0.00    -0.014 A 
ATOM     69  C   UNL     1      -0.502  -8.666   4.284  1.00  0.00     0.009 A 
ATOM     70  C   UNL     1       0.250  -6.371   4.395  1.00  0.00     0.009 A 
ATOM     71  C   UNL     1       0.380  -9.003   5.313  1.00  0.00     0.001 A 
ATOM     72  C   UNL     1       1.149  -6.716   5.407  1.00  0.00     0.001 A 
ATOM     73  C   UNL     1       1.205  -8.029   5.873  1.00  0.00     0.000 A 
ENDBRANCH  49  68
BRANCH  61  74
ATOM     74  C   UNL     1      -7.535  -7.005   3.877  1.00  0.00    -0.014 A 
ATOM     75  C   UNL     1      -7.752  -6.176   4.988  1.00  0.00     0.009 A 
ATOM     76  C   UNL     1      -8.328  -8.153   3.719  1.00  0.00     0.009 A 
ATOM     77  C   UNL     1      -8.723  -6.507   5.935  1.00  0.00     0.001 A 
ATOM     78  C   UNL     1      -9.316  -8.466   4.652  1.00  0.00     0.001 A 
ATOM     79  C   UNL     1      -9.508  -7.648   5.764  1.00  0.00     0.000 A 
ENDBRANCH  61  74
ENDBRANCH  35  36
ENDBRANCH  28  30
ENDBRANCH  27  28
ENDBRANCH  26  27
ENDBRANCH  25  26
ENDBRANCH  24  25
ENDBRANCH   1  24
TORSDOF 18
