REMARK SMILES [NH3+]Cc1ccc(C(=O)N2[C@@H](C(=O)OCCOCCOC(=O)c3ccc(-c4c5nc(c(-c6ccccc6)c6ccc([nH]6)c(-c6ccccc6)c6nc(c(-c7ccccc7)c7ccc4[nH]7)C=C6)C=C5)cc3)C[C@H]3CCCC[C@@H]32)o1
REMARK SMILES IDX 15 1 14 2 13 3 11 4 12 5 10 6 9 7 76 8 70 9 71 10 75 11
REMARK SMILES IDX 72 12 74 13 73 14 7 15 8 16 6 17 3 18 4 19 77 20 5 21 2 22
REMARK SMILES IDX 1 23 16 27 17 28 18 29 19 30 20 31 21 32 22 33 23 34 69 35
REMARK SMILES IDX 24 36 68 37 25 38 26 39 27 40 62 41 28 42 67 43 61 44 63 45
REMARK SMILES IDX 29 46 66 47 60 48 59 49 30 51 52 52 37 53 51 54 38 55 41 56
REMARK SMILES IDX 50 57 64 58 39 59 40 60 49 62 65 63 42 64 31 65 32 66 36 67
REMARK SMILES IDX 33 68 35 69 34 70 53 71 54 72 58 73 55 74 57 75 56 76 43 77
REMARK SMILES IDX 44 78 48 79 45 80 47 81 46 82
REMARK H PARENT 1 24 1 25 1 26 63 50 41 61
REMARK Flexibility Score: inf
ROOT
ATOM      1  C   UNL     1       5.232  -7.969  -2.948  1.00  0.00     0.202 C 
ENDROOT
BRANCH   1   2
ATOM      2  C   UNL     1       4.989  -7.871  -4.454  1.00  0.00     0.261 C 
BRANCH   2   3
ATOM      3  O   UNL     1       4.587  -6.547  -4.848  1.00  0.00    -0.462 OA
BRANCH   3   4
ATOM      4  C   UNL     1       3.306  -6.463  -5.310  1.00  0.00     0.328 C 
ATOM      5  O   UNL     1       2.579  -7.429  -5.507  1.00  0.00    -0.250 OA
BRANCH   4   6
ATOM      6  C   UNL     1       2.923  -4.998  -5.628  1.00  0.00     0.196 C 
ATOM      7  N   UNL     1       1.555  -4.676  -5.192  1.00  0.00    -0.319 N 
ATOM      8  C   UNL     1       0.636  -5.225  -6.152  1.00  0.00     0.089 C 
ATOM      9  C   UNL     1       2.834  -4.900  -7.162  1.00  0.00     0.043 C 
ATOM     10  C   UNL     1       1.327  -4.786  -7.446  1.00  0.00     0.014 C 
ATOM     11  C   UNL     1      -0.817  -4.779  -6.182  1.00  0.00     0.025 C 
ATOM     12  C   UNL     1       0.757  -5.561  -8.616  1.00  0.00     0.006 C 
ATOM     13  C   UNL     1      -1.500  -5.468  -7.376  1.00  0.00     0.002 C 
ATOM     14  C   UNL     1      -0.751  -5.280  -8.707  1.00  0.00     0.000 C 
BRANCH   7  15
ATOM     15  C   UNL     1       1.191  -4.280  -3.925  1.00  0.00     0.290 C 
ATOM     16  O   UNL     1       0.547  -5.016  -3.182  1.00  0.00    -0.265 OA
BRANCH  15  17
ATOM     17  C   UNL     1       1.477  -2.881  -3.637  1.00  0.00     0.192 A 
ATOM     18  C   UNL     1       1.180  -0.975  -2.553  1.00  0.00     0.159 A 
ATOM     19  C   UNL     1       1.948  -0.675  -3.656  1.00  0.00     0.052 A 
ATOM     20  O   UNL     1       0.925  -2.316  -2.513  1.00  0.00    -0.450 OA
ATOM     21  C   UNL     1       2.132  -1.892  -4.354  1.00  0.00     0.057 A 
BRANCH  18  22
ATOM     22  C   UNL     1       0.574  -0.136  -1.484  1.00  0.00     0.335 C 
BRANCH  22  23
ATOM     23  N   UNL     1       1.153  -0.433  -0.178  1.00  0.00    -0.351 N 
ATOM     24  H   UNL     1       0.717   0.158   0.530  1.00  0.00     0.344 HD
ATOM     25  H   UNL     1       2.156  -0.251  -0.202  1.00  0.00     0.344 HD
ATOM     26  H   UNL     1       0.991  -1.413   0.051  1.00  0.00     0.344 HD
ENDBRANCH  22  23
ENDBRANCH  18  22
ENDBRANCH  15  17
ENDBRANCH   7  15
ENDBRANCH   4   6
ENDBRANCH   3   4
ENDBRANCH   2   3
ENDBRANCH   1   2
BRANCH   1  27
ATOM     27  O   UNL     1       4.128  -7.703  -2.090  1.00  0.00    -0.374 OA
BRANCH  27  28
ATOM     28  C   UNL     1       3.686  -6.353  -1.949  1.00  0.00     0.202 C 
BRANCH  28  29
ATOM     29  C   UNL     1       4.572  -5.405  -1.132  1.00  0.00     0.261 C 
BRANCH  29  30
ATOM     30  O   UNL     1       5.883  -5.233  -1.702  1.00  0.00    -0.460 OA
BRANCH  30  31
ATOM     31  C   UNL     1       6.896  -5.738  -0.957  1.00  0.00     0.338 C 
ATOM     32  O   UNL     1       6.824  -6.245   0.154  1.00  0.00    -0.246 OA
BRANCH  31  33
ATOM     33  C   UNL     1       8.140  -5.765  -1.746  1.00  0.00     0.060 A 
ATOM     34  C   UNL     1       8.770  -7.003  -1.928  1.00  0.00     0.016 A 
ATOM     35  C   UNL     1       8.720  -4.594  -2.236  1.00  0.00     0.016 A 
ATOM     36  C   UNL     1       9.999  -7.073  -2.582  1.00  0.00     0.010 A 
ATOM     37  C   UNL     1       9.962  -4.664  -2.877  1.00  0.00     0.010 A 
ATOM     38  C   UNL     1      10.616  -5.899  -3.032  1.00  0.00    -0.014 A 
BRANCH  38  39
ATOM     39  C   UNL     1      11.995  -5.954  -3.571  1.00  0.00     0.031 A 
ATOM     40  C   UNL     1      13.153  -5.639  -2.668  1.00  0.00     0.074 A 
ATOM     41  C   UNL     1      12.212  -6.297  -4.852  1.00  0.00     0.049 A 
ATOM     42  N   UNL     1      14.432  -5.600  -2.946  1.00  0.00    -0.248 NA
ATOM     43  C   UNL     1      12.828  -5.331  -1.267  1.00  0.00     0.031 C 
ATOM     44  C   UNL     1      11.177  -6.674  -5.813  1.00  0.00     0.029 A 
ATOM     45  N   UNL     1      13.382  -6.379  -5.564  1.00  0.00    -0.354 N 
ATOM     46  C   UNL     1      15.064  -5.262  -1.756  1.00  0.00     0.074 A 
ATOM     47  C   UNL     1      14.027  -5.081  -0.762  1.00  0.00     0.031 C 
ATOM     48  C   UNL     1      11.759  -6.943  -6.995  1.00  0.00     0.029 A 
ATOM     49  C   UNL     1      13.199  -6.723  -6.880  1.00  0.00     0.049 A 
ATOM     50  H   UNL     1      14.267  -6.207  -5.168  1.00  0.00     0.167 HD
ATOM     51  C   UNL     1      16.389  -5.119  -1.512  1.00  0.00     0.031 A 
ATOM     52  C   UNL     1      14.090  -6.825  -7.884  1.00  0.00     0.031 A 
ATOM     53  C   UNL     1      17.418  -5.274  -2.505  1.00  0.00     0.049 A 
ATOM     54  C   UNL     1      15.543  -6.548  -7.616  1.00  0.00     0.074 A 
ATOM     55  C   UNL     1      18.790  -5.174  -2.350  1.00  0.00     0.029 A 
ATOM     56  N   UNL     1      17.185  -5.545  -3.844  1.00  0.00    -0.354 N 
ATOM     57  N   UNL     1      16.133  -6.256  -6.481  1.00  0.00    -0.248 NA
ATOM     58  C   UNL     1      16.453  -6.609  -8.769  1.00  0.00     0.031 C 
ATOM     59  C   UNL     1      19.383  -5.324  -3.609  1.00  0.00     0.029 A 
ATOM     60  C   UNL     1      18.384  -5.570  -4.537  1.00  0.00     0.049 A 
ATOM     61  H   UNL     1      16.299  -5.697  -4.244  1.00  0.00     0.167 HD
ATOM     62  C   UNL     1      17.481  -6.111  -6.781  1.00  0.00     0.074 A 
ATOM     63  C   UNL     1      17.625  -6.363  -8.200  1.00  0.00     0.031 C 
ATOM     64  C   UNL     1      18.509  -5.799  -5.953  1.00  0.00     0.031 A 
BRANCH  51  65
ATOM     65  C   UNL     1      16.790  -4.732  -0.117  1.00  0.00    -0.014 A 
ATOM     66  C   UNL     1      16.706  -5.645   0.946  1.00  0.00     0.009 A 
ATOM     67  C   UNL     1      17.273  -3.438   0.134  1.00  0.00     0.009 A 
ATOM     68  C   UNL     1      17.062  -5.256   2.240  1.00  0.00     0.001 A 
ATOM     69  C   UNL     1      17.651  -3.061   1.423  1.00  0.00     0.001 A 
ATOM     70  C   UNL     1      17.536  -3.966   2.476  1.00  0.00     0.000 A 
ENDBRANCH  51  65
BRANCH  52  71
ATOM     71  C   UNL     1      13.626  -7.180  -9.249  1.00  0.00    -0.014 A 
ATOM     72  C   UNL     1      13.915  -8.438  -9.797  1.00  0.00     0.009 A 
ATOM     73  C   UNL     1      12.886  -6.260 -10.009  1.00  0.00     0.009 A 
ATOM     74  C   UNL     1      13.482  -8.763 -11.084  1.00  0.00     0.001 A 
ATOM     75  C   UNL     1      12.434  -6.597 -11.286  1.00  0.00     0.001 A 
ATOM     76  C   UNL     1      12.737  -7.846 -11.825  1.00  0.00     0.000 A 
ENDBRANCH  52  71
BRANCH  64  77
ATOM     77  C   UNL     1      19.879  -5.713  -6.563  1.00  0.00    -0.014 A 
ATOM     78  C   UNL     1      20.247  -4.620  -7.362  1.00  0.00     0.009 A 
ATOM     79  C   UNL     1      20.825  -6.716  -6.303  1.00  0.00     0.009 A 
ATOM     80  C   UNL     1      21.530  -4.546  -7.909  1.00  0.00     0.001 A 
ATOM     81  C   UNL     1      22.114  -6.627  -6.830  1.00  0.00     0.001 A 
ATOM     82  C   UNL     1      22.463  -5.546  -7.639  1.00  0.00     0.000 A 
ENDBRANCH  64  77
ENDBRANCH  38  39
ENDBRANCH  31  33
ENDBRANCH  30  31
ENDBRANCH  29  30
ENDBRANCH  28  29
ENDBRANCH  27  28
ENDBRANCH   1  27
TORSDOF 18
