REMARK SMILES O=C(OCCOCCOC(=O)[C@H]1Cc2[nH]cnc2CN1C(=O)NCc1nc[nH]n1)c1ccc(-c2c3nc(c(-c4ccccc4)c4ccc([nH]4)c(-c4ccccc4)c4nc(c(-c5ccccc5)c5ccc2[nH]5)C=C4)C=C3)cc1
REMARK SMILES IDX 7 1 6 2 5 3 4 4 3 5 2 6 1 7 30 8 31 9 77 10 32 11 76 12
REMARK SMILES IDX 33 13 34 14 35 15 70 16 36 17 75 18 69 19 71 20 37 21 74 22
REMARK SMILES IDX 68 23 67 24 38 26 60 27 45 28 59 29 46 30 49 31 58 32 72 33
REMARK SMILES IDX 47 34 48 35 57 37 73 38 50 39 39 40 40 41 44 42 41 43 43 44
REMARK SMILES IDX 42 45 61 46 62 47 66 48 63 49 65 50 64 51 51 52 52 53 56 54
REMARK SMILES IDX 53 55 55 56 54 57 8 58 9 59 10 60 11 61 12 62 13 63 20 64
REMARK SMILES IDX 14 65 19 66 15 67 18 68 16 69 17 71 21 72 22 73 23 74 24 76
REMARK SMILES IDX 25 77 26 78 29 79 27 80 28 81
REMARK H PARENT 71 25 49 36 15 70 23 75 28 82
REMARK Flexibility Score: inf
ROOT
ATOM      1  C   UNL     1       3.189  -1.521  -0.738  1.00  0.00     0.202 C 
ENDROOT
BRANCH   1   2
ATOM      2  O   UNL     1       4.011  -0.100  -0.470  1.00  0.00    -0.374 OA
BRANCH   2   3
ATOM      3  C   UNL     1       3.997   0.635   0.794  1.00  0.00     0.202 C 
BRANCH   3   4
ATOM      4  C   UNL     1       4.031   2.143   0.693  1.00  0.00     0.261 C 
BRANCH   4   5
ATOM      5  O   UNL     1       2.732   2.648   0.343  1.00  0.00    -0.460 OA
BRANCH   5   6
ATOM      6  C   UNL     1       1.945   1.732  -0.275  1.00  0.00     0.338 C 
ATOM      7  O   UNL     1       1.034   1.092   0.235  1.00  0.00    -0.246 OA
BRANCH   6   8
ATOM      8  C   UNL     1       2.147   1.802  -1.719  1.00  0.00     0.060 A 
ATOM      9  C   UNL     1       3.364   2.143  -2.316  1.00  0.00     0.016 A 
ATOM     10  C   UNL     1       0.986   1.674  -2.462  1.00  0.00     0.016 A 
ATOM     11  C   UNL     1       3.317   2.805  -3.510  1.00  0.00     0.010 A 
ATOM     12  C   UNL     1       0.979   2.207  -3.713  1.00  0.00     0.010 A 
ATOM     13  C   UNL     1       2.063   2.981  -4.096  1.00  0.00    -0.014 A 
BRANCH  13  14
ATOM     14  C   UNL     1       1.922   3.739  -5.315  1.00  0.00     0.031 A 
ATOM     15  C   UNL     1       2.583   2.943  -6.379  1.00  0.00     0.074 A 
ATOM     16  C   UNL     1       1.268   4.928  -5.377  1.00  0.00     0.049 A 
ATOM     17  N   UNL     1       3.824   3.077  -6.706  1.00  0.00    -0.248 NA
ATOM     18  C   UNL     1       2.019   1.645  -6.812  1.00  0.00     0.031 C 
ATOM     19  C   UNL     1       0.514   5.671  -4.353  1.00  0.00     0.029 A 
ATOM     20  N   UNL     1       1.127   5.754  -6.459  1.00  0.00    -0.354 N 
ATOM     21  C   UNL     1       4.051   2.128  -7.687  1.00  0.00     0.074 A 
ATOM     22  C   UNL     1       3.044   1.123  -7.494  1.00  0.00     0.031 C 
ATOM     23  C   UNL     1      -0.214   6.666  -4.933  1.00  0.00     0.029 A 
ATOM     24  C   UNL     1       0.137   6.752  -6.337  1.00  0.00     0.049 A 
ATOM     25  H   UNL     1       1.680   5.659  -7.268  1.00  0.00     0.167 HD
ATOM     26  C   UNL     1       4.732   2.518  -8.799  1.00  0.00     0.031 A 
ATOM     27  C   UNL     1      -0.290   7.582  -7.342  1.00  0.00     0.031 A 
ATOM     28  C   UNL     1       5.449   3.747  -8.521  1.00  0.00     0.049 A 
ATOM     29  C   UNL     1       0.798   7.598  -8.360  1.00  0.00     0.074 A 
ATOM     30  C   UNL     1       6.415   4.124  -7.608  1.00  0.00     0.029 A 
ATOM     31  N   UNL     1       4.781   4.893  -8.884  1.00  0.00    -0.354 N 
ATOM     32  N   UNL     1       1.963   8.127  -8.107  1.00  0.00    -0.248 NA
ATOM     33  C   UNL     1       0.782   6.512  -9.331  1.00  0.00     0.031 C 
ATOM     34  C   UNL     1       6.011   5.415  -7.150  1.00  0.00     0.029 A 
ATOM     35  C   UNL     1       4.928   5.848  -7.916  1.00  0.00     0.049 A 
ATOM     36  H   UNL     1       4.272   5.009  -9.718  1.00  0.00     0.167 HD
ATOM     37  C   UNL     1       2.865   7.139  -8.472  1.00  0.00     0.074 A 
ATOM     38  C   UNL     1       2.071   6.165  -9.238  1.00  0.00     0.031 C 
ATOM     39  C   UNL     1       4.060   7.000  -7.821  1.00  0.00     0.031 A 
BRANCH  26  40
ATOM     40  C   UNL     1       4.251   2.189 -10.196  1.00  0.00    -0.014 A 
ATOM     41  C   UNL     1       4.942   2.771 -11.274  1.00  0.00     0.009 A 
ATOM     42  C   UNL     1       3.001   1.609 -10.492  1.00  0.00     0.009 A 
ATOM     43  C   UNL     1       4.377   2.845 -12.551  1.00  0.00     0.001 A 
ATOM     44  C   UNL     1       2.446   1.654 -11.774  1.00  0.00     0.001 A 
ATOM     45  C   UNL     1       3.125   2.293 -12.799  1.00  0.00     0.000 A 
ENDBRANCH  26  40
BRANCH  27  46
ATOM     46  C   UNL     1      -1.671   8.021  -7.715  1.00  0.00    -0.014 A 
ATOM     47  C   UNL     1      -1.915   9.005  -8.701  1.00  0.00     0.009 A 
ATOM     48  C   UNL     1      -2.764   7.228  -7.333  1.00  0.00     0.009 A 
ATOM     49  C   UNL     1      -3.187   9.158  -9.292  1.00  0.00     0.001 A 
ATOM     50  C   UNL     1      -4.027   7.370  -7.931  1.00  0.00     0.001 A 
ATOM     51  C   UNL     1      -4.238   8.326  -8.918  1.00  0.00     0.000 A 
ENDBRANCH  27  46
BRANCH  39  52
ATOM     52  C   UNL     1       4.492   8.086  -6.865  1.00  0.00    -0.014 A 
ATOM     53  C   UNL     1       3.853   8.422  -5.655  1.00  0.00     0.009 A 
ATOM     54  C   UNL     1       5.709   8.711  -7.165  1.00  0.00     0.009 A 
ATOM     55  C   UNL     1       4.406   9.395  -4.807  1.00  0.00     0.001 A 
ATOM     56  C   UNL     1       6.268   9.661  -6.314  1.00  0.00     0.001 A 
ATOM     57  C   UNL     1       5.609  10.016  -5.142  1.00  0.00     0.000 A 
ENDBRANCH  39  52
ENDBRANCH  13  14
ENDBRANCH   6   8
ENDBRANCH   5   6
ENDBRANCH   4   5
ENDBRANCH   3   4
ENDBRANCH   2   3
ENDBRANCH   1   2
BRANCH   1  58
ATOM     58  C   UNL     1       2.687  -3.212   0.692  1.00  0.00     0.261 C 
BRANCH  58  59
ATOM     59  O   UNL     1       2.959  -3.130   2.343  1.00  0.00    -0.462 OA
BRANCH  59  60
ATOM     60  C   UNL     1       4.186  -3.508   2.778  1.00  0.00     0.329 C 
ATOM     61  O   UNL     1       4.669  -4.585   2.431  1.00  0.00    -0.250 OA
BRANCH  60  62
ATOM     62  C   UNL     1       4.967  -2.476   3.660  1.00  0.00     0.203 C 
ATOM     63  C   UNL     1       6.136  -3.298   4.276  1.00  0.00     0.093 C 
ATOM     64  N   UNL     1       5.570  -1.105   3.356  1.00  0.00    -0.305 N 
ATOM     65  C   UNL     1       6.708  -2.509   5.386  1.00  0.00     0.042 A 
ATOM     66  C   UNL     1       5.799  -0.280   4.598  1.00  0.00     0.180 C 
ATOM     67  N   UNL     1       7.444  -2.958   6.432  1.00  0.00    -0.348 N 
ATOM     68  C   UNL     1       6.565  -1.150   5.559  1.00  0.00     0.081 A 
ATOM     69  C   UNL     1       7.670  -1.873   7.235  1.00  0.00     0.197 A 
ATOM     70  H   UNL     1       7.754  -3.880   6.583  1.00  0.00     0.167 HD
ATOM     71  N   UNL     1       7.155  -0.766   6.734  1.00  0.00    -0.240 NA
BRANCH  64  72
ATOM     72  C   UNL     1       6.433  -0.768   2.345  1.00  0.00     0.318 C 
ATOM     73  O   UNL     1       7.179   0.218   2.401  1.00  0.00    -0.249 OA
ATOM     74  N   UNL     1       6.443  -1.366   1.150  1.00  0.00    -0.331 N 
ATOM     75  H   UNL     1       7.021  -0.885   0.514  1.00  0.00     0.165 HD
BRANCH  74  76
ATOM     76  C   UNL     1       5.841  -2.518   0.542  1.00  0.00     0.197 C 
BRANCH  76  77
ATOM     77  C   UNL     1       4.372  -2.455   0.355  1.00  0.00     0.169 A 
ATOM     78  N   UNL     1       3.488  -3.393  -1.023  1.00  0.00    -0.218 NA
ATOM     79  N   UNL     1       3.134  -1.474   1.111  1.00  0.00    -0.157 NA
ATOM     80  C   UNL     1       1.927  -3.008  -1.125  1.00  0.00     0.216 A 
ATOM     81  N   UNL     1       1.548  -1.773   0.183  1.00  0.00    -0.266 N 
ATOM     82  H   UNL     1       0.676  -1.352   0.358  1.00  0.00     0.191 HD
ENDBRANCH  76  77
ENDBRANCH  74  76
ENDBRANCH  64  72
ENDBRANCH  60  62
ENDBRANCH  59  60
ENDBRANCH  58  59
ENDBRANCH   1  58
TORSDOF 17
