REMARK SMILES Cc1ccccc1[C@@H]1[NH2+][C@@H](C(=O)OCCOCCOC(=O)c2ccc(-c3c4nc(c(-c5ccccc5)c5ccc([nH]5)c(-c5ccccc5)c5nc(c(-c6ccccc6)c6ccc3[nH]6)C=C5)C=C4)cc2)CC2=c3ccccc3=N[C@H]21
REMARK SMILES IDX 17 1 16 2 15 3 14 4 13 5 11 6 12 7 10 8 8 9 9 10 79 11 71 14
REMARK SMILES IDX 78 15 70 16 72 17 77 18 73 19 76 20 74 21 75 22 7 23 1 24
REMARK SMILES IDX 2 25 3 26 4 27 6 28 5 29 18 30 19 31 20 32 21 33 22 34 23 35
REMARK SMILES IDX 69 36 24 37 68 38 25 39 26 40 27 41 62 42 28 43 67 44 61 45
REMARK SMILES IDX 63 46 29 47 66 48 60 49 59 50 30 52 52 53 37 54 51 55 38 56
REMARK SMILES IDX 41 57 50 58 64 59 39 60 40 61 49 63 65 64 42 65 31 66 32 67
REMARK SMILES IDX 36 68 33 69 35 70 34 71 53 72 54 73 58 74 55 75 57 76 56 77
REMARK SMILES IDX 43 78 44 79 48 80 45 81 47 82 46 83
REMARK H PARENT 9 12 9 13 63 51 41 62
REMARK Flexibility Score: inf
ROOT
ATOM      1  C   UNL     1       0.071   5.725  -3.543  1.00  0.00     0.202 C 
ENDROOT
BRANCH   1   2
ATOM      2  O   UNL     1      -1.123   5.357  -2.865  1.00  0.00    -0.374 OA
BRANCH   2   3
ATOM      3  C   UNL     1      -1.464   6.194  -1.775  1.00  0.00     0.202 C 
BRANCH   3   4
ATOM      4  C   UNL     1      -2.760   5.693  -1.223  1.00  0.00     0.261 C 
BRANCH   4   5
ATOM      5  O   UNL     1      -2.845   4.364  -0.657  1.00  0.00    -0.459 OA
BRANCH   5   6
ATOM      6  C   UNL     1      -2.021   3.350  -1.014  1.00  0.00     0.365 C 
ATOM      7  O   UNL     1      -2.423   2.393  -1.664  1.00  0.00    -0.245 OA
BRANCH   6   8
ATOM      8  C   UNL     1      -0.635   3.455  -0.356  1.00  0.00     0.298 C 
ATOM      9  C   UNL     1       1.035   2.005   0.844  1.00  0.00     0.243 C 
ATOM     10  N   UNL     1      -0.056   2.098  -0.160  1.00  0.00    -0.326 N 
ATOM     11  C   UNL     1       0.941   2.906   2.127  1.00  0.00     0.196 C 
ATOM     12  H   UNL     1      -0.808   1.476   0.135  1.00  0.00     0.347 HD
ATOM     13  H   UNL     1       0.364   1.842  -1.054  1.00  0.00     0.347 HD
ATOM     14  C   UNL     1      -0.404   3.548   2.116  1.00  0.00    -0.024 C 
ATOM     15  N   UNL     1       0.946   2.086   3.373  1.00  0.00    -0.270 NA
ATOM     16  C   UNL     1      -0.701   4.347   0.915  1.00  0.00     0.111 C 
ATOM     17  C   UNL     1      -1.187   3.094   3.083  1.00  0.00     0.002 A 
ATOM     18  C   UNL     1      -0.265   2.220   3.824  1.00  0.00     0.066 A 
ATOM     19  C   UNL     1      -2.577   3.167   3.384  1.00  0.00     0.010 A 
ATOM     20  C   UNL     1      -0.824   1.544   5.009  1.00  0.00     0.028 A 
ATOM     21  C   UNL     1      -3.036   2.450   4.422  1.00  0.00     0.001 A 
ATOM     22  C   UNL     1      -2.139   1.663   5.257  1.00  0.00     0.002 A 
BRANCH   9  23
ATOM     23  C   UNL     1       2.424   1.963   0.207  1.00  0.00     0.015 A 
ATOM     24  C   UNL     1       2.799   4.503  -0.125  1.00  0.00     0.045 C 
ATOM     25  C   UNL     1       3.246   3.071  -0.094  1.00  0.00    -0.042 A 
ATOM     26  C   UNL     1       4.610   2.846  -0.360  1.00  0.00     0.004 A 
ATOM     27  C   UNL     1       5.133   1.558  -0.444  1.00  0.00     0.000 A 
ATOM     28  C   UNL     1       2.950   0.668  -0.005  1.00  0.00     0.010 A 
ATOM     29  C   UNL     1       4.290   0.466  -0.318  1.00  0.00     0.001 A 
ENDBRANCH   9  23
ENDBRANCH   6   8
ENDBRANCH   5   6
ENDBRANCH   4   5
ENDBRANCH   3   4
ENDBRANCH   2   3
ENDBRANCH   1   2
BRANCH   1  30
ATOM     30  C   UNL     1       0.046   7.155  -4.108  1.00  0.00     0.261 C 
BRANCH  30  31
ATOM     31  O   UNL     1      -1.016   7.278  -5.076  1.00  0.00    -0.460 OA
BRANCH  31  32
ATOM     32  C   UNL     1      -2.125   7.950  -4.681  1.00  0.00     0.338 C 
ATOM     33  O   UNL     1      -2.131   9.034  -4.089  1.00  0.00    -0.246 OA
BRANCH  32  34
ATOM     34  C   UNL     1      -3.312   7.058  -4.764  1.00  0.00     0.060 A 
ATOM     35  C   UNL     1      -4.531   7.443  -4.173  1.00  0.00     0.016 A 
ATOM     36  C   UNL     1      -3.093   5.722  -5.099  1.00  0.00     0.016 A 
ATOM     37  C   UNL     1      -5.455   6.469  -3.772  1.00  0.00     0.010 A 
ATOM     38  C   UNL     1      -3.940   4.767  -4.588  1.00  0.00     0.010 A 
ATOM     39  C   UNL     1      -5.111   5.126  -3.902  1.00  0.00    -0.014 A 
BRANCH  39  40
ATOM     40  C   UNL     1      -5.812   3.993  -3.300  1.00  0.00     0.031 A 
ATOM     41  C   UNL     1      -6.358   2.965  -4.202  1.00  0.00     0.074 A 
ATOM     42  C   UNL     1      -5.701   3.732  -1.975  1.00  0.00     0.049 A 
ATOM     43  N   UNL     1      -7.142   2.028  -3.806  1.00  0.00    -0.248 NA
ATOM     44  C   UNL     1      -6.118   2.922  -5.646  1.00  0.00     0.031 C 
ATOM     45  C   UNL     1      -5.818   2.456  -1.267  1.00  0.00     0.029 A 
ATOM     46  N   UNL     1      -5.438   4.623  -0.935  1.00  0.00    -0.354 N 
ATOM     47  C   UNL     1      -7.157   1.079  -4.794  1.00  0.00     0.074 A 
ATOM     48  C   UNL     1      -6.671   1.750  -5.970  1.00  0.00     0.031 C 
ATOM     49  C   UNL     1      -5.935   2.683   0.057  1.00  0.00     0.029 A 
ATOM     50  C   UNL     1      -6.011   4.123   0.241  1.00  0.00     0.049 A 
ATOM     51  H   UNL     1      -4.932   5.464  -1.015  1.00  0.00     0.167 HD
ATOM     52  C   UNL     1      -7.421  -0.207  -4.439  1.00  0.00     0.031 A 
ATOM     53  C   UNL     1      -6.943   4.851   0.911  1.00  0.00     0.031 A 
ATOM     54  C   UNL     1      -7.799  -0.297  -3.018  1.00  0.00     0.049 A 
ATOM     55  C   UNL     1      -8.235   4.090   0.825  1.00  0.00     0.074 A 
ATOM     56  C   UNL     1      -7.184  -0.828  -1.898  1.00  0.00     0.029 A 
ATOM     57  N   UNL     1      -8.826   0.522  -2.542  1.00  0.00    -0.354 N 
ATOM     58  N   UNL     1      -8.457   3.205  -0.110  1.00  0.00    -0.248 NA
ATOM     59  C   UNL     1      -9.300   4.136   1.817  1.00  0.00     0.031 C 
ATOM     60  C   UNL     1      -7.807  -0.256  -0.745  1.00  0.00     0.029 A 
ATOM     61  C   UNL     1      -8.824   0.591  -1.162  1.00  0.00     0.049 A 
ATOM     62  H   UNL     1      -9.471   0.992  -3.118  1.00  0.00     0.167 HD
ATOM     63  C   UNL     1      -9.541   2.458   0.220  1.00  0.00     0.074 A 
ATOM     64  C   UNL     1     -10.085   3.125   1.395  1.00  0.00     0.031 C 
ATOM     65  C   UNL     1      -9.880   1.326  -0.460  1.00  0.00     0.031 A 
BRANCH  52  66
ATOM     66  C   UNL     1      -7.148  -1.408  -5.317  1.00  0.00    -0.014 A 
ATOM     67  C   UNL     1      -7.457  -2.694  -4.841  1.00  0.00     0.009 A 
ATOM     68  C   UNL     1      -6.541  -1.361  -6.588  1.00  0.00     0.009 A 
ATOM     69  C   UNL     1      -7.192  -3.850  -5.592  1.00  0.00     0.001 A 
ATOM     70  C   UNL     1      -6.299  -2.507  -7.358  1.00  0.00     0.001 A 
ATOM     71  C   UNL     1      -6.625  -3.756  -6.857  1.00  0.00     0.000 A 
ENDBRANCH  52  66
BRANCH  53  72
ATOM     72  C   UNL     1      -6.670   6.321   0.817  1.00  0.00    -0.014 A 
ATOM     73  C   UNL     1      -5.533   6.806   1.513  1.00  0.00     0.009 A 
ATOM     74  C   UNL     1      -7.143   7.083  -0.261  1.00  0.00     0.009 A 
ATOM     75  C   UNL     1      -4.815   7.921   1.055  1.00  0.00     0.001 A 
ATOM     76  C   UNL     1      -6.418   8.201  -0.715  1.00  0.00     0.001 A 
ATOM     77  C   UNL     1      -5.235   8.591  -0.088  1.00  0.00     0.000 A 
ENDBRANCH  53  72
BRANCH  65  78
ATOM     78  C   UNL     1     -11.279   0.780  -0.520  1.00  0.00    -0.014 A 
ATOM     79  C   UNL     1     -12.408   1.492  -0.102  1.00  0.00     0.009 A 
ATOM     80  C   UNL     1     -11.507  -0.425  -1.220  1.00  0.00     0.009 A 
ATOM     81  C   UNL     1     -13.698   1.012  -0.344  1.00  0.00     0.001 A 
ATOM     82  C   UNL     1     -12.790  -0.872  -1.524  1.00  0.00     0.001 A 
ATOM     83  C   UNL     1     -13.888  -0.157  -1.072  1.00  0.00     0.000 A 
ENDBRANCH  65  78
ENDBRANCH  39  40
ENDBRANCH  32  34
ENDBRANCH  31  32
ENDBRANCH  30  31
ENDBRANCH   1  30
TORSDOF 15
