REMARK SMILES CC(C)(C)OC(=O)N1CC(Cc2ccc(C(=O)OCCOCCOC(=O)c3ccc(-c4c5nc(c(-c6ccccc6)c6ccc([nH]6)c(-c6ccccc6)c6nc(c(-c7ccccc7)c7ccc4[nH]7)C=C6)C=C5)cc3)cc2)C1
REMARK SMILES IDX 20 1 19 2 18 3 16 4 17 5 15 6 12 7 13 8 76 9 14 10 75 11
REMARK SMILES IDX 11 12 10 13 6 14 7 15 8 16 9 17 77 18 5 19 2 20 1 21 3 22
REMARK SMILES IDX 4 23 21 24 22 25 23 26 24 27 25 28 26 29 27 30 28 31 74 32
REMARK SMILES IDX 29 33 73 34 30 35 31 36 32 37 67 38 33 39 72 40 66 41 68 42
REMARK SMILES IDX 34 43 71 44 65 45 64 46 35 48 57 49 42 50 56 51 43 52 46 53
REMARK SMILES IDX 55 54 69 55 44 56 45 57 54 59 70 60 47 61 36 62 37 63 41 64
REMARK SMILES IDX 38 65 40 66 39 67 58 68 59 69 63 70 60 71 62 72 61 73 48 74
REMARK SMILES IDX 49 75 53 76 50 77 52 78 51 79
REMARK H PARENT 68 47 46 58
REMARK Flexibility Score: inf
ROOT
ATOM      1  C   UNL     1      10.344  -0.135   9.845  1.00  0.00     0.202 C 
ENDROOT
BRANCH   1   2
ATOM      2  C   UNL     1       9.976   0.275   8.418  1.00  0.00     0.261 C 
BRANCH   2   3
ATOM      3  O   UNL     1       8.550   0.220   8.246  1.00  0.00    -0.460 OA
BRANCH   3   4
ATOM      4  C   UNL     1       8.101  -0.748   7.412  1.00  0.00     0.338 C 
ATOM      5  O   UNL     1       8.780  -1.455   6.685  1.00  0.00    -0.246 OA
BRANCH   4   6
ATOM      6  C   UNL     1       6.635  -0.921   7.562  1.00  0.00     0.060 A 
ATOM      7  C   UNL     1       3.863  -1.339   7.699  1.00  0.00    -0.048 A 
ATOM      8  C   UNL     1       4.701  -2.335   7.187  1.00  0.00     0.004 A 
ATOM      9  C   UNL     1       4.429  -0.153   8.192  1.00  0.00     0.004 A 
ATOM     10  C   UNL     1       6.078  -2.127   7.119  1.00  0.00     0.016 A 
ATOM     11  C   UNL     1       5.808   0.060   8.121  1.00  0.00     0.016 A 
BRANCH   7  12
ATOM     12  C   UNL     1       2.363  -1.501   7.634  1.00  0.00     0.042 C 
BRANCH  12  13
ATOM     13  C   UNL     1       1.823  -0.595   6.537  1.00  0.00     0.033 C 
ATOM     14  C   UNL     1       0.133   0.122   3.812  1.00  0.00     0.410 C 
ATOM     15  O   UNL     1      -0.924   0.731   3.943  1.00  0.00    -0.224 OA
ATOM     16  N   UNL     1       0.726  -0.555   4.829  1.00  0.00    -0.307 N 
ATOM     17  C   UNL     1       0.322  -0.728   6.209  1.00  0.00     0.128 C 
ATOM     18  C   UNL     1       2.089  -0.986   5.057  1.00  0.00     0.128 C 
BRANCH  14  19
ATOM     19  O   UNL     1       0.848   0.021   2.665  1.00  0.00    -0.444 OA
BRANCH  19  20
ATOM     20  C   UNL     1       0.425   0.688   1.444  1.00  0.00     0.106 C 
ATOM     21  C   UNL     1       1.194  -0.021   0.319  1.00  0.00     0.056 C 
ATOM     22  C   UNL     1       0.855   2.155   1.503  1.00  0.00     0.056 C 
ATOM     23  C   UNL     1      -1.076   0.555   1.149  1.00  0.00     0.056 C 
ENDBRANCH  19  20
ENDBRANCH  14  19
ENDBRANCH  12  13
ENDBRANCH   7  12
ENDBRANCH   4   6
ENDBRANCH   3   4
ENDBRANCH   2   3
ENDBRANCH   1   2
BRANCH   1  24
ATOM     24  O   UNL     1      10.100  -1.514  10.130  1.00  0.00    -0.374 OA
BRANCH  24  25
ATOM     25  C   UNL     1       8.791  -1.829  10.614  1.00  0.00     0.202 C 
BRANCH  25  26
ATOM     26  C   UNL     1       8.646  -1.692  12.132  1.00  0.00     0.261 C 
BRANCH  26  27
ATOM     27  O   UNL     1       8.642  -0.301  12.510  1.00  0.00    -0.460 OA
BRANCH  27  28
ATOM     28  C   UNL     1       9.737   0.109  13.191  1.00  0.00     0.338 C 
ATOM     29  O   UNL     1      10.635  -0.587  13.636  1.00  0.00    -0.246 OA
BRANCH  28  30
ATOM     30  C   UNL     1       9.801   1.585  13.200  1.00  0.00     0.060 A 
ATOM     31  C   UNL     1      11.051   2.169  12.963  1.00  0.00     0.016 A 
ATOM     32  C   UNL     1       8.690   2.385  13.487  1.00  0.00     0.016 A 
ATOM     33  C   UNL     1      11.211   3.547  13.079  1.00  0.00     0.010 A 
ATOM     34  C   UNL     1       8.854   3.771  13.609  1.00  0.00     0.010 A 
ATOM     35  C   UNL     1      10.124   4.350  13.448  1.00  0.00    -0.014 A 
BRANCH  35  36
ATOM     36  C   UNL     1      10.378   5.758  13.837  1.00  0.00     0.031 A 
ATOM     37  C   UNL     1      10.603   6.078  15.290  1.00  0.00     0.074 A 
ATOM     38  C   UNL     1      10.480   6.727  12.912  1.00  0.00     0.049 A 
ATOM     39  N   UNL     1      10.933   7.215  15.847  1.00  0.00    -0.248 NA
ATOM     40  C   UNL     1      10.439   4.965  16.241  1.00  0.00     0.031 C 
ATOM     41  C   UNL     1      10.317   6.546  11.471  1.00  0.00     0.029 A 
ATOM     42  N   UNL     1      10.762   8.062  13.056  1.00  0.00    -0.354 N 
ATOM     43  C   UNL     1      11.022   6.955  17.208  1.00  0.00     0.074 A 
ATOM     44  C   UNL     1      10.680   5.561  17.398  1.00  0.00     0.031 C 
ATOM     45  C   UNL     1      10.511   7.729  10.860  1.00  0.00     0.029 A 
ATOM     46  C   UNL     1      10.800   8.747  11.868  1.00  0.00     0.049 A 
ATOM     47  H   UNL     1      10.923   8.488  13.930  1.00  0.00     0.167 HD
ATOM     48  C   UNL     1      11.368   7.793  18.213  1.00  0.00     0.031 A 
ATOM     49  C   UNL     1      11.044  10.049  11.622  1.00  0.00     0.031 A 
ATOM     50  C   UNL     1      11.696   9.181  18.039  1.00  0.00     0.049 A 
ATOM     51  C   UNL     1      11.369  10.975  12.762  1.00  0.00     0.074 A 
ATOM     52  C   UNL     1      12.074  10.106  18.997  1.00  0.00     0.029 A 
ATOM     53  N   UNL     1      11.676   9.846  16.824  1.00  0.00    -0.354 N 
ATOM     54  N   UNL     1      11.491  10.705  14.039  1.00  0.00    -0.248 NA
ATOM     55  C   UNL     1      11.602  12.386  12.420  1.00  0.00     0.031 C 
ATOM     56  C   UNL     1      12.244  11.344  18.364  1.00  0.00     0.029 A 
ATOM     57  C   UNL     1      12.012  11.176  17.009  1.00  0.00     0.049 A 
ATOM     58  H   UNL     1      11.455   9.434  15.957  1.00  0.00     0.167 HD
ATOM     59  C   UNL     1      11.843  11.903  14.648  1.00  0.00     0.074 A 
ATOM     60  C   UNL     1      11.921  12.900  13.600  1.00  0.00     0.031 C 
ATOM     61  C   UNL     1      12.085  12.155  15.957  1.00  0.00     0.031 A 
BRANCH  48  62
ATOM     62  C   UNL     1      11.380   7.224  19.602  1.00  0.00    -0.014 A 
ATOM     63  C   UNL     1      12.412   6.374  20.027  1.00  0.00     0.009 A 
ATOM     64  C   UNL     1      10.351   7.550  20.497  1.00  0.00     0.009 A 
ATOM     65  C   UNL     1      12.397   5.836  21.315  1.00  0.00     0.001 A 
ATOM     66  C   UNL     1      10.349   7.027  21.791  1.00  0.00     0.001 A 
ATOM     67  C   UNL     1      11.366   6.164  22.196  1.00  0.00     0.000 A 
ENDBRANCH  48  62
BRANCH  49  68
ATOM     68  C   UNL     1      11.003  10.561  10.230  1.00  0.00    -0.014 A 
ATOM     69  C   UNL     1      12.187  10.902   9.560  1.00  0.00     0.009 A 
ATOM     70  C   UNL     1       9.775  10.731   9.573  1.00  0.00     0.009 A 
ATOM     71  C   UNL     1      12.140  11.424   8.265  1.00  0.00     0.001 A 
ATOM     72  C   UNL     1       9.733  11.234   8.271  1.00  0.00     0.001 A 
ATOM     73  C   UNL     1      10.914  11.586   7.622  1.00  0.00     0.000 A 
ENDBRANCH  49  68
BRANCH  61  74
ATOM     74  C   UNL     1      12.489  13.553  16.324  1.00  0.00    -0.014 A 
ATOM     75  C   UNL     1      11.548  14.593  16.366  1.00  0.00     0.009 A 
ATOM     76  C   UNL     1      13.822  13.824  16.666  1.00  0.00     0.009 A 
ATOM     77  C   UNL     1      11.943  15.886  16.715  1.00  0.00     0.001 A 
ATOM     78  C   UNL     1      14.210  15.113  17.036  1.00  0.00     0.001 A 
ATOM     79  C   UNL     1      13.272  16.144  17.052  1.00  0.00     0.000 A 
ENDBRANCH  61  74
ENDBRANCH  35  36
ENDBRANCH  28  30
ENDBRANCH  27  28
ENDBRANCH  26  27
ENDBRANCH  25  26
ENDBRANCH  24  25
ENDBRANCH   1  24
TORSDOF 18
