REMARK SMILES N#C/C(=C/c1ccc(-c2cccc(C(=O)OCCOCCOC(=O)c3ccc(-c4c5nc(c(-c6ccccc6)c6ccc([nH]6)c(-c6ccccc6)c6nc(c(-c7ccccc7)c7ccc4[nH]7)C=C6)C=C5)cc3)c2)o1)c1ccc(F)cc1
REMARK SMILES IDX 18 1 17 2 16 3 14 4 15 5 13 6 9 7 10 8 73 9 11 10 12 11 8 12
REMARK SMILES IDX 5 13 6 14 74 15 7 16 4 17 3 18 2 19 1 20 75 21 76 22 81 23
REMARK SMILES IDX 77 24 80 25 78 26 79 27 19 28 20 29 21 30 22 31 23 32 24 33
REMARK SMILES IDX 25 34 26 35 72 36 27 37 71 38 28 39 29 40 30 41 65 42 31 43
REMARK SMILES IDX 70 44 64 45 66 46 32 47 69 48 63 49 62 50 33 52 55 53 40 54
REMARK SMILES IDX 54 55 41 56 44 57 53 58 67 59 42 60 43 61 52 63 68 64 45 65
REMARK SMILES IDX 34 66 35 67 39 68 36 69 38 70 37 71 56 72 57 73 61 74 58 75
REMARK SMILES IDX 60 76 59 77 46 78 47 79 51 80 48 81 50 82 49 83
REMARK H PARENT 66 51 44 62
REMARK Flexibility Score: inf
ROOT
ATOM      1  C   UNL     1      13.253   2.830   5.735  1.00  0.00     0.202 C 
ENDROOT
BRANCH   1   2
ATOM      2  C   UNL     1      13.518   2.467   4.270  1.00  0.00     0.261 C 
BRANCH   2   3
ATOM      3  O   UNL     1      12.430   1.715   3.708  1.00  0.00    -0.460 OA
BRANCH   3   4
ATOM      4  C   UNL     1      12.703   0.417   3.423  1.00  0.00     0.338 C 
ATOM      5  O   UNL     1      13.796  -0.127   3.461  1.00  0.00    -0.246 OA
BRANCH   4   6
ATOM      6  C   UNL     1      11.435  -0.323   3.224  1.00  0.00     0.060 A 
ATOM      7  C   UNL     1       9.122  -0.453   2.467  1.00  0.00     0.018 A 
ATOM      8  C   UNL     1       9.057  -1.765   2.955  1.00  0.00     0.012 A 
ATOM      9  C   UNL     1      10.318   0.269   2.625  1.00  0.00     0.027 A 
ATOM     10  C   UNL     1      10.172  -2.356   3.561  1.00  0.00     0.002 A 
ATOM     11  C   UNL     1      11.362  -1.641   3.685  1.00  0.00     0.016 A 
BRANCH   7  12
ATOM     12  C   UNL     1       8.017   0.153   1.732  1.00  0.00     0.134 A 
ATOM     13  C   UNL     1       5.869   0.460   1.218  1.00  0.00     0.128 A 
ATOM     14  C   UNL     1       6.636   1.276   0.392  1.00  0.00     0.051 A 
ATOM     15  O   UNL     1       6.739  -0.206   2.063  1.00  0.00    -0.457 OA
ATOM     16  C   UNL     1       7.993   1.060   0.698  1.00  0.00     0.051 A 
BRANCH  13  17
ATOM     17  C   UNL     1       4.449   0.282   1.216  1.00  0.00     0.067 C 
ATOM     18  C   UNL     1       3.762  -0.030   0.094  1.00  0.00     0.063 C 
BRANCH  18  19
ATOM     19  C   UNL     1       2.242  -0.030   0.094  1.00  0.00     0.100 C 
ATOM     20  N   UNL     1       0.981  -0.030   0.094  1.00  0.00    -0.192 NA
ENDBRANCH  18  19
BRANCH  18  21
ATOM     21  C   UNL     1       4.418  -0.355  -1.204  1.00  0.00    -0.007 A 
ATOM     22  C   UNL     1       5.408  -1.355  -1.279  1.00  0.00     0.012 A 
ATOM     23  C   UNL     1       4.090   0.356  -2.370  1.00  0.00     0.012 A 
ATOM     24  C   UNL     1       6.103  -1.585  -2.468  1.00  0.00     0.040 A 
ATOM     25  C   UNL     1       4.775   0.110  -3.565  1.00  0.00     0.040 A 
ATOM     26  C   UNL     1       5.785  -0.845  -3.598  1.00  0.00     0.123 A 
ATOM     27  F   UNL     1       6.464  -1.049  -4.733  1.00  0.00    -0.207 F 
ENDBRANCH  18  21
ENDBRANCH  13  17
ENDBRANCH   7  12
ENDBRANCH   4   6
ENDBRANCH   3   4
ENDBRANCH   2   3
ENDBRANCH   1   2
BRANCH   1  28
ATOM     28  O   UNL     1      13.141   1.751   6.662  1.00  0.00    -0.374 OA
BRANCH  28  29
ATOM     29  C   UNL     1      11.910   1.030   6.690  1.00  0.00     0.202 C 
BRANCH  29  30
ATOM     30  C   UNL     1      10.722   1.690   7.401  1.00  0.00     0.261 C 
BRANCH  30  31
ATOM     31  O   UNL     1      10.313   2.919   6.778  1.00  0.00    -0.460 OA
BRANCH  31  32
ATOM     32  C   UNL     1      10.602   4.038   7.485  1.00  0.00     0.338 C 
ATOM     33  O   UNL     1      11.105   4.109   8.596  1.00  0.00    -0.246 OA
BRANCH  32  34
ATOM     34  C   UNL     1      10.384   5.224   6.639  1.00  0.00     0.060 A 
ATOM     35  C   UNL     1      11.470   6.083   6.426  1.00  0.00     0.016 A 
ATOM     36  C   UNL     1       9.128   5.519   6.109  1.00  0.00     0.016 A 
ATOM     37  C   UNL     1      11.298   7.256   5.694  1.00  0.00     0.010 A 
ATOM     38  C   UNL     1       8.954   6.702   5.385  1.00  0.00     0.010 A 
ATOM     39  C   UNL     1      10.033   7.585   5.191  1.00  0.00    -0.014 A 
BRANCH  39  40
ATOM     40  C   UNL     1       9.810   8.892   4.530  1.00  0.00     0.031 A 
ATOM     41  C   UNL     1       9.141  10.002   5.288  1.00  0.00     0.074 A 
ATOM     42  C   UNL     1      10.200   9.084   3.258  1.00  0.00     0.049 A 
ATOM     43  N   UNL     1       8.791  11.193   4.876  1.00  0.00    -0.248 NA
ATOM     44  C   UNL     1       8.822   9.730   6.698  1.00  0.00     0.031 C 
ATOM     45  C   UNL     1      10.904   8.104   2.433  1.00  0.00     0.029 A 
ATOM     46  N   UNL     1      10.046  10.171   2.436  1.00  0.00    -0.354 N 
ATOM     47  C   UNL     1       8.201  11.811   5.971  1.00  0.00     0.074 A 
ATOM     48  C   UNL     1       8.214  10.852   7.056  1.00  0.00     0.031 C 
ATOM     49  C   UNL     1      11.119   8.634   1.217  1.00  0.00     0.029 A 
ATOM     50  C   UNL     1      10.528   9.969   1.166  1.00  0.00     0.049 A 
ATOM     51  H   UNL     1       9.632  11.015   2.728  1.00  0.00     0.167 HD
ATOM     52  C   UNL     1       7.694  13.065   6.065  1.00  0.00     0.031 A 
ATOM     53  C   UNL     1      10.472  10.760   0.077  1.00  0.00     0.031 A 
ATOM     54  C   UNL     1       7.658  14.007   4.977  1.00  0.00     0.049 A 
ATOM     55  C   UNL     1       9.803  12.104   0.174  1.00  0.00     0.074 A 
ATOM     56  C   UNL     1       7.188  15.308   4.977  1.00  0.00     0.029 A 
ATOM     57  N   UNL     1       8.095  13.740   3.688  1.00  0.00    -0.354 N 
ATOM     58  N   UNL     1       9.275  12.691   1.221  1.00  0.00    -0.248 NA
ATOM     59  C   UNL     1       9.718  12.891  -1.065  1.00  0.00     0.031 C 
ATOM     60  C   UNL     1       7.273  15.803   3.671  1.00  0.00     0.029 A 
ATOM     61  C   UNL     1       7.860  14.835   2.872  1.00  0.00     0.049 A 
ATOM     62  H   UNL     1       8.511  12.897   3.396  1.00  0.00     0.167 HD
ATOM     63  C   UNL     1       8.811  13.921   0.773  1.00  0.00     0.074 A 
ATOM     64  C   UNL     1       9.138  14.004  -0.636  1.00  0.00     0.031 C 
ATOM     65  C   UNL     1       8.171  14.896   1.466  1.00  0.00     0.031 A 
BRANCH  52  66
ATOM     66  C   UNL     1       7.090  13.465   7.383  1.00  0.00    -0.014 A 
ATOM     67  C   UNL     1       7.883  13.662   8.526  1.00  0.00     0.009 A 
ATOM     68  C   UNL     1       5.703  13.660   7.480  1.00  0.00     0.009 A 
ATOM     69  C   UNL     1       7.293  13.999   9.747  1.00  0.00     0.001 A 
ATOM     70  C   UNL     1       5.120  14.028   8.694  1.00  0.00     0.001 A 
ATOM     71  C   UNL     1       5.914  14.185   9.829  1.00  0.00     0.000 A 
ENDBRANCH  52  66
BRANCH  53  72
ATOM     72  C   UNL     1      11.046  10.287  -1.209  1.00  0.00    -0.014 A 
ATOM     73  C   UNL     1      12.200  10.883  -1.736  1.00  0.00     0.009 A 
ATOM     74  C   UNL     1      10.444   9.231  -1.913  1.00  0.00     0.009 A 
ATOM     75  C   UNL     1      12.734  10.440  -2.949  1.00  0.00     0.001 A 
ATOM     76  C   UNL     1      10.996   8.771  -3.111  1.00  0.00     0.001 A 
ATOM     77  C   UNL     1      12.137   9.381  -3.631  1.00  0.00     0.000 A 
ENDBRANCH  53  72
BRANCH  65  78
ATOM     78  C   UNL     1       7.788  16.140   0.712  1.00  0.00    -0.014 A 
ATOM     79  C   UNL     1       6.745  16.128  -0.226  1.00  0.00     0.009 A 
ATOM     80  C   UNL     1       8.450  17.350   0.977  1.00  0.00     0.009 A 
ATOM     81  C   UNL     1       6.391  17.296  -0.905  1.00  0.00     0.001 A 
ATOM     82  C   UNL     1       8.073  18.522   0.319  1.00  0.00     0.001 A 
ATOM     83  C   UNL     1       7.051  18.493  -0.627  1.00  0.00     0.000 A 
ENDBRANCH  65  78
ENDBRANCH  39  40
ENDBRANCH  32  34
ENDBRANCH  31  32
ENDBRANCH  30  31
ENDBRANCH  29  30
ENDBRANCH  28  29
ENDBRANCH   1  28
TORSDOF 18
