REMARK SMILES CC1=C(C(=O)OCCOCCOC(=O)c2ccc(-c3c4nc(c(-c5ccccc5)c5ccc([nH]5)c(-c5ccccc5)c5nc(c(-c6ccccc6)c6ccc3[nH]6)C=C5)C=C4)cc2)N2C(=O)[C@H](NC(=O)c3c(Cl)c(C(F)(F)F)nn3C)[C@@H]2SC1
REMARK SMILES IDX 8 1 7 2 6 3 4 4 5 5 3 6 1 7 2 8 83 9 63 10 82 11 64 12 81 13
REMARK SMILES IDX 65 14 66 15 67 16 68 17 69 19 70 20 71 21 79 22 72 23 73 24
REMARK SMILES IDX 78 25 80 26 74 27 75 28 76 29 77 30 9 31 10 32 11 33 12 34
REMARK SMILES IDX 13 35 14 36 15 37 16 38 62 39 17 40 61 41 18 42 19 43 20 44
REMARK SMILES IDX 55 45 21 46 60 47 54 48 56 49 22 50 59 51 53 52 52 53 23 55
REMARK SMILES IDX 45 56 30 57 44 58 31 59 34 60 43 61 57 62 32 63 33 64 42 66
REMARK SMILES IDX 58 67 35 68 24 69 25 70 29 71 26 72 28 73 27 74 46 75 47 76
REMARK SMILES IDX 51 77 48 78 50 79 49 80 36 81 37 82 41 83 38 84 40 85 39 86
REMARK H PARENT 67 18 56 54 34 65
REMARK Flexibility Score: inf
ROOT
ATOM      1  C   UNL     1       1.343  -4.788   0.134  1.00  0.00     0.202 C 
ENDROOT
BRANCH   1   2
ATOM      2  C   UNL     1       0.078  -3.988  -0.182  1.00  0.00     0.261 C 
BRANCH   2   3
ATOM      3  O   UNL     1       0.248  -2.639   0.275  1.00  0.00    -0.459 OA
BRANCH   3   4
ATOM      4  C   UNL     1      -0.872  -2.056   0.768  1.00  0.00     0.355 C 
ATOM      5  O   UNL     1      -2.020  -2.439   0.622  1.00  0.00    -0.244 OA
BRANCH   4   6
ATOM      6  C   UNL     1      -0.476  -0.892   1.620  1.00  0.00     0.131 C 
ATOM      7  C   UNL     1       0.610   0.303  -0.323  1.00  0.00     0.043 C 
ATOM      8  C   UNL     1       0.137   0.202   1.108  1.00  0.00    -0.032 C 
ATOM      9  C   UNL     1       0.398   1.470   1.906  1.00  0.00     0.105 C 
ATOM     10  N   UNL     1      -0.791  -0.960   2.942  1.00  0.00    -0.289 N 
ATOM     11  S   UNL     1      -0.642   1.631   3.396  1.00  0.00    -0.129 SA
ATOM     12  C   UNL     1      -1.390  -1.817   3.790  1.00  0.00     0.253 C 
ATOM     13  C   UNL     1      -0.292  -0.051   3.946  1.00  0.00     0.181 C 
ATOM     14  O   UNL     1      -1.832  -2.935   3.664  1.00  0.00    -0.272 OA
ATOM     15  C   UNL     1      -1.276  -0.744   4.942  1.00  0.00     0.206 C 
BRANCH  15  16
ATOM     16  N   UNL     1      -2.545  -0.040   5.258  1.00  0.00    -0.336 N 
ATOM     17  C   UNL     1      -3.090   0.281   6.476  1.00  0.00     0.271 C 
ATOM     18  H   UNL     1      -3.075   0.238   4.476  1.00  0.00     0.164 HD
ATOM     19  O   UNL     1      -4.223   0.754   6.498  1.00  0.00    -0.267 OA
BRANCH  17  20
ATOM     20  C   UNL     1      -2.321   0.054   7.667  1.00  0.00     0.145 A 
ATOM     21  C   UNL     1      -2.680  -0.650   8.801  1.00  0.00     0.104 A 
ATOM     22  N   UNL     1      -1.117   0.624   7.983  1.00  0.00    -0.261 N 
ATOM     23  Cl  UNL     1      -4.123  -1.502   9.083  1.00  0.00    -0.079 Cl
ATOM     24  C   UNL     1      -1.592  -0.538   9.701  1.00  0.00     0.185 A 
ATOM     25  N   UNL     1      -0.607   0.208   9.157  1.00  0.00    -0.166 NA
ATOM     26  C   UNL     1      -0.381   1.624   7.242  1.00  0.00     0.174 C 
BRANCH  24  27
ATOM     27  C   UNL     1      -1.507  -1.135  11.076  1.00  0.00     0.436 C 
ATOM     28  F   UNL     1      -2.425  -0.592  11.921  1.00  0.00    -0.164 F 
ATOM     29  F   UNL     1      -1.733  -2.477  11.065  1.00  0.00    -0.164 F 
ATOM     30  F   UNL     1      -0.292  -0.959  11.664  1.00  0.00    -0.164 F 
ENDBRANCH  24  27
ENDBRANCH  17  20
ENDBRANCH  15  16
ENDBRANCH   4   6
ENDBRANCH   3   4
ENDBRANCH   2   3
ENDBRANCH   1   2
BRANCH   1  31
ATOM     31  O   UNL     1       1.608  -5.005   1.521  1.00  0.00    -0.374 OA
BRANCH  31  32
ATOM     32  C   UNL     1       2.029  -3.888   2.302  1.00  0.00     0.202 C 
BRANCH  32  33
ATOM     33  C   UNL     1       3.503  -3.485   2.171  1.00  0.00     0.261 C 
BRANCH  33  34
ATOM     34  O   UNL     1       3.854  -3.060   0.842  1.00  0.00    -0.460 OA
BRANCH  34  35
ATOM     35  C   UNL     1       4.648  -3.929   0.166  1.00  0.00     0.338 C 
ATOM     36  O   UNL     1       5.117  -4.977   0.573  1.00  0.00    -0.246 OA
BRANCH  35  37
ATOM     37  C   UNL     1       4.776  -3.507  -1.241  1.00  0.00     0.060 A 
ATOM     38  C   UNL     1       4.414  -4.427  -2.233  1.00  0.00     0.016 A 
ATOM     39  C   UNL     1       5.335  -2.275  -1.583  1.00  0.00     0.016 A 
ATOM     40  C   UNL     1       4.643  -4.132  -3.576  1.00  0.00     0.010 A 
ATOM     41  C   UNL     1       5.573  -1.985  -2.930  1.00  0.00     0.010 A 
ATOM     42  C   UNL     1       5.256  -2.923  -3.930  1.00  0.00    -0.014 A 
BRANCH  42  43
ATOM     43  C   UNL     1       5.685  -2.693  -5.330  1.00  0.00     0.031 A 
ATOM     44  C   UNL     1       7.126  -2.911  -5.701  1.00  0.00     0.074 A 
ATOM     45  C   UNL     1       4.802  -2.300  -6.264  1.00  0.00     0.049 A 
ATOM     46  N   UNL     1       7.727  -2.709  -6.846  1.00  0.00    -0.248 NA
ATOM     47  C   UNL     1       8.007  -3.423  -4.639  1.00  0.00     0.031 C 
ATOM     48  C   UNL     1       3.370  -2.103  -6.046  1.00  0.00     0.029 A 
ATOM     49  N   UNL     1       4.988  -1.991  -7.588  1.00  0.00    -0.354 N 
ATOM     50  C   UNL     1       9.055  -3.060  -6.641  1.00  0.00     0.074 A 
ATOM     51  C   UNL     1       9.179  -3.463  -5.256  1.00  0.00     0.031 C 
ATOM     52  C   UNL     1       2.807  -1.694  -7.196  1.00  0.00     0.029 A 
ATOM     53  C   UNL     1       3.844  -1.568  -8.219  1.00  0.00     0.049 A 
ATOM     54  H   UNL     1       5.858  -2.064  -8.042  1.00  0.00     0.167 HD
ATOM     55  C   UNL     1      10.081  -3.051  -7.526  1.00  0.00     0.031 A 
ATOM     56  C   UNL     1       3.659  -1.108  -9.471  1.00  0.00     0.031 A 
ATOM     57  C   UNL     1       9.963  -2.640  -8.899  1.00  0.00     0.049 A 
ATOM     58  C   UNL     1       4.831  -1.024 -10.411  1.00  0.00     0.074 A 
ATOM     59  C   UNL     1      10.943  -2.610  -9.877  1.00  0.00     0.029 A 
ATOM     60  N   UNL     1       8.796  -2.180  -9.487  1.00  0.00    -0.354 N 
ATOM     61  N   UNL     1       6.079  -1.375 -10.210  1.00  0.00    -0.248 NA
ATOM     62  C   UNL     1       4.567  -0.483 -11.753  1.00  0.00     0.031 C 
ATOM     63  C   UNL     1      10.379  -2.081 -11.042  1.00  0.00     0.029 A 
ATOM     64  C   UNL     1       9.036  -1.835 -10.806  1.00  0.00     0.049 A 
ATOM     65  H   UNL     1       7.925  -2.109  -9.034  1.00  0.00     0.167 HD
ATOM     66  C   UNL     1       6.740  -1.125 -11.407  1.00  0.00     0.074 A 
ATOM     67  C   UNL     1       5.755  -0.602 -12.330  1.00  0.00     0.031 C 
ATOM     68  C   UNL     1       8.046  -1.317 -11.713  1.00  0.00     0.031 A 
BRANCH  55  69
ATOM     69  C   UNL     1      11.433  -3.467  -7.020  1.00  0.00    -0.014 A 
ATOM     70  C   UNL     1      11.721  -4.809  -6.724  1.00  0.00     0.009 A 
ATOM     71  C   UNL     1      12.444  -2.505  -6.868  1.00  0.00     0.009 A 
ATOM     72  C   UNL     1      12.986  -5.173  -6.256  1.00  0.00     0.001 A 
ATOM     73  C   UNL     1      13.714  -2.876  -6.425  1.00  0.00     0.001 A 
ATOM     74  C   UNL     1      13.982  -4.207  -6.111  1.00  0.00     0.000 A 
ENDBRANCH  55  69
BRANCH  56  75
ATOM     75  C   UNL     1       2.310  -0.663  -9.908  1.00  0.00    -0.014 A 
ATOM     76  C   UNL     1       1.584  -1.403 -10.854  1.00  0.00     0.009 A 
ATOM     77  C   UNL     1       1.748   0.515  -9.390  1.00  0.00     0.009 A 
ATOM     78  C   UNL     1       0.333  -0.959 -11.289  1.00  0.00     0.001 A 
ATOM     79  C   UNL     1       0.486   0.941  -9.807  1.00  0.00     0.001 A 
ATOM     80  C   UNL     1      -0.217   0.209 -10.762  1.00  0.00     0.000 A 
ENDBRANCH  56  75
BRANCH  68  81
ATOM     81  C   UNL     1       8.482  -0.996 -13.115  1.00  0.00    -0.014 A 
ATOM     82  C   UNL     1       8.621   0.330 -13.551  1.00  0.00     0.009 A 
ATOM     83  C   UNL     1       8.812  -2.040 -13.995  1.00  0.00     0.009 A 
ATOM     84  C   UNL     1       9.056   0.604 -14.850  1.00  0.00     0.001 A 
ATOM     85  C   UNL     1       9.271  -1.763 -15.283  1.00  0.00     0.001 A 
ATOM     86  C   UNL     1       9.386  -0.442 -15.712  1.00  0.00     0.000 A 
ENDBRANCH  68  81
ENDBRANCH  42  43
ENDBRANCH  35  37
ENDBRANCH  34  35
ENDBRANCH  33  34
ENDBRANCH  32  33
ENDBRANCH  31  32
ENDBRANCH   1  31
TORSDOF 17
