REMARK SMILES O=C(OCCOCCOC(=O)[C@H]1c2[nH]cnc2CC[N@H+]1Cc1ccoc1)c1ccc(-c2c3nc(c(-c4ccccc4)c4ccc([nH]4)c(-c4ccccc4)c4nc(c(-c5ccccc5)c5ccc2[nH]5)C=C4)C=C3)cc1
REMARK SMILES IDX 6 1 5 2 4 3 3 4 2 5 1 6 27 7 28 8 74 9 29 10 73 11 30 12
REMARK SMILES IDX 31 13 32 14 67 15 33 16 72 17 66 18 68 19 34 20 71 21 65 22
REMARK SMILES IDX 64 23 35 25 57 26 42 27 56 28 43 29 46 30 55 31 69 32 44 33
REMARK SMILES IDX 45 34 54 36 70 37 47 38 36 39 37 40 41 41 38 42 40 43 39 44
REMARK SMILES IDX 58 45 59 46 63 47 60 48 62 49 61 50 48 51 49 52 53 53 50 54
REMARK SMILES IDX 52 55 51 56 7 57 8 58 9 59 10 60 11 61 12 62 13 63 20 64
REMARK SMILES IDX 14 65 17 66 19 67 15 69 16 71 18 72 21 73 22 74 23 75 26 76
REMARK SMILES IDX 24 77 25 78
REMARK H PARENT 68 24 46 35 20 68 14 70
REMARK Flexibility Score: inf
ROOT
ATOM      1  O   UNL     1       4.761  -1.254  -0.241  1.00  0.00    -0.374 OA
ENDROOT
BRANCH   1   2
ATOM      2  C   UNL     1       5.221   0.013   0.222  1.00  0.00     0.202 C 
BRANCH   2   3
ATOM      3  C   UNL     1       4.413   1.283  -0.092  1.00  0.00     0.261 C 
BRANCH   3   4
ATOM      4  O   UNL     1       3.049   1.186   0.328  1.00  0.00    -0.460 OA
BRANCH   4   5
ATOM      5  C   UNL     1       1.959   0.869  -0.409  1.00  0.00     0.338 C 
ATOM      6  O   UNL     1       0.862   0.844   0.131  1.00  0.00    -0.246 OA
BRANCH   5   7
ATOM      7  C   UNL     1       2.038   0.513  -1.859  1.00  0.00     0.060 A 
ATOM      8  C   UNL     1       3.206   0.258  -2.582  1.00  0.00     0.016 A 
ATOM      9  C   UNL     1       0.808   0.417  -2.528  1.00  0.00     0.016 A 
ATOM     10  C   UNL     1       3.186   0.221  -3.955  1.00  0.00     0.010 A 
ATOM     11  C   UNL     1       0.766   0.278  -3.902  1.00  0.00     0.010 A 
ATOM     12  C   UNL     1       1.963   0.295  -4.605  1.00  0.00    -0.014 A 
BRANCH  12  13
ATOM     13  C   UNL     1       2.004   0.309  -6.050  1.00  0.00     0.031 A 
ATOM     14  C   UNL     1       2.634  -0.897  -6.646  1.00  0.00     0.074 A 
ATOM     15  C   UNL     1       1.480   1.338  -6.739  1.00  0.00     0.049 A 
ATOM     16  N   UNL     1       3.690  -0.959  -7.388  1.00  0.00    -0.248 NA
ATOM     17  C   UNL     1       2.113  -2.210  -6.226  1.00  0.00     0.031 C 
ATOM     18  C   UNL     1       0.653   2.440  -6.238  1.00  0.00     0.029 A 
ATOM     19  N   UNL     1       1.478   1.542  -8.078  1.00  0.00    -0.354 N 
ATOM     20  C   UNL     1       3.865  -2.309  -7.680  1.00  0.00     0.074 A 
ATOM     21  C   UNL     1       2.970  -3.038  -6.820  1.00  0.00     0.031 C 
ATOM     22  C   UNL     1       0.010   3.016  -7.278  1.00  0.00     0.029 A 
ATOM     23  C   UNL     1       0.495   2.419  -8.511  1.00  0.00     0.049 A 
ATOM     24  H   UNL     1       2.116   1.108  -8.688  1.00  0.00     0.167 HD
ATOM     25  C   UNL     1       4.551  -2.718  -8.781  1.00  0.00     0.031 A 
ATOM     26  C   UNL     1       0.056   2.559  -9.785  1.00  0.00     0.031 A 
ATOM     27  C   UNL     1       5.433  -1.696  -9.276  1.00  0.00     0.049 A 
ATOM     28  C   UNL     1       1.087   1.972 -10.677  1.00  0.00     0.074 A 
ATOM     29  C   UNL     1       6.531  -1.040  -8.757  1.00  0.00     0.029 A 
ATOM     30  N   UNL     1       4.987  -0.922 -10.320  1.00  0.00    -0.354 N 
ATOM     31  N   UNL     1       2.275   2.486 -10.825  1.00  0.00    -0.248 NA
ATOM     32  C   UNL     1       0.973   0.560 -11.014  1.00  0.00     0.031 C 
ATOM     33  C   UNL     1       6.383   0.312  -9.184  1.00  0.00     0.029 A 
ATOM     34  C   UNL     1       5.255   0.387 -10.003  1.00  0.00     0.049 A 
ATOM     35  H   UNL     1       4.554  -1.245 -11.143  1.00  0.00     0.167 HD
ATOM     36  C   UNL     1       3.134   1.396 -10.842  1.00  0.00     0.074 A 
ATOM     37  C   UNL     1       2.269   0.234 -11.047  1.00  0.00     0.031 C 
ATOM     38  C   UNL     1       4.422   1.502 -10.397  1.00  0.00     0.031 A 
BRANCH  25  39
ATOM     39  C   UNL     1       4.088  -3.878  -9.623  1.00  0.00    -0.014 A 
ATOM     40  C   UNL     1       4.865  -4.287 -10.719  1.00  0.00     0.009 A 
ATOM     41  C   UNL     1       2.779  -4.398  -9.545  1.00  0.00     0.009 A 
ATOM     42  C   UNL     1       4.335  -5.125 -11.709  1.00  0.00     0.001 A 
ATOM     43  C   UNL     1       2.261  -5.263 -10.509  1.00  0.00     0.001 A 
ATOM     44  C   UNL     1       3.033  -5.606 -11.607  1.00  0.00     0.000 A 
ENDBRANCH  25  39
BRANCH  26  45
ATOM     45  C   UNL     1      -1.328   2.828 -10.232  1.00  0.00    -0.014 A 
ATOM     46  C   UNL     1      -1.593   3.249 -11.543  1.00  0.00     0.009 A 
ATOM     47  C   UNL     1      -2.421   2.417  -9.444  1.00  0.00     0.009 A 
ATOM     48  C   UNL     1      -2.899   3.230 -12.055  1.00  0.00     0.001 A 
ATOM     49  C   UNL     1      -3.723   2.400  -9.952  1.00  0.00     0.001 A 
ATOM     50  C   UNL     1      -3.960   2.794 -11.264  1.00  0.00     0.000 A 
ENDBRANCH  26  45
BRANCH  38  51
ATOM     51  C   UNL     1       4.936   2.881 -10.051  1.00  0.00    -0.014 A 
ATOM     52  C   UNL     1       4.376   3.679  -9.034  1.00  0.00     0.009 A 
ATOM     53  C   UNL     1       6.116   3.324 -10.664  1.00  0.00     0.009 A 
ATOM     54  C   UNL     1       4.964   4.896  -8.669  1.00  0.00     0.001 A 
ATOM     55  C   UNL     1       6.714   4.528 -10.285  1.00  0.00     0.001 A 
ATOM     56  C   UNL     1       6.136   5.317  -9.293  1.00  0.00     0.000 A 
ENDBRANCH  38  51
ENDBRANCH  12  13
ENDBRANCH   5   7
ENDBRANCH   4   5
ENDBRANCH   3   4
ENDBRANCH   2   3
ENDBRANCH   1   2
BRANCH   1  57
ATOM     57  C   UNL     1       3.556  -1.813   0.274  1.00  0.00     0.202 C 
BRANCH  57  58
ATOM     58  C   UNL     1       3.392  -2.042   1.772  1.00  0.00     0.261 C 
BRANCH  58  59
ATOM     59  O   UNL     1       3.637  -0.898   2.596  1.00  0.00    -0.459 OA
BRANCH  59  60
ATOM     60  C   UNL     1       4.753  -0.977   3.377  1.00  0.00     0.371 C 
ATOM     61  O   UNL     1       5.629  -1.831   3.250  1.00  0.00    -0.245 OA
BRANCH  60  62
ATOM     62  C   UNL     1       4.840   0.122   4.440  1.00  0.00     0.345 C 
ATOM     63  C   UNL     1       4.936   1.477   3.820  1.00  0.00     0.108 A 
ATOM     64  N   UNL     1       3.734   0.096   5.433  1.00  0.00    -0.314 N 
ATOM     65  N   UNL     1       5.956   2.016   3.086  1.00  0.00    -0.343 N 
ATOM     66  C   UNL     1       4.005   2.481   3.927  1.00  0.00     0.074 A 
ATOM     67  C   UNL     1       2.519   0.845   5.054  1.00  0.00     0.270 C 
ATOM     68  H   UNL     1       4.098   0.675   6.189  1.00  0.00     0.349 HD
ATOM     69  C   UNL     1       5.574   3.291   2.748  1.00  0.00     0.197 A 
ATOM     70  H   UNL     1       6.803   1.575   2.846  1.00  0.00     0.167 HD
ATOM     71  N   UNL     1       4.399   3.600   3.250  1.00  0.00    -0.241 NA
ATOM     72  C   UNL     1       2.780   2.344   4.744  1.00  0.00     0.120 C 
BRANCH  64  73
ATOM     73  C   UNL     1       3.531  -1.177   6.128  1.00  0.00     0.303 C 
BRANCH  73  74
ATOM     74  C   UNL     1       2.718  -2.195   5.394  1.00  0.00     0.044 A 
ATOM     75  C   UNL     1       3.176  -3.412   4.801  1.00  0.00     0.051 A 
ATOM     76  C   UNL     1       1.348  -2.210   5.204  1.00  0.00     0.204 A 
ATOM     77  C   UNL     1       2.075  -4.030   4.255  1.00  0.00     0.195 A 
ATOM     78  O   UNL     1       0.960  -3.302   4.499  1.00  0.00    -0.472 OA
ENDBRANCH  73  74
ENDBRANCH  64  73
ENDBRANCH  60  62
ENDBRANCH  59  60
ENDBRANCH  58  59
ENDBRANCH  57  58
ENDBRANCH   1  57
TORSDOF 16
