REMARK SMILES O=C(OCCOCCOC(=O)[C@]12C[NH2+]C[C@H]1CN(C(=O)c1ccccc1-n1cncn1)C2)c1ccc(-c2c3nc(c(-c4ccccc4)c4ccc([nH]4)c(-c4ccccc4)c4nc(c(-c5ccccc5)c5ccc2[nH]5)C=C4)C=C3)cc1
REMARK SMILES IDX 7 1 6 2 5 3 4 4 3 5 2 6 1 7 33 8 34 9 80 10 35 11 79 12
REMARK SMILES IDX 36 13 37 14 38 15 73 16 39 17 78 18 72 19 74 20 40 21 77 22
REMARK SMILES IDX 71 23 70 24 41 26 63 27 48 28 62 29 49 30 52 31 61 32 75 33
REMARK SMILES IDX 50 34 51 35 60 37 76 38 53 39 42 40 43 41 47 42 44 43 46 44
REMARK SMILES IDX 45 45 64 46 65 47 69 48 66 49 68 50 67 51 54 52 55 53 59 54
REMARK SMILES IDX 56 55 58 56 57 57 8 58 9 59 10 60 11 61 12 62 13 63 16 64
REMARK SMILES IDX 32 65 14 66 15 67 17 68 18 69 19 72 20 73 21 74 22 75 26 76
REMARK SMILES IDX 23 77 25 78 24 79 27 80 28 81 31 82 29 83 30 84
REMARK H PARENT 74 25 52 36 14 70 14 71
REMARK Flexibility Score: inf
ROOT
ATOM      1  C   UNL     1       2.806   1.503   1.995  1.00  0.00     0.202 C 
ENDROOT
BRANCH   1   2
ATOM      2  O   UNL     1       3.817   0.497   1.997  1.00  0.00    -0.374 OA
BRANCH   2   3
ATOM      3  C   UNL     1       4.731   0.438   0.914  1.00  0.00     0.202 C 
BRANCH   3   4
ATOM      4  C   UNL     1       4.193   0.060  -0.479  1.00  0.00     0.261 C 
BRANCH   4   5
ATOM      5  O   UNL     1       2.870   0.507  -0.755  1.00  0.00    -0.460 OA
BRANCH   5   6
ATOM      6  C   UNL     1       1.736  -0.161  -0.444  1.00  0.00     0.338 C 
ATOM      7  O   UNL     1       0.654   0.349  -0.731  1.00  0.00    -0.246 OA
BRANCH   6   8
ATOM      8  C   UNL     1       1.734  -1.487   0.242  1.00  0.00     0.060 A 
ATOM      9  C   UNL     1       2.861  -2.209   0.636  1.00  0.00     0.016 A 
ATOM     10  C   UNL     1       0.477  -2.075   0.428  1.00  0.00     0.016 A 
ATOM     11  C   UNL     1       2.798  -3.559   0.836  1.00  0.00     0.010 A 
ATOM     12  C   UNL     1       0.384  -3.406   0.785  1.00  0.00     0.010 A 
ATOM     13  C   UNL     1       1.555  -4.156   0.851  1.00  0.00    -0.014 A 
BRANCH  13  14
ATOM     14  C   UNL     1       1.562  -5.590   1.018  1.00  0.00     0.031 A 
ATOM     15  C   UNL     1       2.258  -6.063   2.250  1.00  0.00     0.074 A 
ATOM     16  C   UNL     1       0.919  -6.346   0.113  1.00  0.00     0.049 A 
ATOM     17  N   UNL     1       3.155  -6.987   2.375  1.00  0.00    -0.248 NA
ATOM     18  C   UNL     1       2.023  -5.287   3.486  1.00  0.00     0.031 C 
ATOM     19  C   UNL     1       0.064  -5.895  -0.991  1.00  0.00     0.029 A 
ATOM     20  N   UNL     1       0.739  -7.687   0.112  1.00  0.00    -0.354 N 
ATOM     21  C   UNL     1       3.467  -7.027   3.734  1.00  0.00     0.074 A 
ATOM     22  C   UNL     1       2.869  -5.865   4.334  1.00  0.00     0.031 C 
ATOM     23  C   UNL     1      -0.784  -6.893  -1.315  1.00  0.00     0.029 A 
ATOM     24  C   UNL     1      -0.423  -8.067  -0.541  1.00  0.00     0.049 A 
ATOM     25  H   UNL     1       1.365  -8.323   0.529  1.00  0.00     0.167 HD
ATOM     26  C   UNL     1       3.970  -8.141   4.330  1.00  0.00     0.031 A 
ATOM     27  C   UNL     1      -1.115  -9.209  -0.326  1.00  0.00     0.031 A 
ATOM     28  C   UNL     1       4.639  -8.998   3.394  1.00  0.00     0.049 A 
ATOM     29  C   UNL     1      -0.214 -10.149   0.387  1.00  0.00     0.074 A 
ATOM     30  C   UNL     1       5.751  -8.867   2.587  1.00  0.00     0.029 A 
ATOM     31  N   UNL     1       3.946 -10.081   2.910  1.00  0.00    -0.354 N 
ATOM     32  N   UNL     1       0.862 -10.654  -0.148  1.00  0.00    -0.248 NA
ATOM     33  C   UNL     1      -0.244 -10.155   1.843  1.00  0.00     0.031 C 
ATOM     34  C   UNL     1       5.414  -9.557   1.386  1.00  0.00     0.029 A 
ATOM     35  C   UNL     1       4.144 -10.113   1.554  1.00  0.00     0.049 A 
ATOM     36  H   UNL     1       3.409 -10.716   3.437  1.00  0.00     0.167 HD
ATOM     37  C   UNL     1       1.806 -10.650   0.871  1.00  0.00     0.074 A 
ATOM     38  C   UNL     1       1.040 -10.429   2.097  1.00  0.00     0.031 C 
ATOM     39  C   UNL     1       3.141 -10.533   0.601  1.00  0.00     0.031 A 
BRANCH  26  40
ATOM     40  C   UNL     1       3.438  -8.635   5.656  1.00  0.00    -0.014 A 
ATOM     41  C   UNL     1       3.956  -9.825   6.193  1.00  0.00     0.009 A 
ATOM     42  C   UNL     1       2.252  -8.144   6.240  1.00  0.00     0.009 A 
ATOM     43  C   UNL     1       3.269 -10.531   7.189  1.00  0.00     0.001 A 
ATOM     44  C   UNL     1       1.585  -8.824   7.259  1.00  0.00     0.001 A 
ATOM     45  C   UNL     1       2.077 -10.037   7.711  1.00  0.00     0.000 A 
ENDBRANCH  26  40
BRANCH  27  46
ATOM     46  C   UNL     1      -2.586  -9.348  -0.355  1.00  0.00    -0.014 A 
ATOM     47  C   UNL     1      -3.187 -10.604  -0.493  1.00  0.00     0.009 A 
ATOM     48  C   UNL     1      -3.417  -8.255  -0.030  1.00  0.00     0.009 A 
ATOM     49  C   UNL     1      -4.567 -10.761  -0.301  1.00  0.00     0.001 A 
ATOM     50  C   UNL     1      -4.793  -8.409   0.153  1.00  0.00     0.001 A 
ATOM     51  C   UNL     1      -5.367  -9.668   0.027  1.00  0.00     0.000 A 
ENDBRANCH  27  46
BRANCH  39  52
ATOM     52  C   UNL     1       3.573 -10.560  -0.846  1.00  0.00    -0.014 A 
ATOM     53  C   UNL     1       3.191  -9.567  -1.767  1.00  0.00     0.009 A 
ATOM     54  C   UNL     1       4.531 -11.501  -1.246  1.00  0.00     0.009 A 
ATOM     55  C   UNL     1       3.730  -9.535  -3.057  1.00  0.00     0.001 A 
ATOM     56  C   UNL     1       5.084 -11.458  -2.529  1.00  0.00     0.001 A 
ATOM     57  C   UNL     1       4.681 -10.479  -3.435  1.00  0.00     0.000 A 
ENDBRANCH  39  52
ENDBRANCH  13  14
ENDBRANCH   6   8
ENDBRANCH   5   6
ENDBRANCH   4   5
ENDBRANCH   3   4
ENDBRANCH   2   3
ENDBRANCH   1   2
BRANCH   1  58
ATOM     58  C   UNL     1       3.115   2.952   1.585  1.00  0.00     0.261 C 
BRANCH  58  59
ATOM     59  O   UNL     1       3.779   3.148   0.315  1.00  0.00    -0.463 OA
BRANCH  59  60
ATOM     60  C   UNL     1       4.983   3.808   0.364  1.00  0.00     0.320 C 
ATOM     61  O   UNL     1       5.604   3.998   1.408  1.00  0.00    -0.251 OA
BRANCH  60  62
ATOM     62  C   UNL     1       5.545   4.335  -0.995  1.00  0.00     0.144 C 
ATOM     63  C   UNL     1       4.350   5.384  -0.909  1.00  0.00     0.281 C 
ATOM     64  C   UNL     1       5.474   4.534  -2.558  1.00  0.00     0.088 C 
ATOM     65  C   UNL     1       5.905   2.807  -1.291  1.00  0.00     0.145 C 
ATOM     66  N   UNL     1       4.746   6.562  -1.698  1.00  0.00    -0.345 N 
ATOM     67  C   UNL     1       5.380   6.008  -2.877  1.00  0.00     0.267 C 
ATOM     68  C   UNL     1       6.728   3.923  -3.159  1.00  0.00     0.130 C 
ATOM     69  N   UNL     1       6.861   2.735  -2.381  1.00  0.00    -0.337 N 
ATOM     70  H   UNL     1       5.402   7.142  -1.175  1.00  0.00     0.346 HD
ATOM     71  H   UNL     1       3.954   7.161  -1.927  1.00  0.00     0.346 HD
BRANCH  69  72
ATOM     72  C   UNL     1       7.784   1.756  -2.716  1.00  0.00     0.256 C 
ATOM     73  O   UNL     1       8.606   1.892  -3.609  1.00  0.00    -0.269 OA
BRANCH  72  74
ATOM     74  C   UNL     1       7.765   0.447  -2.025  1.00  0.00     0.065 A 
ATOM     75  C   UNL     1       8.663   0.285  -0.956  1.00  0.00     0.016 A 
ATOM     76  C   UNL     1       6.956  -0.634  -2.416  1.00  0.00     0.079 A 
ATOM     77  C   UNL     1       8.735  -0.928  -0.262  1.00  0.00     0.001 A 
ATOM     78  C   UNL     1       7.022  -1.844  -1.690  1.00  0.00     0.029 A 
ATOM     79  C   UNL     1       7.912  -1.990  -0.626  1.00  0.00     0.002 A 
BRANCH  76  80
ATOM     80  N   UNL     1       6.005  -0.554  -3.467  1.00  0.00    -0.220 N 
ATOM     81  C   UNL     1       5.919   0.287  -4.547  1.00  0.00     0.225 A 
ATOM     82  N   UNL     1       4.889  -1.333  -3.432  1.00  0.00    -0.155 NA
ATOM     83  N   UNL     1       4.738   0.189  -5.115  1.00  0.00    -0.223 NA
ATOM     84  C   UNL     1       4.140  -0.796  -4.396  1.00  0.00     0.246 A 
ENDBRANCH  76  80
ENDBRANCH  72  74
ENDBRANCH  69  72
ENDBRANCH  60  62
ENDBRANCH  59  60
ENDBRANCH  58  59
ENDBRANCH   1  58
TORSDOF 17
