REMARK SMILES C[N@H+]([C@H]1CCC[C@]([NH3+])(C(=O)OCCOCCOC(=O)c2ccc(-c3c4nc(c(-c5ccccc5)c5ccc([nH]5)c(-c5ccccc5)c5nc(c(-c6ccccc6)c6ccc3[nH]6)C=C5)C=C4)cc2)C1)[C@H]1CC[C@H](C)CC1
REMARK SMILES IDX 14 1 13 2 12 3 11 4 9 5 10 6 7 7 3 8 4 9 68 10 5 11 6 12
REMARK SMILES IDX 2 13 1 14 69 16 73 17 72 18 71 19 74 20 70 21 75 22 8 23
REMARK SMILES IDX 15 27 16 28 17 29 18 30 19 31 20 32 21 33 67 34 22 35 66 36
REMARK SMILES IDX 23 37 24 38 25 39 60 40 26 41 65 42 59 43 61 44 27 45 64 46
REMARK SMILES IDX 58 47 57 48 28 50 50 51 35 52 49 53 36 54 39 55 48 56 62 57
REMARK SMILES IDX 37 58 38 59 47 61 63 62 40 63 29 64 30 65 34 66 31 67 33 68
REMARK SMILES IDX 32 69 51 70 52 71 56 72 53 73 55 74 54 75 41 76 42 77 46 78
REMARK SMILES IDX 43 79 45 80 44 81
REMARK H PARENT 2 15 8 24 8 25 8 26 61 49 39 60
REMARK Flexibility Score: inf
ROOT
ATOM      1  O   UNL     1      -1.713  -5.655   4.060  1.00  0.00    -0.374 OA
ENDROOT
BRANCH   1   2
ATOM      2  C   UNL     1      -1.090  -5.170   5.254  1.00  0.00     0.202 C 
BRANCH   2   3
ATOM      3  C   UNL     1      -0.100  -4.020   5.042  1.00  0.00     0.261 C 
BRANCH   3   4
ATOM      4  O   UNL     1      -0.826  -2.781   5.039  1.00  0.00    -0.459 OA
BRANCH   4   5
ATOM      5  C   UNL     1      -0.906  -2.103   3.857  1.00  0.00     0.368 C 
ATOM      6  O   UNL     1      -0.162  -2.289   2.902  1.00  0.00    -0.245 OA
BRANCH   5   7
ATOM      7  C   UNL     1      -2.076  -1.057   3.890  1.00  0.00     0.198 C 
ATOM      8  C   UNL     1      -3.421   0.337   2.058  1.00  0.00     0.190 C 
ATOM      9  C   UNL     1      -2.526   1.530   2.421  1.00  0.00     0.065 C 
ATOM     10  C   UNL     1      -2.713  -0.981   2.477  1.00  0.00     0.145 C 
ATOM     11  C   UNL     1      -2.096   1.564   3.881  1.00  0.00     0.013 C 
ATOM     12  C   UNL     1      -1.422   0.271   4.335  1.00  0.00     0.081 C 
BRANCH   8  13
ATOM     13  N   UNL     1      -4.871   0.440   2.389  1.00  0.00    -0.332 N 
ATOM     14  C   UNL     1      -5.171   0.678   3.804  1.00  0.00     0.333 C 
ATOM     15  H   UNL     1      -5.198  -0.494   2.140  1.00  0.00     0.348 HD
BRANCH  13  16
ATOM     16  C   UNL     1      -5.616   1.466   1.584  1.00  0.00     0.184 C 
ATOM     17  C   UNL     1      -8.334   3.849  -0.872  1.00  0.00     0.007 C 
ATOM     18  C   UNL     1      -7.698   2.597  -0.269  1.00  0.00    -0.014 C 
ATOM     19  C   UNL     1      -7.858   2.617   1.249  1.00  0.00     0.009 C 
ATOM     20  C   UNL     1      -6.223   2.489  -0.668  1.00  0.00     0.009 C 
ATOM     21  C   UNL     1      -7.135   1.451   1.911  1.00  0.00     0.065 C 
ATOM     22  C   UNL     1      -5.486   1.348   0.047  1.00  0.00     0.065 C 
ENDBRANCH  13  16
ENDBRANCH   8  13
BRANCH   7  23
ATOM     23  N   UNL     1      -3.094  -1.544   4.856  1.00  0.00    -0.343 N 
ATOM     24  H   UNL     1      -2.682  -1.596   5.787  1.00  0.00     0.345 HD
ATOM     25  H   UNL     1      -3.416  -2.470   4.574  1.00  0.00     0.345 HD
ATOM     26  H   UNL     1      -3.885  -0.899   4.870  1.00  0.00     0.345 HD
ENDBRANCH   7  23
ENDBRANCH   5   7
ENDBRANCH   4   5
ENDBRANCH   3   4
ENDBRANCH   2   3
ENDBRANCH   1   2
BRANCH   1  27
ATOM     27  C   UNL     1      -2.827  -4.903   3.578  1.00  0.00     0.202 C 
BRANCH  27  28
ATOM     28  C   UNL     1      -4.186  -5.287   4.173  1.00  0.00     0.261 C 
BRANCH  28  29
ATOM     29  O   UNL     1      -4.246  -5.043   5.589  1.00  0.00    -0.460 OA
BRANCH  29  30
ATOM     30  C   UNL     1      -4.125  -6.148   6.357  1.00  0.00     0.338 C 
ATOM     31  O   UNL     1      -4.086  -7.314   5.982  1.00  0.00    -0.246 OA
BRANCH  30  32
ATOM     32  C   UNL     1      -3.884  -5.769   7.760  1.00  0.00     0.060 A 
ATOM     33  C   UNL     1      -2.804  -6.378   8.410  1.00  0.00     0.016 A 
ATOM     34  C   UNL     1      -4.734  -4.905   8.455  1.00  0.00     0.016 A 
ATOM     35  C   UNL     1      -2.600  -6.168   9.772  1.00  0.00     0.010 A 
ATOM     36  C   UNL     1      -4.533  -4.701   9.825  1.00  0.00     0.010 A 
ATOM     37  C   UNL     1      -3.488  -5.362  10.496  1.00  0.00    -0.014 A 
BRANCH  37  38
ATOM     38  C   UNL     1      -3.401  -5.343  11.977  1.00  0.00     0.031 A 
ATOM     39  C   UNL     1      -4.331  -6.217  12.775  1.00  0.00     0.074 A 
ATOM     40  C   UNL     1      -2.469  -4.605  12.604  1.00  0.00     0.049 A 
ATOM     41  N   UNL     1      -4.412  -6.373  14.072  1.00  0.00    -0.248 NA
ATOM     42  C   UNL     1      -5.294  -7.024  12.009  1.00  0.00     0.031 C 
ATOM     43  C   UNL     1      -1.478  -3.754  11.947  1.00  0.00     0.029 A 
ATOM     44  N   UNL     1      -2.204  -4.460  13.943  1.00  0.00    -0.354 N 
ATOM     45  C   UNL     1      -5.433  -7.293  14.277  1.00  0.00     0.074 A 
ATOM     46  C   UNL     1      -5.963  -7.635  12.975  1.00  0.00     0.031 C 
ATOM     47  C   UNL     1      -0.709  -3.177  12.886  1.00  0.00     0.029 A 
ATOM     48  C   UNL     1      -1.172  -3.595  14.209  1.00  0.00     0.049 A 
ATOM     49  H   UNL     1      -2.706  -4.933  14.646  1.00  0.00     0.167 HD
ATOM     50  C   UNL     1      -5.885  -7.814  15.443  1.00  0.00     0.031 A 
ATOM     51  C   UNL     1      -0.667  -3.177  15.385  1.00  0.00     0.031 A 
ATOM     52  C   UNL     1      -5.370  -7.468  16.741  1.00  0.00     0.049 A 
ATOM     53  C   UNL     1      -1.241  -3.709  16.671  1.00  0.00     0.074 A 
ATOM     54  C   UNL     1      -5.758  -7.952  17.978  1.00  0.00     0.029 A 
ATOM     55  N   UNL     1      -4.361  -6.547  16.969  1.00  0.00    -0.354 N 
ATOM     56  N   UNL     1      -2.191  -4.595  16.849  1.00  0.00    -0.248 NA
ATOM     57  C   UNL     1      -0.665  -3.185  17.919  1.00  0.00     0.031 C 
ATOM     58  C   UNL     1      -5.018  -7.284  18.960  1.00  0.00     0.029 A 
ATOM     59  C   UNL     1      -4.132  -6.426  18.329  1.00  0.00     0.049 A 
ATOM     60  H   UNL     1      -3.879  -6.052  16.268  1.00  0.00     0.167 HD
ATOM     61  C   UNL     1      -2.306  -4.755  18.225  1.00  0.00     0.074 A 
ATOM     62  C   UNL     1      -1.322  -3.885  18.834  1.00  0.00     0.031 C 
ATOM     63  C   UNL     1      -3.151  -5.555  18.921  1.00  0.00     0.031 A 
BRANCH  50  64
ATOM     64  C   UNL     1      -7.021  -8.793  15.365  1.00  0.00    -0.014 A 
ATOM     65  C   UNL     1      -6.828 -10.097  14.879  1.00  0.00     0.009 A 
ATOM     66  C   UNL     1      -8.297  -8.416  15.812  1.00  0.00     0.009 A 
ATOM     67  C   UNL     1      -7.898 -10.991  14.814  1.00  0.00     0.001 A 
ATOM     68  C   UNL     1      -9.358  -9.321  15.769  1.00  0.00     0.001 A 
ATOM     69  C   UNL     1      -9.161 -10.604  15.262  1.00  0.00     0.000 A 
ENDBRANCH  50  64
BRANCH  51  70
ATOM     70  C   UNL     1       0.439  -2.184  15.409  1.00  0.00    -0.014 A 
ATOM     71  C   UNL     1       1.726  -2.554  15.824  1.00  0.00     0.009 A 
ATOM     72  C   UNL     1       0.202  -0.851  15.037  1.00  0.00     0.009 A 
ATOM     73  C   UNL     1       2.748  -1.604  15.889  1.00  0.00     0.001 A 
ATOM     74  C   UNL     1       1.232   0.090  15.078  1.00  0.00     0.001 A 
ATOM     75  C   UNL     1       2.501  -0.284  15.512  1.00  0.00     0.000 A 
ENDBRANCH  51  70
BRANCH  63  76
ATOM     76  C   UNL     1      -3.025  -5.553  20.419  1.00  0.00    -0.014 A 
ATOM     77  C   UNL     1      -3.467  -4.465  21.187  1.00  0.00     0.009 A 
ATOM     78  C   UNL     1      -2.492  -6.675  21.073  1.00  0.00     0.009 A 
ATOM     79  C   UNL     1      -3.349  -4.489  22.578  1.00  0.00     0.001 A 
ATOM     80  C   UNL     1      -2.401  -6.708  22.465  1.00  0.00     0.001 A 
ATOM     81  C   UNL     1      -2.820  -5.611  23.216  1.00  0.00     0.000 A 
ENDBRANCH  63  76
ENDBRANCH  37  38
ENDBRANCH  30  32
ENDBRANCH  29  30
ENDBRANCH  28  29
ENDBRANCH  27  28
ENDBRANCH   1  27
TORSDOF 17
