REMARK SMILES Cc1ccc(S(=O)(=O)n2cc(C(=O)C(=O)N[C@@H](Cc3c[nH]c4ccccc34)C(=O)NCC(=O)OCCOCCOC(=O)c3ccc(-c4c5nc(c(-c6ccccc6)c6ccc([nH]6)c(-c6ccccc6)c6nc(c(-c7ccccc7)c7ccc4[nH]7)C=C6)C=C5)cc3)c3ccccc32)cc1
REMARK SMILES IDX 35 1 34 2 32 3 33 4 31 5 30 6 28 7 29 8 17 10 16 11 14 12
REMARK SMILES IDX 15 13 12 15 13 16 11 17 9 18 10 19 96 20 91 21 95 22 92 23
REMARK SMILES IDX 94 24 93 25 6 26 7 27 8 28 5 29 1 30 2 31 3 32 98 33 4 34
REMARK SMILES IDX 97 35 18 36 19 37 20 38 27 39 21 40 22 41 26 42 23 44 25 45
REMARK SMILES IDX 24 46 36 47 37 48 38 49 39 50 40 51 41 52 42 53 43 54 44 55
REMARK SMILES IDX 90 56 45 57 89 58 46 59 47 60 48 61 83 62 49 63 88 64 82 65
REMARK SMILES IDX 84 66 50 67 87 68 81 69 80 70 51 72 73 73 58 74 72 75 59 76
REMARK SMILES IDX 62 77 71 78 85 79 60 80 61 81 70 83 86 84 63 85 52 86 53 87
REMARK SMILES IDX 57 88 54 89 56 90 55 91 74 92 75 93 79 94 76 95 78 96 77 97
REMARK SMILES IDX 64 98 65 99 69 100 66 101 68 102 67 103
REMARK H PARENT 30 9 16 14 21 43 84 71 62 82
REMARK Flexibility Score: inf
ROOT
ATOM      1  C   UNL     1     -10.662   4.780  -2.971  1.00  0.00     0.261 C 
ENDROOT
BRANCH   1   2
ATOM      2  O   UNL     1     -11.055   4.261  -1.691  1.00  0.00    -0.462 OA
BRANCH   2   3
ATOM      3  C   UNL     1     -12.272   4.689  -1.263  1.00  0.00     0.325 C 
ATOM      4  O   UNL     1     -12.531   5.848  -0.952  1.00  0.00    -0.250 OA
BRANCH   3   5
ATOM      5  C   UNL     1     -13.279   3.565  -1.293  1.00  0.00     0.238 C 
BRANCH   5   6
ATOM      6  N   UNL     1     -12.792   2.258  -1.701  1.00  0.00    -0.343 N 
ATOM      7  C   UNL     1     -12.071   1.297  -1.073  1.00  0.00     0.243 C 
ATOM      8  O   UNL     1     -12.006   0.230  -1.701  1.00  0.00    -0.273 OA
ATOM      9  H   UNL     1     -13.036   2.021  -2.625  1.00  0.00     0.164 HD
BRANCH   7  10
ATOM     10  C   UNL     1     -11.348   1.429   0.306  1.00  0.00     0.176 C 
BRANCH  10  11
ATOM     11  N   UNL     1     -10.193   2.364   0.373  1.00  0.00    -0.337 N 
ATOM     12  C   UNL     1      -8.817   2.129   0.219  1.00  0.00     0.293 C 
ATOM     13  O   UNL     1      -8.011   2.970   0.609  1.00  0.00    -0.265 OA
ATOM     14  H   UNL     1     -10.432   3.302   0.554  1.00  0.00     0.164 HD
BRANCH  12  15
ATOM     15  C   UNL     1      -8.253   0.850  -0.440  1.00  0.00     0.252 C 
ATOM     16  O   UNL     1      -9.016   0.271  -1.212  1.00  0.00    -0.283 OA
BRANCH  15  17
ATOM     17  C   UNL     1      -6.915   0.256  -0.122  1.00  0.00     0.054 A 
ATOM     18  N   UNL     1      -4.815  -0.266   0.613  1.00  0.00    -0.240 N 
ATOM     19  C   UNL     1      -5.640   0.787   0.179  1.00  0.00     0.117 A 
ATOM     20  C   UNL     1      -5.640  -1.410   0.687  1.00  0.00     0.065 A 
ATOM     21  C   UNL     1      -6.693  -1.156  -0.183  1.00  0.00     0.012 A 
ATOM     22  C   UNL     1      -5.362  -2.716   1.143  1.00  0.00     0.028 A 
ATOM     23  C   UNL     1      -7.319  -2.255  -0.810  1.00  0.00     0.011 A 
ATOM     24  C   UNL     1      -5.926  -3.780   0.444  1.00  0.00     0.002 A 
ATOM     25  C   UNL     1      -6.856  -3.551  -0.558  1.00  0.00     0.001 A 
BRANCH  18  26
ATOM     26  S   UNL     1      -3.203  -0.747   0.123  1.00  0.00     0.268 S 
ATOM     27  O   UNL     1      -3.446  -1.290  -1.207  1.00  0.00    -0.201 OA
ATOM     28  O   UNL     1      -2.870  -1.621   1.245  1.00  0.00    -0.201 OA
BRANCH  26  29
ATOM     29  C   UNL     1      -1.631   0.020  -0.045  1.00  0.00     0.088 A 
ATOM     30  C   UNL     1       2.660   0.677  -0.048  1.00  0.00     0.044 C 
ATOM     31  C   UNL     1       1.168   0.505  -0.110  1.00  0.00    -0.051 A 
ATOM     32  C   UNL     1       0.700  -0.782  -0.300  1.00  0.00     0.005 A 
ATOM     33  C   UNL     1       0.228   1.550   0.065  1.00  0.00     0.005 A 
ATOM     34  C   UNL     1      -0.664  -1.004  -0.286  1.00  0.00     0.022 A 
ATOM     35  C   UNL     1      -1.181   1.317   0.107  1.00  0.00     0.022 A 
ENDBRANCH  26  29
ENDBRANCH  18  26
ENDBRANCH  15  17
ENDBRANCH  12  15
ENDBRANCH  10  11
BRANCH  10  36
ATOM     36  C   UNL     1     -12.263   1.441   1.579  1.00  0.00     0.072 C 
BRANCH  36  37
ATOM     37  C   UNL     1     -13.299   2.519   1.778  1.00  0.00    -0.020 A 
ATOM     38  C   UNL     1     -14.674   2.369   1.639  1.00  0.00     0.087 A 
ATOM     39  C   UNL     1     -13.101   3.886   2.168  1.00  0.00     0.003 A 
ATOM     40  N   UNL     1     -15.265   3.605   1.733  1.00  0.00    -0.361 N 
ATOM     41  C   UNL     1     -14.310   4.563   1.964  1.00  0.00     0.046 A 
ATOM     42  C   UNL     1     -11.995   4.631   2.595  1.00  0.00     0.010 A 
ATOM     43  H   UNL     1     -16.230   3.778   1.647  1.00  0.00     0.166 HD
ATOM     44  C   UNL     1     -14.421   5.960   1.978  1.00  0.00     0.026 A 
ATOM     45  C   UNL     1     -12.133   6.014   2.734  1.00  0.00     0.001 A 
ATOM     46  C   UNL     1     -13.291   6.681   2.346  1.00  0.00     0.002 A 
ENDBRANCH  36  37
ENDBRANCH  10  36
ENDBRANCH   7  10
ENDBRANCH   5   6
ENDBRANCH   3   5
ENDBRANCH   2   3
ENDBRANCH   1   2
BRANCH   1  47
ATOM     47  C   UNL     1     -11.657   4.500  -4.079  1.00  0.00     0.202 C 
BRANCH  47  48
ATOM     48  O   UNL     1     -12.807   5.297  -3.813  1.00  0.00    -0.374 OA
BRANCH  48  49
ATOM     49  C   UNL     1     -13.926   5.111  -4.663  1.00  0.00     0.202 C 
BRANCH  49  50
ATOM     50  C   UNL     1     -13.640   5.436  -6.132  1.00  0.00     0.261 C 
BRANCH  50  51
ATOM     51  O   UNL     1     -13.297   6.829  -6.262  1.00  0.00    -0.460 OA
BRANCH  51  52
ATOM     52  C   UNL     1     -11.965   7.094  -6.364  1.00  0.00     0.338 C 
ATOM     53  O   UNL     1     -11.194   6.552  -7.135  1.00  0.00    -0.246 OA
BRANCH  52  54
ATOM     54  C   UNL     1     -11.532   7.918  -5.200  1.00  0.00     0.060 A 
ATOM     55  C   UNL     1     -10.160   8.098  -4.949  1.00  0.00     0.016 A 
ATOM     56  C   UNL     1     -12.466   8.206  -4.207  1.00  0.00     0.016 A 
ATOM     57  C   UNL     1      -9.721   8.408  -3.656  1.00  0.00     0.010 A 
ATOM     58  C   UNL     1     -12.022   8.383  -2.917  1.00  0.00     0.010 A 
ATOM     59  C   UNL     1     -10.651   8.450  -2.625  1.00  0.00    -0.014 A 
BRANCH  59  60
ATOM     60  C   UNL     1     -10.358   8.539  -1.195  1.00  0.00     0.031 A 
ATOM     61  C   UNL     1     -10.949   9.700  -0.488  1.00  0.00     0.074 A 
ATOM     62  C   UNL     1      -9.846   7.492  -0.502  1.00  0.00     0.049 A 
ATOM     63  N   UNL     1     -11.034   9.802   0.784  1.00  0.00    -0.248 NA
ATOM     64  C   UNL     1     -11.554  10.842  -1.176  1.00  0.00     0.031 C 
ATOM     65  C   UNL     1      -9.859   7.279   0.941  1.00  0.00     0.029 A 
ATOM     66  N   UNL     1      -9.139   6.373  -0.957  1.00  0.00    -0.354 N 
ATOM     67  C   UNL     1     -11.806  10.885   1.099  1.00  0.00     0.074 A 
ATOM     68  C   UNL     1     -12.138  11.492  -0.162  1.00  0.00     0.031 C 
ATOM     69  C   UNL     1      -9.013   6.292   1.279  1.00  0.00     0.029 A 
ATOM     70  C   UNL     1      -8.266   5.993   0.078  1.00  0.00     0.049 A 
ATOM     71  H   UNL     1      -9.235   5.936  -1.834  1.00  0.00     0.167 HD
ATOM     72  C   UNL     1     -12.085  11.080   2.414  1.00  0.00     0.031 A 
ATOM     73  C   UNL     1      -6.922   6.163  -0.052  1.00  0.00     0.031 A 
ATOM     74  C   UNL     1     -11.131  10.324   3.248  1.00  0.00     0.049 A 
ATOM     75  C   UNL     1      -6.508   7.187   0.984  1.00  0.00     0.074 A 
ATOM     76  C   UNL     1     -11.219   9.275   4.143  1.00  0.00     0.029 A 
ATOM     77  N   UNL     1      -9.760  10.471   2.967  1.00  0.00    -0.354 N 
ATOM     78  N   UNL     1      -7.209   8.259   1.295  1.00  0.00    -0.248 NA
ATOM     79  C   UNL     1      -5.472   6.872   1.965  1.00  0.00     0.031 C 
ATOM     80  C   UNL     1      -9.909   8.709   4.276  1.00  0.00     0.029 A 
ATOM     81  C   UNL     1      -9.014   9.436   3.497  1.00  0.00     0.049 A 
ATOM     82  H   UNL     1      -9.378  11.220   2.455  1.00  0.00     0.167 HD
ATOM     83  C   UNL     1      -6.857   8.644   2.569  1.00  0.00     0.074 A 
ATOM     84  C   UNL     1      -5.729   7.784   2.916  1.00  0.00     0.031 C 
ATOM     85  C   UNL     1      -7.554   9.446   3.433  1.00  0.00     0.031 A 
BRANCH  72  86
ATOM     86  C   UNL     1     -13.283  11.854   2.916  1.00  0.00    -0.014 A 
ATOM     87  C   UNL     1     -13.628  11.809   4.278  1.00  0.00     0.009 A 
ATOM     88  C   UNL     1     -14.181  12.560   2.090  1.00  0.00     0.009 A 
ATOM     89  C   UNL     1     -14.789  12.426   4.777  1.00  0.00     0.001 A 
ATOM     90  C   UNL     1     -15.331  13.196   2.581  1.00  0.00     0.001 A 
ATOM     91  C   UNL     1     -15.638  13.126   3.929  1.00  0.00     0.000 A 
ENDBRANCH  72  86
BRANCH  73  92
ATOM     92  C   UNL     1      -6.464   5.887  -1.449  1.00  0.00    -0.014 A 
ATOM     93  C   UNL     1      -6.533   4.535  -1.869  1.00  0.00     0.009 A 
ATOM     94  C   UNL     1      -6.481   6.869  -2.446  1.00  0.00     0.009 A 
ATOM     95  C   UNL     1      -6.806   4.186  -3.198  1.00  0.00     0.001 A 
ATOM     96  C   UNL     1      -6.728   6.513  -3.788  1.00  0.00     0.001 A 
ATOM     97  C   UNL     1      -6.946   5.183  -4.152  1.00  0.00     0.000 A 
ENDBRANCH  73  92
BRANCH  85  98
ATOM     98  C   UNL     1      -6.828  10.344   4.407  1.00  0.00    -0.014 A 
ATOM     99  C   UNL     1      -5.444  10.561   4.367  1.00  0.00     0.009 A 
ATOM    100  C   UNL     1      -7.577  11.172   5.273  1.00  0.00     0.009 A 
ATOM    101  C   UNL     1      -4.836  11.526   5.173  1.00  0.00     0.001 A 
ATOM    102  C   UNL     1      -6.981  12.171   6.039  1.00  0.00     0.001 A 
ATOM    103  C   UNL     1      -5.606  12.340   5.995  1.00  0.00     0.000 A 
ENDBRANCH  85  98
ENDBRANCH  59  60
ENDBRANCH  52  54
ENDBRANCH  51  52
ENDBRANCH  50  51
ENDBRANCH  49  50
ENDBRANCH  48  49
ENDBRANCH  47  48
ENDBRANCH   1  47
TORSDOF 23
