REMARK SMILES CCCc1cc(S(F)(F)(F)(F)F)cc2c1O[C@@H](C(F)(F)F)C(C(=O)OCCOCCOC(=O)c1ccc(-c3c4nc(c(-c5ccccc5)c5ccc([nH]5)c(-c5ccccc5)c5nc(c(-c6ccccc6)c6ccc3[nH]6)C=C5)C=C4)cc1)=C2
REMARK SMILES IDX 28 1 27 2 26 3 25 4 23 5 24 6 22 7 4 8 5 9 15 10 6 11 14 12
REMARK SMILES IDX 16 13 13 14 82 15 17 16 3 17 2 18 1 19 7 20 8 21 9 22 10 23
REMARK SMILES IDX 11 24 12 25 18 26 19 27 20 28 21 29 29 30 30 31 31 32 32 33
REMARK SMILES IDX 33 34 34 35 35 36 81 37 36 38 80 39 37 40 38 41 39 42 74 43
REMARK SMILES IDX 40 44 79 45 73 46 75 47 41 48 78 49 72 50 71 51 42 53 64 54
REMARK SMILES IDX 49 55 63 56 50 57 53 58 62 59 76 60 51 61 52 62 61 64 77 65
REMARK SMILES IDX 54 66 43 67 44 68 48 69 45 70 47 71 46 72 65 73 66 74 70 75
REMARK SMILES IDX 67 76 69 77 68 78 55 79 56 80 60 81 57 82 59 83 58 84
REMARK H PARENT 75 52 53 63
REMARK Flexibility Score: inf
ROOT
ATOM      1  O   UNL     1       1.497  -5.496  -4.333  1.00  0.00    -0.374 OA
ENDROOT
BRANCH   1   2
ATOM      2  C   UNL     1       0.760  -5.552  -5.545  1.00  0.00     0.202 C 
BRANCH   2   3
ATOM      3  C   UNL     1      -0.606  -4.918  -5.337  1.00  0.00     0.261 C 
BRANCH   3   4
ATOM      4  O   UNL     1      -0.444  -3.563  -4.944  1.00  0.00    -0.460 OA
BRANCH   4   5
ATOM      5  C   UNL     1       0.264  -3.249  -3.754  1.00  0.00     0.338 C 
ATOM      6  O   UNL     1       0.753  -4.181  -3.041  1.00  0.00    -0.246 OA
BRANCH   5   7
ATOM      7  C   UNL     1       0.437  -1.799  -3.333  1.00  0.00     0.087 C 
ATOM      8  C   UNL     1       0.522   2.107  -1.854  1.00  0.00    -0.004 A 
ATOM      9  C   UNL     1       0.182   3.164  -2.679  1.00  0.00     0.032 A 
ATOM     10  C   UNL     1       0.434   0.829  -2.350  1.00  0.00     0.131 A 
ATOM     11  C   UNL     1      -0.240   2.948  -3.964  1.00  0.00     0.108 A 
ATOM     12  C   UNL     1       0.030   0.573  -3.648  1.00  0.00     0.019 A 
ATOM     13  O   UNL     1       0.666  -0.214  -1.488  1.00  0.00    -0.475 OA
ATOM     14  C   UNL     1      -0.309   1.658  -4.449  1.00  0.00     0.036 A 
ATOM     15  C   UNL     1      -0.068  -0.815  -4.066  1.00  0.00     0.027 C 
ATOM     16  C   UNL     1       1.194  -1.444  -2.060  1.00  0.00     0.316 C 
BRANCH   8  17
ATOM     17  C   UNL     1       1.029   2.352  -0.442  1.00  0.00     0.039 C 
BRANCH  17  18
ATOM     18  C   UNL     1       0.522   1.251   0.476  1.00  0.00     0.001 C 
ATOM     19  C   UNL     1       1.029  -0.094  -0.018  1.00  0.00     0.004 C 
ENDBRANCH  17  18
ENDBRANCH   8  17
BRANCH  11  20
ATOM     20  S   UNL     1      -0.704   4.344  -5.018  1.00  0.00     0.310 S 
ATOM     21  F   UNL     1      -2.211   4.526  -4.560  1.00  0.00    -0.094 F 
ATOM     22  F   UNL     1      -1.234   3.375  -6.142  1.00  0.00    -0.094 F 
ATOM     23  F   UNL     1      -0.902   5.575  -5.948  1.00  0.00    -0.094 F 
ATOM     24  F   UNL     1      -0.304   5.312  -3.836  1.00  0.00    -0.094 F 
ATOM     25  F   UNL     1      -0.605   3.116  -4.028  1.00  0.00    -0.094 F 
ENDBRANCH  11  20
BRANCH  16  26
ATOM     26  C   UNL     1       1.029  -2.571  -1.053  1.00  0.00     0.430 C 
ATOM     27  F   UNL     1       1.513  -3.698  -1.566  1.00  0.00    -0.167 F 
ATOM     28  F   UNL     1       1.690  -2.271   0.061  1.00  0.00    -0.167 F 
ATOM     29  F   UNL     1      -0.262  -2.729  -0.773  1.00  0.00    -0.167 F 
ENDBRANCH  16  26
ENDBRANCH   5   7
ENDBRANCH   4   5
ENDBRANCH   3   4
ENDBRANCH   2   3
ENDBRANCH   1   2
BRANCH   1  30
ATOM     30  C   UNL     1       1.659  -4.141  -3.939  1.00  0.00     0.202 C 
BRANCH  30  31
ATOM     31  C   UNL     1       2.409  -3.385  -5.024  1.00  0.00     0.261 C 
BRANCH  31  32
ATOM     32  O   UNL     1       1.671  -3.441  -6.236  1.00  0.00    -0.460 OA
BRANCH  32  33
ATOM     33  C   UNL     1       1.380  -4.696  -6.832  1.00  0.00     0.338 C 
ATOM     34  O   UNL     1       1.779  -5.769  -6.281  1.00  0.00    -0.246 OA
BRANCH  33  35
ATOM     35  C   UNL     1       0.591  -4.756  -8.130  1.00  0.00     0.060 A 
ATOM     36  C   UNL     1      -0.437  -5.675  -8.258  1.00  0.00     0.016 A 
ATOM     37  C   UNL     1       0.898  -3.924  -9.119  1.00  0.00     0.016 A 
ATOM     38  C   UNL     1      -0.899  -5.838  -9.586  1.00  0.00     0.010 A 
ATOM     39  C   UNL     1       0.308  -4.056 -10.352  1.00  0.00     0.010 A 
ATOM     40  C   UNL     1      -0.673  -4.983 -10.567  1.00  0.00    -0.014 A 
BRANCH  40  41
ATOM     41  C   UNL     1      -1.462  -5.027 -11.866  1.00  0.00     0.031 A 
ATOM     42  C   UNL     1      -0.759  -5.234 -13.053  1.00  0.00     0.074 A 
ATOM     43  C   UNL     1      -2.835  -4.860 -11.798  1.00  0.00     0.049 A 
ATOM     44  N   UNL     1      -1.257  -5.338 -14.286  1.00  0.00    -0.248 NA
ATOM     45  C   UNL     1       0.702  -5.378 -13.132  1.00  0.00     0.031 C 
ATOM     46  C   UNL     1      -3.553  -4.660 -10.602  1.00  0.00     0.029 A 
ATOM     47  N   UNL     1      -3.738  -4.854 -12.838  1.00  0.00    -0.354 N 
ATOM     48  C   UNL     1      -0.275  -5.552 -15.164  1.00  0.00     0.074 A 
ATOM     49  C   UNL     1       1.000  -5.574 -14.435  1.00  0.00     0.031 C 
ATOM     50  C   UNL     1      -4.868  -4.524 -10.918  1.00  0.00     0.029 A 
ATOM     51  C   UNL     1      -4.994  -4.638 -12.316  1.00  0.00     0.049 A 
ATOM     52  H   UNL     1      -3.523  -4.983 -13.790  1.00  0.00     0.167 HD
ATOM     53  C   UNL     1      -0.393  -5.732 -16.543  1.00  0.00     0.031 A 
ATOM     54  C   UNL     1      -6.194  -4.539 -13.003  1.00  0.00     0.031 A 
ATOM     55  C   UNL     1      -1.598  -5.677 -17.225  1.00  0.00     0.049 A 
ATOM     56  C   UNL     1      -6.304  -4.661 -14.390  1.00  0.00     0.074 A 
ATOM     57  C   UNL     1      -1.735  -5.863 -18.614  1.00  0.00     0.029 A 
ATOM     58  N   UNL     1      -2.850  -5.436 -16.706  1.00  0.00    -0.354 N 
ATOM     59  N   UNL     1      -5.327  -4.914 -15.262  1.00  0.00    -0.248 NA
ATOM     60  C   UNL     1      -7.565  -4.526 -15.132  1.00  0.00     0.031 C 
ATOM     61  C   UNL     1      -3.050  -5.727 -18.930  1.00  0.00     0.029 A 
ATOM     62  C   UNL     1      -3.757  -5.452 -17.743  1.00  0.00     0.049 A 
ATOM     63  H   UNL     1      -3.062  -5.278 -15.758  1.00  0.00     0.167 HD
ATOM     64  C   UNL     1      -5.821  -4.977 -16.500  1.00  0.00     0.074 A 
ATOM     65  C   UNL     1      -7.267  -4.721 -16.435  1.00  0.00     0.031 C 
ATOM     66  C   UNL     1      -5.125  -5.242 -17.681  1.00  0.00     0.031 A 
BRANCH  53  67
ATOM     67  C   UNL     1       0.872  -6.003 -17.342  1.00  0.00    -0.014 A 
ATOM     68  C   UNL     1       1.626  -7.128 -17.052  1.00  0.00     0.009 A 
ATOM     69  C   UNL     1       1.228  -5.166 -18.309  1.00  0.00     0.009 A 
ATOM     70  C   UNL     1       2.907  -7.131 -17.653  1.00  0.00     0.001 A 
ATOM     71  C   UNL     1       2.436  -5.309 -18.948  1.00  0.00     0.001 A 
ATOM     72  C   UNL     1       3.259  -6.364 -18.669  1.00  0.00     0.000 A 
ENDBRANCH  53  67
BRANCH  54  73
ATOM     73  C   UNL     1      -7.460  -4.285 -12.202  1.00  0.00    -0.014 A 
ATOM     74  C   UNL     1      -8.495  -5.203 -12.262  1.00  0.00     0.009 A 
ATOM     75  C   UNL     1      -7.558  -3.183 -11.467  1.00  0.00     0.009 A 
ATOM     76  C   UNL     1      -9.717  -4.725 -11.733  1.00  0.00     0.001 A 
ATOM     77  C   UNL     1      -8.748  -2.847 -10.867  1.00  0.00     0.001 A 
ATOM     78  C   UNL     1      -9.830  -3.679 -10.935  1.00  0.00     0.000 A 
ENDBRANCH  54  73
BRANCH  66  79
ATOM     79  C   UNL     1      -5.916  -5.302 -18.978  1.00  0.00    -0.014 A 
ATOM     80  C   UNL     1      -6.625  -4.187 -19.394  1.00  0.00     0.009 A 
ATOM     81  C   UNL     1      -5.914  -6.422 -19.691  1.00  0.00     0.009 A 
ATOM     82  C   UNL     1      -7.542  -4.448 -20.439  1.00  0.00     0.001 A 
ATOM     83  C   UNL     1      -6.737  -6.558 -20.782  1.00  0.00     0.001 A 
ATOM     84  C   UNL     1      -7.510  -5.516 -21.215  1.00  0.00     0.000 A 
ENDBRANCH  66  79
ENDBRANCH  40  41
ENDBRANCH  33  35
ENDBRANCH  32  33
ENDBRANCH  31  32
ENDBRANCH  30  31
ENDBRANCH   1  30
TORSDOF 18
