REMARK SMILES O=C(CCCCNc1ncnc2c1CCCC2)OCCOCCOC(=O)c1ccc(-c2c3nc(c(-c4ccccc4)c4ccc([nH]4)c(-c4ccccc4)c4nc(c(-c5ccccc5)c5ccc2[nH]5)C=C4)C=C3)cc1
REMARK SMILES IDX 19 1 18 2 2 3 1 4 3 5 4 6 5 7 6 8 7 9 8 11 9 12 13 13 10 14
REMARK SMILES IDX 12 15 14 16 11 17 17 18 15 19 16 20 20 21 21 22 22 23 23 24
REMARK SMILES IDX 24 25 25 26 26 27 27 28 28 29 74 30 29 31 73 32 30 33 31 34
REMARK SMILES IDX 32 35 67 36 33 37 72 38 66 39 68 40 34 41 71 42 65 43 64 44
REMARK SMILES IDX 35 46 57 47 42 48 56 49 43 50 46 51 55 52 69 53 44 54 45 55
REMARK SMILES IDX 54 57 70 58 47 59 36 60 37 61 41 62 38 63 40 64 39 65 58 66
REMARK SMILES IDX 59 67 63 68 60 69 62 70 61 71 48 72 49 73 53 74 50 75 52 76
REMARK SMILES IDX 51 77
REMARK H PARENT 7 10 68 45 46 56
REMARK Flexibility Score: inf
ROOT
ATOM      1  C   UNL     1       3.344  -0.782   1.286  1.00  0.00     0.261 C 
ENDROOT
BRANCH   1   2
ATOM      2  O   UNL     1       2.110  -0.062   1.183  1.00  0.00    -0.463 OA
BRANCH   2   3
ATOM      3  C   UNL     1       1.915   1.090   0.507  1.00  0.00     0.305 C 
ATOM      4  O   UNL     1       0.824   1.654   0.601  1.00  0.00    -0.252 OA
BRANCH   3   5
ATOM      5  C   UNL     1       2.986   1.673  -0.392  1.00  0.00     0.123 C 
BRANCH   5   6
ATOM      6  C   UNL     1       3.945   2.679   0.236  1.00  0.00     0.013 C 
BRANCH   6   7
ATOM      7  C   UNL     1       5.227   2.123   0.869  1.00  0.00     0.022 C 
BRANCH   7   8
ATOM      8  C   UNL     1       6.021   1.103   0.036  1.00  0.00     0.114 C 
BRANCH   8   9
ATOM      9  N   UNL     1       6.676   1.766  -1.055  1.00  0.00    -0.370 N 
ATOM     10  H   UNL     1       6.162   2.301  -1.702  1.00  0.00     0.162 HD
BRANCH   9  11
ATOM     11  C   UNL     1       8.044   1.636  -1.176  1.00  0.00     0.132 A 
ATOM     12  N   UNL     1       8.581   0.409  -1.087  1.00  0.00    -0.219 NA
ATOM     13  C   UNL     1       8.819   2.781  -1.283  1.00  0.00     0.016 A 
ATOM     14  C   UNL     1       9.914   0.334  -1.167  1.00  0.00     0.224 A 
ATOM     15  C   UNL     1      10.192   2.590  -1.331  1.00  0.00     0.049 A 
ATOM     16  C   UNL     1       8.193   4.147  -1.325  1.00  0.00     0.041 C 
ATOM     17  N   UNL     1      10.758   1.367  -1.280  1.00  0.00    -0.241 NA
ATOM     18  C   UNL     1      11.140   3.760  -1.325  1.00  0.00     0.057 C 
ATOM     19  C   UNL     1       9.166   5.255  -0.943  1.00  0.00     0.005 C 
ATOM     20  C   UNL     1      10.475   5.083  -1.702  1.00  0.00     0.007 C 
ENDBRANCH   9  11
ENDBRANCH   8   9
ENDBRANCH   7   8
ENDBRANCH   6   7
ENDBRANCH   5   6
ENDBRANCH   3   5
ENDBRANCH   2   3
ENDBRANCH   1   2
BRANCH   1  21
ATOM     21  C   UNL     1       3.512  -1.827   0.197  1.00  0.00     0.202 C 
BRANCH  21  22
ATOM     22  O   UNL     1       3.430  -1.276  -1.114  1.00  0.00    -0.374 OA
BRANCH  22  23
ATOM     23  C   UNL     1       2.322  -1.750  -1.883  1.00  0.00     0.202 C 
BRANCH  23  24
ATOM     24  C   UNL     1       2.664  -3.022  -2.667  1.00  0.00     0.261 C 
BRANCH  24  25
ATOM     25  O   UNL     1       3.070  -4.061  -1.761  1.00  0.00    -0.460 OA
BRANCH  25  26
ATOM     26  C   UNL     1       4.408  -4.280  -1.688  1.00  0.00     0.338 C 
ATOM     27  O   UNL     1       5.262  -3.892  -2.466  1.00  0.00    -0.246 OA
BRANCH  26  28
ATOM     28  C   UNL     1       4.716  -4.896  -0.375  1.00  0.00     0.060 A 
ATOM     29  C   UNL     1       5.918  -4.536   0.251  1.00  0.00     0.016 A 
ATOM     30  C   UNL     1       3.811  -5.741   0.276  1.00  0.00     0.016 A 
ATOM     31  C   UNL     1       6.225  -5.031   1.518  1.00  0.00     0.010 A 
ATOM     32  C   UNL     1       4.121  -6.244   1.541  1.00  0.00     0.010 A 
ATOM     33  C   UNL     1       5.341  -5.912   2.153  1.00  0.00    -0.014 A 
BRANCH  33  34
ATOM     34  C   UNL     1       5.782  -6.644   3.360  1.00  0.00     0.031 A 
ATOM     35  C   UNL     1       6.401  -7.998   3.174  1.00  0.00     0.074 A 
ATOM     36  C   UNL     1       5.648  -6.120   4.590  1.00  0.00     0.049 A 
ATOM     37  N   UNL     1       6.901  -8.810   4.069  1.00  0.00    -0.248 NA
ATOM     38  C   UNL     1       6.462  -8.506   1.793  1.00  0.00     0.031 C 
ATOM     39  C   UNL     1       5.077  -4.811   4.897  1.00  0.00     0.029 A 
ATOM     40  N   UNL     1       5.990  -6.638   5.814  1.00  0.00    -0.354 N 
ATOM     41  C   UNL     1       7.340  -9.919   3.358  1.00  0.00     0.074 A 
ATOM     42  C   UNL     1       7.010  -9.697   1.968  1.00  0.00     0.031 C 
ATOM     43  C   UNL     1       5.110  -4.626   6.229  1.00  0.00     0.029 A 
ATOM     44  C   UNL     1       5.689  -5.809   6.866  1.00  0.00     0.049 A 
ATOM     45  H   UNL     1       6.411  -7.521   5.928  1.00  0.00     0.167 HD
ATOM     46  C   UNL     1       7.973 -11.020   3.820  1.00  0.00     0.031 A 
ATOM     47  C   UNL     1       5.859  -5.987   8.191  1.00  0.00     0.031 A 
ATOM     48  C   UNL     1       8.279 -11.252   5.203  1.00  0.00     0.049 A 
ATOM     49  C   UNL     1       6.501  -7.252   8.695  1.00  0.00     0.074 A 
ATOM     50  C   UNL     1       8.951 -12.321   5.767  1.00  0.00     0.029 A 
ATOM     51  N   UNL     1       7.916 -10.408   6.240  1.00  0.00    -0.354 N 
ATOM     52  N   UNL     1       6.974  -8.264   8.009  1.00  0.00    -0.248 NA
ATOM     53  C   UNL     1       6.639  -7.398  10.152  1.00  0.00     0.031 C 
ATOM     54  C   UNL     1       8.940 -12.153   7.154  1.00  0.00     0.029 A 
ATOM     55  C   UNL     1       8.313 -10.952   7.447  1.00  0.00     0.049 A 
ATOM     56  H   UNL     1       7.445  -9.550   6.133  1.00  0.00     0.167 HD
ATOM     57  C   UNL     1       7.484  -9.156   8.945  1.00  0.00     0.074 A 
ATOM     58  C   UNL     1       7.266  -8.565  10.249  1.00  0.00     0.031 C 
ATOM     59  C   UNL     1       8.084 -10.354   8.738  1.00  0.00     0.031 A 
BRANCH  46  60
ATOM     60  C   UNL     1       8.345 -12.068   2.812  1.00  0.00    -0.014 A 
ATOM     61  C   UNL     1       9.377 -11.850   1.885  1.00  0.00     0.009 A 
ATOM     62  C   UNL     1       7.661 -13.293   2.796  1.00  0.00     0.009 A 
ATOM     63  C   UNL     1       9.690 -12.825   0.936  1.00  0.00     0.001 A 
ATOM     64  C   UNL     1       7.995 -14.276   1.865  1.00  0.00     0.001 A 
ATOM     65  C   UNL     1       9.001 -14.037   0.929  1.00  0.00     0.000 A 
ENDBRANCH  46  60
BRANCH  47  66
ATOM     66  C   UNL     1       5.428  -4.919   9.129  1.00  0.00    -0.014 A 
ATOM     67  C   UNL     1       6.375  -4.096   9.756  1.00  0.00     0.009 A 
ATOM     68  C   UNL     1       4.063  -4.684   9.362  1.00  0.00     0.009 A 
ATOM     69  C   UNL     1       5.964  -3.059  10.598  1.00  0.00     0.001 A 
ATOM     70  C   UNL     1       3.655  -3.633  10.188  1.00  0.00     0.001 A 
ATOM     71  C   UNL     1       4.606  -2.823  10.805  1.00  0.00     0.000 A 
ENDBRANCH  47  66
BRANCH  59  72
ATOM     72  C   UNL     1       8.566 -11.122   9.936  1.00  0.00    -0.014 A 
ATOM     73  C   UNL     1       7.669 -11.835  10.743  1.00  0.00     0.009 A 
ATOM     74  C   UNL     1       9.945 -11.244  10.174  1.00  0.00     0.009 A 
ATOM     75  C   UNL     1       8.144 -12.658  11.767  1.00  0.00     0.001 A 
ATOM     76  C   UNL     1      10.418 -12.085  11.182  1.00  0.00     0.001 A 
ATOM     77  C   UNL     1       9.517 -12.790  11.978  1.00  0.00     0.000 A 
ENDBRANCH  59  72
ENDBRANCH  33  34
ENDBRANCH  26  28
ENDBRANCH  25  26
ENDBRANCH  24  25
ENDBRANCH  23  24
ENDBRANCH  22  23
ENDBRANCH  21  22
ENDBRANCH   1  21
TORSDOF 19
