REMARK SMILES O=C(OCCOCCOC(=O)c1cc(-c2cccc(F)c2)nc2c(F)cccc12)c1ccc(-c2c3nc(c(-c4ccccc4)c4ccc([nH]4)c(-c4ccccc4)c4nc(c(-c5ccccc5)c5ccc2[nH]5)C=C4)C=C3)cc1
REMARK SMILES IDX 5 1 4 2 3 3 2 4 1 5 30 6 31 7 77 8 32 9 76 10 33 11 34 12
REMARK SMILES IDX 35 13 70 14 36 15 75 16 69 17 71 18 37 19 74 20 68 21 67 22
REMARK SMILES IDX 38 24 60 25 45 26 59 27 46 28 49 29 58 30 72 31 47 32 48 33
REMARK SMILES IDX 57 35 73 36 50 37 39 38 40 39 44 40 41 41 43 42 42 43 61 44
REMARK SMILES IDX 62 45 66 46 63 47 65 48 64 49 51 50 52 51 56 52 53 53 55 54
REMARK SMILES IDX 54 55 6 56 7 57 8 58 9 59 10 60 11 61 12 62 13 63 29 64
REMARK SMILES IDX 14 65 23 66 28 67 22 68 24 69 27 70 25 71 26 72 15 73 16 74
REMARK SMILES IDX 21 75 17 76 19 77 18 78 20 79
REMARK H PARENT 71 23 49 34
REMARK Flexibility Score: inf
ROOT
ATOM      1  C   UNL     1       4.308   0.569  -1.453  1.00  0.00     0.202 C 
ENDROOT
BRANCH   1   2
ATOM      2  C   UNL     1       3.972  -0.893  -1.149  1.00  0.00     0.261 C 
BRANCH   2   3
ATOM      3  O   UNL     1       2.601  -1.015  -0.737  1.00  0.00    -0.460 OA
BRANCH   3   4
ATOM      4  C   UNL     1       2.103  -1.199   0.506  1.00  0.00     0.338 C 
ATOM      5  O   UNL     1       0.889  -1.356   0.631  1.00  0.00    -0.246 OA
BRANCH   4   6
ATOM      6  C   UNL     1       2.932  -1.209   1.752  1.00  0.00     0.060 A 
ATOM      7  C   UNL     1       4.167  -0.578   1.902  1.00  0.00     0.016 A 
ATOM      8  C   UNL     1       2.366  -1.817   2.887  1.00  0.00     0.016 A 
ATOM      9  C   UNL     1       4.840  -0.568   3.114  1.00  0.00     0.010 A 
ATOM     10  C   UNL     1       3.023  -1.794   4.121  1.00  0.00     0.010 A 
ATOM     11  C   UNL     1       4.269  -1.172   4.229  1.00  0.00    -0.014 A 
BRANCH  11  12
ATOM     12  C   UNL     1       5.073  -1.214   5.459  1.00  0.00     0.031 A 
ATOM     13  C   UNL     1       5.829  -2.467   5.766  1.00  0.00     0.074 A 
ATOM     14  C   UNL     1       5.241  -0.089   6.175  1.00  0.00     0.049 A 
ATOM     15  N   UNL     1       6.615  -2.731   6.773  1.00  0.00    -0.248 NA
ATOM     16  C   UNL     1       5.700  -3.565   4.791  1.00  0.00     0.031 C 
ATOM     17  C   UNL     1       4.651   1.213   5.852  1.00  0.00     0.029 A 
ATOM     18  N   UNL     1       5.991   0.152   7.293  1.00  0.00    -0.354 N 
ATOM     19  C   UNL     1       7.065  -4.027   6.561  1.00  0.00     0.074 A 
ATOM     20  C   UNL     1       6.462  -4.500   5.337  1.00  0.00     0.031 C 
ATOM     21  C   UNL     1       5.087   2.123   6.739  1.00  0.00     0.029 A 
ATOM     22  C   UNL     1       5.929   1.455   7.724  1.00  0.00     0.049 A 
ATOM     23  H   UNL     1       6.523  -0.542   7.746  1.00  0.00     0.167 HD
ATOM     24  C   UNL     1       7.902  -4.755   7.334  1.00  0.00     0.031 A 
ATOM     25  C   UNL     1       6.475   2.026   8.813  1.00  0.00     0.031 A 
ATOM     26  C   UNL     1       8.459  -4.269   8.565  1.00  0.00     0.049 A 
ATOM     27  C   UNL     1       7.296   1.154   9.724  1.00  0.00     0.074 A 
ATOM     28  C   UNL     1       9.232  -4.938   9.494  1.00  0.00     0.029 A 
ATOM     29  N   UNL     1       8.291  -2.972   9.034  1.00  0.00    -0.354 N 
ATOM     30  N   UNL     1       7.650  -0.101   9.567  1.00  0.00    -0.248 NA
ATOM     31  C   UNL     1       7.780   1.768  10.966  1.00  0.00     0.031 C 
ATOM     32  C   UNL     1       9.496  -4.055  10.548  1.00  0.00     0.029 A 
ATOM     33  C   UNL     1       8.933  -2.823  10.248  1.00  0.00     0.049 A 
ATOM     34  H   UNL     1       7.789  -2.264   8.570  1.00  0.00     0.167 HD
ATOM     35  C   UNL     1       8.406  -0.425  10.684  1.00  0.00     0.074 A 
ATOM     36  C   UNL     1       8.481   0.775  11.496  1.00  0.00     0.031 C 
ATOM     37  C   UNL     1       8.980  -1.607  11.019  1.00  0.00     0.031 A 
BRANCH  24  38
ATOM     38  C   UNL     1       8.171  -6.164   6.894  1.00  0.00    -0.014 A 
ATOM     39  C   UNL     1       8.994  -6.444   5.790  1.00  0.00     0.009 A 
ATOM     40  C   UNL     1       7.544  -7.228   7.561  1.00  0.00     0.009 A 
ATOM     41  C   UNL     1       9.149  -7.758   5.340  1.00  0.00     0.001 A 
ATOM     42  C   UNL     1       7.720  -8.541   7.123  1.00  0.00     0.001 A 
ATOM     43  C   UNL     1       8.512  -8.804   6.007  1.00  0.00     0.000 A 
ENDBRANCH  24  38
BRANCH  25  44
ATOM     44  C   UNL     1       6.210   3.454   9.136  1.00  0.00    -0.014 A 
ATOM     45  C   UNL     1       7.247   4.399   9.155  1.00  0.00     0.009 A 
ATOM     46  C   UNL     1       4.908   3.877   9.453  1.00  0.00     0.009 A 
ATOM     47  C   UNL     1       6.989   5.727   9.509  1.00  0.00     0.001 A 
ATOM     48  C   UNL     1       4.648   5.211   9.775  1.00  0.00     0.001 A 
ATOM     49  C   UNL     1       5.690   6.133   9.814  1.00  0.00     0.000 A 
ENDBRANCH  25  44
BRANCH  37  50
ATOM     50  C   UNL     1       9.758  -1.635  12.301  1.00  0.00    -0.014 A 
ATOM     51  C   UNL     1       9.107  -1.647  13.543  1.00  0.00     0.009 A 
ATOM     52  C   UNL     1      11.159  -1.696  12.258  1.00  0.00     0.009 A 
ATOM     53  C   UNL     1       9.849  -1.689  14.723  1.00  0.00     0.001 A 
ATOM     54  C   UNL     1      11.896  -1.767  13.439  1.00  0.00     0.001 A 
ATOM     55  C   UNL     1      11.242  -1.755  14.670  1.00  0.00     0.000 A 
ENDBRANCH  37  50
ENDBRANCH  11  12
ENDBRANCH   4   6
ENDBRANCH   3   4
ENDBRANCH   2   3
ENDBRANCH   1   2
BRANCH   1  56
ATOM     56  O   UNL     1       4.158   1.449  -0.339  1.00  0.00    -0.374 OA
BRANCH  56  57
ATOM     57  C   UNL     1       2.848   2.000  -0.156  1.00  0.00     0.202 C 
BRANCH  57  58
ATOM     58  C   UNL     1       2.963   3.520  -0.062  1.00  0.00     0.261 C 
BRANCH  58  59
ATOM     59  O   UNL     1       3.472   3.990  -1.318  1.00  0.00    -0.460 OA
BRANCH  59  60
ATOM     60  C   UNL     1       4.819   4.125  -1.404  1.00  0.00     0.338 C 
ATOM     61  O   UNL     1       5.622   4.170  -0.489  1.00  0.00    -0.246 OA
BRANCH  60  62
ATOM     62  C   UNL     1       5.192   3.956  -2.825  1.00  0.00     0.071 A 
ATOM     63  C   UNL     1       6.202   3.023  -3.075  1.00  0.00     0.045 A 
ATOM     64  C   UNL     1       4.506   4.595  -3.882  1.00  0.00     0.018 A 
ATOM     65  C   UNL     1       6.470   2.690  -4.386  1.00  0.00     0.072 A 
ATOM     66  C   UNL     1       4.865   4.198  -5.183  1.00  0.00     0.107 A 
ATOM     67  C   UNL     1       3.504   5.589  -3.711  1.00  0.00     0.011 A 
ATOM     68  N   UNL     1       5.818   3.267  -5.418  1.00  0.00    -0.245 NA
ATOM     69  C   UNL     1       4.188   4.790  -6.250  1.00  0.00     0.149 A 
ATOM     70  C   UNL     1       2.844   6.152  -4.798  1.00  0.00     0.004 A 
ATOM     71  F   UNL     1       4.491   4.434  -7.510  1.00  0.00    -0.205 F 
ATOM     72  C   UNL     1       3.188   5.747  -6.076  1.00  0.00     0.041 A 
BRANCH  65  73
ATOM     73  C   UNL     1       7.434   1.651  -4.751  1.00  0.00     0.003 A 
ATOM     74  C   UNL     1       8.688   1.994  -5.285  1.00  0.00     0.010 A 
ATOM     75  C   UNL     1       7.121   0.291  -4.608  1.00  0.00     0.049 A 
ATOM     76  C   UNL     1       9.608   1.007  -5.657  1.00  0.00     0.004 A 
ATOM     77  C   UNL     1       8.041  -0.684  -4.985  1.00  0.00     0.123 A 
ATOM     78  C   UNL     1       9.282  -0.339  -5.506  1.00  0.00     0.039 A 
ATOM     79  F   UNL     1       7.722  -1.978  -4.846  1.00  0.00    -0.207 F 
ENDBRANCH  65  73
ENDBRANCH  60  62
ENDBRANCH  59  60
ENDBRANCH  58  59
ENDBRANCH  57  58
ENDBRANCH  56  57
ENDBRANCH   1  56
TORSDOF 15
