REMARK SMILES CCn1c(C)cc(/C=C(/C(=O)OCCOCCOC(=O)c2ccc(-c3c4nc(c(-c5ccccc5)c5ccc([nH]5)c(-c5ccccc5)c5nc(c(-c6ccccc6)c6ccc3[nH]6)C=C5)C=C4)cc2)c2ccccc2)c1C
REMARK SMILES IDX 15 1 14 2 13 3 12 4 10 5 11 6 9 7 8 8 7 9 3 10 4 11 75 12
REMARK SMILES IDX 5 13 6 14 76 15 2 16 1 17 69 18 70 19 74 20 71 21 73 22
REMARK SMILES IDX 72 23 16 24 17 25 18 26 19 27 20 28 21 29 22 30 68 31 23 32
REMARK SMILES IDX 67 33 24 34 25 35 26 36 61 37 27 38 66 39 60 40 62 41 28 42
REMARK SMILES IDX 65 43 59 44 58 45 29 47 51 48 36 49 50 50 37 51 40 52 49 53
REMARK SMILES IDX 63 54 38 55 39 56 48 58 64 59 41 60 30 61 31 62 35 63 32 64
REMARK SMILES IDX 34 65 33 66 52 67 53 68 57 69 54 70 56 71 55 72 42 73 43 74
REMARK SMILES IDX 47 75 44 76 46 77 45 78
REMARK H PARENT 62 46 40 57
REMARK Flexibility Score: inf
ROOT
ATOM      1  O   UNL     1      -0.634  -9.305   1.354  1.00  0.00    -0.374 OA
ENDROOT
BRANCH   1   2
ATOM      2  C   UNL     1      -0.190 -10.033   0.213  1.00  0.00     0.202 C 
BRANCH   2   3
ATOM      3  C   UNL     1      -0.620  -9.433  -1.136  1.00  0.00     0.261 C 
BRANCH   3   4
ATOM      4  O   UNL     1      -0.290  -8.034  -1.221  1.00  0.00    -0.460 OA
BRANCH   4   5
ATOM      5  C   UNL     1      -1.292  -7.221  -1.617  1.00  0.00     0.338 C 
ATOM      6  O   UNL     1      -2.362  -7.611  -2.124  1.00  0.00    -0.246 OA
BRANCH   5   7
ATOM      7  C   UNL     1      -1.041  -5.780  -1.295  1.00  0.00     0.067 C 
ATOM      8  C   UNL     1       0.197  -5.275  -1.510  1.00  0.00     0.026 C 
BRANCH   8   9
ATOM      9  C   UNL     1       0.786  -3.951  -1.475  1.00  0.00    -0.004 A 
ATOM     10  N   UNL     1       1.287  -1.758  -1.431  1.00  0.00    -0.349 N 
ATOM     11  C   UNL     1       2.402  -2.390  -1.926  1.00  0.00     0.015 A 
ATOM     12  C   UNL     1       0.324  -2.698  -1.080  1.00  0.00     0.022 A 
ATOM     13  C   UNL     1       3.625  -1.669  -2.370  1.00  0.00     0.064 C 
ATOM     14  C   UNL     1       2.121  -3.739  -1.946  1.00  0.00     0.031 A 
ATOM     15  C   UNL     1      -0.931  -2.236  -0.431  1.00  0.00     0.065 C 
BRANCH  10  16
ATOM     16  C   UNL     1       1.109  -0.310  -1.356  1.00  0.00     0.118 C 
ATOM     17  C   UNL     1       1.419   0.260   0.019  1.00  0.00     0.027 C 
ENDBRANCH  10  16
ENDBRANCH   8   9
BRANCH   7  18
ATOM     18  C   UNL     1      -2.223  -5.024  -0.863  1.00  0.00    -0.011 A 
ATOM     19  C   UNL     1      -2.581  -5.002   0.494  1.00  0.00     0.009 A 
ATOM     20  C   UNL     1      -3.013  -4.345  -1.797  1.00  0.00     0.009 A 
ATOM     21  C   UNL     1      -3.658  -4.222   0.921  1.00  0.00     0.001 A 
ATOM     22  C   UNL     1      -4.093  -3.571  -1.367  1.00  0.00     0.001 A 
ATOM     23  C   UNL     1      -4.400  -3.492  -0.008  1.00  0.00     0.000 A 
ENDBRANCH   7  18
ENDBRANCH   5   7
ENDBRANCH   4   5
ENDBRANCH   3   4
ENDBRANCH   2   3
ENDBRANCH   1   2
BRANCH   1  24
ATOM     24  C   UNL     1       0.165  -8.172   1.733  1.00  0.00     0.202 C 
BRANCH  24  25
ATOM     25  C   UNL     1       1.418  -8.482   2.595  1.00  0.00     0.261 C 
BRANCH  25  26
ATOM     26  O   UNL     1       2.744  -8.388   1.951  1.00  0.00    -0.460 OA
BRANCH  26  27
ATOM     27  C   UNL     1       3.667  -9.329   2.333  1.00  0.00     0.338 C 
ATOM     28  O   UNL     1       3.354 -10.396   2.876  1.00  0.00    -0.246 OA
BRANCH  27  29
ATOM     29  C   UNL     1       5.140  -9.039   2.054  1.00  0.00     0.060 A 
ATOM     30  C   UNL     1       5.789  -9.756   1.061  1.00  0.00     0.016 A 
ATOM     31  C   UNL     1       5.999  -8.335   2.931  1.00  0.00     0.016 A 
ATOM     32  C   UNL     1       7.220  -9.734   0.937  1.00  0.00     0.010 A 
ATOM     33  C   UNL     1       7.472  -8.372   2.838  1.00  0.00     0.010 A 
ATOM     34  C   UNL     1       8.151  -9.095   1.841  1.00  0.00    -0.014 A 
BRANCH  34  35
ATOM     35  C   UNL     1       9.692  -9.634   1.817  1.00  0.00     0.031 A 
ATOM     36  C   UNL     1       9.534 -11.093   1.575  1.00  0.00     0.074 A 
ATOM     37  C   UNL     1      11.034  -9.316   2.064  1.00  0.00     0.049 A 
ATOM     38  N   UNL     1       8.827 -11.803   2.403  1.00  0.00    -0.248 NA
ATOM     39  C   UNL     1       9.820 -11.736   0.293  1.00  0.00     0.031 C 
ATOM     40  C   UNL     1      11.606  -8.058   2.573  1.00  0.00     0.029 A 
ATOM     41  N   UNL     1      12.251 -10.077   1.912  1.00  0.00    -0.354 N 
ATOM     42  C   UNL     1       8.810 -13.073   1.892  1.00  0.00     0.074 A 
ATOM     43  C   UNL     1       9.238 -12.921   0.509  1.00  0.00     0.031 C 
ATOM     44  C   UNL     1      12.974  -8.075   2.556  1.00  0.00     0.029 A 
ATOM     45  C   UNL     1      13.489  -9.363   2.091  1.00  0.00     0.049 A 
ATOM     46  H   UNL     1      12.235 -11.038   1.696  1.00  0.00     0.167 HD
ATOM     47  C   UNL     1       9.076 -14.083   2.767  1.00  0.00     0.031 A 
ATOM     48  C   UNL     1      14.819  -9.760   1.959  1.00  0.00     0.031 A 
ATOM     49  C   UNL     1      10.381 -14.647   2.556  1.00  0.00     0.049 A 
ATOM     50  C   UNL     1      14.874 -11.217   2.150  1.00  0.00     0.074 A 
ATOM     51  C   UNL     1      11.087 -15.024   1.431  1.00  0.00     0.029 A 
ATOM     52  N   UNL     1      11.307 -14.456   3.559  1.00  0.00    -0.354 N 
ATOM     53  N   UNL     1      14.873 -11.722   3.345  1.00  0.00    -0.248 NA
ATOM     54  C   UNL     1      15.149 -12.167   1.077  1.00  0.00     0.031 C 
ATOM     55  C   UNL     1      12.410 -14.582   1.660  1.00  0.00     0.029 A 
ATOM     56  C   UNL     1      12.547 -14.233   2.998  1.00  0.00     0.049 A 
ATOM     57  H   UNL     1      11.113 -14.474   4.525  1.00  0.00     0.167 HD
ATOM     58  C   UNL     1      14.607 -13.037   3.130  1.00  0.00     0.074 A 
ATOM     59  C   UNL     1      15.074 -13.299   1.782  1.00  0.00     0.031 C 
ATOM     60  C   UNL     1      13.536 -13.541   3.791  1.00  0.00     0.031 A 
BRANCH  47  61
ATOM     61  C   UNL     1       8.442 -13.914   4.124  1.00  0.00    -0.014 A 
ATOM     62  C   UNL     1       7.389 -14.755   4.496  1.00  0.00     0.009 A 
ATOM     63  C   UNL     1       8.770 -12.837   4.976  1.00  0.00     0.009 A 
ATOM     64  C   UNL     1       6.637 -14.477   5.644  1.00  0.00     0.001 A 
ATOM     65  C   UNL     1       7.996 -12.537   6.095  1.00  0.00     0.001 A 
ATOM     66  C   UNL     1       6.921 -13.354   6.423  1.00  0.00     0.000 A 
ENDBRANCH  47  61
BRANCH  48  67
ATOM     67  C   UNL     1      16.287  -9.249   1.924  1.00  0.00    -0.014 A 
ATOM     68  C   UNL     1      17.327 -10.039   2.526  1.00  0.00     0.009 A 
ATOM     69  C   UNL     1      16.747  -8.300   1.004  1.00  0.00     0.009 A 
ATOM     70  C   UNL     1      18.683  -9.986   2.150  1.00  0.00     0.001 A 
ATOM     71  C   UNL     1      18.127  -8.214   0.654  1.00  0.00     0.001 A 
ATOM     72  C   UNL     1      19.084  -9.077   1.193  1.00  0.00     0.000 A 
ENDBRANCH  48  67
BRANCH  60  73
ATOM     73  C   UNL     1      13.314 -13.067   5.224  1.00  0.00    -0.014 A 
ATOM     74  C   UNL     1      13.396 -11.726   5.665  1.00  0.00     0.009 A 
ATOM     75  C   UNL     1      13.044 -14.036   6.200  1.00  0.00     0.009 A 
ATOM     76  C   UNL     1      13.289 -11.380   7.017  1.00  0.00     0.001 A 
ATOM     77  C   UNL     1      12.883 -13.686   7.547  1.00  0.00     0.001 A 
ATOM     78  C   UNL     1      13.025 -12.363   7.959  1.00  0.00     0.000 A 
ENDBRANCH  60  73
ENDBRANCH  34  35
ENDBRANCH  27  29
ENDBRANCH  26  27
ENDBRANCH  25  26
ENDBRANCH  24  25
ENDBRANCH   1  24
TORSDOF 17
