REMARK SMILES CC(=O)N1C[C@@H]2C[N@H+](CC(=O)NCc3ccccc3)C[C@]2(C(=O)OCCOCCOC(=O)c2ccc(-c3c4nc(c(-c5ccccc5)c5ccc([nH]5)c(-c5ccccc5)c5nc(c(-c6ccccc6)c6ccc3[nH]6)C=C5)C=C4)cc2)C1
REMARK SMILES IDX 26 1 25 2 24 3 22 4 23 5 21 6 4 7 5 8 81 9 6 10 7 11 20 12
REMARK SMILES IDX 8 13 2 15 1 16 3 17 9 18 10 19 11 20 12 21 13 23 14 24 15 25
REMARK SMILES IDX 19 26 16 27 18 28 17 29 27 30 28 31 29 32 30 33 31 34 32 35
REMARK SMILES IDX 33 36 34 37 80 38 35 39 79 40 36 41 37 42 38 43 73 44 39 45
REMARK SMILES IDX 78 46 72 47 74 48 40 49 77 50 71 51 70 52 41 54 63 55 48 56
REMARK SMILES IDX 62 57 49 58 52 59 61 60 75 61 50 62 51 63 60 65 76 66 53 67
REMARK SMILES IDX 42 68 43 69 47 70 44 71 46 72 45 73 64 74 65 75 69 76 66 77
REMARK SMILES IDX 68 78 67 79 54 80 55 81 59 82 56 83 58 84 57 85
REMARK H PARENT 8 14 12 22 74 53 52 64
REMARK Flexibility Score: inf
ROOT
ATOM      1  C   UNL     1       6.466  -2.391   3.379  1.00  0.00     0.202 C 
ENDROOT
BRANCH   1   2
ATOM      2  C   UNL     1       5.420  -2.034   4.432  1.00  0.00     0.261 C 
BRANCH   2   3
ATOM      3  O   UNL     1       3.996  -2.219   4.196  1.00  0.00    -0.463 OA
BRANCH   3   4
ATOM      4  C   UNL     1       3.264  -3.240   3.646  1.00  0.00     0.320 C 
ATOM      5  O   UNL     1       3.675  -4.207   3.030  1.00  0.00    -0.251 OA
BRANCH   4   6
ATOM      6  C   UNL     1       1.787  -2.981   4.046  1.00  0.00     0.144 C 
ATOM      7  N   UNL     1       0.073  -2.351   2.464  1.00  0.00    -0.341 N 
ATOM      8  C   UNL     1      -0.669  -2.674   3.643  1.00  0.00     0.130 C 
ATOM      9  C   UNL     1       1.374  -3.030   2.519  1.00  0.00     0.144 C 
ATOM     10  C   UNL     1       0.325  -3.498   4.428  1.00  0.00     0.089 C 
ATOM     11  C   UNL     1       0.108  -3.334   5.933  1.00  0.00     0.269 C 
ATOM     12  C   UNL     1       2.238  -3.749   5.359  1.00  0.00     0.284 C 
ATOM     13  N   UNL     1       1.457  -3.059   6.406  1.00  0.00    -0.326 N 
ATOM     14  H   UNL     1       1.615  -3.368   7.365  1.00  0.00     0.348 HD
BRANCH   7  15
ATOM     15  C   UNL     1      -0.254  -1.215   1.750  1.00  0.00     0.219 C 
ATOM     16  C   UNL     1       0.238  -1.126   0.335  1.00  0.00     0.114 C 
ATOM     17  O   UNL     1      -0.996  -0.341   2.202  1.00  0.00    -0.275 OA
ENDBRANCH   7  15
BRANCH  13  18
ATOM     18  C   UNL     1       1.820  -1.585   6.503  1.00  0.00     0.363 C 
BRANCH  18  19
ATOM     19  C   UNL     1       0.995  -0.593   5.640  1.00  0.00     0.275 C 
ATOM     20  O   UNL     1      -0.160  -0.308   5.978  1.00  0.00    -0.268 OA
ATOM     21  N   UNL     1       1.433  -0.058   4.455  1.00  0.00    -0.347 N 
ATOM     22  H   UNL     1       0.754  -0.025   3.743  1.00  0.00     0.164 HD
BRANCH  21  23
ATOM     23  C   UNL     1       2.738   0.469   4.076  1.00  0.00     0.151 C 
BRANCH  23  24
ATOM     24  C   UNL     1       2.989   0.532   2.571  1.00  0.00    -0.029 A 
ATOM     25  C   UNL     1       2.463   1.573   1.800  1.00  0.00     0.005 A 
ATOM     26  C   UNL     1       3.773  -0.403   1.876  1.00  0.00     0.005 A 
ATOM     27  C   UNL     1       2.711   1.654   0.417  1.00  0.00     0.000 A 
ATOM     28  C   UNL     1       4.005  -0.352   0.499  1.00  0.00     0.000 A 
ATOM     29  C   UNL     1       3.473   0.687  -0.236  1.00  0.00     0.000 A 
ENDBRANCH  23  24
ENDBRANCH  21  23
ENDBRANCH  18  19
ENDBRANCH  13  18
ENDBRANCH   4   6
ENDBRANCH   3   4
ENDBRANCH   2   3
ENDBRANCH   1   2
BRANCH   1  30
ATOM     30  O   UNL     1       6.125  -3.493   2.568  1.00  0.00    -0.374 OA
BRANCH  30  31
ATOM     31  C   UNL     1       6.761  -4.724   2.908  1.00  0.00     0.202 C 
BRANCH  31  32
ATOM     32  C   UNL     1       6.215  -5.429   4.162  1.00  0.00     0.261 C 
BRANCH  32  33
ATOM     33  O   UNL     1       6.340  -4.669   5.379  1.00  0.00    -0.460 OA
BRANCH  33  34
ATOM     34  C   UNL     1       7.606  -4.519   5.830  1.00  0.00     0.338 C 
ATOM     35  O   UNL     1       8.614  -4.974   5.332  1.00  0.00    -0.246 OA
BRANCH  34  36
ATOM     36  C   UNL     1       7.626  -3.562   6.958  1.00  0.00     0.060 A 
ATOM     37  C   UNL     1       8.549  -2.513   6.893  1.00  0.00     0.016 A 
ATOM     38  C   UNL     1       6.836  -3.742   8.098  1.00  0.00     0.016 A 
ATOM     39  C   UNL     1       8.765  -1.706   8.008  1.00  0.00     0.010 A 
ATOM     40  C   UNL     1       7.060  -2.935   9.222  1.00  0.00     0.010 A 
ATOM     41  C   UNL     1       8.073  -1.960   9.200  1.00  0.00    -0.014 A 
BRANCH  41  42
ATOM     42  C   UNL     1       8.606  -1.381  10.459  1.00  0.00     0.031 A 
ATOM     43  C   UNL     1       9.553  -2.217  11.283  1.00  0.00     0.074 A 
ATOM     44  C   UNL     1       8.344  -0.113  10.820  1.00  0.00     0.049 A 
ATOM     45  N   UNL     1      10.216  -1.900  12.367  1.00  0.00    -0.248 NA
ATOM     46  C   UNL     1       9.793  -3.592  10.814  1.00  0.00     0.031 C 
ATOM     47  C   UNL     1       7.490   0.818  10.086  1.00  0.00     0.029 A 
ATOM     48  N   UNL     1       8.791   0.614  11.895  1.00  0.00    -0.354 N 
ATOM     49  C   UNL     1      10.950  -3.032  12.704  1.00  0.00     0.074 A 
ATOM     50  C   UNL     1      10.626  -4.053  11.733  1.00  0.00     0.031 C 
ATOM     51  C   UNL     1       7.480   1.999  10.730  1.00  0.00     0.029 A 
ATOM     52  C   UNL     1       8.310   1.899  11.930  1.00  0.00     0.049 A 
ATOM     53  H   UNL     1       9.399   0.247  12.577  1.00  0.00     0.167 HD
ATOM     54  C   UNL     1      11.826  -3.207  13.721  1.00  0.00     0.031 A 
ATOM     55  C   UNL     1       8.515   2.882  12.829  1.00  0.00     0.031 A 
ATOM     56  C   UNL     1      12.138  -2.205  14.703  1.00  0.00     0.049 A 
ATOM     57  C   UNL     1       9.433   2.638  13.998  1.00  0.00     0.074 A 
ATOM     58  C   UNL     1      13.008  -2.288  15.776  1.00  0.00     0.029 A 
ATOM     59  N   UNL     1      11.582  -0.936  14.733  1.00  0.00    -0.354 N 
ATOM     60  N   UNL     1      10.139   1.571  14.290  1.00  0.00    -0.248 NA
ATOM     61  C   UNL     1       9.594   3.743  14.955  1.00  0.00     0.031 C 
ATOM     62  C   UNL     1      12.939  -1.085  16.487  1.00  0.00     0.029 A 
ATOM     63  C   UNL     1      12.073  -0.233  15.820  1.00  0.00     0.049 A 
ATOM     64  H   UNL     1      10.935  -0.586  14.079  1.00  0.00     0.167 HD
ATOM     65  C   UNL     1      10.849   1.888  15.442  1.00  0.00     0.074 A 
ATOM     66  C   UNL     1      10.500   3.251  15.787  1.00  0.00     0.031 C 
ATOM     67  C   UNL     1      11.716   1.122  16.150  1.00  0.00     0.031 A 
BRANCH  54  68
ATOM     68  C   UNL     1      12.481  -4.556  13.839  1.00  0.00    -0.014 A 
ATOM     69  C   UNL     1      13.464  -4.972  12.927  1.00  0.00     0.009 A 
ATOM     70  C   UNL     1      12.119  -5.416  14.887  1.00  0.00     0.009 A 
ATOM     71  C   UNL     1      14.046  -6.237  13.043  1.00  0.00     0.001 A 
ATOM     72  C   UNL     1      12.721  -6.668  15.017  1.00  0.00     0.001 A 
ATOM     73  C   UNL     1      13.677  -7.081  14.089  1.00  0.00     0.000 A 
ENDBRANCH  54  68
BRANCH  55  74
ATOM     74  C   UNL     1       7.834   4.194  12.669  1.00  0.00    -0.014 A 
ATOM     75  C   UNL     1       8.564   5.351  12.357  1.00  0.00     0.009 A 
ATOM     76  C   UNL     1       6.447   4.298  12.857  1.00  0.00     0.009 A 
ATOM     77  C   UNL     1       7.922   6.589  12.262  1.00  0.00     0.001 A 
ATOM     78  C   UNL     1       5.804   5.532  12.733  1.00  0.00     0.001 A 
ATOM     79  C   UNL     1       6.543   6.677  12.445  1.00  0.00     0.000 A 
ENDBRANCH  55  74
BRANCH  67  80
ATOM     80  C   UNL     1      12.379   1.754  17.343  1.00  0.00    -0.014 A 
ATOM     81  C   UNL     1      11.666   2.021  18.522  1.00  0.00     0.009 A 
ATOM     82  C   UNL     1      13.749   2.055  17.294  1.00  0.00     0.009 A 
ATOM     83  C   UNL     1      12.304   2.615  19.613  1.00  0.00     0.001 A 
ATOM     84  C   UNL     1      14.391   2.621  18.396  1.00  0.00     0.001 A 
ATOM     85  C   UNL     1      13.665   2.910  19.551  1.00  0.00     0.000 A 
ENDBRANCH  67  80
ENDBRANCH  41  42
ENDBRANCH  34  36
ENDBRANCH  33  34
ENDBRANCH  32  33
ENDBRANCH  31  32
ENDBRANCH  30  31
ENDBRANCH   1  30
TORSDOF 19
