REMARK SMILES C[NH2+][C@]1(C(=O)OCCOCCOC(=O)c2ccc(-c3c4nc(c(-c5ccccc5)c5ccc([nH]5)c(-c5ccccc5)c5nc(c(-c6ccccc6)c6ccc3[nH]6)C=C5)C=C4)cc2)CCC[C@@H](Sc2nncs2)C1
REMARK SMILES IDX 9 1 8 2 7 3 6 4 4 5 5 6 3 7 63 8 73 9 64 10 66 11 65 12 2 13
REMARK SMILES IDX 1 14 67 17 68 18 69 19 72 20 70 21 71 22 10 23 11 24 12 25
REMARK SMILES IDX 13 26 14 27 15 28 16 29 62 30 17 31 61 32 18 33 19 34 20 35
REMARK SMILES IDX 55 36 21 37 60 38 54 39 56 40 22 41 59 42 53 43 52 44 23 46
REMARK SMILES IDX 45 47 30 48 44 49 31 50 34 51 43 52 57 53 32 54 33 55 42 57
REMARK SMILES IDX 58 58 35 59 24 60 25 61 29 62 26 63 28 64 27 65 46 66 47 67
REMARK SMILES IDX 51 68 48 69 50 70 49 71 36 72 37 73 41 74 38 75 40 76 39 77
REMARK H PARENT 2 15 2 16 56 45 34 56
REMARK Flexibility Score: inf
ROOT
ATOM      1  O   UNL     1       2.884  -0.375  -0.189  1.00  0.00    -0.374 OA
ENDROOT
BRANCH   1   2
ATOM      2  C   UNL     1       3.375   0.135   1.046  1.00  0.00     0.202 C 
BRANCH   2   3
ATOM      3  C   UNL     1       2.581   1.260   1.717  1.00  0.00     0.261 C 
BRANCH   3   4
ATOM      4  O   UNL     1       1.176   0.988   1.783  1.00  0.00    -0.459 OA
BRANCH   4   5
ATOM      5  C   UNL     1       0.384   1.838   1.069  1.00  0.00     0.368 C 
ATOM      6  O   UNL     1       0.799   2.851   0.511  1.00  0.00    -0.245 OA
BRANCH   5   7
ATOM      7  C   UNL     1      -1.123   1.418   1.061  1.00  0.00     0.195 C 
ATOM      8  C   UNL     1      -1.390   0.132   1.888  1.00  0.00     0.081 C 
ATOM      9  C   UNL     1      -1.870   2.604   1.719  1.00  0.00     0.096 C 
ATOM     10  C   UNL     1      -2.876  -0.158   2.100  1.00  0.00     0.008 C 
ATOM     11  C   UNL     1      -3.331   2.329   2.093  1.00  0.00     0.061 C 
ATOM     12  C   UNL     1      -3.549   1.000   2.824  1.00  0.00     0.015 C 
BRANCH   7  13
ATOM     13  N   UNL     1      -1.614   1.113  -0.320  1.00  0.00    -0.335 N 
ATOM     14  C   UNL     1      -1.105   1.965  -1.388  1.00  0.00     0.331 C 
ATOM     15  H   UNL     1      -1.352   0.152  -0.538  1.00  0.00     0.347 HD
ATOM     16  H   UNL     1      -2.620   1.280  -0.294  1.00  0.00     0.347 HD
ENDBRANCH   7  13
BRANCH  11  17
ATOM     17  S   UNL     1      -4.078   3.729   3.021  1.00  0.00    -0.090 SA
BRANCH  17  18
ATOM     18  C   UNL     1      -3.304   3.612   4.587  1.00  0.00     0.174 A 
ATOM     19  N   UNL     1      -1.999   3.532   4.734  1.00  0.00    -0.132 NA
ATOM     20  S   UNL     1      -4.178   3.577   6.063  1.00  0.00    -0.094 S 
ATOM     21  N   UNL     1      -1.623   3.408   6.056  1.00  0.00    -0.146 NA
ATOM     22  C   UNL     1      -2.666   3.419   6.857  1.00  0.00     0.203 A 
ENDBRANCH  17  18
ENDBRANCH  11  17
ENDBRANCH   5   7
ENDBRANCH   4   5
ENDBRANCH   3   4
ENDBRANCH   2   3
ENDBRANCH   1   2
BRANCH   1  23
ATOM     23  C   UNL     1       1.699  -1.174  -0.162  1.00  0.00     0.202 C 
BRANCH  23  24
ATOM     24  C   UNL     1       1.760  -2.506   0.598  1.00  0.00     0.261 C 
BRANCH  24  25
ATOM     25  O   UNL     1       1.933  -2.334   2.019  1.00  0.00    -0.460 OA
BRANCH  25  26
ATOM     26  C   UNL     1       2.997  -2.989   2.542  1.00  0.00     0.338 C 
ATOM     27  O   UNL     1       3.758  -3.752   1.964  1.00  0.00    -0.246 OA
BRANCH  26  28
ATOM     28  C   UNL     1       3.257  -2.539   3.920  1.00  0.00     0.060 A 
ATOM     29  C   UNL     1       4.491  -1.929   4.184  1.00  0.00     0.016 A 
ATOM     30  C   UNL     1       2.373  -2.833   4.960  1.00  0.00     0.016 A 
ATOM     31  C   UNL     1       4.866  -1.653   5.497  1.00  0.00     0.010 A 
ATOM     32  C   UNL     1       2.757  -2.565   6.279  1.00  0.00     0.010 A 
ATOM     33  C   UNL     1       4.020  -2.009   6.555  1.00  0.00    -0.014 A 
BRANCH  33  34
ATOM     34  C   UNL     1       4.528  -1.938   7.947  1.00  0.00     0.031 A 
ATOM     35  C   UNL     1       5.077  -3.182   8.591  1.00  0.00     0.074 A 
ATOM     36  C   UNL     1       4.543  -0.773   8.617  1.00  0.00     0.049 A 
ATOM     37  N   UNL     1       5.570  -3.346   9.793  1.00  0.00    -0.248 NA
ATOM     38  C   UNL     1       5.072  -4.404   7.770  1.00  0.00     0.031 C 
ATOM     39  C   UNL     1       4.085   0.512   8.092  1.00  0.00     0.029 A 
ATOM     40  N   UNL     1       4.964  -0.487   9.892  1.00  0.00    -0.354 N 
ATOM     41  C   UNL     1       5.933  -4.685   9.872  1.00  0.00     0.074 A 
ATOM     42  C   UNL     1       5.577  -5.296   8.609  1.00  0.00     0.031 C 
ATOM     43  C   UNL     1       4.247   1.452   9.040  1.00  0.00     0.029 A 
ATOM     44  C   UNL     1       4.792   0.829  10.245  1.00  0.00     0.049 A 
ATOM     45  H   UNL     1       5.353  -1.161  10.495  1.00  0.00     0.167 HD
ATOM     46  C   UNL     1       6.515  -5.347  10.900  1.00  0.00     0.031 A 
ATOM     47  C   UNL     1       5.031   1.455  11.413  1.00  0.00     0.031 A 
ATOM     48  C   UNL     1       6.856  -4.750  12.163  1.00  0.00     0.049 A 
ATOM     49  C   UNL     1       5.604   0.680  12.568  1.00  0.00     0.074 A 
ATOM     50  C   UNL     1       7.454  -5.340  13.263  1.00  0.00     0.029 A 
ATOM     51  N   UNL     1       6.622  -3.425  12.495  1.00  0.00    -0.354 N 
ATOM     52  N   UNL     1       5.959  -0.581  12.623  1.00  0.00    -0.248 NA
ATOM     53  C   UNL     1       5.816   1.419  13.822  1.00  0.00     0.031 C 
ATOM     54  C   UNL     1       7.538  -4.382  14.280  1.00  0.00     0.029 A 
ATOM     55  C   UNL     1       7.039  -3.185  13.793  1.00  0.00     0.049 A 
ATOM     56  H   UNL     1       6.219  -2.755  11.898  1.00  0.00     0.167 HD
ATOM     57  C   UNL     1       6.457  -0.780  13.905  1.00  0.00     0.074 A 
ATOM     58  C   UNL     1       6.371   0.493  14.591  1.00  0.00     0.031 C 
ATOM     59  C   UNL     1       6.944  -1.914  14.463  1.00  0.00     0.031 A 
BRANCH  46  60
ATOM     60  C   UNL     1       6.790  -6.811  10.707  1.00  0.00    -0.014 A 
ATOM     61  C   UNL     1       7.830  -7.253   9.874  1.00  0.00     0.009 A 
ATOM     62  C   UNL     1       6.015  -7.762  11.390  1.00  0.00     0.009 A 
ATOM     63  C   UNL     1       8.068  -8.618   9.705  1.00  0.00     0.001 A 
ATOM     64  C   UNL     1       6.271  -9.125  11.238  1.00  0.00     0.001 A 
ATOM     65  C   UNL     1       7.291  -9.553  10.390  1.00  0.00     0.000 A 
ENDBRANCH  46  60
BRANCH  47  66
ATOM     66  C   UNL     1       4.708   2.898  11.560  1.00  0.00    -0.014 A 
ATOM     67  C   UNL     1       5.728   3.855  11.667  1.00  0.00     0.009 A 
ATOM     68  C   UNL     1       3.370   3.321  11.614  1.00  0.00     0.009 A 
ATOM     69  C   UNL     1       5.414   5.205  11.845  1.00  0.00     0.001 A 
ATOM     70  C   UNL     1       3.060   4.673  11.766  1.00  0.00     0.001 A 
ATOM     71  C   UNL     1       4.081   5.613  11.890  1.00  0.00     0.000 A 
ENDBRANCH  47  66
BRANCH  59  72
ATOM     72  C   UNL     1       7.450  -1.825  15.876  1.00  0.00    -0.014 A 
ATOM     73  C   UNL     1       6.565  -1.724  16.960  1.00  0.00     0.009 A 
ATOM     74  C   UNL     1       8.830  -1.886  16.125  1.00  0.00     0.009 A 
ATOM     75  C   UNL     1       7.056  -1.655  18.266  1.00  0.00     0.001 A 
ATOM     76  C   UNL     1       9.316  -1.843  17.433  1.00  0.00     0.001 A 
ATOM     77  C   UNL     1       8.429  -1.719  18.501  1.00  0.00     0.000 A 
ENDBRANCH  59  72
ENDBRANCH  33  34
ENDBRANCH  26  28
ENDBRANCH  25  26
ENDBRANCH  24  25
ENDBRANCH  23  24
ENDBRANCH   1  23
TORSDOF 17
