REMARK SMILES CCCCCCCCNC(=O)Oc1cccc(-c2ccc([C@@H](C)C(=O)OCCOCCOC(=O)c3ccc(-c4c5nc(c(-c6ccccc6)c6ccc([nH]6)c(-c6ccccc6)c6nc(c(-c7ccccc7)c7ccc4[nH]7)C=C6)C=C5)cc3)cc2F)c1
REMARK SMILES IDX 22 1 23 2 21 3 18 4 19 5 84 6 20 7 83 8 85 9 17 10 13 11
REMARK SMILES IDX 14 12 86 13 15 14 16 15 12 16 10 17 9 18 11 20 8 21 7 22
REMARK SMILES IDX 6 23 5 24 4 25 3 26 2 27 1 28 24 29 25 30 26 31 27 32 28 33
REMARK SMILES IDX 29 34 30 35 31 36 32 37 33 38 34 39 35 40 36 41 82 42 37 43
REMARK SMILES IDX 81 44 38 45 39 46 40 47 75 48 41 49 80 50 74 51 76 52 42 53
REMARK SMILES IDX 79 54 73 55 72 56 43 58 65 59 50 60 64 61 51 62 54 63 63 64
REMARK SMILES IDX 77 65 52 66 53 67 62 69 78 70 55 71 44 72 45 73 49 74 46 75
REMARK SMILES IDX 48 76 47 77 66 78 67 79 71 80 68 81 70 82 69 83 56 84 57 85
REMARK SMILES IDX 61 86 58 87 60 88 59 89
REMARK H PARENT 9 19 76 57 54 68
REMARK Flexibility Score: inf
ROOT
ATOM      1  C   UNL     1      -9.511   8.135  11.050  1.00  0.00     0.126 C 
ATOM      2  C   UNL     1      -9.572   9.434  11.851  1.00  0.00     0.025 C 
ENDROOT
BRANCH   1   3
ATOM      3  C   UNL     1      -8.550   8.242   9.870  1.00  0.00    -0.031 A 
ATOM      4  C   UNL     1      -6.566   8.550   7.835  1.00  0.00     0.018 A 
ATOM      5  C   UNL     1      -7.732   9.334   7.845  1.00  0.00     0.012 A 
ATOM      6  C   UNL     1      -6.448   7.575   8.834  1.00  0.00     0.131 A 
ATOM      7  C   UNL     1      -8.706   9.187   8.846  1.00  0.00     0.005 A 
ATOM      8  C   UNL     1      -7.414   7.419   9.831  1.00  0.00     0.044 A 
ATOM      9  F   UNL     1      -5.362   6.788   8.888  1.00  0.00    -0.206 F 
BRANCH   4  10
ATOM     10  C   UNL     1      -5.487   8.793   6.858  1.00  0.00    -0.012 A 
ATOM     11  C   UNL     1      -3.859   8.011   5.234  1.00  0.00     0.133 A 
ATOM     12  C   UNL     1      -3.336   9.294   5.091  1.00  0.00     0.047 A 
ATOM     13  C   UNL     1      -4.915   7.750   6.111  1.00  0.00     0.056 A 
ATOM     14  C   UNL     1      -3.895  10.339   5.818  1.00  0.00     0.004 A 
ATOM     15  C   UNL     1      -4.959  10.089   6.691  1.00  0.00     0.009 A 
BRANCH  11  16
ATOM     16  O   UNL     1      -3.181   6.982   4.559  1.00  0.00    -0.410 OA
BRANCH  16  17
ATOM     17  C   UNL     1      -3.908   6.112   3.766  1.00  0.00     0.412 C 
ATOM     18  N   UNL     1      -3.134   5.159   3.166  1.00  0.00    -0.321 N 
ATOM     19  H   UNL     1      -3.600   4.507   2.593  1.00  0.00     0.167 HD
ATOM     20  O   UNL     1      -5.122   6.154   3.572  1.00  0.00    -0.224 OA
BRANCH  18  21
ATOM     21  C   UNL     1      -1.696   5.008   3.286  1.00  0.00     0.119 C 
BRANCH  21  22
ATOM     22  C   UNL     1      -1.307   3.648   3.865  1.00  0.00     0.021 C 
BRANCH  22  23
ATOM     23  C   UNL     1      -1.693   2.443   2.998  1.00  0.00     0.002 C 
BRANCH  23  24
ATOM     24  C   UNL     1      -1.099   2.435   1.585  1.00  0.00     0.000 C 
BRANCH  24  25
ATOM     25  C   UNL     1       0.432   2.396   1.522  1.00  0.00    -0.000 C 
BRANCH  25  26
ATOM     26  C   UNL     1       1.076   1.136   2.112  1.00  0.00    -0.000 C 
BRANCH  26  27
ATOM     27  C   UNL     1       0.647  -0.184   1.464  1.00  0.00    -0.003 C 
ATOM     28  C   UNL     1       0.985  -0.271  -0.017  1.00  0.00     0.004 C 
ENDBRANCH  26  27
ENDBRANCH  25  26
ENDBRANCH  24  25
ENDBRANCH  23  24
ENDBRANCH  22  23
ENDBRANCH  21  22
ENDBRANCH  18  21
ENDBRANCH  16  17
ENDBRANCH  11  16
ENDBRANCH   4  10
ENDBRANCH   1   3
BRANCH   1  29
ATOM     29  C   UNL     1     -10.925   7.649  10.778  1.00  0.00     0.313 C 
ATOM     30  O   UNL     1     -11.574   7.046  11.627  1.00  0.00    -0.252 OA
BRANCH  29  31
ATOM     31  O   UNL     1     -11.396   7.986   9.549  1.00  0.00    -0.463 OA
BRANCH  31  32
ATOM     32  C   UNL     1     -12.682   7.442   9.200  1.00  0.00     0.261 C 
BRANCH  32  33
ATOM     33  C   UNL     1     -12.578   6.483   8.012  1.00  0.00     0.202 C 
BRANCH  33  34
ATOM     34  O   UNL     1     -11.836   5.285   8.233  1.00  0.00    -0.374 OA
BRANCH  34  35
ATOM     35  C   UNL     1     -10.412   5.382   8.213  1.00  0.00     0.202 C 
BRANCH  35  36
ATOM     36  C   UNL     1      -9.750   5.514   6.835  1.00  0.00     0.261 C 
BRANCH  36  37
ATOM     37  O   UNL     1     -10.061   6.766   6.195  1.00  0.00    -0.460 OA
BRANCH  37  38
ATOM     38  C   UNL     1     -10.809   6.663   5.068  1.00  0.00     0.338 C 
ATOM     39  O   UNL     1     -11.192   5.647   4.519  1.00  0.00    -0.246 OA
BRANCH  38  40
ATOM     40  C   UNL     1     -11.296   8.001   4.679  1.00  0.00     0.060 A 
ATOM     41  C   UNL     1     -12.682   8.180   4.573  1.00  0.00     0.016 A 
ATOM     42  C   UNL     1     -10.421   9.045   4.374  1.00  0.00     0.016 A 
ATOM     43  C   UNL     1     -13.200   9.401   4.145  1.00  0.00     0.010 A 
ATOM     44  C   UNL     1     -10.943  10.267   3.931  1.00  0.00     0.010 A 
ATOM     45  C   UNL     1     -12.333  10.446   3.799  1.00  0.00    -0.014 A 
BRANCH  45  46
ATOM     46  C   UNL     1     -12.878  11.702   3.230  1.00  0.00     0.031 A 
ATOM     47  C   UNL     1     -12.857  11.915   1.742  1.00  0.00     0.074 A 
ATOM     48  C   UNL     1     -13.404  12.642   4.037  1.00  0.00     0.049 A 
ATOM     49  N   UNL     1     -13.224  12.966   1.053  1.00  0.00    -0.248 NA
ATOM     50  C   UNL     1     -12.366  10.796   0.923  1.00  0.00     0.031 C 
ATOM     51  C   UNL     1     -13.536  12.533   5.489  1.00  0.00     0.029 A 
ATOM     52  N   UNL     1     -13.918  13.880   3.744  1.00  0.00    -0.354 N 
ATOM     53  C   UNL     1     -13.008  12.636  -0.280  1.00  0.00     0.074 A 
ATOM     54  C   UNL     1     -12.457  11.298  -0.301  1.00  0.00     0.031 C 
ATOM     55  C   UNL     1     -14.081  13.667   5.963  1.00  0.00     0.029 A 
ATOM     56  C   UNL     1     -14.297  14.594   4.855  1.00  0.00     0.049 A 
ATOM     57  H   UNL     1     -14.007  14.225   2.826  1.00  0.00     0.167 HD
ATOM     58  C   UNL     1     -13.251  13.380  -1.385  1.00  0.00     0.031 A 
ATOM     59  C   UNL     1     -14.736  15.862   4.968  1.00  0.00     0.031 A 
ATOM     60  C   UNL     1     -13.778  14.719  -1.365  1.00  0.00     0.049 A 
ATOM     61  C   UNL     1     -14.884  16.708   3.732  1.00  0.00     0.074 A 
ATOM     62  C   UNL     1     -14.062  15.549  -2.437  1.00  0.00     0.029 A 
ATOM     63  N   UNL     1     -14.092  15.427  -0.217  1.00  0.00    -0.354 N 
ATOM     64  N   UNL     1     -14.693  16.379   2.477  1.00  0.00    -0.248 NA
ATOM     65  C   UNL     1     -15.304  18.104   3.930  1.00  0.00     0.031 C 
ATOM     66  C   UNL     1     -14.493  16.780  -1.934  1.00  0.00     0.029 A 
ATOM     67  C   UNL     1     -14.531  16.697  -0.552  1.00  0.00     0.049 A 
ATOM     68  H   UNL     1     -14.014  15.079   0.701  1.00  0.00     0.167 HD
ATOM     69  C   UNL     1     -14.987  17.519   1.738  1.00  0.00     0.074 A 
ATOM     70  C   UNL     1     -15.391  18.540   2.681  1.00  0.00     0.031 C 
ATOM     71  C   UNL     1     -14.924  17.705   0.397  1.00  0.00     0.031 A 
BRANCH  58  72
ATOM     72  C   UNL     1     -12.921  12.774  -2.719  1.00  0.00    -0.014 A 
ATOM     73  C   UNL     1     -13.728  11.773  -3.280  1.00  0.00     0.009 A 
ATOM     74  C   UNL     1     -11.827  13.259  -3.453  1.00  0.00     0.009 A 
ATOM     75  C   UNL     1     -13.434  11.255  -4.543  1.00  0.00     0.001 A 
ATOM     76  C   UNL     1     -11.549  12.755  -4.725  1.00  0.00     0.001 A 
ATOM     77  C   UNL     1     -12.350  11.751  -5.267  1.00  0.00     0.000 A 
ENDBRANCH  58  72
BRANCH  59  78
ATOM     78  C   UNL     1     -15.014  16.443   6.309  1.00  0.00    -0.014 A 
ATOM     79  C   UNL     1     -16.320  16.788   6.686  1.00  0.00     0.009 A 
ATOM     80  C   UNL     1     -13.960  16.698   7.201  1.00  0.00     0.009 A 
ATOM     81  C   UNL     1     -16.561  17.407   7.916  1.00  0.00     0.001 A 
ATOM     82  C   UNL     1     -14.208  17.288   8.442  1.00  0.00     0.001 A 
ATOM     83  C   UNL     1     -15.506  17.652   8.793  1.00  0.00     0.000 A 
ENDBRANCH  59  78
BRANCH  71  84
ATOM     84  C   UNL     1     -15.317  19.056  -0.130  1.00  0.00    -0.014 A 
ATOM     85  C   UNL     1     -14.480  20.170   0.037  1.00  0.00     0.009 A 
ATOM     86  C   UNL     1     -16.519  19.208  -0.838  1.00  0.00     0.009 A 
ATOM     87  C   UNL     1     -14.854  21.416  -0.469  1.00  0.00     0.001 A 
ATOM     88  C   UNL     1     -16.878  20.449  -1.367  1.00  0.00     0.001 A 
ATOM     89  C   UNL     1     -16.049  21.553  -1.175  1.00  0.00     0.000 A 
ENDBRANCH  71  84
ENDBRANCH  45  46
ENDBRANCH  38  40
ENDBRANCH  37  38
ENDBRANCH  36  37
ENDBRANCH  35  36
ENDBRANCH  34  35
ENDBRANCH  33  34
ENDBRANCH  32  33
ENDBRANCH  31  32
ENDBRANCH  29  31
ENDBRANCH   1  29
TORSDOF 25
