REMARK SMILES CC(C)(CC(=O)OCCOCCOC(=O)c1ccc(-c2c3nc(c(-c4ccccc4)c4ccc([nH]4)c(-c4ccccc4)c4nc(c(-c5ccccc5)c5ccc2[nH]5)C=C4)C=C3)cc1)NC(=O)c1nc(C(C)(C)C)n[nH]1
REMARK SMILES IDX 9 1 8 2 7 3 5 4 6 5 4 6 2 7 1 8 3 9 64 10 65 11 66 13 67 14
REMARK SMILES IDX 68 15 75 16 69 17 74 18 70 20 71 21 72 22 73 23 10 24 11 25
REMARK SMILES IDX 12 26 13 27 14 28 15 29 16 30 17 31 63 32 18 33 62 34 19 35
REMARK SMILES IDX 20 36 21 37 56 38 22 39 61 40 55 41 57 42 23 43 60 44 54 45
REMARK SMILES IDX 53 46 24 48 46 49 31 50 45 51 32 52 35 53 44 54 58 55 33 56
REMARK SMILES IDX 34 57 43 59 59 60 36 61 25 62 26 63 30 64 27 65 29 66 28 67
REMARK SMILES IDX 47 68 48 69 52 70 49 71 51 72 50 73 37 74 38 75 42 76 39 77
REMARK SMILES IDX 41 78 40 79
REMARK H PARENT 64 12 75 19 57 47 35 58
REMARK Flexibility Score: inf
ROOT
ATOM      1  C   UNL     1      -2.009   1.324  -3.212  1.00  0.00     0.202 C 
ENDROOT
BRANCH   1   2
ATOM      2  C   UNL     1      -2.586   1.105  -1.814  1.00  0.00     0.261 C 
BRANCH   2   3
ATOM      3  O   UNL     1      -1.748   0.193  -1.078  1.00  0.00    -0.463 OA
BRANCH   3   4
ATOM      4  C   UNL     1      -2.366  -0.856  -0.497  1.00  0.00     0.308 C 
ATOM      5  O   UNL     1      -3.581  -1.028  -0.485  1.00  0.00    -0.252 OA
BRANCH   4   6
ATOM      6  C   UNL     1      -1.431  -1.882   0.107  1.00  0.00     0.150 C 
BRANCH   6   7
ATOM      7  C   UNL     1       0.074  -1.585   0.294  1.00  0.00     0.045 C 
ATOM      8  C   UNL     1       0.287  -0.295   1.108  1.00  0.00     0.035 C 
ATOM      9  C   UNL     1       0.661  -2.737   1.152  1.00  0.00     0.035 C 
BRANCH   7  10
ATOM     10  N   UNL     1       0.781  -1.679  -1.003  1.00  0.00    -0.344 N 
ATOM     11  C   UNL     1       2.044  -1.209  -1.279  1.00  0.00     0.289 C 
ATOM     12  H   UNL     1       0.301  -2.123  -1.739  1.00  0.00     0.164 HD
ATOM     13  O   UNL     1       2.873  -1.982  -1.757  1.00  0.00    -0.266 OA
BRANCH  11  14
ATOM     14  C   UNL     1       2.315   0.178  -1.052  1.00  0.00     0.214 A 
ATOM     15  N   UNL     1       1.506   1.172  -1.364  1.00  0.00    -0.207 NA
ATOM     16  N   UNL     1       3.502   0.680  -0.619  1.00  0.00    -0.255 N 
ATOM     17  C   UNL     1       2.321   2.266  -1.266  1.00  0.00     0.156 A 
ATOM     18  N   UNL     1       3.512   2.019  -0.679  1.00  0.00    -0.158 NA
ATOM     19  H   UNL     1       4.256   0.132  -0.303  1.00  0.00     0.192 HD
BRANCH  17  20
ATOM     20  C   UNL     1       1.837   3.862  -1.871  1.00  0.00     0.024 C 
ATOM     21  C   UNL     1       2.286   4.593  -3.895  1.00  0.00     0.019 C 
ATOM     22  C   UNL     1       0.217   3.731  -1.136  1.00  0.00     0.019 C 
ATOM     23  C   UNL     1       2.417   4.580  -0.315  1.00  0.00     0.019 C 
ENDBRANCH  17  20
ENDBRANCH  11  14
ENDBRANCH   7  10
ENDBRANCH   6   7
ENDBRANCH   4   6
ENDBRANCH   3   4
ENDBRANCH   2   3
ENDBRANCH   1   2
BRANCH   1  24
ATOM     24  O   UNL     1      -2.160   0.212  -4.094  1.00  0.00    -0.374 OA
BRANCH  24  25
ATOM     25  C   UNL     1      -1.172  -0.815  -3.962  1.00  0.00     0.202 C 
BRANCH  25  26
ATOM     26  C   UNL     1       0.152  -0.523  -4.681  1.00  0.00     0.261 C 
BRANCH  26  27
ATOM     27  O   UNL     1       0.902   0.474  -3.966  1.00  0.00    -0.460 OA
BRANCH  27  28
ATOM     28  C   UNL     1       1.238   1.581  -4.653  1.00  0.00     0.338 C 
ATOM     29  O   UNL     1       1.132   1.780  -5.851  1.00  0.00    -0.246 OA
BRANCH  28  30
ATOM     30  C   UNL     1       1.591   2.661  -3.713  1.00  0.00     0.060 A 
ATOM     31  C   UNL     1       0.373   3.973  -3.523  1.00  0.00     0.016 A 
ATOM     32  C   UNL     1       3.306   2.958  -3.249  1.00  0.00     0.016 A 
ATOM     33  C   UNL     1       0.839   5.561  -2.815  1.00  0.00     0.010 A 
ATOM     34  C   UNL     1       3.771   4.545  -2.498  1.00  0.00     0.010 A 
ATOM     35  C   UNL     1       2.547   5.882  -2.324  1.00  0.00    -0.014 A 
BRANCH  35  36
ATOM     36  C   UNL     1       2.964   7.296  -2.047  1.00  0.00     0.031 A 
ATOM     37  C   UNL     1       4.165   7.870  -2.763  1.00  0.00     0.074 A 
ATOM     38  C   UNL     1       2.259   8.082  -1.202  1.00  0.00     0.049 A 
ATOM     39  N   UNL     1       4.780   9.014  -2.585  1.00  0.00    -0.248 NA
ATOM     40  C   UNL     1       4.746   7.066  -3.847  1.00  0.00     0.031 C 
ATOM     41  C   UNL     1       1.007   7.737  -0.522  1.00  0.00     0.029 A 
ATOM     42  N   UNL     1       2.532   9.343  -0.722  1.00  0.00    -0.354 N 
ATOM     43  C   UNL     1       5.807   9.041  -3.526  1.00  0.00     0.074 A 
ATOM     44  C   UNL     1       5.790   7.782  -4.218  1.00  0.00     0.031 C 
ATOM     45  C   UNL     1       0.675   8.700   0.347  1.00  0.00     0.029 A 
ATOM     46  C   UNL     1       1.683   9.742   0.287  1.00  0.00     0.049 A 
ATOM     47  H   UNL     1       3.264   9.905  -1.066  1.00  0.00     0.167 HD
ATOM     48  C   UNL     1       6.671  10.036  -3.830  1.00  0.00     0.031 A 
ATOM     49  C   UNL     1       1.719  10.812   1.102  1.00  0.00     0.031 A 
ATOM     50  C   UNL     1       6.704  11.288  -3.137  1.00  0.00     0.049 A 
ATOM     51  C   UNL     1       2.784  11.840   0.872  1.00  0.00     0.074 A 
ATOM     52  C   UNL     1       7.555  12.360  -3.321  1.00  0.00     0.029 A 
ATOM     53  N   UNL     1       5.835  11.625  -2.111  1.00  0.00    -0.354 N 
ATOM     54  N   UNL     1       3.745  11.841  -0.019  1.00  0.00    -0.248 NA
ATOM     55  C   UNL     1       2.745  13.032   1.727  1.00  0.00     0.031 C 
ATOM     56  C   UNL     1       7.234  13.328  -2.363  1.00  0.00     0.029 A 
ATOM     57  C   UNL     1       6.145  12.881  -1.629  1.00  0.00     0.049 A 
ATOM     58  H   UNL     1       5.105  11.054  -1.777  1.00  0.00     0.167 HD
ATOM     59  C   UNL     1       4.395  13.056   0.130  1.00  0.00     0.074 A 
ATOM     60  C   UNL     1       3.719  13.762   1.201  1.00  0.00     0.031 C 
ATOM     61  C   UNL     1       5.445  13.553  -0.567  1.00  0.00     0.031 A 
BRANCH  48  62
ATOM     62  C   UNL     1       7.661   9.760  -4.930  1.00  0.00    -0.014 A 
ATOM     63  C   UNL     1       7.252   9.650  -6.272  1.00  0.00     0.009 A 
ATOM     64  C   UNL     1       9.007   9.527  -4.613  1.00  0.00     0.009 A 
ATOM     65  C   UNL     1       8.159   9.256  -7.259  1.00  0.00     0.001 A 
ATOM     66  C   UNL     1       9.917   9.163  -5.607  1.00  0.00     0.001 A 
ATOM     67  C   UNL     1       9.490   9.011  -6.926  1.00  0.00     0.000 A 
ENDBRANCH  48  62
BRANCH  49  68
ATOM     68  C   UNL     1       0.718  10.960   2.194  1.00  0.00    -0.014 A 
ATOM     69  C   UNL     1      -0.293  11.928   2.119  1.00  0.00     0.009 A 
ATOM     70  C   UNL     1       0.765  10.121   3.321  1.00  0.00     0.009 A 
ATOM     71  C   UNL     1      -1.215  12.075   3.161  1.00  0.00     0.001 A 
ATOM     72  C   UNL     1      -0.172  10.253   4.349  1.00  0.00     0.001 A 
ATOM     73  C   UNL     1      -1.155  11.237   4.273  1.00  0.00     0.000 A 
ENDBRANCH  49  68
BRANCH  61  74
ATOM     74  C   UNL     1       5.885  14.943  -0.229  1.00  0.00    -0.014 A 
ATOM     75  C   UNL     1       6.582  15.219   0.956  1.00  0.00     0.009 A 
ATOM     76  C   UNL     1       5.642  15.979  -1.144  1.00  0.00     0.009 A 
ATOM     77  C   UNL     1       7.004  16.520   1.231  1.00  0.00     0.001 A 
ATOM     78  C   UNL     1       6.093  17.270  -0.881  1.00  0.00     0.001 A 
ATOM     79  C   UNL     1       6.766  17.541   0.310  1.00  0.00     0.000 A 
ENDBRANCH  61  74
ENDBRANCH  35  36
ENDBRANCH  28  30
ENDBRANCH  27  28
ENDBRANCH  26  27
ENDBRANCH  25  26
ENDBRANCH  24  25
ENDBRANCH   1  24
TORSDOF 18
