REMARK SMILES CCC[NH2+][C@H]1C[C@@H](C(=O)OCCOCCOC(=O)c2ccc(-c3c4nc(c(-c5ccccc5)c5ccc([nH]5)c(-c5ccccc5)c5nc(c(-c6ccccc6)c6ccc3[nH]6)C=C5)C=C4)cc2)C1
REMARK SMILES IDX 12 1 11 2 10 3 8 4 9 5 7 6 5 7 67 8 6 9 4 10 3 13 2 14 1 15
REMARK SMILES IDX 13 16 14 17 15 18 16 19 17 20 18 21 19 22 20 23 66 24 21 25
REMARK SMILES IDX 65 26 22 27 23 28 24 29 59 30 25 31 64 32 58 33 60 34 26 35
REMARK SMILES IDX 63 36 57 37 56 38 27 40 49 41 34 42 48 43 35 44 38 45 47 46
REMARK SMILES IDX 61 47 36 48 37 49 46 51 62 52 39 53 28 54 29 55 33 56 30 57
REMARK SMILES IDX 32 58 31 59 50 60 51 61 55 62 52 63 54 64 53 65 40 66 41 67
REMARK SMILES IDX 45 68 42 69 44 70 43 71
REMARK H PARENT 4 11 4 12 60 39 38 50
REMARK Flexibility Score: inf
ROOT
ATOM      1  C   UNL     1      -2.409   7.452   5.480  1.00  0.00     0.202 C 
ENDROOT
BRANCH   1   2
ATOM      2  C   UNL     1      -1.604   7.536   4.181  1.00  0.00     0.261 C 
BRANCH   2   3
ATOM      3  O   UNL     1      -1.027   6.259   3.868  1.00  0.00    -0.463 OA
BRANCH   3   4
ATOM      4  C   UNL     1       0.326   6.244   3.687  1.00  0.00     0.309 C 
ATOM      5  O   UNL     1       1.003   7.264   3.551  1.00  0.00    -0.252 OA
BRANCH   4   6
ATOM      6  C   UNL     1       0.929   4.833   3.748  1.00  0.00     0.111 C 
ATOM      7  C   UNL     1       1.112   2.827   3.086  1.00  0.00     0.184 C 
ATOM      8  C   UNL     1       1.360   4.192   2.403  1.00  0.00     0.080 C 
ATOM      9  C   UNL     1       0.056   3.557   3.948  1.00  0.00     0.080 C 
BRANCH   7  10
ATOM     10  N   UNL     1       0.448   1.932   2.141  1.00  0.00    -0.344 N 
ATOM     11  H   UNL     1      -0.563   2.011   2.249  1.00  0.00     0.346 HD
ATOM     12  H   UNL     1       0.705   2.188   1.187  1.00  0.00     0.346 HD
BRANCH  10  13
ATOM     13  C   UNL     1       0.865   0.552   2.411  1.00  0.00     0.260 C 
BRANCH  13  14
ATOM     14  C   UNL     1       0.330  -0.429   1.364  1.00  0.00     0.058 C 
ATOM     15  C   UNL     1       0.883  -0.186  -0.035  1.00  0.00     0.010 C 
ENDBRANCH  13  14
ENDBRANCH  10  13
ENDBRANCH   7  10
ENDBRANCH   4   6
ENDBRANCH   3   4
ENDBRANCH   2   3
ENDBRANCH   1   2
BRANCH   1  16
ATOM     16  O   UNL     1      -1.666   7.110   6.651  1.00  0.00    -0.374 OA
BRANCH  16  17
ATOM     17  C   UNL     1      -1.321   5.735   6.832  1.00  0.00     0.202 C 
BRANCH  17  18
ATOM     18  C   UNL     1      -2.445   4.809   7.312  1.00  0.00     0.261 C 
BRANCH  18  19
ATOM     19  O   UNL     1      -3.476   4.646   6.321  1.00  0.00    -0.460 OA
BRANCH  19  20
ATOM     20  C   UNL     1      -4.681   5.159   6.663  1.00  0.00     0.338 C 
ATOM     21  O   UNL     1      -4.997   5.663   7.732  1.00  0.00    -0.246 OA
BRANCH  20  22
ATOM     22  C   UNL     1      -5.571   5.197   5.489  1.00  0.00     0.060 A 
ATOM     23  C   UNL     1      -6.167   6.424   5.170  1.00  0.00     0.016 A 
ATOM     24  C   UNL     1      -5.886   4.046   4.765  1.00  0.00     0.016 A 
ATOM     25  C   UNL     1      -7.122   6.495   4.158  1.00  0.00     0.010 A 
ATOM     26  C   UNL     1      -6.852   4.116   3.755  1.00  0.00     0.010 A 
ATOM     27  C   UNL     1      -7.499   5.333   3.472  1.00  0.00    -0.014 A 
BRANCH  27  28
ATOM     28  C   UNL     1      -8.669   5.372   2.563  1.00  0.00     0.031 A 
ATOM     29  C   UNL     1     -10.008   4.916   3.073  1.00  0.00     0.074 A 
ATOM     30  C   UNL     1      -8.550   5.834   1.307  1.00  0.00     0.049 A 
ATOM     31  N   UNL     1     -11.159   4.864   2.450  1.00  0.00    -0.248 NA
ATOM     32  C   UNL     1     -10.057   4.458   4.471  1.00  0.00     0.031 C 
ATOM     33  C   UNL     1      -7.317   6.338   0.704  1.00  0.00     0.029 A 
ATOM     34  N   UNL     1      -9.487   5.949   0.311  1.00  0.00    -0.354 N 
ATOM     35  C   UNL     1     -12.065   4.362   3.376  1.00  0.00     0.074 A 
ATOM     36  C   UNL     1     -11.327   4.100   4.593  1.00  0.00     0.031 C 
ATOM     37  C   UNL     1      -7.573   6.703  -0.564  1.00  0.00     0.029 A 
ATOM     38  C   UNL     1      -8.977   6.433  -0.868  1.00  0.00     0.049 A 
ATOM     39  H   UNL     1     -10.434   5.708   0.430  1.00  0.00     0.167 HD
ATOM     40  C   UNL     1     -13.393   4.141   3.229  1.00  0.00     0.031 A 
ATOM     41  C   UNL     1      -9.571   6.620  -2.062  1.00  0.00     0.031 A 
ATOM     42  C   UNL     1     -14.127   4.385   2.017  1.00  0.00     0.049 A 
ATOM     43  C   UNL     1     -11.033   6.304  -2.222  1.00  0.00     0.074 A 
ATOM     44  C   UNL     1     -15.481   4.217   1.779  1.00  0.00     0.029 A 
ATOM     45  N   UNL     1     -13.566   4.840   0.834  1.00  0.00    -0.354 N 
ATOM     46  N   UNL     1     -11.886   5.864  -1.329  1.00  0.00    -0.248 NA
ATOM     47  C   UNL     1     -11.614   6.519  -3.555  1.00  0.00     0.031 C 
ATOM     48  C   UNL     1     -15.729   4.519   0.436  1.00  0.00     0.029 A 
ATOM     49  C   UNL     1     -14.540   4.927  -0.147  1.00  0.00     0.049 A 
ATOM     50  H   UNL     1     -12.617   5.066   0.710  1.00  0.00     0.167 HD
ATOM     51  C   UNL     1     -13.107   5.770  -1.985  1.00  0.00     0.074 A 
ATOM     52  C   UNL     1     -12.887   6.211  -3.347  1.00  0.00     0.031 C 
ATOM     53  C   UNL     1     -14.305   5.359  -1.501  1.00  0.00     0.031 A 
BRANCH  40  54
ATOM     54  C   UNL     1     -14.127   3.567   4.407  1.00  0.00    -0.014 A 
ATOM     55  C   UNL     1     -14.396   4.340   5.548  1.00  0.00     0.009 A 
ATOM     56  C   UNL     1     -14.569   2.235   4.368  1.00  0.00     0.009 A 
ATOM     57  C   UNL     1     -15.061   3.779   6.641  1.00  0.00     0.001 A 
ATOM     58  C   UNL     1     -15.255   1.685   5.452  1.00  0.00     0.001 A 
ATOM     59  C   UNL     1     -15.492   2.454   6.590  1.00  0.00     0.000 A 
ENDBRANCH  40  54
BRANCH  41  60
ATOM     60  C   UNL     1      -8.773   7.120  -3.210  1.00  0.00    -0.014 A 
ATOM     61  C   UNL     1      -8.952   8.424  -3.694  1.00  0.00     0.009 A 
ATOM     62  C   UNL     1      -7.825   6.289  -3.828  1.00  0.00     0.009 A 
ATOM     63  C   UNL     1      -8.207   8.881  -4.784  1.00  0.00     0.001 A 
ATOM     64  C   UNL     1      -7.065   6.757  -4.901  1.00  0.00     0.001 A 
ATOM     65  C   UNL     1      -7.261   8.050  -5.383  1.00  0.00     0.000 A 
ENDBRANCH  41  60
BRANCH  53  66
ATOM     66  C   UNL     1     -15.475   5.389  -2.442  1.00  0.00    -0.014 A 
ATOM     67  C   UNL     1     -15.610   4.440  -3.467  1.00  0.00     0.009 A 
ATOM     68  C   UNL     1     -16.480   6.354  -2.272  1.00  0.00     0.009 A 
ATOM     69  C   UNL     1     -16.714   4.476  -4.321  1.00  0.00     0.001 A 
ATOM     70  C   UNL     1     -17.595   6.372  -3.111  1.00  0.00     0.001 A 
ATOM     71  C   UNL     1     -17.707   5.439  -4.140  1.00  0.00     0.000 A 
ENDBRANCH  53  66
ENDBRANCH  27  28
ENDBRANCH  20  22
ENDBRANCH  19  20
ENDBRANCH  18  19
ENDBRANCH  17  18
ENDBRANCH  16  17
ENDBRANCH   1  16
TORSDOF 17
