REMARK SMILES COc1ccc([C@H]2CC(c3ccc(S(C)(=O)=O)cc3)=NN2c2ccc(C(=O)OCCOCCOC(=O)c3ccc(-c4c5nc(c(-c6ccccc6)c6ccc([nH]6)c(-c6ccccc6)c6nc(c(-c7ccccc7)c7ccc4[nH]7)C=C6)C=C5)cc3)cc2)cc1OC
REMARK SMILES IDX 30 1 29 2 28 3 26 4 27 5 25 6 22 7 23 8 86 9 24 10 85 11
REMARK SMILES IDX 21 12 7 13 8 14 9 15 20 16 6 17 3 18 4 19 88 20 5 21 87 22
REMARK SMILES IDX 2 23 1 24 89 25 90 26 10 27 11 28 19 29 12 30 18 31 13 32
REMARK SMILES IDX 14 33 15 34 16 35 17 36 31 37 32 38 33 39 34 40 35 41 36 42
REMARK SMILES IDX 37 43 38 44 84 45 39 46 83 47 40 48 41 49 42 50 77 51 43 52
REMARK SMILES IDX 82 53 76 54 78 55 44 56 81 57 75 58 74 59 45 61 67 62 52 63
REMARK SMILES IDX 66 64 53 65 56 66 65 67 79 68 54 69 55 70 64 72 80 73 57 74
REMARK SMILES IDX 46 75 47 76 51 77 48 78 50 79 49 80 68 81 69 82 73 83 70 84
REMARK SMILES IDX 72 85 71 86 58 87 59 88 63 89 60 90 62 91 61 92
REMARK H PARENT 78 60 56 71
REMARK Flexibility Score: inf
ROOT
ATOM      1  C   UNL     1       3.174   4.247  10.675  1.00  0.00     0.202 C 
ENDROOT
BRANCH   1   2
ATOM      2  C   UNL     1       2.200   4.141   9.498  1.00  0.00     0.261 C 
BRANCH   2   3
ATOM      3  O   UNL     1       2.094   2.787   9.030  1.00  0.00    -0.460 OA
BRANCH   3   4
ATOM      4  C   UNL     1       2.680   2.552   7.831  1.00  0.00     0.338 C 
ATOM      5  O   UNL     1       3.166   3.387   7.081  1.00  0.00    -0.246 OA
BRANCH   4   6
ATOM      6  C   UNL     1       2.790   1.097   7.586  1.00  0.00     0.060 A 
ATOM      7  C   UNL     1       3.040  -1.623   6.907  1.00  0.00     0.060 A 
ATOM      8  C   UNL     1       4.051  -0.709   6.582  1.00  0.00     0.029 A 
ATOM      9  C   UNL     1       1.938  -1.163   7.645  1.00  0.00     0.029 A 
ATOM     10  C   UNL     1       3.916   0.644   6.891  1.00  0.00     0.018 A 
ATOM     11  C   UNL     1       1.817   0.186   8.003  1.00  0.00     0.018 A 
BRANCH   7  12
ATOM     12  N   UNL     1       3.093  -2.933   6.439  1.00  0.00    -0.257 N 
ATOM     13  C   UNL     1       2.078  -3.469   5.520  1.00  0.00     0.144 C 
ATOM     14  C   UNL     1       2.706  -4.790   5.061  1.00  0.00     0.091 C 
ATOM     15  C   UNL     1       4.059  -4.683   5.708  1.00  0.00     0.071 C 
ATOM     16  N   UNL     1       4.258  -3.639   6.451  1.00  0.00    -0.176 NA
BRANCH  13  17
ATOM     17  C   UNL     1       1.768  -2.527   4.362  1.00  0.00    -0.019 A 
ATOM     18  C   UNL     1       1.206  -0.689   2.292  1.00  0.00     0.160 A 
ATOM     19  C   UNL     1       0.203  -1.080   3.188  1.00  0.00     0.051 A 
ATOM     20  C   UNL     1       2.499  -1.206   2.423  1.00  0.00     0.161 A 
ATOM     21  C   UNL     1       0.479  -1.998   4.208  1.00  0.00     0.010 A 
ATOM     22  C   UNL     1       2.764  -2.113   3.459  1.00  0.00     0.056 A 
BRANCH  18  23
ATOM     23  O   UNL     1       0.928   0.298   1.384  1.00  0.00    -0.493 OA
ATOM     24  C   UNL     1       0.003  -0.124   0.384  1.00  0.00     0.278 C 
ENDBRANCH  18  23
BRANCH  20  25
ATOM     25  O   UNL     1       3.605  -0.919   1.667  1.00  0.00    -0.493 OA
ATOM     26  C   UNL     1       3.401  -0.341   0.386  1.00  0.00     0.278 C 
ENDBRANCH  20  25
ENDBRANCH  13  17
BRANCH  15  27
ATOM     27  C   UNL     1       5.045  -5.760   5.555  1.00  0.00    -0.002 A 
ATOM     28  C   UNL     1       5.530  -6.388   6.707  1.00  0.00     0.011 A 
ATOM     29  C   UNL     1       5.456  -6.178   4.286  1.00  0.00     0.011 A 
ATOM     30  C   UNL     1       6.412  -7.464   6.593  1.00  0.00     0.021 A 
ATOM     31  C   UNL     1       6.359  -7.238   4.170  1.00  0.00     0.021 A 
ATOM     32  C   UNL     1       6.828  -7.878   5.323  1.00  0.00     0.067 A 
BRANCH  32  33
ATOM     33  S   UNL     1       7.927  -9.270   5.183  1.00  0.00     0.175 S 
ATOM     34  C   UNL     1       9.402  -8.756   6.023  1.00  0.00     0.163 C 
ATOM     35  O   UNL     1       7.323 -10.352   5.936  1.00  0.00    -0.224 OA
ATOM     36  O   UNL     1       8.256  -9.430   3.779  1.00  0.00    -0.224 OA
ENDBRANCH  32  33
ENDBRANCH  15  27
ENDBRANCH   7  12
ENDBRANCH   4   6
ENDBRANCH   3   4
ENDBRANCH   2   3
ENDBRANCH   1   2
BRANCH   1  37
ATOM     37  O   UNL     1       4.538   3.949  10.379  1.00  0.00    -0.374 OA
BRANCH  37  38
ATOM     38  C   UNL     1       4.909   2.568  10.396  1.00  0.00     0.202 C 
BRANCH  38  39
ATOM     39  C   UNL     1       5.218   1.987  11.781  1.00  0.00     0.261 C 
BRANCH  39  40
ATOM     40  O   UNL     1       4.029   1.895  12.589  1.00  0.00    -0.460 OA
BRANCH  40  41
ATOM     41  C   UNL     1       3.965   2.772  13.616  1.00  0.00     0.338 C 
ATOM     42  O   UNL     1       4.836   3.545  13.990  1.00  0.00    -0.246 OA
BRANCH  41  43
ATOM     43  C   UNL     1       2.594   2.808  14.158  1.00  0.00     0.060 A 
ATOM     44  C   UNL     1       1.999   4.065  14.326  1.00  0.00     0.016 A 
ATOM     45  C   UNL     1       1.921   1.648  14.548  1.00  0.00     0.016 A 
ATOM     46  C   UNL     1       0.750   4.171  14.934  1.00  0.00     0.010 A 
ATOM     47  C   UNL     1       0.670   1.757  15.165  1.00  0.00     0.010 A 
ATOM     48  C   UNL     1       0.095   3.021  15.393  1.00  0.00    -0.014 A 
BRANCH  48  49
ATOM     49  C   UNL     1      -1.117   3.154  16.235  1.00  0.00     0.031 A 
ATOM     50  C   UNL     1      -0.985   3.044  17.729  1.00  0.00     0.074 A 
ATOM     51  C   UNL     1      -2.318   3.400  15.682  1.00  0.00     0.049 A 
ATOM     52  N   UNL     1      -1.911   3.113  18.651  1.00  0.00    -0.248 NA
ATOM     53  C   UNL     1       0.374   2.827  18.253  1.00  0.00     0.031 C 
ATOM     54  C   UNL     1      -2.573   3.573  14.253  1.00  0.00     0.029 A 
ATOM     55  N   UNL     1      -3.551   3.546  16.266  1.00  0.00    -0.354 N 
ATOM     56  C   UNL     1      -1.250   2.942  19.861  1.00  0.00     0.074 A 
ATOM     57  C   UNL     1       0.149   2.737  19.555  1.00  0.00     0.031 C 
ATOM     58  C   UNL     1      -3.886   3.798  14.070  1.00  0.00     0.029 A 
ATOM     59  C   UNL     1      -4.565   3.754  15.364  1.00  0.00     0.049 A 
ATOM     60  H   UNL     1      -3.695   3.506  17.239  1.00  0.00     0.167 HD
ATOM     61  C   UNL     1      -1.760   2.959  21.116  1.00  0.00     0.031 A 
ATOM     62  C   UNL     1      -5.891   3.878  15.559  1.00  0.00     0.031 A 
ATOM     63  C   UNL     1      -3.152   3.149  21.423  1.00  0.00     0.049 A 
ATOM     64  C   UNL     1      -6.445   3.815  16.957  1.00  0.00     0.074 A 
ATOM     65  C   UNL     1      -3.762   3.198  22.665  1.00  0.00     0.029 A 
ATOM     66  N   UNL     1      -4.152   3.313  20.478  1.00  0.00    -0.354 N 
ATOM     67  N   UNL     1      -5.807   3.678  18.094  1.00  0.00    -0.248 NA
ATOM     68  C   UNL     1      -7.904   3.930  17.097  1.00  0.00     0.031 C 
ATOM     69  C   UNL     1      -5.140   3.338  22.468  1.00  0.00     0.029 A 
ATOM     70  C   UNL     1      -5.380   3.433  21.107  1.00  0.00     0.049 A 
ATOM     71  H   UNL     1      -4.011   3.339  19.504  1.00  0.00     0.167 HD
ATOM     72  C   UNL     1      -6.781   3.719  19.084  1.00  0.00     0.074 A 
ATOM     73  C   UNL     1      -8.052   3.906  18.414  1.00  0.00     0.031 C 
ATOM     74  C   UNL     1      -6.636   3.616  20.428  1.00  0.00     0.031 A 
BRANCH  61  75
ATOM     75  C   UNL     1      -0.803   2.731  22.251  1.00  0.00    -0.014 A 
ATOM     76  C   UNL     1       0.130   3.711  22.627  1.00  0.00     0.009 A 
ATOM     77  C   UNL     1      -0.854   1.529  22.973  1.00  0.00     0.009 A 
ATOM     78  C   UNL     1       1.015   3.475  23.682  1.00  0.00     0.001 A 
ATOM     79  C   UNL     1       0.014   1.307  24.044  1.00  0.00     0.001 A 
ATOM     80  C   UNL     1       0.954   2.276  24.391  1.00  0.00     0.000 A 
ENDBRANCH  61  75
BRANCH  62  81
ATOM     81  C   UNL     1      -6.800   4.057  14.396  1.00  0.00    -0.014 A 
ATOM     82  C   UNL     1      -7.453   5.279  14.180  1.00  0.00     0.009 A 
ATOM     83  C   UNL     1      -7.030   2.997  13.506  1.00  0.00     0.009 A 
ATOM     84  C   UNL     1      -8.337   5.428  13.108  1.00  0.00     0.001 A 
ATOM     85  C   UNL     1      -7.893   3.157  12.420  1.00  0.00     0.001 A 
ATOM     86  C   UNL     1      -8.552   4.370  12.227  1.00  0.00     0.000 A 
ENDBRANCH  62  81
BRANCH  74  87
ATOM     87  C   UNL     1      -7.878   3.736  21.267  1.00  0.00    -0.014 A 
ATOM     88  C   UNL     1      -8.828   2.705  21.317  1.00  0.00     0.009 A 
ATOM     89  C   UNL     1      -8.076   4.884  22.051  1.00  0.00     0.009 A 
ATOM     90  C   UNL     1      -9.968   2.835  22.113  1.00  0.00     0.001 A 
ATOM     91  C   UNL     1      -9.203   4.999  22.867  1.00  0.00     0.001 A 
ATOM     92  C   UNL     1     -10.152   3.978  22.890  1.00  0.00     0.000 A 
ENDBRANCH  74  87
ENDBRANCH  48  49
ENDBRANCH  41  43
ENDBRANCH  40  41
ENDBRANCH  39  40
ENDBRANCH  38  39
ENDBRANCH  37  38
ENDBRANCH   1  37
TORSDOF 20
