REMARK SMILES CC1CC[NH+]([C@H](c2ccc(F)cc2)c2ccc([C@@H](C)C(=O)OCCOCCOC(=O)c3ccc(-c4c5nc(c(-c6ccccc6)c6ccc([nH]6)c(-c6ccccc6)c6nc(c(-c7ccccc7)c7ccc4[nH]7)C=C6)C=C5)cc3)cc2-c2ccc(C(F)(F)F)cc2)CC1
REMARK SMILES IDX 24 1 23 2 22 3 20 4 21 5 18 6 19 7 17 8 14 9 15 10 80 11
REMARK SMILES IDX 16 12 79 13 6 14 5 15 1 16 2 17 3 18 92 19 4 20 91 21 7 23
REMARK SMILES IDX 8 24 13 25 9 26 12 27 10 28 11 29 81 30 82 31 90 32 83 33
REMARK SMILES IDX 89 34 84 35 85 36 86 37 87 38 88 39 25 40 26 41 27 42 28 43
REMARK SMILES IDX 29 44 30 45 31 46 32 47 78 48 33 49 77 50 34 51 35 52 36 53
REMARK SMILES IDX 71 54 37 55 76 56 70 57 72 58 38 59 75 60 69 61 68 62 39 64
REMARK SMILES IDX 61 65 46 66 60 67 47 68 50 69 59 70 73 71 48 72 49 73 58 75
REMARK SMILES IDX 74 76 51 77 40 78 41 79 45 80 42 81 44 82 43 83 62 84 63 85
REMARK SMILES IDX 67 86 64 87 66 88 65 89 52 90 53 91 57 92 54 93 56 94 55 95
REMARK H PARENT 5 22 72 63 50 74
REMARK Flexibility Score: inf
ROOT
ATOM      1  C   UNL     1       2.662   7.618  -2.012  1.00  0.00     0.202 C 
ENDROOT
BRANCH   1   2
ATOM      2  C   UNL     1       3.317   7.601  -3.394  1.00  0.00     0.261 C 
BRANCH   2   3
ATOM      3  O   UNL     1       3.571   6.247  -3.815  1.00  0.00    -0.463 OA
BRANCH   3   4
ATOM      4  C   UNL     1       4.874   5.894  -3.972  1.00  0.00     0.313 C 
ATOM      5  O   UNL     1       5.814   6.681  -3.921  1.00  0.00    -0.252 OA
BRANCH   4   6
ATOM      6  C   UNL     1       5.072   4.415  -4.281  1.00  0.00     0.126 C 
ATOM      7  C   UNL     1       5.053   4.212  -5.794  1.00  0.00     0.025 C 
BRANCH   6   8
ATOM      8  C   UNL     1       4.172   3.415  -3.560  1.00  0.00    -0.033 A 
ATOM      9  C   UNL     1       2.563   1.385  -2.295  1.00  0.00     0.022 A 
ATOM     10  C   UNL     1       2.006   2.415  -3.083  1.00  0.00     0.011 A 
ATOM     11  C   UNL     1       3.975   1.416  -2.106  1.00  0.00    -0.009 A 
ATOM     12  C   UNL     1       2.788   3.389  -3.719  1.00  0.00     0.005 A 
ATOM     13  C   UNL     1       4.741   2.431  -2.736  1.00  0.00     0.013 A 
BRANCH   9  14
ATOM     14  C   UNL     1       1.690   0.240  -1.692  1.00  0.00     0.247 C 
BRANCH  14  15
ATOM     15  N   UNL     1       0.280   0.065  -2.174  1.00  0.00    -0.325 N 
ATOM     16  C   UNL     1      -3.382   1.205  -4.333  1.00  0.00     0.008 C 
ATOM     17  C   UNL     1      -1.997   1.088  -3.707  1.00  0.00    -0.003 C 
ATOM     18  C   UNL     1      -1.246  -0.149  -4.196  1.00  0.00     0.065 C 
ATOM     19  C   UNL     1      -2.084   0.980  -2.190  1.00  0.00     0.065 C 
ATOM     20  C   UNL     1       0.171  -0.208  -3.610  1.00  0.00     0.263 C 
ATOM     21  C   UNL     1      -0.689   0.976  -1.573  1.00  0.00     0.263 C 
ATOM     22  H   UNL     1      -0.042  -0.819  -1.780  1.00  0.00     0.348 HD
ENDBRANCH  14  15
BRANCH  14  23
ATOM     23  C   UNL     1       1.761   0.162  -0.154  1.00  0.00     0.014 A 
ATOM     24  C   UNL     1       1.597   1.303   0.655  1.00  0.00     0.013 A 
ATOM     25  C   UNL     1       1.975  -1.080   0.474  1.00  0.00     0.013 A 
ATOM     26  C   UNL     1       1.655   1.206   2.046  1.00  0.00     0.040 A 
ATOM     27  C   UNL     1       2.054  -1.171   1.865  1.00  0.00     0.040 A 
ATOM     28  C   UNL     1       1.891  -0.028   2.637  1.00  0.00     0.123 A 
ATOM     29  F   UNL     1       1.956  -0.118   3.972  1.00  0.00    -0.207 F 
ENDBRANCH  14  23
ENDBRANCH   9  14
BRANCH  11  30
ATOM     30  C   UNL     1       4.706   0.448  -1.266  1.00  0.00    -0.018 A 
ATOM     31  C   UNL     1       5.250   0.852  -0.035  1.00  0.00     0.009 A 
ATOM     32  C   UNL     1       4.885  -0.885  -1.662  1.00  0.00     0.009 A 
ATOM     33  C   UNL     1       5.910  -0.058   0.796  1.00  0.00     0.014 A 
ATOM     34  C   UNL     1       5.535  -1.802  -0.828  1.00  0.00     0.014 A 
ATOM     35  C   UNL     1       6.042  -1.400   0.416  1.00  0.00     0.056 A 
BRANCH  35  36
ATOM     36  C   UNL     1       6.732  -2.380   1.334  1.00  0.00     0.416 C 
ATOM     37  F   UNL     1       8.079  -2.187   1.382  1.00  0.00    -0.166 F 
ATOM     38  F   UNL     1       6.295  -2.292   2.621  1.00  0.00    -0.166 F 
ATOM     39  F   UNL     1       6.552  -3.681   0.971  1.00  0.00    -0.166 F 
ENDBRANCH  35  36
ENDBRANCH  11  30
ENDBRANCH   6   8
ENDBRANCH   4   6
ENDBRANCH   3   4
ENDBRANCH   2   3
ENDBRANCH   1   2
BRANCH   1  40
ATOM     40  O   UNL     1       3.517   7.266  -0.924  1.00  0.00    -0.374 OA
BRANCH  40  41
ATOM     41  C   UNL     1       3.746   5.873  -0.713  1.00  0.00     0.202 C 
BRANCH  41  42
ATOM     42  C   UNL     1       2.667   5.134   0.084  1.00  0.00     0.261 C 
BRANCH  42  43
ATOM     43  O   UNL     1       1.404   5.103  -0.606  1.00  0.00    -0.460 OA
BRANCH  43  44
ATOM     44  C   UNL     1       0.462   5.946  -0.118  1.00  0.00     0.338 C 
ATOM     45  O   UNL     1       0.538   6.644   0.884  1.00  0.00    -0.246 OA
BRANCH  44  46
ATOM     46  C   UNL     1      -0.671   6.031  -1.059  1.00  0.00     0.060 A 
ATOM     47  C   UNL     1      -1.174   7.295  -1.386  1.00  0.00     0.016 A 
ATOM     48  C   UNL     1      -1.277   4.884  -1.571  1.00  0.00     0.016 A 
ATOM     49  C   UNL     1      -2.315   7.407  -2.182  1.00  0.00     0.010 A 
ATOM     50  C   UNL     1      -2.410   4.995  -2.379  1.00  0.00     0.010 A 
ATOM     51  C   UNL     1      -2.962   6.256  -2.651  1.00  0.00    -0.014 A 
BRANCH  51  52
ATOM     52  C   UNL     1      -4.293   6.356  -3.299  1.00  0.00     0.031 A 
ATOM     53  C   UNL     1      -5.522   5.997  -2.508  1.00  0.00     0.074 A 
ATOM     54  C   UNL     1      -4.410   6.761  -4.575  1.00  0.00     0.049 A 
ATOM     55  N   UNL     1      -6.779   6.019  -2.874  1.00  0.00    -0.248 NA
ATOM     56  C   UNL     1      -5.306   5.543  -1.125  1.00  0.00     0.031 C 
ATOM     57  C   UNL     1      -3.300   7.135  -5.450  1.00  0.00     0.029 A 
ATOM     58  N   UNL     1      -5.527   6.920  -5.357  1.00  0.00    -0.354 N 
ATOM     59  C   UNL     1      -7.499   5.576  -1.771  1.00  0.00     0.074 A 
ATOM     60  C   UNL     1      -6.539   5.253  -0.739  1.00  0.00     0.031 C 
ATOM     61  C   UNL     1      -3.793   7.483  -6.651  1.00  0.00     0.029 A 
ATOM     62  C   UNL     1      -5.247   7.335  -6.635  1.00  0.00     0.049 A 
ATOM     63  H   UNL     1      -6.441   6.751  -5.032  1.00  0.00     0.167 HD
ATOM     64  C   UNL     1      -8.841   5.461  -1.623  1.00  0.00     0.031 A 
ATOM     65  C   UNL     1      -6.070   7.565  -7.676  1.00  0.00     0.031 A 
ATOM     66  C   UNL     1      -9.800   5.777  -2.647  1.00  0.00     0.049 A 
ATOM     67  C   UNL     1      -7.555   7.394  -7.502  1.00  0.00     0.074 A 
ATOM     68  C   UNL     1     -11.181   5.738  -2.576  1.00  0.00     0.029 A 
ATOM     69  N   UNL     1      -9.475   6.179  -3.932  1.00  0.00    -0.354 N 
ATOM     70  N   UNL     1      -8.226   7.035  -6.434  1.00  0.00    -0.248 NA
ATOM     71  C   UNL     1      -8.395   7.673  -8.676  1.00  0.00     0.031 C 
ATOM     72  C   UNL     1     -11.692   6.065  -3.837  1.00  0.00     0.029 A 
ATOM     73  C   UNL     1     -10.629   6.362  -4.675  1.00  0.00     0.049 A 
ATOM     74  H   UNL     1      -8.559   6.314  -4.268  1.00  0.00     0.167 HD
ATOM     75  C   UNL     1      -9.566   7.069  -6.800  1.00  0.00     0.074 A 
ATOM     76  C   UNL     1      -9.613   7.495  -8.183  1.00  0.00     0.031 C 
ATOM     77  C   UNL     1     -10.661   6.777  -6.054  1.00  0.00     0.031 A 
BRANCH  64  78
ATOM     78  C   UNL     1      -9.344   4.946  -0.303  1.00  0.00    -0.014 A 
ATOM     79  C   UNL     1      -9.264   5.724   0.863  1.00  0.00     0.009 A 
ATOM     80  C   UNL     1      -9.921   3.669  -0.228  1.00  0.00     0.009 A 
ATOM     81  C   UNL     1      -9.714   5.217   2.084  1.00  0.00     0.001 A 
ATOM     82  C   UNL     1     -10.396   3.176   0.989  1.00  0.00     0.001 A 
ATOM     83  C   UNL     1     -10.282   3.945   2.145  1.00  0.00     0.000 A 
ENDBRANCH  64  78
BRANCH  65  84
ATOM     84  C   UNL     1      -5.503   7.990  -8.981  1.00  0.00    -0.014 A 
ATOM     85  C   UNL     1      -5.664   9.308  -9.434  1.00  0.00     0.009 A 
ATOM     86  C   UNL     1      -4.791   7.079  -9.776  1.00  0.00     0.009 A 
ATOM     87  C   UNL     1      -5.134   9.701 -10.666  1.00  0.00     0.001 A 
ATOM     88  C   UNL     1      -4.242   7.481 -10.995  1.00  0.00     0.001 A 
ATOM     89  C   UNL     1      -4.419   8.789 -11.442  1.00  0.00     0.000 A 
ENDBRANCH  65  84
BRANCH  77  90
ATOM     90  C   UNL     1     -12.004   6.932  -6.710  1.00  0.00    -0.014 A 
ATOM     91  C   UNL     1     -12.454   6.017  -7.674  1.00  0.00     0.009 A 
ATOM     92  C   UNL     1     -12.849   7.984  -6.323  1.00  0.00     0.009 A 
ATOM     93  C   UNL     1     -13.713   6.171  -8.259  1.00  0.00     0.001 A 
ATOM     94  C   UNL     1     -14.117   8.120  -6.890  1.00  0.00     0.001 A 
ATOM     95  C   UNL     1     -14.545   7.219  -7.863  1.00  0.00     0.000 A 
ENDBRANCH  77  90
ENDBRANCH  51  52
ENDBRANCH  44  46
ENDBRANCH  43  44
ENDBRANCH  42  43
ENDBRANCH  41  42
ENDBRANCH  40  41
ENDBRANCH   1  40
TORSDOF 20
