REMARK SMILES Cc1[nH]c2ccccc2c1/C=C1/SC(=S)N(c2cccc(C(=O)OCCOCCOC(=O)c3ccc(-c4c5nc(c(-c6ccccc6)c6ccc([nH]6)c(-c6ccccc6)c6nc(c(-c7ccccc7)c7ccc4[nH]7)C=C6)C=C5)cc3)c2)C1=O
REMARK SMILES IDX 27 1 26 2 25 3 24 4 22 5 23 6 21 7 17 8 18 9 81 10 19 11
REMARK SMILES IDX 20 12 16 13 11 14 12 15 13 16 82 17 14 18 83 19 15 20 10 21
REMARK SMILES IDX 1 22 2 23 3 24 4 25 9 27 5 28 8 29 6 30 7 31 28 32 29 33
REMARK SMILES IDX 30 34 31 35 32 36 33 37 34 38 80 39 35 40 79 41 36 42 37 43
REMARK SMILES IDX 38 44 73 45 39 46 78 47 72 48 74 49 40 50 77 51 71 52 70 53
REMARK SMILES IDX 41 55 63 56 48 57 62 58 49 59 52 60 61 61 75 62 50 63 51 64
REMARK SMILES IDX 60 66 76 67 53 68 42 69 43 70 47 71 44 72 46 73 45 74 64 75
REMARK SMILES IDX 65 76 69 77 66 78 68 79 67 80 54 81 55 82 59 83 56 84 58 85
REMARK SMILES IDX 57 86
REMARK H PARENT 3 26 74 54 52 65
REMARK Flexibility Score: inf
ROOT
ATOM      1  O   UNL     1      -9.127   0.172  -6.523  1.00  0.00    -0.374 OA
ENDROOT
BRANCH   1   2
ATOM      2  C   UNL     1      -9.814  -0.864  -5.822  1.00  0.00     0.202 C 
BRANCH   2   3
ATOM      3  C   UNL     1      -9.350  -2.296  -6.106  1.00  0.00     0.261 C 
BRANCH   3   4
ATOM      4  O   UNL     1      -8.000  -2.504  -5.655  1.00  0.00    -0.460 OA
BRANCH   4   5
ATOM      5  C   UNL     1      -7.092  -2.707  -6.639  1.00  0.00     0.338 C 
ATOM      6  O   UNL     1      -7.321  -2.871  -7.829  1.00  0.00    -0.246 OA
BRANCH   5   7
ATOM      7  C   UNL     1      -5.725  -2.506  -6.110  1.00  0.00     0.062 A 
ATOM      8  C   UNL     1      -4.029  -2.716  -4.376  1.00  0.00     0.051 A 
ATOM      9  C   UNL     1      -3.151  -1.993  -5.207  1.00  0.00     0.027 A 
ATOM     10  C   UNL     1      -5.336  -2.945  -4.835  1.00  0.00     0.042 A 
ATOM     11  C   UNL     1      -3.544  -1.542  -6.468  1.00  0.00     0.003 A 
ATOM     12  C   UNL     1      -4.826  -1.810  -6.925  1.00  0.00     0.016 A 
BRANCH   8  13
ATOM     13  N   UNL     1      -3.577  -3.174  -3.091  1.00  0.00    -0.261 N 
ATOM     14  C   UNL     1      -1.716  -2.474  -0.005  1.00  0.00     0.032 C 
ATOM     15  C   UNL     1      -2.421  -2.996  -1.021  1.00  0.00     0.081 C 
ATOM     16  S   UNL     1      -3.074  -4.586  -0.978  1.00  0.00    -0.054 SA
ATOM     17  C   UNL     1      -2.784  -2.330  -2.307  1.00  0.00     0.270 C 
ATOM     18  C   UNL     1      -3.831  -4.434  -2.564  1.00  0.00     0.152 C 
ATOM     19  O   UNL     1      -2.448  -1.188  -2.594  1.00  0.00    -0.268 OA
ATOM     20  S   UNL     1      -4.606  -5.756  -3.239  1.00  0.00    -0.051 S 
BRANCH  14  21
ATOM     21  C   UNL     1      -1.212  -1.143   0.080  1.00  0.00     0.004 A 
ATOM     22  C   UNL     1      -3.466   0.196   0.215  1.00  0.00     0.065 C 
ATOM     23  C   UNL     1      -1.995  -0.007   0.175  1.00  0.00     0.020 A 
ATOM     24  N   UNL     1      -1.138   1.067   0.177  1.00  0.00    -0.358 N 
ATOM     25  C   UNL     1       0.171   0.648   0.126  1.00  0.00     0.046 A 
ATOM     26  H   UNL     1      -1.422   2.009   0.211  1.00  0.00     0.166 HD
ATOM     27  C   UNL     1       0.157  -0.746   0.088  1.00  0.00     0.007 A 
ATOM     28  C   UNL     1       1.353   1.397   0.100  1.00  0.00     0.027 A 
ATOM     29  C   UNL     1       1.391  -1.428   0.036  1.00  0.00     0.011 A 
ATOM     30  C   UNL     1       2.562   0.698   0.042  1.00  0.00     0.002 A 
ATOM     31  C   UNL     1       2.584  -0.694   0.015  1.00  0.00     0.001 A 
ENDBRANCH  14  21
ENDBRANCH   8  13
ENDBRANCH   5   7
ENDBRANCH   4   5
ENDBRANCH   3   4
ENDBRANCH   2   3
ENDBRANCH   1   2
BRANCH   1  32
ATOM     32  C   UNL     1      -7.868   0.591  -5.993  1.00  0.00     0.202 C 
BRANCH  32  33
ATOM     33  C   UNL     1      -7.919   1.572  -4.816  1.00  0.00     0.261 C 
BRANCH  33  34
ATOM     34  O   UNL     1      -8.498   0.975  -3.642  1.00  0.00    -0.460 OA
BRANCH  34  35
ATOM     35  C   UNL     1      -9.739   1.420  -3.339  1.00  0.00     0.338 C 
ATOM     36  O   UNL     1     -10.362   2.316  -3.890  1.00  0.00    -0.246 OA
BRANCH  35  37
ATOM     37  C   UNL     1     -10.354   0.553  -2.317  1.00  0.00     0.060 A 
ATOM     38  C   UNL     1     -11.643   0.071  -2.576  1.00  0.00     0.016 A 
ATOM     39  C   UNL     1      -9.727   0.288  -1.097  1.00  0.00     0.016 A 
ATOM     40  C   UNL     1     -12.339  -0.621  -1.589  1.00  0.00     0.010 A 
ATOM     41  C   UNL     1     -10.430  -0.405  -0.105  1.00  0.00     0.010 A 
ATOM     42  C   UNL     1     -11.755  -0.821  -0.331  1.00  0.00    -0.014 A 
BRANCH  42  43
ATOM     43  C   UNL     1     -12.595  -1.313   0.787  1.00  0.00     0.031 A 
ATOM     44  C   UNL     1     -13.133  -0.323   1.785  1.00  0.00     0.074 A 
ATOM     45  C   UNL     1     -12.918  -2.614   0.888  1.00  0.00     0.049 A 
ATOM     46  N   UNL     1     -13.900  -0.527   2.826  1.00  0.00    -0.248 NA
ATOM     47  C   UNL     1     -12.756   1.086   1.583  1.00  0.00     0.031 C 
ATOM     48  C   UNL     1     -12.500  -3.665  -0.039  1.00  0.00     0.029 A 
ATOM     49  N   UNL     1     -13.683  -3.269   1.820  1.00  0.00    -0.354 N 
ATOM     50  C   UNL     1     -14.086   0.722   3.408  1.00  0.00     0.074 A 
ATOM     51  C   UNL     1     -13.328   1.672   2.624  1.00  0.00     0.031 C 
ATOM     52  C   UNL     1     -13.022  -4.835   0.367  1.00  0.00     0.029 A 
ATOM     53  C   UNL     1     -13.782  -4.620   1.597  1.00  0.00     0.049 A 
ATOM     54  H   UNL     1     -14.119  -2.814   2.576  1.00  0.00     0.167 HD
ATOM     55  C   UNL     1     -14.826   1.051   4.494  1.00  0.00     0.031 A 
ATOM     56  C   UNL     1     -14.408  -5.576   2.310  1.00  0.00     0.031 A 
ATOM     57  C   UNL     1     -15.577   0.107   5.278  1.00  0.00     0.049 A 
ATOM     58  C   UNL     1     -15.165  -5.194   3.554  1.00  0.00     0.074 A 
ATOM     59  C   UNL     1     -16.381   0.348   6.379  1.00  0.00     0.029 A 
ATOM     60  N   UNL     1     -15.611  -1.259   5.048  1.00  0.00    -0.354 N 
ATOM     61  N   UNL     1     -15.361  -4.006   4.074  1.00  0.00    -0.248 NA
ATOM     62  C   UNL     1     -15.796  -6.290   4.305  1.00  0.00     0.031 C 
ATOM     63  C   UNL     1     -16.852  -0.882   6.852  1.00  0.00     0.029 A 
ATOM     64  C   UNL     1     -16.394  -1.880   6.006  1.00  0.00     0.049 A 
ATOM     65  H   UNL     1     -15.146  -1.720   4.312  1.00  0.00     0.167 HD
ATOM     66  C   UNL     1     -16.166  -4.207   5.189  1.00  0.00     0.074 A 
ATOM     67  C   UNL     1     -16.430  -5.630   5.263  1.00  0.00     0.031 C 
ATOM     68  C   UNL     1     -16.648  -3.296   6.069  1.00  0.00     0.031 A 
BRANCH  55  69
ATOM     69  C   UNL     1     -14.822   2.493   4.921  1.00  0.00    -0.014 A 
ATOM     70  C   UNL     1     -15.474   3.483   4.169  1.00  0.00     0.009 A 
ATOM     71  C   UNL     1     -14.175   2.861   6.111  1.00  0.00     0.009 A 
ATOM     72  C   UNL     1     -15.445   4.818   4.581  1.00  0.00     0.001 A 
ATOM     73  C   UNL     1     -14.173   4.190   6.536  1.00  0.00     0.001 A 
ATOM     74  C   UNL     1     -14.798   5.169   5.766  1.00  0.00     0.000 A 
ENDBRANCH  55  69
BRANCH  56  75
ATOM     75  C   UNL     1     -14.347  -6.995   1.871  1.00  0.00    -0.014 A 
ATOM     76  C   UNL     1     -15.495  -7.644   1.392  1.00  0.00     0.009 A 
ATOM     77  C   UNL     1     -13.145  -7.715   1.952  1.00  0.00     0.009 A 
ATOM     78  C   UNL     1     -15.446  -8.991   1.027  1.00  0.00     0.001 A 
ATOM     79  C   UNL     1     -13.092  -9.053   1.559  1.00  0.00     0.001 A 
ATOM     80  C   UNL     1     -14.244  -9.693   1.106  1.00  0.00     0.000 A 
ENDBRANCH  56  75
BRANCH  68  81
ATOM     81  C   UNL     1     -17.547  -3.803   7.163  1.00  0.00    -0.014 A 
ATOM     82  C   UNL     1     -17.047  -4.565   8.230  1.00  0.00     0.009 A 
ATOM     83  C   UNL     1     -18.914  -3.482   7.140  1.00  0.00     0.009 A 
ATOM     84  C   UNL     1     -17.905  -5.028   9.230  1.00  0.00     0.001 A 
ATOM     85  C   UNL     1     -19.763  -3.919   8.157  1.00  0.00     0.001 A 
ATOM     86  C   UNL     1     -19.260  -4.701   9.196  1.00  0.00     0.000 A 
ENDBRANCH  68  81
ENDBRANCH  42  43
ENDBRANCH  35  37
ENDBRANCH  34  35
ENDBRANCH  33  34
ENDBRANCH  32  33
ENDBRANCH   1  32
TORSDOF 16
