REMARK SMILES CCCCc1ncc(C[N@H+]2C[C@@H]3c4ccccc4OC[C@]3(C(=O)OCCOCCOC(=O)c3ccc(-c4c5nc(c(-c6ccccc6)c6ccc([nH]6)c(-c6ccccc6)c6nc(c(-c7ccccc7)c7ccc4[nH]7)C=C6)C=C5)cc3)C2)[nH]1
REMARK SMILES IDX 25 1 24 2 22 3 23 4 21 5 10 6 11 7 81 8 12 10 13 11 20 12
REMARK SMILES IDX 14 13 18 14 19 15 15 16 17 17 16 18 9 19 8 20 5 21 6 22
REMARK SMILES IDX 82 23 7 24 4 26 3 27 2 28 1 29 26 30 27 31 28 32 29 33 30 34
REMARK SMILES IDX 31 35 32 36 33 37 34 38 80 39 35 40 79 41 36 42 37 43 38 44
REMARK SMILES IDX 73 45 39 46 78 47 72 48 74 49 40 50 77 51 71 52 70 53 41 55
REMARK SMILES IDX 63 56 48 57 62 58 49 59 52 60 61 61 75 62 50 63 51 64 60 66
REMARK SMILES IDX 76 67 53 68 42 69 43 70 47 71 44 72 46 73 45 74 64 75 65 76
REMARK SMILES IDX 69 77 66 78 68 79 67 80 54 81 55 82 59 83 56 84 58 85 57 86
REMARK H PARENT 10 9 82 25 74 54 52 65
REMARK Flexibility Score: inf
ROOT
ATOM      1  C   UNL     1      -0.584  -8.654  -3.484  1.00  0.00     0.261 C 
ENDROOT
BRANCH   1   2
ATOM      2  O   UNL     1      -1.630  -7.655  -3.471  1.00  0.00    -0.463 OA
BRANCH   2   3
ATOM      3  C   UNL     1      -1.425  -6.293  -3.566  1.00  0.00     0.322 C 
ATOM      4  O   UNL     1      -0.381  -5.716  -3.324  1.00  0.00    -0.251 OA
BRANCH   3   5
ATOM      5  C   UNL     1      -2.764  -5.692  -4.050  1.00  0.00     0.162 C 
ATOM      6  N   UNL     1      -4.480  -4.771  -2.572  1.00  0.00    -0.328 N 
ATOM      7  C   UNL     1      -4.367  -3.914  -3.743  1.00  0.00     0.272 C 
ATOM      8  C   UNL     1      -3.717  -5.977  -2.865  1.00  0.00     0.286 C 
ATOM      9  H   UNL     1      -5.454  -5.028  -2.413  1.00  0.00     0.348 HD
ATOM     10  C   UNL     1      -2.991  -4.203  -4.381  1.00  0.00     0.105 C 
ATOM     11  C   UNL     1      -3.151  -3.853  -5.851  1.00  0.00     0.004 A 
ATOM     12  C   UNL     1      -2.972  -6.529  -5.312  1.00  0.00     0.255 C 
ATOM     13  C   UNL     1      -3.217  -2.528  -6.299  1.00  0.00     0.008 A 
ATOM     14  C   UNL     1      -3.467  -4.850  -6.770  1.00  0.00     0.123 A 
ATOM     15  O   UNL     1      -3.835  -6.085  -6.330  1.00  0.00    -0.492 OA
ATOM     16  C   UNL     1      -3.505  -2.245  -7.643  1.00  0.00     0.001 A 
ATOM     17  C   UNL     1      -3.643  -4.593  -8.126  1.00  0.00     0.047 A 
ATOM     18  C   UNL     1      -3.661  -3.277  -8.567  1.00  0.00     0.004 A 
BRANCH   6  19
ATOM     19  C   UNL     1      -4.227  -4.122  -1.286  1.00  0.00     0.319 C 
BRANCH  19  20
ATOM     20  C   UNL     1      -3.083  -3.177  -1.263  1.00  0.00     0.090 A 
ATOM     21  C   UNL     1      -1.009  -2.388  -1.342  1.00  0.00     0.106 A 
ATOM     22  N   UNL     1      -1.790  -1.329  -1.358  1.00  0.00    -0.241 NA
ATOM     23  N   UNL     1      -1.758  -3.534  -1.211  1.00  0.00    -0.341 N 
ATOM     24  C   UNL     1      -3.067  -1.800  -1.302  1.00  0.00     0.140 A 
ATOM     25  H   UNL     1      -1.407  -4.447  -1.099  1.00  0.00     0.168 HD
BRANCH  21  26
ATOM     26  C   UNL     1       0.479  -2.422  -1.440  1.00  0.00     0.075 C 
BRANCH  26  27
ATOM     27  C   UNL     1       1.092  -1.206  -2.146  1.00  0.00     0.008 C 
BRANCH  27  28
ATOM     28  C   UNL     1       0.876   0.161  -1.483  1.00  0.00    -0.003 C 
ATOM     29  C   UNL     1       1.241   0.207  -0.009  1.00  0.00     0.004 C 
ENDBRANCH  27  28
ENDBRANCH  26  27
ENDBRANCH  21  26
ENDBRANCH  19  20
ENDBRANCH   6  19
ENDBRANCH   3   5
ENDBRANCH   2   3
ENDBRANCH   1   2
BRANCH   1  30
ATOM     30  C   UNL     1      -1.235  -9.998  -3.912  1.00  0.00     0.202 C 
BRANCH  30  31
ATOM     31  O   UNL     1      -1.214 -10.360  -5.301  1.00  0.00    -0.374 OA
BRANCH  31  32
ATOM     32  C   UNL     1      -1.910  -9.541  -6.235  1.00  0.00     0.202 C 
BRANCH  32  33
ATOM     33  C   UNL     1      -3.441  -9.702  -6.361  1.00  0.00     0.261 C 
BRANCH  33  34
ATOM     34  O   UNL     1      -4.080 -10.038  -5.125  1.00  0.00    -0.460 OA
BRANCH  34  35
ATOM     35  C   UNL     1      -4.301 -11.365  -4.995  1.00  0.00     0.338 C 
ATOM     36  O   UNL     1      -4.129 -12.235  -5.841  1.00  0.00    -0.246 OA
BRANCH  35  37
ATOM     37  C   UNL     1      -4.628 -11.686  -3.602  1.00  0.00     0.060 A 
ATOM     38  C   UNL     1      -5.715 -11.112  -2.940  1.00  0.00     0.016 A 
ATOM     39  C   UNL     1      -3.842 -12.664  -2.981  1.00  0.00     0.016 A 
ATOM     40  C   UNL     1      -6.040 -11.562  -1.658  1.00  0.00     0.010 A 
ATOM     41  C   UNL     1      -4.176 -13.119  -1.711  1.00  0.00     0.010 A 
ATOM     42  C   UNL     1      -5.292 -12.590  -1.050  1.00  0.00    -0.014 A 
BRANCH  42  43
ATOM     43  C   UNL     1      -5.763 -13.215   0.209  1.00  0.00     0.031 A 
ATOM     44  C   UNL     1      -5.033 -13.020   1.502  1.00  0.00     0.074 A 
ATOM     45  C   UNL     1      -6.851 -14.007   0.158  1.00  0.00     0.049 A 
ATOM     46  N   UNL     1      -5.377 -13.414   2.702  1.00  0.00    -0.248 NA
ATOM     47  C   UNL     1      -3.750 -12.304   1.447  1.00  0.00     0.031 C 
ATOM     48  C   UNL     1      -7.599 -14.321  -1.061  1.00  0.00     0.029 A 
ATOM     49  N   UNL     1      -7.524 -14.680   1.146  1.00  0.00    -0.354 N 
ATOM     50  C   UNL     1      -4.366 -12.979   3.547  1.00  0.00     0.074 A 
ATOM     51  C   UNL     1      -3.367 -12.341   2.717  1.00  0.00     0.031 C 
ATOM     52  C   UNL     1      -8.657 -15.080  -0.741  1.00  0.00     0.029 A 
ATOM     53  C   UNL     1      -8.644 -15.337   0.696  1.00  0.00     0.049 A 
ATOM     54  H   UNL     1      -7.234 -14.690   2.087  1.00  0.00     0.167 HD
ATOM     55  C   UNL     1      -4.296 -13.088   4.895  1.00  0.00     0.031 A 
ATOM     56  C   UNL     1      -9.570 -16.053   1.363  1.00  0.00     0.031 A 
ATOM     57  C   UNL     1      -5.287 -13.752   5.703  1.00  0.00     0.049 A 
ATOM     58  C   UNL     1      -9.463 -16.170   2.857  1.00  0.00     0.074 A 
ATOM     59  C   UNL     1      -5.329 -13.871   7.081  1.00  0.00     0.029 A 
ATOM     60  N   UNL     1      -6.398 -14.423   5.210  1.00  0.00    -0.354 N 
ATOM     61  N   UNL     1      -8.560 -15.660   3.660  1.00  0.00    -0.248 NA
ATOM     62  C   UNL     1     -10.513 -16.935   3.543  1.00  0.00     0.031 C 
ATOM     63  C   UNL     1      -6.415 -14.682   7.416  1.00  0.00     0.029 A 
ATOM     64  C   UNL     1      -7.109 -14.988   6.256  1.00  0.00     0.049 A 
ATOM     65  H   UNL     1      -6.644 -14.487   4.259  1.00  0.00     0.167 HD
ATOM     66  C   UNL     1      -8.945 -16.018   4.945  1.00  0.00     0.074 A 
ATOM     67  C   UNL     1     -10.175 -16.772   4.816  1.00  0.00     0.031 C 
ATOM     68  C   UNL     1      -8.332 -15.742   6.123  1.00  0.00     0.031 A 
BRANCH  55  69
ATOM     69  C   UNL     1      -3.115 -12.472   5.597  1.00  0.00    -0.014 A 
ATOM     70  C   UNL     1      -2.217 -13.286   6.308  1.00  0.00     0.009 A 
ATOM     71  C   UNL     1      -2.952 -11.079   5.653  1.00  0.00     0.009 A 
ATOM     72  C   UNL     1      -1.196 -12.718   7.073  1.00  0.00     0.001 A 
ATOM     73  C   UNL     1      -1.908 -10.515   6.391  1.00  0.00     0.001 A 
ATOM     74  C   UNL     1      -1.039 -11.334   7.110  1.00  0.00     0.000 A 
ENDBRANCH  55  69
BRANCH  56  75
ATOM     75  C   UNL     1     -10.708 -16.644   0.609  1.00  0.00    -0.014 A 
ATOM     76  C   UNL     1     -10.490 -17.671  -0.326  1.00  0.00     0.009 A 
ATOM     77  C   UNL     1     -12.005 -16.131   0.756  1.00  0.00     0.009 A 
ATOM     78  C   UNL     1     -11.537 -18.144  -1.120  1.00  0.00     0.001 A 
ATOM     79  C   UNL     1     -13.058 -16.631  -0.014  1.00  0.00     0.001 A 
ATOM     80  C   UNL     1     -12.821 -17.627  -0.961  1.00  0.00     0.000 A 
ENDBRANCH  56  75
BRANCH  68  81
ATOM     81  C   UNL     1      -8.977 -16.238   7.391  1.00  0.00    -0.014 A 
ATOM     82  C   UNL     1      -9.447 -15.312   8.338  1.00  0.00     0.009 A 
ATOM     83  C   UNL     1      -9.020 -17.605   7.705  1.00  0.00     0.009 A 
ATOM     84  C   UNL     1      -9.923 -15.740   9.579  1.00  0.00     0.001 A 
ATOM     85  C   UNL     1      -9.534 -18.033   8.932  1.00  0.00     0.001 A 
ATOM     86  C   UNL     1      -9.971 -17.101   9.872  1.00  0.00     0.000 A 
ENDBRANCH  68  81
ENDBRANCH  42  43
ENDBRANCH  35  37
ENDBRANCH  34  35
ENDBRANCH  33  34
ENDBRANCH  32  33
ENDBRANCH  31  32
ENDBRANCH  30  31
ENDBRANCH   1  30
TORSDOF 19
