REMARK SMILES COC(=O)C[C@H](c1ccc(C(=O)OCCOCCOC(=O)c2ccc(-c3c4nc(c(-c5ccccc5)c5ccc([nH]5)c(-c5ccccc5)c5nc(c(-c6ccccc6)c6ccc3[nH]6)C=C5)C=C4)cc2)cc1)c1c(O)n[nH]c1C
REMARK SMILES IDX 15 1 14 2 13 3 11 4 12 5 10 6 7 7 8 8 71 9 9 10 70 11 6 12
REMARK SMILES IDX 5 13 3 14 4 15 2 16 1 17 72 18 73 19 77 20 75 21 76 22 78 23
REMARK SMILES IDX 74 25 16 27 17 28 18 29 19 30 20 31 21 32 22 33 23 34 69 35
REMARK SMILES IDX 24 36 68 37 25 38 26 39 27 40 62 41 28 42 67 43 61 44 63 45
REMARK SMILES IDX 29 46 66 47 60 48 59 49 30 51 52 52 37 53 51 54 38 55 41 56
REMARK SMILES IDX 50 57 64 58 39 59 40 60 49 62 65 63 42 64 31 65 32 66 36 67
REMARK SMILES IDX 33 68 35 69 34 70 53 71 54 72 58 73 55 74 57 75 56 76 43 77
REMARK SMILES IDX 44 78 48 79 45 80 47 81 46 82
REMARK H PARENT 76 24 74 26 63 50 41 61
REMARK Flexibility Score: inf
ROOT
ATOM      1  C   UNL     1      -4.170   2.483  -6.081  1.00  0.00     0.202 C 
ENDROOT
BRANCH   1   2
ATOM      2  C   UNL     1      -3.534   2.953  -4.768  1.00  0.00     0.261 C 
BRANCH   2   3
ATOM      3  O   UNL     1      -2.438   2.111  -4.379  1.00  0.00    -0.460 OA
BRANCH   3   4
ATOM      4  C   UNL     1      -2.678   1.364  -3.273  1.00  0.00     0.338 C 
ATOM      5  O   UNL     1      -3.614   1.486  -2.498  1.00  0.00    -0.246 OA
BRANCH   4   6
ATOM      6  C   UNL     1      -1.739   0.224  -3.211  1.00  0.00     0.060 A 
ATOM      7  C   UNL     1      -0.075  -2.039  -3.003  1.00  0.00    -0.040 A 
ATOM      8  C   UNL     1      -1.449  -2.127  -2.719  1.00  0.00     0.005 A 
ATOM      9  C   UNL     1       0.445  -0.797  -3.419  1.00  0.00     0.005 A 
ATOM     10  C   UNL     1      -2.270  -1.006  -2.813  1.00  0.00     0.016 A 
ATOM     11  C   UNL     1      -0.384   0.328  -3.537  1.00  0.00     0.016 A 
BRANCH   7  12
ATOM     12  C   UNL     1       0.851  -3.238  -2.792  1.00  0.00     0.068 C 
BRANCH  12  13
ATOM     13  C   UNL     1       0.767  -3.707  -1.329  1.00  0.00     0.136 C 
BRANCH  13  14
ATOM     14  C   UNL     1       1.566  -2.812  -0.423  1.00  0.00     0.306 C 
ATOM     15  O   UNL     1       1.098  -1.913   0.260  1.00  0.00    -0.252 OA
BRANCH  14  16
ATOM     16  O   UNL     1       2.879  -3.176  -0.450  1.00  0.00    -0.469 OA
ATOM     17  C   UNL     1       3.697  -2.490   0.497  1.00  0.00     0.282 C 
ENDBRANCH  14  16
ENDBRANCH  13  14
ENDBRANCH  12  13
BRANCH  12  18
ATOM     18  C   UNL     1       0.491  -4.304  -3.816  1.00  0.00     0.044 A 
ATOM     19  C   UNL     1       0.792  -5.682  -3.725  1.00  0.00     0.234 A 
ATOM     20  C   UNL     1      -0.073  -4.232  -5.093  1.00  0.00     0.040 A 
ATOM     21  N   UNL     1       0.408  -6.425  -4.747  1.00  0.00    -0.137 NA
ATOM     22  N   UNL     1      -0.141  -5.520  -5.566  1.00  0.00    -0.279 N 
ATOM     23  C   UNL     1      -0.552  -3.112  -5.943  1.00  0.00     0.066 C 
ATOM     24  H   UNL     1      -0.554  -5.756  -6.428  1.00  0.00     0.190 HD
BRANCH  19  25
ATOM     25  O   UNL     1       1.433  -6.362  -2.780  1.00  0.00    -0.492 OA
ATOM     26  H   UNL     1       1.745  -5.920  -2.015  1.00  0.00     0.295 HD
ENDBRANCH  19  25
ENDBRANCH  12  18
ENDBRANCH   7  12
ENDBRANCH   4   6
ENDBRANCH   3   4
ENDBRANCH   2   3
ENDBRANCH   1   2
BRANCH   1  27
ATOM     27  O   UNL     1      -4.563   1.114  -6.139  1.00  0.00    -0.374 OA
BRANCH  27  28
ATOM     28  C   UNL     1      -3.546   0.162  -6.467  1.00  0.00     0.202 C 
BRANCH  28  29
ATOM     29  C   UNL     1      -3.131   0.105  -7.943  1.00  0.00     0.261 C 
BRANCH  29  30
ATOM     30  O   UNL     1      -2.334   1.249  -8.307  1.00  0.00    -0.460 OA
BRANCH  30  31
ATOM     31  C   UNL     1      -2.883   2.062  -9.239  1.00  0.00     0.338 C 
ATOM     32  O   UNL     1      -3.909   1.874  -9.877  1.00  0.00    -0.246 OA
BRANCH  31  33
ATOM     33  C   UNL     1      -2.163   3.349  -9.262  1.00  0.00     0.060 A 
ATOM     34  C   UNL     1      -2.917   4.518  -9.097  1.00  0.00     0.016 A 
ATOM     35  C   UNL     1      -0.788   3.419  -9.499  1.00  0.00     0.016 A 
ATOM     36  C   UNL     1      -2.308   5.765  -9.213  1.00  0.00     0.010 A 
ATOM     37  C   UNL     1      -0.180   4.673  -9.627  1.00  0.00     0.010 A 
ATOM     38  C   UNL     1      -0.943   5.849  -9.518  1.00  0.00    -0.014 A 
BRANCH  38  39
ATOM     39  C   UNL     1      -0.351   7.164  -9.863  1.00  0.00     0.031 A 
ATOM     40  C   UNL     1      -0.181   7.530 -11.312  1.00  0.00     0.074 A 
ATOM     41  C   UNL     1       0.003   8.035  -8.902  1.00  0.00     0.049 A 
ATOM     42  N   UNL     1       0.324   8.617 -11.839  1.00  0.00    -0.248 NA
ATOM     43  C   UNL     1      -0.641   6.538 -12.298  1.00  0.00     0.031 C 
ATOM     44  C   UNL     1      -0.150   7.819  -7.464  1.00  0.00     0.029 A 
ATOM     45  N   UNL     1       0.569   9.282  -8.998  1.00  0.00    -0.354 N 
ATOM     46  C   UNL     1       0.247   8.438 -13.214  1.00  0.00     0.074 A 
ATOM     47  C   UNL     1      -0.325   7.129 -13.441  1.00  0.00     0.031 C 
ATOM     48  C   UNL     1       0.316   8.897  -6.811  1.00  0.00     0.029 A 
ATOM     49  C   UNL     1       0.825   9.864  -7.782  1.00  0.00     0.049 A 
ATOM     50  H   UNL     1       0.771   9.717  -9.858  1.00  0.00     0.167 HD
ATOM     51  C   UNL     1       0.613   9.290 -14.202  1.00  0.00     0.031 A 
ATOM     52  C   UNL     1       1.419  11.035  -7.485  1.00  0.00     0.031 A 
ATOM     53  C   UNL     1       1.194  10.586 -13.980  1.00  0.00     0.049 A 
ATOM     54  C   UNL     1       1.889  11.931  -8.600  1.00  0.00     0.074 A 
ATOM     55  C   UNL     1       1.584  11.528 -14.917  1.00  0.00     0.029 A 
ATOM     56  N   UNL     1       1.477  11.120 -12.733  1.00  0.00    -0.354 N 
ATOM     57  N   UNL     1       1.786  11.762  -9.896  1.00  0.00    -0.248 NA
ATOM     58  C   UNL     1       2.553  13.183  -8.208  1.00  0.00     0.031 C 
ATOM     59  C   UNL     1       2.152  12.611 -14.237  1.00  0.00     0.029 A 
ATOM     60  C   UNL     1       2.063  12.367 -12.876  1.00  0.00     0.049 A 
ATOM     61  H   UNL     1       1.289  10.679 -11.874  1.00  0.00     0.167 HD
ATOM     62  C   UNL     1       2.345  12.897 -10.472  1.00  0.00     0.074 A 
ATOM     63  C   UNL     1       2.774  13.752  -9.385  1.00  0.00     0.031 C 
ATOM     64  C   UNL     1       2.488  13.204 -11.785  1.00  0.00     0.031 A 
BRANCH  51  65
ATOM     65  C   UNL     1       0.425   8.824 -15.618  1.00  0.00    -0.014 A 
ATOM     66  C   UNL     1      -0.853   8.733 -16.192  1.00  0.00     0.009 A 
ATOM     67  C   UNL     1       1.546   8.501 -16.398  1.00  0.00     0.009 A 
ATOM     68  C   UNL     1      -1.006   8.294 -17.509  1.00  0.00     0.001 A 
ATOM     69  C   UNL     1       1.391   8.088 -17.723  1.00  0.00     0.001 A 
ATOM     70  C   UNL     1       0.116   7.977 -18.274  1.00  0.00     0.000 A 
ENDBRANCH  51  65
BRANCH  52  71
ATOM     71  C   UNL     1       1.623  11.428  -6.067  1.00  0.00    -0.014 A 
ATOM     72  C   UNL     1       0.898  12.490  -5.506  1.00  0.00     0.009 A 
ATOM     73  C   UNL     1       2.563  10.754  -5.272  1.00  0.00     0.009 A 
ATOM     74  C   UNL     1       1.127  12.883  -4.185  1.00  0.00     0.001 A 
ATOM     75  C   UNL     1       2.770  11.131  -3.943  1.00  0.00     0.001 A 
ATOM     76  C   UNL     1       2.058  12.201  -3.404  1.00  0.00     0.000 A 
ENDBRANCH  52  71
BRANCH  64  77
ATOM     77  C   UNL     1       3.103  14.534 -12.118  1.00  0.00    -0.014 A 
ATOM     78  C   UNL     1       4.476  14.767 -11.943  1.00  0.00     0.009 A 
ATOM     79  C   UNL     1       2.303  15.555 -12.654  1.00  0.00     0.009 A 
ATOM     80  C   UNL     1       5.028  16.008 -12.269  1.00  0.00     0.001 A 
ATOM     81  C   UNL     1       2.862  16.785 -13.005  1.00  0.00     0.001 A 
ATOM     82  C   UNL     1       4.223  17.013 -12.804  1.00  0.00     0.000 A 
ENDBRANCH  64  77
ENDBRANCH  38  39
ENDBRANCH  31  33
ENDBRANCH  30  31
ENDBRANCH  29  30
ENDBRANCH  28  29
ENDBRANCH  27  28
ENDBRANCH   1  27
TORSDOF 20
