REMARK SMILES O=C(OCCOCCOC(=O)[C@@H]1CCC(=O)N1C(=O)/C=C/c1ccccc1)c1ccc(-c2c3nc(c(-c4ccccc4)c4ccc([nH]4)c(-c4ccccc4)c4nc(c(-c5ccccc5)c5ccc2[nH]5)C=C4)C=C3)cc1
REMARK SMILES IDX 7 1 6 2 5 3 4 4 3 5 2 6 1 7 28 8 29 9 75 10 30 11 74 12
REMARK SMILES IDX 31 13 32 14 33 15 68 16 34 17 73 18 67 19 69 20 35 21 72 22
REMARK SMILES IDX 66 23 65 24 36 26 58 27 43 28 57 29 44 30 47 31 56 32 70 33
REMARK SMILES IDX 45 34 46 35 55 37 71 38 48 39 37 40 38 41 42 42 39 43 41 44
REMARK SMILES IDX 40 45 59 46 60 47 64 48 61 49 63 50 62 51 49 52 50 53 54 54
REMARK SMILES IDX 51 55 53 56 52 57 8 58 9 59 10 60 11 61 12 62 13 63 17 64
REMARK SMILES IDX 14 65 15 66 16 67 18 68 19 69 20 70 21 71 22 72 23 73 27 74
REMARK SMILES IDX 24 75 26 76 25 77
REMARK H PARENT 69 25 47 36
REMARK Flexibility Score: inf
ROOT
ATOM      1  C   UNL     1       2.578  -0.305   2.079  1.00  0.00     0.202 C 
ENDROOT
BRANCH   1   2
ATOM      2  O   UNL     1       3.966  -0.250   1.730  1.00  0.00    -0.374 OA
BRANCH   2   3
ATOM      3  C   UNL     1       4.443   0.966   1.151  1.00  0.00     0.202 C 
BRANCH   3   4
ATOM      4  C   UNL     1       4.092   1.253  -0.310  1.00  0.00     0.261 C 
BRANCH   4   5
ATOM      5  O   UNL     1       2.682   1.096  -0.538  1.00  0.00    -0.460 OA
BRANCH   5   6
ATOM      6  C   UNL     1       2.086   0.079  -1.206  1.00  0.00     0.338 C 
ATOM      7  O   UNL     1       0.878   0.115  -1.421  1.00  0.00    -0.246 OA
BRANCH   6   8
ATOM      8  C   UNL     1       2.861  -1.094  -1.692  1.00  0.00     0.060 A 
ATOM      9  C   UNL     1       3.944  -1.629  -0.997  1.00  0.00     0.016 A 
ATOM     10  C   UNL     1       2.429  -1.744  -2.855  1.00  0.00     0.016 A 
ATOM     11  C   UNL     1       4.655  -2.706  -1.472  1.00  0.00     0.010 A 
ATOM     12  C   UNL     1       3.086  -2.894  -3.301  1.00  0.00     0.010 A 
ATOM     13  C   UNL     1       4.202  -3.370  -2.602  1.00  0.00    -0.014 A 
BRANCH  13  14
ATOM     14  C   UNL     1       4.961  -4.559  -3.003  1.00  0.00     0.031 A 
ATOM     15  C   UNL     1       5.864  -4.465  -4.185  1.00  0.00     0.074 A 
ATOM     16  C   UNL     1       4.938  -5.634  -2.192  1.00  0.00     0.049 A 
ATOM     17  N   UNL     1       6.585  -5.398  -4.739  1.00  0.00    -0.248 NA
ATOM     18  C   UNL     1       5.987  -3.141  -4.822  1.00  0.00     0.031 C 
ATOM     19  C   UNL     1       4.196  -5.725  -0.927  1.00  0.00     0.029 A 
ATOM     20  N   UNL     1       5.585  -6.834  -2.281  1.00  0.00    -0.354 N 
ATOM     21  C   UNL     1       7.211  -4.789  -5.816  1.00  0.00     0.074 A 
ATOM     22  C   UNL     1       6.805  -3.403  -5.831  1.00  0.00     0.031 C 
ATOM     23  C   UNL     1       4.453  -6.908  -0.350  1.00  0.00     0.029 A 
ATOM     24  C   UNL     1       5.292  -7.689  -1.246  1.00  0.00     0.049 A 
ATOM     25  H   UNL     1       6.200  -7.064  -3.015  1.00  0.00     0.167 HD
ATOM     26  C   UNL     1       8.032  -5.365  -6.721  1.00  0.00     0.031 A 
ATOM     27  C   UNL     1       5.622  -8.982  -1.084  1.00  0.00     0.031 A 
ATOM     28  C   UNL     1       8.404  -6.751  -6.666  1.00  0.00     0.049 A 
ATOM     29  C   UNL     1       6.439  -9.621  -2.172  1.00  0.00     0.074 A 
ATOM     30  C   UNL     1       9.182  -7.474  -7.549  1.00  0.00     0.029 A 
ATOM     31  N   UNL     1       8.014  -7.623  -5.658  1.00  0.00    -0.354 N 
ATOM     32  N   UNL     1       6.977  -9.065  -3.233  1.00  0.00    -0.248 NA
ATOM     33  C   UNL     1       6.671 -11.064  -2.061  1.00  0.00     0.031 C 
ATOM     34  C   UNL     1       9.211  -8.800  -7.106  1.00  0.00     0.029 A 
ATOM     35  C   UNL     1       8.503  -8.889  -5.915  1.00  0.00     0.049 A 
ATOM     36  H   UNL     1       7.469  -7.376  -4.876  1.00  0.00     0.167 HD
ATOM     37  C   UNL     1       7.617 -10.088  -3.913  1.00  0.00     0.074 A 
ATOM     38  C   UNL     1       7.429 -11.291  -3.124  1.00  0.00     0.031 C 
ATOM     39  C   UNL     1       8.287 -10.051  -5.091  1.00  0.00     0.031 A 
BRANCH  26  40
ATOM     40  C   UNL     1       8.478  -4.526  -7.880  1.00  0.00    -0.014 A 
ATOM     41  C   UNL     1       9.447  -3.521  -7.743  1.00  0.00     0.009 A 
ATOM     42  C   UNL     1       7.904  -4.750  -9.142  1.00  0.00     0.009 A 
ATOM     43  C   UNL     1       9.815  -2.743  -8.845  1.00  0.00     0.001 A 
ATOM     44  C   UNL     1       8.290  -3.988 -10.245  1.00  0.00     0.001 A 
ATOM     45  C   UNL     1       9.241  -2.980 -10.094  1.00  0.00     0.000 A 
ENDBRANCH  26  40
BRANCH  27  46
ATOM     46  C   UNL     1       5.089  -9.772   0.059  1.00  0.00    -0.014 A 
ATOM     47  C   UNL     1       5.947 -10.372   0.992  1.00  0.00     0.009 A 
ATOM     48  C   UNL     1       3.704  -9.971   0.196  1.00  0.00     0.009 A 
ATOM     49  C   UNL     1       5.433 -11.182   2.010  1.00  0.00     0.001 A 
ATOM     50  C   UNL     1       3.190 -10.750   1.235  1.00  0.00     0.001 A 
ATOM     51  C   UNL     1       4.056 -11.369   2.131  1.00  0.00     0.000 A 
ENDBRANCH  27  46
BRANCH  39  52
ATOM     52  C   UNL     1       8.874 -11.345  -5.566  1.00  0.00    -0.014 A 
ATOM     53  C   UNL     1       8.058 -12.361  -6.083  1.00  0.00     0.009 A 
ATOM     54  C   UNL     1      10.265 -11.524  -5.539  1.00  0.00     0.009 A 
ATOM     55  C   UNL     1       8.626 -13.550  -6.540  1.00  0.00     0.001 A 
ATOM     56  C   UNL     1      10.831 -12.699  -6.027  1.00  0.00     0.001 A 
ATOM     57  C   UNL     1      10.011 -13.714  -6.519  1.00  0.00     0.000 A 
ENDBRANCH  39  52
ENDBRANCH  13  14
ENDBRANCH   6   8
ENDBRANCH   5   6
ENDBRANCH   4   5
ENDBRANCH   3   4
ENDBRANCH   2   3
ENDBRANCH   1   2
BRANCH   1  58
ATOM     58  C   UNL     1       2.422  -0.879   3.493  1.00  0.00     0.261 C 
BRANCH  58  59
ATOM     59  O   UNL     1       3.053   0.021   4.422  1.00  0.00    -0.462 OA
BRANCH  59  60
ATOM     60  C   UNL     1       4.409  -0.135   4.512  1.00  0.00     0.329 C 
ATOM     61  O   UNL     1       4.979  -1.200   4.311  1.00  0.00    -0.250 OA
BRANCH  60  62
ATOM     62  C   UNL     1       5.106   1.204   4.837  1.00  0.00     0.204 C 
ATOM     63  C   UNL     1       4.219   2.415   4.522  1.00  0.00     0.047 C 
ATOM     64  N   UNL     1       6.279   1.386   3.980  1.00  0.00    -0.265 N 
ATOM     65  C   UNL     1       5.151   3.446   3.929  1.00  0.00     0.103 C 
ATOM     66  C   UNL     1       6.228   2.609   3.291  1.00  0.00     0.230 C 
ATOM     67  O   UNL     1       6.866   2.967   2.329  1.00  0.00    -0.274 OA
BRANCH  64  68
ATOM     68  C   UNL     1       7.397   0.588   4.184  1.00  0.00     0.253 C 
ATOM     69  O   UNL     1       7.498  -0.180   5.141  1.00  0.00    -0.269 OA
BRANCH  68  70
ATOM     70  C   UNL     1       8.555   0.703   3.264  1.00  0.00     0.072 C 
ATOM     71  C   UNL     1       9.347   1.785   3.328  1.00  0.00     0.014 C 
BRANCH  71  72
ATOM     72  C   UNL     1      10.637   1.988   2.646  1.00  0.00    -0.025 A 
ATOM     73  C   UNL     1      11.388   3.117   3.010  1.00  0.00     0.008 A 
ATOM     74  C   UNL     1      11.168   1.120   1.683  1.00  0.00     0.008 A 
ATOM     75  C   UNL     1      12.646   3.359   2.453  1.00  0.00     0.001 A 
ATOM     76  C   UNL     1      12.429   1.363   1.124  1.00  0.00     0.001 A 
ATOM     77  C   UNL     1      13.169   2.478   1.514  1.00  0.00     0.000 A 
ENDBRANCH  71  72
ENDBRANCH  68  70
ENDBRANCH  64  68
ENDBRANCH  60  62
ENDBRANCH  59  60
ENDBRANCH  58  59
ENDBRANCH   1  58
TORSDOF 17
