REMARK SMILES C[C@H]1[C@H](C)CC[C@@]2(C(=O)OCCOCCOC(=O)c3ccc(-c4c5nc(c(-c6ccccc6)c6ccc([nH]6)c(-c6ccccc6)c6nc(c(-c7ccccc7)c7ccc4[nH]7)C=C6)C=C5)cc3)CC[C@@]3(C)C(=CC[C@@H]4[C@@]5(C)CC[C@H](O)C(C)(C)[C@@H]5CC[C@]43C)[C@H]12
REMARK SMILES IDX 14 1 13 2 12 3 11 4 10 5 8 6 9 7 7 8 1 9 2 10 3 11 89 12
REMARK SMILES IDX 4 13 5 14 71 15 6 16 67 17 69 18 72 19 68 20 70 21 87 22
REMARK SMILES IDX 73 23 74 24 86 25 88 26 75 27 85 28 76 29 77 30 84 31 78 32
REMARK SMILES IDX 81 33 79 34 82 35 83 36 80 37 15 39 16 40 17 41 18 42 19 43
REMARK SMILES IDX 20 44 66 45 21 46 65 47 22 48 23 49 24 50 59 51 25 52 64 53
REMARK SMILES IDX 58 54 60 55 26 56 63 57 57 58 56 59 27 61 49 62 34 63 48 64
REMARK SMILES IDX 35 65 38 66 47 67 61 68 36 69 37 70 46 72 62 73 39 74 28 75
REMARK SMILES IDX 29 76 33 77 30 78 32 79 31 80 50 81 51 82 55 83 52 84 54 85
REMARK SMILES IDX 53 86 40 87 41 88 45 89 42 90 44 91 43 92
REMARK H PARENT 80 38 60 60 38 71
REMARK Flexibility Score: inf
ROOT
ATOM      1  C   UNL     1      -3.526   3.250  -2.519  1.00  0.00     0.202 C 
ENDROOT
BRANCH   1   2
ATOM      2  O   UNL     1      -3.544   1.928  -3.033  1.00  0.00    -0.374 OA
BRANCH   2   3
ATOM      3  C   UNL     1      -2.368   1.156  -2.847  1.00  0.00     0.202 C 
BRANCH   3   4
ATOM      4  C   UNL     1      -1.512   1.347  -1.590  1.00  0.00     0.261 C 
BRANCH   4   5
ATOM      5  O   UNL     1      -0.589   2.454  -1.695  1.00  0.00    -0.463 OA
BRANCH   5   6
ATOM      6  C   UNL     1      -0.485   3.365  -0.696  1.00  0.00     0.312 C 
ATOM      7  O   UNL     1      -1.456   3.961  -0.247  1.00  0.00    -0.252 OA
BRANCH   6   8
ATOM      8  C   UNL     1       0.971   3.576  -0.172  1.00  0.00     0.075 C 
ATOM      9  C   UNL     1       2.353  -0.105   0.256  1.00  0.00     0.008 C 
ATOM     10  C   UNL     1       1.404   1.095   0.360  1.00  0.00    -0.003 C 
ATOM     11  C   UNL     1       1.134   1.405   1.881  1.00  0.00    -0.011 C 
ATOM     12  C   UNL     1       1.914   2.359  -0.477  1.00  0.00     0.036 C 
ATOM     13  C   UNL     1       0.413   0.272   2.634  1.00  0.00     0.008 C 
ATOM     14  C   UNL     1       0.286   2.655   2.099  1.00  0.00     0.005 C 
ATOM     15  C   UNL     1       2.083   2.315  -2.054  1.00  0.00    -0.063 C 
ATOM     16  C   UNL     1       0.853   3.833   1.350  1.00  0.00     0.020 C 
ATOM     17  C   UNL     1       1.608   4.867  -0.713  1.00  0.00     0.020 C 
ATOM     18  C   UNL     1       2.595   3.624  -2.776  1.00  0.00    -0.006 C 
ATOM     19  C   UNL     1       1.569   1.310  -2.797  1.00  0.00    -0.027 C 
ATOM     20  C   UNL     1       1.860   4.870  -2.203  1.00  0.00     0.013 C 
ATOM     21  C   UNL     1       4.106   3.759  -2.463  1.00  0.00     0.017 C 
ATOM     22  C   UNL     1       2.354   3.595  -4.405  1.00  0.00    -0.020 C 
ATOM     23  C   UNL     1       1.037   1.504  -4.206  1.00  0.00     0.032 C 
ATOM     24  C   UNL     1       0.905   3.012  -4.591  1.00  0.00     0.006 C 
ATOM     25  C   UNL     1       2.487   4.981  -5.086  1.00  0.00     0.008 C 
ATOM     26  C   UNL     1       3.426   2.702  -5.111  1.00  0.00     0.012 C 
ATOM     27  C   UNL     1       0.053   3.382  -5.903  1.00  0.00    -0.025 C 
ATOM     28  C   UNL     1       1.962   4.994  -6.530  1.00  0.00     0.005 C 
ATOM     29  C   UNL     1       0.126   2.197  -6.881  1.00  0.00     0.012 C 
ATOM     30  C   UNL     1      -1.454   3.589  -5.517  1.00  0.00     0.010 C 
ATOM     31  C   UNL     1       0.447   4.786  -6.503  1.00  0.00     0.003 C 
ATOM     32  C   UNL     1      -2.368   4.043  -6.661  1.00  0.00     0.033 C 
ATOM     33  C   UNL     1      -0.345   5.228  -7.800  1.00  0.00    -0.006 C 
ATOM     34  C   UNL     1      -1.860   5.267  -7.426  1.00  0.00     0.120 C 
ATOM     35  C   UNL     1      -0.076   4.362  -9.049  1.00  0.00     0.014 C 
ATOM     36  C   UNL     1       0.049   6.671  -8.222  1.00  0.00     0.014 C 
BRANCH  34  37
ATOM     37  O   UNL     1      -2.680   5.476  -8.576  1.00  0.00    -0.393 OA
ATOM     38  H   UNL     1      -2.599   4.715  -9.173  1.00  0.00     0.210 HD
ENDBRANCH  34  37
ENDBRANCH   6   8
ENDBRANCH   5   6
ENDBRANCH   4   5
ENDBRANCH   3   4
ENDBRANCH   2   3
ENDBRANCH   1   2
BRANCH   1  39
ATOM     39  C   UNL     1      -4.287   3.347  -1.187  1.00  0.00     0.261 C 
BRANCH  39  40
ATOM     40  O   UNL     1      -4.087   2.206  -0.329  1.00  0.00    -0.460 OA
BRANCH  40  41
ATOM     41  C   UNL     1      -4.838   1.130  -0.632  1.00  0.00     0.338 C 
ATOM     42  O   UNL     1      -5.778   1.071  -1.433  1.00  0.00    -0.246 OA
BRANCH  41  43
ATOM     43  C   UNL     1      -4.340  -0.073   0.052  1.00  0.00     0.060 A 
ATOM     44  C   UNL     1      -4.074  -1.212  -0.721  1.00  0.00     0.016 A 
ATOM     45  C   UNL     1      -4.338  -0.142   1.447  1.00  0.00     0.016 A 
ATOM     46  C   UNL     1      -3.929  -2.450  -0.109  1.00  0.00     0.010 A 
ATOM     47  C   UNL     1      -4.234  -1.392   2.062  1.00  0.00     0.010 A 
ATOM     48  C   UNL     1      -4.122  -2.551   1.273  1.00  0.00    -0.014 A 
BRANCH  48  49
ATOM     49  C   UNL     1      -4.584  -3.856   1.800  1.00  0.00     0.031 A 
ATOM     50  C   UNL     1      -6.074  -4.093   1.857  1.00  0.00     0.074 A 
ATOM     51  C   UNL     1      -3.716  -4.831   2.111  1.00  0.00     0.049 A 
ATOM     52  N   UNL     1      -6.736  -5.146   2.262  1.00  0.00    -0.248 NA
ATOM     53  C   UNL     1      -6.934  -2.993   1.383  1.00  0.00     0.031 C 
ATOM     54  C   UNL     1      -2.262  -4.737   2.000  1.00  0.00     0.029 A 
ATOM     55  N   UNL     1      -3.942  -6.101   2.571  1.00  0.00    -0.354 N 
ATOM     56  C   UNL     1      -8.081  -4.827   2.103  1.00  0.00     0.074 A 
ATOM     57  C   UNL     1      -8.146  -3.480   1.589  1.00  0.00     0.031 C 
ATOM     58  C   UNL     1      -1.722  -5.906   2.385  1.00  0.00     0.029 A 
ATOM     59  C   UNL     1      -2.791  -6.811   2.802  1.00  0.00     0.049 A 
ATOM     60  H   UNL     1      -4.843  -6.469   2.722  1.00  0.00     0.167 HD
ATOM     61  C   UNL     1      -9.168  -5.592   2.359  1.00  0.00     0.031 A 
ATOM     62  C   UNL     1      -2.628  -8.047   3.311  1.00  0.00     0.031 A 
ATOM     63  C   UNL     1      -9.091  -6.928   2.881  1.00  0.00     0.049 A 
ATOM     64  C   UNL     1      -3.851  -8.849   3.670  1.00  0.00     0.074 A 
ATOM     65  C   UNL     1     -10.120  -7.793   3.203  1.00  0.00     0.029 A 
ATOM     66  N   UNL     1      -7.904  -7.590   3.159  1.00  0.00    -0.354 N 
ATOM     67  N   UNL     1      -5.118  -8.532   3.537  1.00  0.00    -0.248 NA
ATOM     68  C   UNL     1      -3.622 -10.184   4.238  1.00  0.00     0.031 C 
ATOM     69  C   UNL     1      -9.555  -8.961   3.726  1.00  0.00     0.029 A 
ATOM     70  C   UNL     1      -8.174  -8.848   3.666  1.00  0.00     0.049 A 
ATOM     71  H   UNL     1      -7.003  -7.220   3.016  1.00  0.00     0.167 HD
ATOM     72  C   UNL     1      -5.836  -9.638   3.972  1.00  0.00     0.074 A 
ATOM     73  C   UNL     1      -4.861 -10.638   4.361  1.00  0.00     0.031 C 
ATOM     74  C   UNL     1      -7.178  -9.819   4.042  1.00  0.00     0.031 A 
BRANCH  61  75
ATOM     75  C   UNL     1     -10.521  -4.974   2.130  1.00  0.00    -0.014 A 
ATOM     76  C   UNL     1     -11.002  -4.708   0.838  1.00  0.00     0.009 A 
ATOM     77  C   UNL     1     -11.331  -4.654   3.231  1.00  0.00     0.009 A 
ATOM     78  C   UNL     1     -12.248  -4.102   0.656  1.00  0.00     0.001 A 
ATOM     79  C   UNL     1     -12.588  -4.075   3.046  1.00  0.00     0.001 A 
ATOM     80  C   UNL     1     -13.041  -3.790   1.760  1.00  0.00     0.000 A 
ENDBRANCH  61  75
BRANCH  62  81
ATOM     81  C   UNL     1      -1.261  -8.588   3.530  1.00  0.00    -0.014 A 
ATOM     82  C   UNL     1      -0.781  -9.670   2.776  1.00  0.00     0.009 A 
ATOM     83  C   UNL     1      -0.425  -8.021   4.506  1.00  0.00     0.009 A 
ATOM     84  C   UNL     1       0.496 -10.186   3.011  1.00  0.00     0.001 A 
ATOM     85  C   UNL     1       0.863  -8.518   4.717  1.00  0.00     0.001 A 
ATOM     86  C   UNL     1       1.319  -9.606   3.976  1.00  0.00     0.000 A 
ENDBRANCH  62  81
BRANCH  74  87
ATOM     87  C   UNL     1      -7.663 -11.164   4.505  1.00  0.00    -0.014 A 
ATOM     88  C   UNL     1      -7.542 -11.566   5.843  1.00  0.00     0.009 A 
ATOM     89  C   UNL     1      -8.284 -12.025   3.586  1.00  0.00     0.009 A 
ATOM     90  C   UNL     1      -7.994 -12.825   6.242  1.00  0.00     0.001 A 
ATOM     91  C   UNL     1      -8.765 -13.268   3.995  1.00  0.00     0.001 A 
ATOM     92  C   UNL     1      -8.608 -13.673   5.319  1.00  0.00     0.000 A 
ENDBRANCH  74  87
ENDBRANCH  48  49
ENDBRANCH  41  43
ENDBRANCH  40  41
ENDBRANCH  39  40
ENDBRANCH   1  39
TORSDOF 15
