REMARK SMILES CN(C(=O)[C@H]1CCCC[C@H]1C(=O)OCCOCCOC(=O)c1ccc(-c2c3nc(c(-c4ccccc4)c4ccc([nH]4)c(-c4ccccc4)c4nc(c(-c5ccccc5)c5ccc2[nH]5)C=C4)C=C3)cc1)C1CC1
REMARK SMILES IDX 15 1 14 2 13 3 11 4 12 5 10 6 5 7 6 8 7 9 9 10 8 11 3 12
REMARK SMILES IDX 4 13 2 14 1 15 70 16 71 17 72 18 16 19 17 20 18 21 19 22
REMARK SMILES IDX 20 23 21 24 22 25 23 26 69 27 24 28 68 29 25 30 26 31 27 32
REMARK SMILES IDX 62 33 28 34 67 35 61 36 63 37 29 38 66 39 60 40 59 41 30 43
REMARK SMILES IDX 52 44 37 45 51 46 38 47 41 48 50 49 64 50 39 51 40 52 49 54
REMARK SMILES IDX 65 55 42 56 31 57 32 58 36 59 33 60 35 61 34 62 53 63 54 64
REMARK SMILES IDX 58 65 55 66 57 67 56 68 43 69 44 70 48 71 45 72 47 73 46 74
REMARK H PARENT 63 42 41 53
REMARK Flexibility Score: inf
ROOT
ATOM      1  C   UNL     1      -3.489  -0.872  -5.370  1.00  0.00     0.202 C 
ENDROOT
BRANCH   1   2
ATOM      2  C   UNL     1      -3.267  -2.361  -5.115  1.00  0.00     0.261 C 
BRANCH   2   3
ATOM      3  O   UNL     1      -2.564  -2.557  -3.873  1.00  0.00    -0.463 OA
BRANCH   3   4
ATOM      4  C   UNL     1      -1.365  -3.167  -3.965  1.00  0.00     0.309 C 
ATOM      5  O   UNL     1      -0.864  -3.562  -5.014  1.00  0.00    -0.252 OA
BRANCH   4   6
ATOM      6  C   UNL     1      -0.652  -3.355  -2.641  1.00  0.00     0.111 C 
ATOM      7  C   UNL     1      -0.784  -2.293  -1.515  1.00  0.00     0.093 C 
ATOM      8  C   UNL     1       0.293  -2.642  -0.461  1.00  0.00     0.014 C 
ATOM      9  C   UNL     1       0.143  -4.066   0.075  1.00  0.00     0.001 C 
ATOM     10  C   UNL     1      -0.828  -4.793  -2.145  1.00  0.00     0.016 C 
ATOM     11  C   UNL     1       0.173  -5.106  -1.039  1.00  0.00     0.001 C 
BRANCH   7  12
ATOM     12  C   UNL     1      -2.183  -2.181  -0.870  1.00  0.00     0.226 C 
ATOM     13  O   UNL     1      -3.086  -2.953  -1.201  1.00  0.00    -0.275 OA
BRANCH  12  14
ATOM     14  N   UNL     1      -2.406  -1.188   0.091  1.00  0.00    -0.343 N 
ATOM     15  C   UNL     1      -1.456  -0.157   0.503  1.00  0.00     0.147 C 
BRANCH  14  16
ATOM     16  C   UNL     1      -3.720  -1.073   0.689  1.00  0.00     0.084 C 
ATOM     17  C   UNL     1      -4.406  -2.210   1.395  1.00  0.00     0.027 C 
ATOM     18  C   UNL     1      -3.913  -1.038   2.186  1.00  0.00     0.027 C 
ENDBRANCH  14  16
ENDBRANCH  12  14
ENDBRANCH   7  12
ENDBRANCH   4   6
ENDBRANCH   3   4
ENDBRANCH   2   3
ENDBRANCH   1   2
BRANCH   1  19
ATOM     19  O   UNL     1      -2.319  -0.130  -5.719  1.00  0.00    -0.374 OA
BRANCH  19  20
ATOM     20  C   UNL     1      -1.441   0.226  -4.653  1.00  0.00     0.202 C 
BRANCH  20  21
ATOM     21  C   UNL     1      -1.835   1.481  -3.866  1.00  0.00     0.261 C 
BRANCH  21  22
ATOM     22  O   UNL     1      -3.043   1.285  -3.107  1.00  0.00    -0.460 OA
BRANCH  22  23
ATOM     23  C   UNL     1      -4.135   1.913  -3.603  1.00  0.00     0.338 C 
ATOM     24  O   UNL     1      -4.177   2.692  -4.547  1.00  0.00    -0.246 OA
BRANCH  23  25
ATOM     25  C   UNL     1      -5.354   1.410  -2.944  1.00  0.00     0.060 A 
ATOM     26  C   UNL     1      -6.408   0.979  -3.759  1.00  0.00     0.016 A 
ATOM     27  C   UNL     1      -5.493   1.418  -1.556  1.00  0.00     0.016 A 
ATOM     28  C   UNL     1      -7.621   0.595  -3.190  1.00  0.00     0.010 A 
ATOM     29  C   UNL     1      -6.708   1.023  -0.985  1.00  0.00     0.010 A 
ATOM     30  C   UNL     1      -7.791   0.649  -1.800  1.00  0.00    -0.014 A 
BRANCH  30  31
ATOM     31  C   UNL     1      -9.148   0.484  -1.219  1.00  0.00     0.031 A 
ATOM     32  C   UNL     1      -9.899   1.711  -0.773  1.00  0.00     0.074 A 
ATOM     33  C   UNL     1      -9.725  -0.727  -1.124  1.00  0.00     0.049 A 
ATOM     34  N   UNL     1     -11.085   1.806  -0.229  1.00  0.00    -0.248 NA
ATOM     35  C   UNL     1      -9.218   3.003  -0.963  1.00  0.00     0.031 C 
ATOM     36  C   UNL     1      -9.126  -1.990  -1.551  1.00  0.00     0.029 A 
ATOM     37  N   UNL     1     -10.957  -1.086  -0.635  1.00  0.00    -0.354 N 
ATOM     38  C   UNL     1     -11.286   3.162   0.000  1.00  0.00     0.074 A 
ATOM     39  C   UNL     1     -10.088   3.848  -0.431  1.00  0.00     0.031 C 
ATOM     40  C   UNL     1      -9.996  -2.987  -1.312  1.00  0.00     0.029 A 
ATOM     41  C   UNL     1     -11.198  -2.437  -0.687  1.00  0.00     0.049 A 
ATOM     42  H   UNL     1     -11.607  -0.437  -0.281  1.00  0.00     0.167 HD
ATOM     43  C   UNL     1     -12.373   3.786   0.512  1.00  0.00     0.031 A 
ATOM     44  C   UNL     1     -12.261  -3.150  -0.266  1.00  0.00     0.031 A 
ATOM     45  C   UNL     1     -13.569   3.113   0.939  1.00  0.00     0.049 A 
ATOM     46  C   UNL     1     -13.432  -2.440   0.359  1.00  0.00     0.074 A 
ATOM     47  C   UNL     1     -14.731   3.663   1.451  1.00  0.00     0.029 A 
ATOM     48  N   UNL     1     -13.755   1.741   0.905  1.00  0.00    -0.354 N 
ATOM     49  N   UNL     1     -13.617  -1.156   0.548  1.00  0.00    -0.248 NA
ATOM     50  C   UNL     1     -14.545  -3.282   0.825  1.00  0.00     0.031 C 
ATOM     51  C   UNL     1     -15.603   2.618   1.774  1.00  0.00     0.029 A 
ATOM     52  C   UNL     1     -15.004   1.423   1.411  1.00  0.00     0.049 A 
ATOM     53  H   UNL     1     -13.097   1.089   0.570  1.00  0.00     0.167 HD
ATOM     54  C   UNL     1     -14.875  -1.034   1.127  1.00  0.00     0.074 A 
ATOM     55  C   UNL     1     -15.414  -2.373   1.246  1.00  0.00     0.031 C 
ATOM     56  C   UNL     1     -15.527   0.086   1.523  1.00  0.00     0.031 A 
BRANCH  43  57
ATOM     57  C   UNL     1     -12.300   5.279   0.664  1.00  0.00    -0.014 A 
ATOM     58  C   UNL     1     -12.350   6.130  -0.452  1.00  0.00     0.009 A 
ATOM     59  C   UNL     1     -12.205   5.843   1.946  1.00  0.00     0.009 A 
ATOM     60  C   UNL     1     -12.270   7.514  -0.288  1.00  0.00     0.001 A 
ATOM     61  C   UNL     1     -12.153   7.228   2.108  1.00  0.00     0.001 A 
ATOM     62  C   UNL     1     -12.176   8.062   0.991  1.00  0.00     0.000 A 
ENDBRANCH  43  57
BRANCH  44  63
ATOM     63  C   UNL     1     -12.268  -4.630  -0.404  1.00  0.00    -0.014 A 
ATOM     64  C   UNL     1     -13.133  -5.261  -1.312  1.00  0.00     0.009 A 
ATOM     65  C   UNL     1     -11.427  -5.423   0.393  1.00  0.00     0.009 A 
ATOM     66  C   UNL     1     -13.172  -6.654  -1.401  1.00  0.00     0.001 A 
ATOM     67  C   UNL     1     -11.449  -6.814   0.282  1.00  0.00     0.001 A 
ATOM     68  C   UNL     1     -12.328  -7.429  -0.607  1.00  0.00     0.000 A 
ENDBRANCH  44  63
BRANCH  56  69
ATOM     69  C   UNL     1     -16.909  -0.080   2.089  1.00  0.00    -0.014 A 
ATOM     70  C   UNL     1     -17.113  -0.610   3.372  1.00  0.00     0.009 A 
ATOM     71  C   UNL     1     -18.020   0.344   1.343  1.00  0.00     0.009 A 
ATOM     72  C   UNL     1     -18.405  -0.740   3.885  1.00  0.00     0.001 A 
ATOM     73  C   UNL     1     -19.309   0.239   1.869  1.00  0.00     0.001 A 
ATOM     74  C   UNL     1     -19.501  -0.311   3.136  1.00  0.00     0.000 A 
ENDBRANCH  56  69
ENDBRANCH  30  31
ENDBRANCH  23  25
ENDBRANCH  22  23
ENDBRANCH  21  22
ENDBRANCH  20  21
ENDBRANCH  19  20
ENDBRANCH   1  19
TORSDOF 17
