REMARK SMILES C[C@@H]([NH3+])CCC(=O)N[C@H]1C=C[C@@H](C(=O)OCCOCCOC(=O)c2ccc(-c3c4nc(c(-c5ccccc5)c5ccc([nH]5)c(-c5ccccc5)c5nc(c(-c6ccccc6)c6ccc3[nH]6)C=C5)C=C4)cc2)C1
REMARK SMILES IDX 16 1 15 2 13 3 14 4 12 5 9 6 10 7 72 8 11 9 8 10 6 11 7 12
REMARK SMILES IDX 5 14 4 15 2 16 1 17 3 18 17 22 18 23 19 24 20 25 21 26 22 27
REMARK SMILES IDX 23 28 24 29 25 30 71 31 26 32 70 33 27 34 28 35 29 36 64 37
REMARK SMILES IDX 30 38 69 39 63 40 65 41 31 42 68 43 62 44 61 45 32 47 54 48
REMARK SMILES IDX 39 49 53 50 40 51 43 52 52 53 66 54 41 55 42 56 51 58 67 59
REMARK SMILES IDX 44 60 33 61 34 62 38 63 35 64 37 65 36 66 55 67 56 68 60 69
REMARK SMILES IDX 57 70 59 71 58 72 45 73 46 74 50 75 47 76 49 77 48 78
REMARK H PARENT 8 13 3 19 3 20 3 21 65 46 43 57
REMARK Flexibility Score: inf
ROOT
ATOM      1  C   UNL     1       2.020   0.694   4.825  1.00  0.00     0.261 C 
ENDROOT
BRANCH   1   2
ATOM      2  O   UNL     1       2.052  -0.173   3.680  1.00  0.00    -0.463 OA
BRANCH   2   3
ATOM      3  C   UNL     1       2.550   0.366   2.535  1.00  0.00     0.312 C 
ATOM      4  O   UNL     1       2.755   1.562   2.368  1.00  0.00    -0.252 OA
BRANCH   3   5
ATOM      5  C   UNL     1       2.924  -0.725   1.525  1.00  0.00     0.124 C 
ATOM      6  C   UNL     1       1.848  -2.509   0.237  1.00  0.00     0.106 C 
ATOM      7  C   UNL     1       1.987  -1.279  -0.579  1.00  0.00    -0.006 C 
ATOM      8  C   UNL     1       2.134  -2.037   1.665  1.00  0.00     0.048 C 
ATOM      9  C   UNL     1       2.614  -0.314   0.109  1.00  0.00    -0.014 C 
BRANCH   6  10
ATOM     10  N   UNL     1       0.601  -3.236   0.121  1.00  0.00    -0.350 N 
ATOM     11  C   UNL     1      -0.711  -2.905   0.215  1.00  0.00     0.220 C 
ATOM     12  O   UNL     1      -1.484  -3.789   0.598  1.00  0.00    -0.275 OA
ATOM     13  H   UNL     1       0.737  -4.193  -0.070  1.00  0.00     0.164 HD
BRANCH  11  14
ATOM     14  C   UNL     1      -1.246  -1.558  -0.216  1.00  0.00     0.106 C 
BRANCH  14  15
ATOM     15  C   UNL     1      -1.624  -0.634   0.944  1.00  0.00     0.074 C 
BRANCH  15  16
ATOM     16  C   UNL     1      -0.648   0.530   1.141  1.00  0.00     0.178 C 
ATOM     17  C   UNL     1      -0.573   1.494  -0.042  1.00  0.00     0.075 C 
BRANCH  16  18
ATOM     18  N   UNL     1      -0.988   1.288   2.345  1.00  0.00    -0.355 N 
ATOM     19  H   UNL     1      -1.909   1.713   2.230  1.00  0.00     0.344 HD
ATOM     20  H   UNL     1      -0.293   2.019   2.494  1.00  0.00     0.344 HD
ATOM     21  H   UNL     1      -1.001   0.661   3.149  1.00  0.00     0.344 HD
ENDBRANCH  16  18
ENDBRANCH  15  16
ENDBRANCH  14  15
ENDBRANCH  11  14
ENDBRANCH   6  10
ENDBRANCH   3   5
ENDBRANCH   2   3
ENDBRANCH   1   2
BRANCH   1  22
ATOM     22  C   UNL     1       2.163  -0.137   6.104  1.00  0.00     0.202 C 
BRANCH  22  23
ATOM     23  O   UNL     1       3.422  -0.790   6.285  1.00  0.00    -0.374 OA
BRANCH  23  24
ATOM     24  C   UNL     1       3.795  -1.801   5.352  1.00  0.00     0.202 C 
BRANCH  24  25
ATOM     25  C   UNL     1       3.084  -3.157   5.466  1.00  0.00     0.261 C 
BRANCH  25  26
ATOM     26  O   UNL     1       1.649  -3.078   5.403  1.00  0.00    -0.460 OA
BRANCH  26  27
ATOM     27  C   UNL     1       1.029  -3.386   6.572  1.00  0.00     0.338 C 
ATOM     28  O   UNL     1       1.557  -3.723   7.618  1.00  0.00    -0.246 OA
BRANCH  27  29
ATOM     29  C   UNL     1      -0.425  -3.155   6.489  1.00  0.00     0.060 A 
ATOM     30  C   UNL     1      -0.999  -2.331   7.465  1.00  0.00     0.016 A 
ATOM     31  C   UNL     1      -1.231  -3.855   5.589  1.00  0.00     0.016 A 
ATOM     32  C   UNL     1      -2.386  -2.251   7.584  1.00  0.00     0.010 A 
ATOM     33  C   UNL     1      -2.625  -3.779   5.715  1.00  0.00     0.010 A 
ATOM     34  C   UNL     1      -3.207  -3.011   6.740  1.00  0.00    -0.014 A 
BRANCH  34  35
ATOM     35  C   UNL     1      -4.659  -3.105   7.033  1.00  0.00     0.031 A 
ATOM     36  C   UNL     1      -5.181  -4.277   7.820  1.00  0.00     0.074 A 
ATOM     37  C   UNL     1      -5.503  -2.131   6.650  1.00  0.00     0.049 A 
ATOM     38  N   UNL     1      -6.404  -4.534   8.215  1.00  0.00    -0.248 NA
ATOM     39  C   UNL     1      -4.194  -5.292   8.220  1.00  0.00     0.031 C 
ATOM     40  C   UNL     1      -5.124  -0.918   5.928  1.00  0.00     0.029 A 
ATOM     41  N   UNL     1      -6.859  -2.011   6.827  1.00  0.00    -0.354 N 
ATOM     42  C   UNL     1      -6.333  -5.739   8.903  1.00  0.00     0.074 A 
ATOM     43  C   UNL     1      -4.954  -6.174   8.853  1.00  0.00     0.031 C 
ATOM     44  C   UNL     1      -6.223  -0.170   5.731  1.00  0.00     0.029 A 
ATOM     45  C   UNL     1      -7.383  -0.864   6.285  1.00  0.00     0.049 A 
ATOM     46  H   UNL     1      -7.403  -2.683   7.298  1.00  0.00     0.167 HD
ATOM     47  C   UNL     1      -7.324  -6.421   9.526  1.00  0.00     0.031 A 
ATOM     48  C   UNL     1      -8.656  -0.428   6.234  1.00  0.00     0.031 A 
ATOM     49  C   UNL     1      -8.700  -6.005   9.570  1.00  0.00     0.049 A 
ATOM     50  C   UNL     1      -9.753  -1.252   6.850  1.00  0.00     0.074 A 
ATOM     51  C   UNL     1      -9.768  -6.617  10.203  1.00  0.00     0.029 A 
ATOM     52  N   UNL     1      -9.201  -4.876   8.943  1.00  0.00    -0.354 N 
ATOM     53  N   UNL     1      -9.668  -2.370   7.527  1.00  0.00    -0.248 NA
ATOM     54  C   UNL     1     -11.126  -0.746   6.693  1.00  0.00     0.031 C 
ATOM     55  C   UNL     1     -10.926  -5.886   9.914  1.00  0.00     0.029 A 
ATOM     56  C   UNL     1     -10.569  -4.792   9.143  1.00  0.00     0.049 A 
ATOM     57  H   UNL     1      -8.665  -4.229   8.430  1.00  0.00     0.167 HD
ATOM     58  C   UNL     1     -10.968  -2.689   7.899  1.00  0.00     0.074 A 
ATOM     59  C   UNL     1     -11.823  -1.642   7.378  1.00  0.00     0.031 C 
ATOM     60  C   UNL     1     -11.412  -3.751   8.614  1.00  0.00     0.031 A 
BRANCH  47  61
ATOM     61  C   UNL     1      -6.953  -7.722  10.180  1.00  0.00    -0.014 A 
ATOM     62  C   UNL     1      -6.225  -7.754  11.379  1.00  0.00     0.009 A 
ATOM     63  C   UNL     1      -7.354  -8.933   9.594  1.00  0.00     0.009 A 
ATOM     64  C   UNL     1      -5.873  -8.975  11.959  1.00  0.00     0.001 A 
ATOM     65  C   UNL     1      -7.021 -10.151  10.188  1.00  0.00     0.001 A 
ATOM     66  C   UNL     1      -6.273 -10.172  11.364  1.00  0.00     0.000 A 
ENDBRANCH  47  61
BRANCH  48  67
ATOM     67  C   UNL     1      -8.970   0.860   5.566  1.00  0.00    -0.014 A 
ATOM     68  C   UNL     1      -9.339   1.982   6.324  1.00  0.00     0.009 A 
ATOM     69  C   UNL     1      -8.909   0.972   4.169  1.00  0.00     0.009 A 
ATOM     70  C   UNL     1      -9.656   3.187   5.693  1.00  0.00     0.001 A 
ATOM     71  C   UNL     1      -9.204   2.184   3.543  1.00  0.00     0.001 A 
ATOM     72  C   UNL     1      -9.583   3.288   4.304  1.00  0.00     0.000 A 
ENDBRANCH  48  67
BRANCH  60  73
ATOM     73  C   UNL     1     -12.885  -3.820   8.901  1.00  0.00    -0.014 A 
ATOM     74  C   UNL     1     -13.804  -4.178   7.904  1.00  0.00     0.009 A 
ATOM     75  C   UNL     1     -13.354  -3.556  10.198  1.00  0.00     0.009 A 
ATOM     76  C   UNL     1     -15.169  -4.243   8.193  1.00  0.00     0.001 A 
ATOM     77  C   UNL     1     -14.716  -3.645  10.489  1.00  0.00     0.001 A 
ATOM     78  C   UNL     1     -15.623  -3.980   9.485  1.00  0.00     0.000 A 
ENDBRANCH  60  73
ENDBRANCH  34  35
ENDBRANCH  27  29
ENDBRANCH  26  27
ENDBRANCH  25  26
ENDBRANCH  24  25
ENDBRANCH  23  24
ENDBRANCH  22  23
ENDBRANCH   1  22
TORSDOF 19
