REMARK SMILES O=C(OCCOCCOC(=O)c1cc(S(=O)(=O)Nc2cccc(Cl)c2)ccc1O)c1ccc(-c2c3nc(c(-c4ccccc4)c4ccc([nH]4)c(-c4ccccc4)c4nc(c(-c5ccccc5)c5ccc2[nH]5)C=C4)C=C3)cc1
REMARK SMILES IDX 7 1 6 2 5 3 4 4 3 5 2 6 1 7 30 8 31 9 77 10 32 11 76 12
REMARK SMILES IDX 33 13 34 14 35 15 70 16 36 17 75 18 69 19 71 20 37 21 74 22
REMARK SMILES IDX 68 23 67 24 38 26 60 27 45 28 59 29 46 30 49 31 58 32 72 33
REMARK SMILES IDX 47 34 48 35 57 37 73 38 50 39 39 40 40 41 44 42 41 43 43 44
REMARK SMILES IDX 42 45 61 46 62 47 66 48 63 49 65 50 64 51 51 52 52 53 56 54
REMARK SMILES IDX 53 55 55 56 54 57 8 58 9 59 10 60 11 61 12 62 13 63 28 64
REMARK SMILES IDX 14 65 27 66 26 67 29 68 15 70 16 71 17 72 18 73 19 75 20 76
REMARK SMILES IDX 25 77 21 78 23 79 22 80 24 81
REMARK H PARENT 71 25 49 36 29 69 18 74
REMARK Flexibility Score: inf
ROOT
ATOM      1  C   UNL     1       2.866  -0.162   2.156  1.00  0.00     0.202 C 
ENDROOT
BRANCH   1   2
ATOM      2  O   UNL     1       4.191   0.156   1.710  1.00  0.00    -0.374 OA
BRANCH   2   3
ATOM      3  C   UNL     1       4.328   1.390   1.004  1.00  0.00     0.202 C 
BRANCH   3   4
ATOM      4  C   UNL     1       3.990   1.318  -0.488  1.00  0.00     0.261 C 
BRANCH   4   5
ATOM      5  O   UNL     1       2.614   0.934  -0.669  1.00  0.00    -0.460 OA
BRANCH   5   6
ATOM      6  C   UNL     1       2.127  -0.202  -1.220  1.00  0.00     0.338 C 
ATOM      7  O   UNL     1       0.930  -0.262  -1.492  1.00  0.00    -0.246 OA
BRANCH   6   8
ATOM      8  C   UNL     1       2.964  -1.411  -1.485  1.00  0.00     0.060 A 
ATOM      9  C   UNL     1       4.136  -1.727  -0.797  1.00  0.00     0.016 A 
ATOM     10  C   UNL     1       2.472  -2.348  -2.410  1.00  0.00     0.016 A 
ATOM     11  C   UNL     1       4.833  -2.900  -1.046  1.00  0.00     0.010 A 
ATOM     12  C   UNL     1       3.139  -3.557  -2.633  1.00  0.00     0.010 A 
ATOM     13  C   UNL     1       4.328  -3.830  -1.949  1.00  0.00    -0.014 A 
BRANCH  13  14
ATOM     14  C   UNL     1       5.103  -5.063  -2.170  1.00  0.00     0.031 A 
ATOM     15  C   UNL     1       5.925  -5.187  -3.413  1.00  0.00     0.074 A 
ATOM     16  C   UNL     1       5.155  -5.986  -1.192  1.00  0.00     0.049 A 
ATOM     17  N   UNL     1       6.674  -6.180  -3.808  1.00  0.00    -0.248 NA
ATOM     18  C   UNL     1       5.916  -4.031  -4.327  1.00  0.00     0.031 C 
ATOM     19  C   UNL     1       4.475  -5.883   0.104  1.00  0.00     0.029 A 
ATOM     20  N   UNL     1       5.836  -7.170  -1.116  1.00  0.00    -0.354 N 
ATOM     21  C   UNL     1       7.205  -5.782  -5.027  1.00  0.00     0.074 A 
ATOM     22  C   UNL     1       6.698  -4.457  -5.308  1.00  0.00     0.031 C 
ATOM     23  C   UNL     1       4.799  -6.947   0.855  1.00  0.00     0.029 A 
ATOM     24  C   UNL     1       5.649  -7.835   0.072  1.00  0.00     0.049 A 
ATOM     25  H   UNL     1       6.406  -7.513  -1.842  1.00  0.00     0.167 HD
ATOM     26  C   UNL     1       8.034  -6.474  -5.840  1.00  0.00     0.031 A 
ATOM     27  C   UNL     1       6.091  -9.045   0.462  1.00  0.00     0.031 A 
ATOM     28  C   UNL     1       8.513  -7.795  -5.542  1.00  0.00     0.049 A 
ATOM     29  C   UNL     1       6.931  -9.831  -0.507  1.00  0.00     0.074 A 
ATOM     30  C   UNL     1       9.306  -8.624  -6.313  1.00  0.00     0.029 A 
ATOM     31  N   UNL     1       8.237  -8.478  -4.365  1.00  0.00    -0.354 N 
ATOM     32  N   UNL     1       7.386  -9.472  -1.685  1.00  0.00    -0.248 NA
ATOM     33  C   UNL     1       7.303 -11.193  -0.105  1.00  0.00     0.031 C 
ATOM     34  C   UNL     1       9.469  -9.830  -5.621  1.00  0.00     0.029 A 
ATOM     35  C   UNL     1       8.822  -9.730  -4.398  1.00  0.00     0.049 A 
ATOM     36  H   UNL     1       7.704  -8.123  -3.617  1.00  0.00     0.167 HD
ATOM     37  C   UNL     1       8.105 -10.558  -2.161  1.00  0.00     0.074 A 
ATOM     38  C   UNL     1       8.050 -11.577  -1.131  1.00  0.00     0.031 C 
ATOM     39  C   UNL     1       8.743 -10.711  -3.347  1.00  0.00     0.031 A 
BRANCH  26  40
ATOM     40  C   UNL     1       8.393  -5.842  -7.153  1.00  0.00    -0.014 A 
ATOM     41  C   UNL     1       9.306  -4.780  -7.234  1.00  0.00     0.009 A 
ATOM     42  C   UNL     1       7.792  -6.316  -8.330  1.00  0.00     0.009 A 
ATOM     43  C   UNL     1       9.587  -4.186  -8.468  1.00  0.00     0.001 A 
ATOM     44  C   UNL     1       8.092  -5.735  -9.563  1.00  0.00     0.001 A 
ATOM     45  C   UNL     1       8.983  -4.666  -9.630  1.00  0.00     0.000 A 
ENDBRANCH  26  40
BRANCH  27  46
ATOM     46  C   UNL     1       5.692  -9.616   1.777  1.00  0.00    -0.014 A 
ATOM     47  C   UNL     1       6.644  -9.895   2.768  1.00  0.00     0.009 A 
ATOM     48  C   UNL     1       4.344  -9.922   2.035  1.00  0.00     0.009 A 
ATOM     49  C   UNL     1       6.262 -10.495   3.972  1.00  0.00     0.001 A 
ATOM     50  C   UNL     1       3.960 -10.491   3.250  1.00  0.00     0.001 A 
ATOM     51  C   UNL     1       4.920 -10.790   4.213  1.00  0.00     0.000 A 
ENDBRANCH  27  46
BRANCH  39  52
ATOM     52  C   UNL     1       9.446 -12.017  -3.569  1.00  0.00    -0.014 A 
ATOM     53  C   UNL     1       8.723 -13.187  -3.849  1.00  0.00     0.009 A 
ATOM     54  C   UNL     1      10.847 -12.064  -3.543  1.00  0.00     0.009 A 
ATOM     55  C   UNL     1       9.395 -14.389  -4.070  1.00  0.00     0.001 A 
ATOM     56  C   UNL     1      11.516 -13.261  -3.793  1.00  0.00     0.001 A 
ATOM     57  C   UNL     1      10.790 -14.424  -4.048  1.00  0.00     0.000 A 
ENDBRANCH  39  52
ENDBRANCH  13  14
ENDBRANCH   6   8
ENDBRANCH   5   6
ENDBRANCH   4   5
ENDBRANCH   3   4
ENDBRANCH   2   3
ENDBRANCH   1   2
BRANCH   1  58
ATOM     58  C   UNL     1       2.947  -0.780   3.555  1.00  0.00     0.261 C 
BRANCH  58  59
ATOM     59  O   UNL     1       3.347   0.258   4.461  1.00  0.00    -0.460 OA
BRANCH  59  60
ATOM     60  C   UNL     1       4.682   0.447   4.615  1.00  0.00     0.342 C 
ATOM     61  O   UNL     1       5.561  -0.388   4.479  1.00  0.00    -0.246 OA
BRANCH  60  62
ATOM     62  C   UNL     1       4.922   1.913   4.653  1.00  0.00     0.103 A 
ATOM     63  C   UNL     1       6.028   2.405   3.940  1.00  0.00     0.041 A 
ATOM     64  C   UNL     1       3.994   2.811   5.200  1.00  0.00     0.130 A 
ATOM     65  C   UNL     1       6.123   3.775   3.680  1.00  0.00     0.088 A 
ATOM     66  C   UNL     1       4.070   4.168   4.900  1.00  0.00     0.048 A 
ATOM     67  C   UNL     1       5.098   4.638   4.084  1.00  0.00     0.026 A 
BRANCH  64  68
ATOM     68  O   UNL     1       3.002   2.367   6.027  1.00  0.00    -0.507 OA
ATOM     69  H   UNL     1       2.940   1.456   6.237  1.00  0.00     0.293 HD
ENDBRANCH  64  68
BRANCH  65  70
ATOM     70  S   UNL     1       7.487   4.415   2.735  1.00  0.00     0.261 S 
ATOM     71  O   UNL     1       8.392   3.323   2.453  1.00  0.00    -0.201 OA
ATOM     72  O   UNL     1       6.908   5.186   1.654  1.00  0.00    -0.201 OA
BRANCH  70  73
ATOM     73  N   UNL     1       8.356   5.533   3.693  1.00  0.00    -0.280 N 
ATOM     74  H   UNL     1       9.264   5.811   3.434  1.00  0.00     0.180 HD
BRANCH  73  75
ATOM     75  C   UNL     1       7.749   6.061   4.877  1.00  0.00     0.050 A 
ATOM     76  C   UNL     1       7.695   5.266   6.025  1.00  0.00     0.027 A 
ATOM     77  C   UNL     1       7.132   7.314   4.859  1.00  0.00     0.047 A 
ATOM     78  C   UNL     1       6.986   5.703   7.144  1.00  0.00     0.004 A 
ATOM     79  C   UNL     1       6.435   7.748   5.988  1.00  0.00     0.043 A 
ATOM     80  C   UNL     1       6.349   6.944   7.124  1.00  0.00     0.020 A 
ATOM     81  Cl  UNL     1       5.637   9.273   5.964  1.00  0.00    -0.084 Cl
ENDBRANCH  73  75
ENDBRANCH  70  73
ENDBRANCH  65  70
ENDBRANCH  60  62
ENDBRANCH  59  60
ENDBRANCH  58  59
ENDBRANCH   1  58
TORSDOF 18
