REMARK SMILES O=C(OCCOCCOC(=O)c1nnn(-c2cccc(Br)c2)c1[C@@H]1COc2ccccc2O1)c1ccc(-c2c3nc(c(-c4ccccc4)c4ccc([nH]4)c(-c4ccccc4)c4nc(c(-c5ccccc5)c5ccc2[nH]5)C=C4)C=C3)cc1
REMARK SMILES IDX 5 1 4 2 3 3 2 4 1 5 34 6 35 7 81 8 36 9 80 10 37 11 38 12
REMARK SMILES IDX 39 13 74 14 40 15 79 16 73 17 75 18 41 19 78 20 72 21 71 22
REMARK SMILES IDX 42 24 64 25 49 26 63 27 50 28 53 29 62 30 76 31 51 32 52 33
REMARK SMILES IDX 61 35 77 36 54 37 43 38 44 39 48 40 45 41 47 42 46 43 65 44
REMARK SMILES IDX 66 45 70 46 67 47 69 48 68 49 55 50 56 51 60 52 57 53 59 54
REMARK SMILES IDX 58 55 6 56 7 57 8 58 9 59 10 60 11 61 12 62 13 63 23 64
REMARK SMILES IDX 14 65 15 66 24 67 25 68 33 69 26 70 32 71 27 72 31 73 28 74
REMARK SMILES IDX 30 75 29 76 16 77 17 78 22 79 18 80 20 81 19 82 21 83
REMARK H PARENT 75 23 53 34
REMARK Flexibility Score: inf
ROOT
ATOM      1  C   UNL     1       5.648   0.103  -0.402  1.00  0.00     0.202 C 
ENDROOT
BRANCH   1   2
ATOM      2  C   UNL     1       4.808  -1.083  -0.891  1.00  0.00     0.261 C 
BRANCH   2   3
ATOM      3  O   UNL     1       3.471  -0.719  -1.256  1.00  0.00    -0.460 OA
BRANCH   3   4
ATOM      4  C   UNL     1       2.346  -1.045  -0.583  1.00  0.00     0.338 C 
ATOM      5  O   UNL     1       1.307  -1.255  -1.207  1.00  0.00    -0.246 OA
BRANCH   4   6
ATOM      6  C   UNL     1       2.250  -1.002   0.910  1.00  0.00     0.060 A 
ATOM      7  C   UNL     1       3.268  -1.323   1.808  1.00  0.00     0.016 A 
ATOM      8  C   UNL     1       0.975  -0.695   1.429  1.00  0.00     0.016 A 
ATOM      9  C   UNL     1       2.994  -1.480   3.159  1.00  0.00     0.010 A 
ATOM     10  C   UNL     1       0.699  -0.828   2.786  1.00  0.00     0.010 A 
ATOM     11  C   UNL     1       1.697  -1.299   3.634  1.00  0.00    -0.014 A 
BRANCH  11  12
ATOM     12  C   UNL     1       1.441  -1.722   5.004  1.00  0.00     0.031 A 
ATOM     13  C   UNL     1       2.120  -0.981   6.098  1.00  0.00     0.074 A 
ATOM     14  C   UNL     1       0.622  -2.753   5.285  1.00  0.00     0.049 A 
ATOM     15  N   UNL     1       2.950  -1.438   6.980  1.00  0.00    -0.248 NA
ATOM     16  C   UNL     1       1.858   0.461   6.200  1.00  0.00     0.031 C 
ATOM     17  C   UNL     1      -0.316  -3.429   4.385  1.00  0.00     0.029 A 
ATOM     18  N   UNL     1       0.390  -3.348   6.490  1.00  0.00    -0.354 N 
ATOM     19  C   UNL     1       3.208  -0.380   7.849  1.00  0.00     0.074 A 
ATOM     20  C   UNL     1       2.581   0.785   7.273  1.00  0.00     0.031 C 
ATOM     21  C   UNL     1      -1.174  -4.168   5.120  1.00  0.00     0.029 A 
ATOM     22  C   UNL     1      -0.756  -4.123   6.511  1.00  0.00     0.049 A 
ATOM     23  H   UNL     1       0.980  -3.237   7.269  1.00  0.00     0.167 HD
ATOM     24  C   UNL     1       3.763  -0.558   9.080  1.00  0.00     0.031 A 
ATOM     25  C   UNL     1      -1.372  -4.628   7.603  1.00  0.00     0.031 A 
ATOM     26  C   UNL     1       4.444  -1.816   9.211  1.00  0.00     0.049 A 
ATOM     27  C   UNL     1      -0.399  -4.664   8.716  1.00  0.00     0.074 A 
ATOM     28  C   UNL     1       5.515  -2.423   8.586  1.00  0.00     0.029 A 
ATOM     29  N   UNL     1       3.834  -2.804   9.943  1.00  0.00    -0.354 N 
ATOM     30  N   UNL     1       0.622  -5.470   8.759  1.00  0.00    -0.248 NA
ATOM     31  C   UNL     1      -0.339  -3.536   9.632  1.00  0.00     0.031 C 
ATOM     32  C   UNL     1       5.212  -3.816   8.597  1.00  0.00     0.029 A 
ATOM     33  C   UNL     1       3.980  -3.968   9.236  1.00  0.00     0.049 A 
ATOM     34  H   UNL     1       3.381  -2.697  10.810  1.00  0.00     0.167 HD
ATOM     35  C   UNL     1       1.625  -4.744   9.385  1.00  0.00     0.074 A 
ATOM     36  C   UNL     1       0.938  -3.621  10.014  1.00  0.00     0.031 C 
ATOM     37  C   UNL     1       2.942  -4.966   9.098  1.00  0.00     0.031 A 
BRANCH  24  38
ATOM     38  C   UNL     1       3.390   0.273  10.282  1.00  0.00    -0.014 A 
ATOM     39  C   UNL     1       4.096   0.099  11.486  1.00  0.00     0.009 A 
ATOM     40  C   UNL     1       2.194   1.012  10.350  1.00  0.00     0.009 A 
ATOM     41  C   UNL     1       3.599   0.590  12.700  1.00  0.00     0.001 A 
ATOM     42  C   UNL     1       1.718   1.542  11.553  1.00  0.00     0.001 A 
ATOM     43  C   UNL     1       2.408   1.307  12.733  1.00  0.00     0.000 A 
ENDBRANCH  24  38
BRANCH  25  44
ATOM     44  C   UNL     1      -2.825  -4.814   7.786  1.00  0.00    -0.014 A 
ATOM     45  C   UNL     1      -3.332  -5.662   8.779  1.00  0.00     0.009 A 
ATOM     46  C   UNL     1      -3.731  -3.968   7.118  1.00  0.00     0.009 A 
ATOM     47  C   UNL     1      -4.696  -5.651   9.098  1.00  0.00     0.001 A 
ATOM     48  C   UNL     1      -5.092  -3.962   7.429  1.00  0.00     0.001 A 
ATOM     49  C   UNL     1      -5.573  -4.797   8.429  1.00  0.00     0.000 A 
ENDBRANCH  25  44
BRANCH  37  50
ATOM     50  C   UNL     1       3.287  -6.184   8.278  1.00  0.00    -0.014 A 
ATOM     51  C   UNL     1       2.813  -6.360   6.966  1.00  0.00     0.009 A 
ATOM     52  C   UNL     1       4.230  -7.097   8.774  1.00  0.00     0.009 A 
ATOM     53  C   UNL     1       3.238  -7.439   6.187  1.00  0.00     0.001 A 
ATOM     54  C   UNL     1       4.671  -8.165   7.987  1.00  0.00     0.001 A 
ATOM     55  C   UNL     1       4.170  -8.339   6.698  1.00  0.00     0.000 A 
ENDBRANCH  37  50
ENDBRANCH  11  12
ENDBRANCH   4   6
ENDBRANCH   3   4
ENDBRANCH   2   3
ENDBRANCH   1   2
BRANCH   1  56
ATOM     56  O   UNL     1       5.052   0.953   0.577  1.00  0.00    -0.374 OA
BRANCH  56  57
ATOM     57  C   UNL     1       4.074   1.908   0.139  1.00  0.00     0.202 C 
BRANCH  57  58
ATOM     58  C   UNL     1       4.460   2.759  -1.068  1.00  0.00     0.261 C 
BRANCH  58  59
ATOM     59  O   UNL     1       4.309   1.959  -2.252  1.00  0.00    -0.458 OA
BRANCH  59  60
ATOM     60  C   UNL     1       5.139   2.262  -3.277  1.00  0.00     0.361 C 
ATOM     61  O   UNL     1       5.914   3.219  -3.298  1.00  0.00    -0.244 OA
BRANCH  60  62
ATOM     62  C   UNL     1       5.060   1.308  -4.357  1.00  0.00     0.198 A 
ATOM     63  N   UNL     1       5.885   0.209  -4.429  1.00  0.00    -0.122 NA
ATOM     64  C   UNL     1       4.228   1.321  -5.462  1.00  0.00     0.123 A 
ATOM     65  N   UNL     1       5.627  -0.428  -5.565  1.00  0.00    -0.061 NA
ATOM     66  N   UNL     1       4.779   0.346  -6.275  1.00  0.00    -0.213 N 
BRANCH  64  67
ATOM     67  C   UNL     1       2.970   2.042  -5.820  1.00  0.00     0.262 C 
ATOM     68  C   UNL     1       2.911   3.536  -5.515  1.00  0.00     0.281 C 
ATOM     69  O   UNL     1       1.894   1.279  -5.273  1.00  0.00    -0.477 OA
ATOM     70  O   UNL     1       2.650   3.850  -4.149  1.00  0.00    -0.485 OA
ATOM     71  C   UNL     1       1.345   1.800  -4.139  1.00  0.00     0.162 A 
ATOM     72  C   UNL     1       1.682   3.045  -3.614  1.00  0.00     0.161 A 
ATOM     73  C   UNL     1       0.409   1.002  -3.485  1.00  0.00     0.050 A 
ATOM     74  C   UNL     1       1.075   3.497  -2.442  1.00  0.00     0.050 A 
ATOM     75  C   UNL     1      -0.190   1.447  -2.307  1.00  0.00     0.004 A 
ATOM     76  C   UNL     1       0.138   2.697  -1.787  1.00  0.00     0.004 A 
ENDBRANCH  64  67
BRANCH  66  77
ATOM     77  C   UNL     1       4.662   0.227  -7.675  1.00  0.00     0.068 A 
ATOM     78  C   UNL     1       4.705   1.391  -8.461  1.00  0.00     0.028 A 
ATOM     79  C   UNL     1       4.474  -1.025  -8.263  1.00  0.00     0.044 A 
ATOM     80  C   UNL     1       4.479   1.315  -9.831  1.00  0.00     0.003 A 
ATOM     81  C   UNL     1       4.220  -1.082  -9.634  1.00  0.00     0.020 A 
ATOM     82  C   UNL     1       4.213   0.078 -10.415  1.00  0.00     0.016 A 
ATOM     83  Br  UNL     1       3.828  -2.743 -10.447  1.00  0.00    -0.051 Br
ENDBRANCH  66  77
ENDBRANCH  60  62
ENDBRANCH  59  60
ENDBRANCH  58  59
ENDBRANCH  57  58
ENDBRANCH  56  57
ENDBRANCH   1  56
TORSDOF 16
