REMARK SMILES CCc1ccc(S(=O)(=O)CC(=O)OCCOCCOC(=O)c2ccc(-c3c4nc(c(-c5ccccc5)c5ccc([nH]5)c(-c5ccccc5)c5nc(c(-c6ccccc6)c6ccc3[nH]6)C=C5)C=C4)cc2)cc1
REMARK SMILES IDX 15 1 14 2 13 3 11 4 12 5 10 6 7 7 8 8 9 9 6 10 3 11 4 12
REMARK SMILES IDX 71 13 5 14 70 15 2 16 1 17 16 18 17 19 18 20 19 21 20 22
REMARK SMILES IDX 21 23 22 24 23 25 69 26 24 27 68 28 25 29 26 30 27 31 62 32
REMARK SMILES IDX 28 33 67 34 61 35 63 36 29 37 66 38 60 39 59 40 30 42 52 43
REMARK SMILES IDX 37 44 51 45 38 46 41 47 50 48 64 49 39 50 40 51 49 53 65 54
REMARK SMILES IDX 42 55 31 56 32 57 36 58 33 59 35 60 34 61 53 62 54 63 58 64
REMARK SMILES IDX 55 65 57 66 56 67 43 68 44 69 48 70 45 71 47 72 46 73
REMARK H PARENT 63 41 41 52
REMARK Flexibility Score: inf
ROOT
ATOM      1  C   UNL     1      -2.247   6.428  -2.621  1.00  0.00     0.202 C 
ENDROOT
BRANCH   1   2
ATOM      2  C   UNL     1      -1.340   7.647  -2.406  1.00  0.00     0.261 C 
BRANCH   2   3
ATOM      3  O   UNL     1      -0.081   7.383  -1.746  1.00  0.00    -0.462 OA
BRANCH   3   4
ATOM      4  C   UNL     1       0.067   7.924  -0.514  1.00  0.00     0.321 C 
ATOM      5  O   UNL     1      -0.855   8.445   0.113  1.00  0.00    -0.251 OA
BRANCH   4   6
ATOM      6  C   UNL     1       1.447   7.986   0.030  1.00  0.00     0.264 C 
BRANCH   6   7
ATOM      7  S   UNL     1       2.605   6.773  -0.449  1.00  0.00     0.189 S 
ATOM      8  O   UNL     1       3.847   7.120   0.223  1.00  0.00    -0.223 OA
ATOM      9  O   UNL     1       2.590   6.648  -1.894  1.00  0.00    -0.223 OA
BRANCH   7  10
ATOM     10  C   UNL     1       2.174   5.183   0.213  1.00  0.00     0.067 A 
ATOM     11  C   UNL     1       1.480   2.576   1.009  1.00  0.00    -0.048 A 
ATOM     12  C   UNL     1       2.463   2.781   0.034  1.00  0.00     0.005 A 
ATOM     13  C   UNL     1       0.937   3.701   1.659  1.00  0.00     0.005 A 
ATOM     14  C   UNL     1       2.799   4.074  -0.369  1.00  0.00     0.020 A 
ATOM     15  C   UNL     1       1.276   5.005   1.263  1.00  0.00     0.020 A 
BRANCH  11  16
ATOM     16  C   UNL     1       0.947   1.198   1.347  1.00  0.00     0.032 C 
ATOM     17  C   UNL     1       1.164   0.123   0.284  1.00  0.00     0.009 C 
ENDBRANCH  11  16
ENDBRANCH   7  10
ENDBRANCH   6   7
ENDBRANCH   4   6
ENDBRANCH   3   4
ENDBRANCH   2   3
ENDBRANCH   1   2
BRANCH   1  18
ATOM     18  O   UNL     1      -2.713   5.743  -1.461  1.00  0.00    -0.374 OA
BRANCH  18  19
ATOM     19  C   UNL     1      -1.753   5.029  -0.691  1.00  0.00     0.202 C 
BRANCH  19  20
ATOM     20  C   UNL     1      -1.157   3.774  -1.329  1.00  0.00     0.261 C 
BRANCH  20  21
ATOM     21  O   UNL     1      -0.546   4.028  -2.596  1.00  0.00    -0.460 OA
BRANCH  21  22
ATOM     22  C   UNL     1      -0.874   3.123  -3.542  1.00  0.00     0.338 C 
ATOM     23  O   UNL     1      -1.501   2.081  -3.399  1.00  0.00    -0.246 OA
BRANCH  22  24
ATOM     24  C   UNL     1      -0.497   3.627  -4.864  1.00  0.00     0.060 A 
ATOM     25  C   UNL     1      -1.530   3.915  -5.763  1.00  0.00     0.016 A 
ATOM     26  C   UNL     1       0.842   3.688  -5.253  1.00  0.00     0.016 A 
ATOM     27  C   UNL     1      -1.224   4.203  -7.088  1.00  0.00     0.010 A 
ATOM     28  C   UNL     1       1.146   3.974  -6.585  1.00  0.00     0.010 A 
ATOM     29  C   UNL     1       0.112   4.188  -7.513  1.00  0.00    -0.014 A 
BRANCH  29  30
ATOM     30  C   UNL     1       0.401   4.259  -8.961  1.00  0.00     0.031 A 
ATOM     31  C   UNL     1       0.633   2.984  -9.722  1.00  0.00     0.074 A 
ATOM     32  C   UNL     1       0.399   5.445  -9.591  1.00  0.00     0.049 A 
ATOM     33  N   UNL     1       0.845   2.812 -11.001  1.00  0.00    -0.248 NA
ATOM     34  C   UNL     1       0.622   1.737  -8.939  1.00  0.00     0.031 C 
ATOM     35  C   UNL     1       0.159   6.739  -8.952  1.00  0.00     0.029 A 
ATOM     36  N   UNL     1       0.597   5.750 -10.912  1.00  0.00    -0.354 N 
ATOM     37  C   UNL     1       0.994   1.442 -11.176  1.00  0.00     0.074 A 
ATOM     38  C   UNL     1       0.877   0.830  -9.871  1.00  0.00     0.031 C 
ATOM     39  C   UNL     1       0.220   7.702  -9.886  1.00  0.00     0.029 A 
ATOM     40  C   UNL     1       0.524   7.094 -11.180  1.00  0.00     0.049 A 
ATOM     41  H   UNL     1       0.775   5.071 -11.602  1.00  0.00     0.167 HD
ATOM     42  C   UNL     1       1.204   0.757 -12.325  1.00  0.00     0.031 A 
ATOM     43  C   UNL     1       0.689   7.756 -12.339  1.00  0.00     0.031 A 
ATOM     44  C   UNL     1       1.334   1.374 -13.617  1.00  0.00     0.049 A 
ATOM     45  C   UNL     1       0.966   6.976 -13.594  1.00  0.00     0.074 A 
ATOM     46  C   UNL     1       1.532   0.770 -14.846  1.00  0.00     0.029 A 
ATOM     47  N   UNL     1       1.287   2.741 -13.842  1.00  0.00    -0.354 N 
ATOM     48  N   UNL     1       1.068   5.678 -13.752  1.00  0.00    -0.248 NA
ATOM     49  C   UNL     1       1.137   7.750 -14.831  1.00  0.00     0.031 C 
ATOM     50  C   UNL     1       1.652   1.776 -15.810  1.00  0.00     0.029 A 
ATOM     51  C   UNL     1       1.477   3.003 -15.188  1.00  0.00     0.049 A 
ATOM     52  H   UNL     1       1.140   3.424 -13.149  1.00  0.00     0.167 HD
ATOM     53  C   UNL     1       1.297   5.478 -15.107  1.00  0.00     0.074 A 
ATOM     54  C   UNL     1       1.301   6.788 -15.728  1.00  0.00     0.031 C 
ATOM     55  C   UNL     1       1.485   4.316 -15.779  1.00  0.00     0.031 A 
BRANCH  42  56
ATOM     56  C   UNL     1       1.338  -0.736 -12.225  1.00  0.00    -0.014 A 
ATOM     57  C   UNL     1       0.223  -1.552 -11.979  1.00  0.00     0.009 A 
ATOM     58  C   UNL     1       2.592  -1.337 -12.411  1.00  0.00     0.009 A 
ATOM     59  C   UNL     1       0.368  -2.939 -11.893  1.00  0.00     0.001 A 
ATOM     60  C   UNL     1       2.730  -2.724 -12.348  1.00  0.00     0.001 A 
ATOM     61  C   UNL     1       1.619  -3.524 -12.082  1.00  0.00     0.000 A 
ENDBRANCH  42  56
BRANCH  43  62
ATOM     62  C   UNL     1       0.600   9.238 -12.360  1.00  0.00    -0.014 A 
ATOM     63  C   UNL     1      -0.498   9.883 -12.948  1.00  0.00     0.009 A 
ATOM     64  C   UNL     1       1.611  10.016 -11.773  1.00  0.00     0.009 A 
ATOM     65  C   UNL     1      -0.573  11.279 -12.962  1.00  0.00     0.001 A 
ATOM     66  C   UNL     1       1.521  11.409 -11.766  1.00  0.00     0.001 A 
ATOM     67  C   UNL     1       0.433  12.039 -12.366  1.00  0.00     0.000 A 
ENDBRANCH  43  62
BRANCH  55  68
ATOM     68  C   UNL     1       1.692   4.409 -17.263  1.00  0.00    -0.014 A 
ATOM     69  C   UNL     1       2.907   4.865 -17.798  1.00  0.00     0.009 A 
ATOM     70  C   UNL     1       0.676   3.988 -18.135  1.00  0.00     0.009 A 
ATOM     71  C   UNL     1       3.088   4.924 -19.181  1.00  0.00     0.001 A 
ATOM     72  C   UNL     1       0.870   4.024 -19.516  1.00  0.00     0.001 A 
ATOM     73  C   UNL     1       2.072   4.500 -20.037  1.00  0.00     0.000 A 
ENDBRANCH  55  68
ENDBRANCH  29  30
ENDBRANCH  22  24
ENDBRANCH  21  22
ENDBRANCH  20  21
ENDBRANCH  19  20
ENDBRANCH  18  19
ENDBRANCH   1  18
TORSDOF 17
