REMARK SMILES CC(C)C[C@H](C)NS(=O)(=O)c1cc(C(=O)OCCOCCOC(=O)c2ccc(-c3c4nc(c(-c5ccccc5)c5ccc([nH]5)c(-c5ccccc5)c5nc(c(-c6ccccc6)c6ccc3[nH]6)C=C5)C=C4)cc2)ccc1Cl
REMARK SMILES IDX 17 1 16 2 14 3 15 4 13 5 11 6 12 7 75 8 74 9 76 10 73 11
REMARK SMILES IDX 8 12 9 13 10 14 7 15 5 17 6 18 4 19 2 20 1 21 3 22 18 23
REMARK SMILES IDX 19 24 20 25 21 26 22 27 23 28 24 29 25 30 26 31 72 32 27 33
REMARK SMILES IDX 71 34 28 35 29 36 30 37 65 38 31 39 70 40 64 41 66 42 32 43
REMARK SMILES IDX 69 44 63 45 62 46 33 48 55 49 40 50 54 51 41 52 44 53 53 54
REMARK SMILES IDX 67 55 42 56 43 57 52 59 68 60 45 61 34 62 35 63 39 64 36 65
REMARK SMILES IDX 38 66 37 67 56 68 57 69 61 70 58 71 60 72 59 73 46 74 47 75
REMARK SMILES IDX 51 76 48 77 50 78 49 79
REMARK H PARENT 7 16 66 47 44 58
REMARK Flexibility Score: inf
ROOT
ATOM      1  C   UNL     1       0.063   2.754   4.827  1.00  0.00     0.261 C 
ENDROOT
BRANCH   1   2
ATOM      2  O   UNL     1      -0.690   3.546   3.892  1.00  0.00    -0.460 OA
BRANCH   2   3
ATOM      3  C   UNL     1      -0.569   3.156   2.604  1.00  0.00     0.338 C 
ATOM      4  O   UNL     1       0.196   2.322   2.147  1.00  0.00    -0.246 OA
BRANCH   3   5
ATOM      5  C   UNL     1      -1.667   3.725   1.799  1.00  0.00     0.061 A 
ATOM      6  C   UNL     1      -3.292   3.296   0.046  1.00  0.00     0.101 A 
ATOM      7  C   UNL     1      -2.365   2.832   0.981  1.00  0.00     0.039 A 
ATOM      8  C   UNL     1      -3.605   4.655   0.010  1.00  0.00     0.061 A 
ATOM      9  C   UNL     1      -2.960   5.537   0.896  1.00  0.00     0.023 A 
ATOM     10  Cl  UNL     1      -4.784   5.340  -1.045  1.00  0.00    -0.083 Cl
ATOM     11  C   UNL     1      -1.978   5.080   1.783  1.00  0.00     0.017 A 
BRANCH   6  12
ATOM     12  S   UNL     1      -3.956   2.154  -1.131  1.00  0.00     0.242 S 
ATOM     13  O   UNL     1      -3.927   2.722  -2.456  1.00  0.00    -0.207 OA
ATOM     14  O   UNL     1      -5.184   1.645  -0.558  1.00  0.00    -0.207 OA
BRANCH  12  15
ATOM     15  N   UNL     1      -2.908   0.839  -1.147  1.00  0.00    -0.208 NA
ATOM     16  H   UNL     1      -2.986   0.430  -0.216  1.00  0.00     0.141 HD
BRANCH  15  17
ATOM     17  C   UNL     1      -1.455   0.860  -1.433  1.00  0.00     0.067 C 
ATOM     18  C   UNL     1      -0.994  -0.606  -1.419  1.00  0.00     0.025 C 
BRANCH  17  19
ATOM     19  C   UNL     1      -1.053   1.532  -2.751  1.00  0.00     0.022 C 
BRANCH  19  20
ATOM     20  C   UNL     1      -0.830   3.062  -2.685  1.00  0.00    -0.016 C 
ATOM     21  C   UNL     1       0.303   3.482  -1.746  1.00  0.00     0.007 C 
ATOM     22  C   UNL     1      -0.550   3.599  -4.091  1.00  0.00     0.007 C 
ENDBRANCH  19  20
ENDBRANCH  17  19
ENDBRANCH  15  17
ENDBRANCH  12  15
ENDBRANCH   6  12
ENDBRANCH   3   5
ENDBRANCH   2   3
ENDBRANCH   1   2
BRANCH   1  23
ATOM     23  C   UNL     1      -0.861   1.958   5.756  1.00  0.00     0.202 C 
BRANCH  23  24
ATOM     24  O   UNL     1      -1.655   0.930   5.163  1.00  0.00    -0.374 OA
BRANCH  24  25
ATOM     25  C   UNL     1      -2.803   1.321   4.414  1.00  0.00     0.202 C 
BRANCH  25  26
ATOM     26  C   UNL     1      -4.058   1.740   5.189  1.00  0.00     0.261 C 
BRANCH  26  27
ATOM     27  O   UNL     1      -3.822   2.857   6.061  1.00  0.00    -0.460 OA
BRANCH  27  28
ATOM     28  C   UNL     1      -3.765   2.524   7.373  1.00  0.00     0.338 C 
ATOM     29  O   UNL     1      -3.966   1.428   7.868  1.00  0.00    -0.246 OA
BRANCH  28  30
ATOM     30  C   UNL     1      -3.243   3.652   8.165  1.00  0.00     0.060 A 
ATOM     31  C   UNL     1      -2.179   3.376   9.032  1.00  0.00     0.016 A 
ATOM     32  C   UNL     1      -3.833   4.917   8.141  1.00  0.00     0.016 A 
ATOM     33  C   UNL     1      -1.751   4.342   9.937  1.00  0.00     0.010 A 
ATOM     34  C   UNL     1      -3.402   5.888   9.054  1.00  0.00     0.010 A 
ATOM     35  C   UNL     1      -2.395   5.585   9.988  1.00  0.00    -0.014 A 
BRANCH  35  36
ATOM     36  C   UNL     1      -2.111   6.485  11.132  1.00  0.00     0.031 A 
ATOM     37  C   UNL     1      -3.080   6.537  12.283  1.00  0.00     0.074 A 
ATOM     38  C   UNL     1      -0.965   7.186  11.185  1.00  0.00     0.049 A 
ATOM     39  N   UNL     1      -2.995   7.197  13.410  1.00  0.00    -0.248 NA
ATOM     40  C   UNL     1      -4.308   5.736  12.146  1.00  0.00     0.031 C 
ATOM     41  C   UNL     1       0.073   7.191  10.155  1.00  0.00     0.029 A 
ATOM     42  N   UNL     1      -0.478   8.020  12.160  1.00  0.00    -0.354 N 
ATOM     43  C   UNL     1      -4.156   6.895  14.112  1.00  0.00     0.074 A 
ATOM     44  C   UNL     1      -4.947   6.025  13.270  1.00  0.00     0.031 C 
ATOM     45  C   UNL     1       1.081   7.984  10.558  1.00  0.00     0.029 A 
ATOM     46  C   UNL     1       0.747   8.559  11.859  1.00  0.00     0.049 A 
ATOM     47  H   UNL     1      -0.962   8.213  12.996  1.00  0.00     0.167 HD
ATOM     48  C   UNL     1      -4.528   7.296  15.352  1.00  0.00     0.031 A 
ATOM     49  C   UNL     1       1.512   9.424  12.553  1.00  0.00     0.031 A 
ATOM     50  C   UNL     1      -3.750   8.171  16.188  1.00  0.00     0.049 A 
ATOM     51  C   UNL     1       1.048   9.903  13.902  1.00  0.00     0.074 A 
ATOM     52  C   UNL     1      -4.034   8.622  17.466  1.00  0.00     0.029 A 
ATOM     53  N   UNL     1      -2.537   8.735  15.826  1.00  0.00    -0.354 N 
ATOM     54  N   UNL     1      -0.035   9.583  14.568  1.00  0.00    -0.248 NA
ATOM     55  C   UNL     1       1.927  10.850  14.602  1.00  0.00     0.031 C 
ATOM     56  C   UNL     1      -3.021   9.505  17.853  1.00  0.00     0.029 A 
ATOM     57  C   UNL     1      -2.072   9.552  16.844  1.00  0.00     0.049 A 
ATOM     58  H   UNL     1      -2.073   8.578  14.972  1.00  0.00     0.167 HD
ATOM     59  C   UNL     1       0.045  10.268  15.775  1.00  0.00     0.074 A 
ATOM     60  C   UNL     1       1.294  11.001  15.757  1.00  0.00     0.031 C 
ATOM     61  C   UNL     1      -0.833  10.286  16.808  1.00  0.00     0.031 A 
BRANCH  48  62
ATOM     62  C   UNL     1      -5.860   6.817  15.861  1.00  0.00    -0.014 A 
ATOM     63  C   UNL     1      -6.069   5.474  16.215  1.00  0.00     0.009 A 
ATOM     64  C   UNL     1      -6.917   7.729  16.009  1.00  0.00     0.009 A 
ATOM     65  C   UNL     1      -7.319   5.049  16.672  1.00  0.00     0.001 A 
ATOM     66  C   UNL     1      -8.156   7.307  16.494  1.00  0.00     0.001 A 
ATOM     67  C   UNL     1      -8.359   5.966  16.815  1.00  0.00     0.000 A 
ENDBRANCH  48  62
BRANCH  49  68
ATOM     68  C   UNL     1       2.799   9.901  11.983  1.00  0.00    -0.014 A 
ATOM     69  C   UNL     1       4.023   9.520  12.553  1.00  0.00     0.009 A 
ATOM     70  C   UNL     1       2.806  10.760  10.873  1.00  0.00     0.009 A 
ATOM     71  C   UNL     1       5.226  10.014  12.040  1.00  0.00     0.001 A 
ATOM     72  C   UNL     1       4.010  11.227  10.344  1.00  0.00     0.001 A 
ATOM     73  C   UNL     1       5.218  10.862  10.934  1.00  0.00     0.000 A 
ENDBRANCH  49  68
BRANCH  61  74
ATOM     74  C   UNL     1      -0.454  11.100  18.015  1.00  0.00    -0.014 A 
ATOM     75  C   UNL     1      -0.425  12.503  17.975  1.00  0.00     0.009 A 
ATOM     76  C   UNL     1      -0.131  10.449  19.217  1.00  0.00     0.009 A 
ATOM     77  C   UNL     1      -0.032  13.235  19.098  1.00  0.00     0.001 A 
ATOM     78  C   UNL     1       0.229  11.184  20.348  1.00  0.00     0.001 A 
ATOM     79  C   UNL     1       0.291  12.575  20.284  1.00  0.00     0.000 A 
ENDBRANCH  61  74
ENDBRANCH  35  36
ENDBRANCH  28  30
ENDBRANCH  27  28
ENDBRANCH  26  27
ENDBRANCH  25  26
ENDBRANCH  24  25
ENDBRANCH  23  24
ENDBRANCH   1  23
TORSDOF 19
