REMARK SMILES Cc1ccc(-c2cc(Cl)ccc2Cl)c(C(=O)OCCOCCOC(=O)c2ccc(-c3c4nc(c(-c5ccccc5)c5ccc([nH]5)c(-c5ccccc5)c5nc(c(-c6ccccc6)c6ccc3[nH]6)C=C5)C=C4)cc2)c1
REMARK SMILES IDX 21 1 20 2 19 3 18 4 17 5 15 6 16 7 14 8 1 9 2 10 3 11 74 12
REMARK SMILES IDX 4 13 5 14 6 15 7 16 12 17 8 18 11 19 13 20 9 21 10 22 22 23
REMARK SMILES IDX 23 24 24 25 25 26 26 27 27 28 73 29 28 30 72 31 29 32 30 33
REMARK SMILES IDX 31 34 66 35 32 36 71 37 65 38 67 39 33 40 70 41 64 42 63 43
REMARK SMILES IDX 34 45 56 46 41 47 55 48 42 49 45 50 54 51 68 52 43 53 44 54
REMARK SMILES IDX 53 56 69 57 46 58 35 59 36 60 40 61 37 62 39 63 38 64 57 65
REMARK SMILES IDX 58 66 62 67 59 68 61 69 60 70 47 71 48 72 52 73 49 74 51 75
REMARK SMILES IDX 50 76
REMARK H PARENT 67 44 45 55
REMARK Flexibility Score: inf
ROOT
ATOM      1  C   UNL     1      -2.565   2.696  -3.188  1.00  0.00     0.202 C 
ENDROOT
BRANCH   1   2
ATOM      2  O   UNL     1      -2.087   3.241  -1.981  1.00  0.00    -0.374 OA
BRANCH   2   3
ATOM      3  C   UNL     1      -0.779   3.781  -2.000  1.00  0.00     0.202 C 
BRANCH   3   4
ATOM      4  C   UNL     1      -0.431   3.979  -0.556  1.00  0.00     0.261 C 
BRANCH   4   5
ATOM      5  O   UNL     1      -0.279   2.707   0.109  1.00  0.00    -0.460 OA
BRANCH   5   6
ATOM      6  C   UNL     1      -1.339   1.885   0.390  1.00  0.00     0.338 C 
ATOM      7  O   UNL     1      -2.495   2.190   0.526  1.00  0.00    -0.246 OA
BRANCH   6   8
ATOM      8  C   UNL     1      -0.808   0.491   0.349  1.00  0.00     0.068 A 
ATOM      9  C   UNL     1       2.703  -0.880  -0.061  1.00  0.00     0.044 C 
ATOM     10  C   UNL     1       1.208  -0.851   0.042  1.00  0.00    -0.050 A 
ATOM     11  C   UNL     1       0.405  -1.961  -0.203  1.00  0.00     0.004 A 
ATOM     12  C   UNL     1       0.592   0.345   0.381  1.00  0.00     0.019 A 
ATOM     13  C   UNL     1      -0.996  -1.857  -0.139  1.00  0.00     0.010 A 
ATOM     14  C   UNL     1      -1.637  -0.629   0.127  1.00  0.00    -0.002 A 
BRANCH  14  15
ATOM     15  C   UNL     1      -3.117  -0.567   0.131  1.00  0.00     0.003 A 
ATOM     16  C   UNL     1      -3.801  -0.217  -1.051  1.00  0.00     0.030 A 
ATOM     17  C   UNL     1      -3.892  -0.803   1.286  1.00  0.00     0.049 A 
ATOM     18  C   UNL     1      -5.190  -0.058  -1.061  1.00  0.00     0.041 A 
ATOM     19  C   UNL     1      -5.288  -0.662   1.264  1.00  0.00     0.023 A 
ATOM     20  Cl  UNL     1      -3.167  -1.283   2.782  1.00  0.00    -0.084 Cl
ATOM     21  Cl  UNL     1      -5.987   0.428  -2.508  1.00  0.00    -0.084 Cl
ATOM     22  C   UNL     1      -5.937  -0.276   0.092  1.00  0.00     0.022 A 
ENDBRANCH  14  15
ENDBRANCH   6   8
ENDBRANCH   5   6
ENDBRANCH   4   5
ENDBRANCH   3   4
ENDBRANCH   2   3
ENDBRANCH   1   2
BRANCH   1  23
ATOM     23  C   UNL     1      -2.686   3.750  -4.287  1.00  0.00     0.261 C 
BRANCH  23  24
ATOM     24  O   UNL     1      -3.656   4.751  -3.902  1.00  0.00    -0.460 OA
BRANCH  24  25
ATOM     25  C   UNL     1      -3.150   5.881  -3.331  1.00  0.00     0.338 C 
ATOM     26  O   UNL     1      -2.288   6.589  -3.827  1.00  0.00    -0.246 OA
BRANCH  25  27
ATOM     27  C   UNL     1      -3.585   5.980  -1.905  1.00  0.00     0.060 A 
ATOM     28  C   UNL     1      -2.945   6.885  -1.035  1.00  0.00     0.016 A 
ATOM     29  C   UNL     1      -4.349   4.944  -1.380  1.00  0.00     0.016 A 
ATOM     30  C   UNL     1      -2.912   6.634   0.348  1.00  0.00     0.010 A 
ATOM     31  C   UNL     1      -4.194   4.633  -0.046  1.00  0.00     0.010 A 
ATOM     32  C   UNL     1      -3.447   5.444   0.827  1.00  0.00    -0.014 A 
BRANCH  32  33
ATOM     33  C   UNL     1      -3.311   4.890   2.183  1.00  0.00     0.031 A 
ATOM     34  C   UNL     1      -4.572   4.672   2.930  1.00  0.00     0.074 A 
ATOM     35  C   UNL     1      -2.167   4.299   2.625  1.00  0.00     0.049 A 
ATOM     36  N   UNL     1      -4.629   4.223   4.132  1.00  0.00    -0.248 NA
ATOM     37  C   UNL     1      -5.904   4.976   2.392  1.00  0.00     0.031 C 
ATOM     38  C   UNL     1      -2.025   3.213   3.606  1.00  0.00     0.029 A 
ATOM     39  N   UNL     1      -0.835   4.548   2.280  1.00  0.00    -0.354 N 
ATOM     40  C   UNL     1      -5.920   3.819   4.357  1.00  0.00     0.074 A 
ATOM     41  C   UNL     1      -6.699   4.425   3.312  1.00  0.00     0.031 C 
ATOM     42  C   UNL     1      -0.740   3.116   3.997  1.00  0.00     0.029 A 
ATOM     43  C   UNL     1      -0.030   4.225   3.386  1.00  0.00     0.049 A 
ATOM     44  H   UNL     1      -0.516   4.890   1.414  1.00  0.00     0.167 HD
ATOM     45  C   UNL     1      -6.138   2.894   5.327  1.00  0.00     0.031 A 
ATOM     46  C   UNL     1       0.718   5.177   4.007  1.00  0.00     0.031 A 
ATOM     47  C   UNL     1      -4.930   2.693   6.134  1.00  0.00     0.049 A 
ATOM     48  C   UNL     1       0.208   5.335   5.410  1.00  0.00     0.074 A 
ATOM     49  C   UNL     1      -4.005   1.669   6.230  1.00  0.00     0.029 A 
ATOM     50  N   UNL     1      -4.348   3.807   6.740  1.00  0.00    -0.354 N 
ATOM     51  N   UNL     1      -1.012   5.014   5.749  1.00  0.00    -0.248 NA
ATOM     52  C   UNL     1       1.019   5.745   6.550  1.00  0.00     0.031 C 
ATOM     53  C   UNL     1      -2.816   2.218   6.801  1.00  0.00     0.029 A 
ATOM     54  C   UNL     1      -3.038   3.556   7.094  1.00  0.00     0.049 A 
ATOM     55  H   UNL     1      -4.812   4.662   6.895  1.00  0.00     0.167 HD
ATOM     56  C   UNL     1      -1.125   5.036   7.102  1.00  0.00     0.074 A 
ATOM     57  C   UNL     1       0.151   5.561   7.563  1.00  0.00     0.031 C 
ATOM     58  C   UNL     1      -2.237   4.588   7.750  1.00  0.00     0.031 A 
BRANCH  45  59
ATOM     59  C   UNL     1      -7.378   2.043   5.434  1.00  0.00    -0.014 A 
ATOM     60  C   UNL     1      -7.492   1.131   6.497  1.00  0.00     0.009 A 
ATOM     61  C   UNL     1      -8.421   2.017   4.487  1.00  0.00     0.009 A 
ATOM     62  C   UNL     1      -8.585   0.259   6.614  1.00  0.00     0.001 A 
ATOM     63  C   UNL     1      -9.532   1.171   4.613  1.00  0.00     0.001 A 
ATOM     64  C   UNL     1      -9.612   0.287   5.677  1.00  0.00     0.000 A 
ENDBRANCH  45  59
BRANCH  46  65
ATOM     65  C   UNL     1       1.181   6.229   3.048  1.00  0.00    -0.014 A 
ATOM     66  C   UNL     1       2.179   5.851   2.118  1.00  0.00     0.009 A 
ATOM     67  C   UNL     1       0.334   7.295   2.706  1.00  0.00     0.009 A 
ATOM     68  C   UNL     1       2.213   6.402   0.830  1.00  0.00     0.001 A 
ATOM     69  C   UNL     1       0.376   7.844   1.414  1.00  0.00     0.001 A 
ATOM     70  C   UNL     1       1.277   7.364   0.464  1.00  0.00     0.000 A 
ENDBRANCH  46  65
BRANCH  58  71
ATOM     71  C   UNL     1      -2.634   5.067   9.116  1.00  0.00    -0.014 A 
ATOM     72  C   UNL     1      -2.110   6.226   9.705  1.00  0.00     0.009 A 
ATOM     73  C   UNL     1      -3.713   4.446   9.777  1.00  0.00     0.009 A 
ATOM     74  C   UNL     1      -2.589   6.700  10.928  1.00  0.00     0.001 A 
ATOM     75  C   UNL     1      -4.238   4.954  10.964  1.00  0.00     0.001 A 
ATOM     76  C   UNL     1      -3.660   6.070  11.551  1.00  0.00     0.000 A 
ENDBRANCH  58  71
ENDBRANCH  32  33
ENDBRANCH  25  27
ENDBRANCH  24  25
ENDBRANCH  23  24
ENDBRANCH   1  23
TORSDOF 15
