REMARK SMILES O=C(CCc1nc(-c2ccccc2)c(-c2ccccc2)o1)OCCOCCOC(=O)c1ccc(-c2c3nc(c(-c4ccccc4)c4ccc([nH]4)c(-c4ccccc4)c4nc(c(-c5ccccc5)c5ccc2[nH]5)C=C4)C=C3)cc1
REMARK SMILES IDX 24 1 23 2 22 3 2 4 1 5 3 6 4 7 5 8 6 9 21 10 7 11 14 12 8 13
REMARK SMILES IDX 9 14 13 15 10 16 12 17 11 18 15 19 16 20 20 21 17 22 19 23
REMARK SMILES IDX 18 24 25 25 26 26 27 27 28 28 29 29 30 30 31 31 32 32 78 33
REMARK SMILES IDX 33 34 77 35 34 36 35 37 36 38 71 39 37 40 76 41 70 42 72 43
REMARK SMILES IDX 38 44 75 45 69 46 68 47 39 49 61 50 46 51 60 52 47 53 50 54
REMARK SMILES IDX 59 55 73 56 48 57 49 58 58 60 74 61 51 62 40 63 41 64 45 65
REMARK SMILES IDX 42 66 44 67 43 68 62 69 63 70 67 71 64 72 66 73 65 74 52 75
REMARK SMILES IDX 53 76 57 77 54 78 56 79 55 80
REMARK H PARENT 72 48 50 59
REMARK Flexibility Score: inf
ROOT
ATOM      1  C   UNL     1       4.522   0.767  -1.073  1.00  0.00     0.202 C 
ENDROOT
BRANCH   1   2
ATOM      2  C   UNL     1       3.722  -0.540  -1.062  1.00  0.00     0.261 C 
BRANCH   2   3
ATOM      3  O   UNL     1       2.529  -0.590  -0.258  1.00  0.00    -0.463 OA
BRANCH   3   4
ATOM      4  C   UNL     1       2.478  -0.655   1.087  1.00  0.00     0.306 C 
ATOM      5  O   UNL     1       1.558  -1.257   1.638  1.00  0.00    -0.252 OA
BRANCH   4   6
ATOM      6  C   UNL     1       3.452   0.161   1.892  1.00  0.00     0.132 C 
BRANCH   6   7
ATOM      7  C   UNL     1       4.486  -0.649   2.651  1.00  0.00     0.109 C 
BRANCH   7   8
ATOM      8  C   UNL     1       5.381  -1.452   1.780  1.00  0.00     0.196 A 
ATOM      9  N   UNL     1       5.264  -2.727   1.488  1.00  0.00    -0.213 NA
ATOM     10  O   UNL     1       6.418  -0.816   1.141  1.00  0.00    -0.440 OA
ATOM     11  C   UNL     1       6.293  -2.964   0.613  1.00  0.00     0.117 A 
ATOM     12  C   UNL     1       6.973  -1.790   0.336  1.00  0.00     0.162 A 
BRANCH  11  13
ATOM     13  C   UNL     1       6.497  -4.245  -0.022  1.00  0.00     0.004 A 
ATOM     14  C   UNL     1       7.771  -4.821  -0.102  1.00  0.00     0.010 A 
ATOM     15  C   UNL     1       5.406  -4.890  -0.615  1.00  0.00     0.010 A 
ATOM     16  C   UNL     1       7.958  -6.007  -0.812  1.00  0.00     0.001 A 
ATOM     17  C   UNL     1       5.595  -6.082  -1.312  1.00  0.00     0.001 A 
ATOM     18  C   UNL     1       6.872  -6.631  -1.424  1.00  0.00     0.000 A 
ENDBRANCH  11  13
BRANCH  12  19
ATOM     19  C   UNL     1       7.983  -1.377  -0.640  1.00  0.00     0.020 A 
ATOM     20  C   UNL     1       8.908  -0.361  -0.376  1.00  0.00     0.012 A 
ATOM     21  C   UNL     1       8.053  -2.017  -1.891  1.00  0.00     0.012 A 
ATOM     22  C   UNL     1       9.885  -0.019  -1.323  1.00  0.00     0.001 A 
ATOM     23  C   UNL     1       9.040  -1.693  -2.825  1.00  0.00     0.001 A 
ATOM     24  C   UNL     1       9.953  -0.688  -2.544  1.00  0.00     0.000 A 
ENDBRANCH  12  19
ENDBRANCH   7   8
ENDBRANCH   6   7
ENDBRANCH   4   6
ENDBRANCH   3   4
ENDBRANCH   2   3
ENDBRANCH   1   2
BRANCH   1  25
ATOM     25  O   UNL     1       3.852   1.977  -0.749  1.00  0.00    -0.374 OA
BRANCH  25  26
ATOM     26  C   UNL     1       2.610   2.257  -1.380  1.00  0.00     0.202 C 
BRANCH  26  27
ATOM     27  C   UNL     1       2.701   2.651  -2.851  1.00  0.00     0.261 C 
BRANCH  27  28
ATOM     28  O   UNL     1       3.113   1.545  -3.673  1.00  0.00    -0.460 OA
BRANCH  28  29
ATOM     29  C   UNL     1       4.303   1.689  -4.297  1.00  0.00     0.338 C 
ATOM     30  O   UNL     1       5.065   2.646  -4.256  1.00  0.00    -0.246 OA
BRANCH  29  31
ATOM     31  C   UNL     1       4.653   0.414  -4.936  1.00  0.00     0.060 A 
ATOM     32  C   UNL     1       5.745  -0.306  -4.442  1.00  0.00     0.016 A 
ATOM     33  C   UNL     1       3.937  -0.047  -6.042  1.00  0.00     0.016 A 
ATOM     34  C   UNL     1       6.111  -1.503  -5.046  1.00  0.00     0.010 A 
ATOM     35  C   UNL     1       4.328  -1.237  -6.662  1.00  0.00     0.010 A 
ATOM     36  C   UNL     1       5.422  -1.967  -6.169  1.00  0.00    -0.014 A 
BRANCH  36  37
ATOM     37  C   UNL     1       5.930  -3.156  -6.890  1.00  0.00     0.031 A 
ATOM     38  C   UNL     1       6.707  -2.959  -8.157  1.00  0.00     0.074 A 
ATOM     39  C   UNL     1       5.732  -4.394  -6.402  1.00  0.00     0.049 A 
ATOM     40  N   UNL     1       7.093  -3.849  -9.033  1.00  0.00    -0.248 NA
ATOM     41  C   UNL     1       7.107  -1.579  -8.476  1.00  0.00     0.031 C 
ATOM     42  C   UNL     1       5.093  -4.709  -5.126  1.00  0.00     0.029 A 
ATOM     43  N   UNL     1       6.042  -5.620  -6.937  1.00  0.00    -0.354 N 
ATOM     44  C   UNL     1       7.737  -3.132 -10.032  1.00  0.00     0.074 A 
ATOM     45  C   UNL     1       7.711  -1.738  -9.645  1.00  0.00     0.031 C 
ATOM     46  C   UNL     1       5.034  -6.044  -4.990  1.00  0.00     0.029 A 
ATOM     47  C   UNL     1       5.574  -6.675  -6.190  1.00  0.00     0.049 A 
ATOM     48  H   UNL     1       6.548  -5.734  -7.773  1.00  0.00     0.167 HD
ATOM     49  C   UNL     1       8.279  -3.600 -11.180  1.00  0.00     0.031 A 
ATOM     50  C   UNL     1       5.529  -7.992  -6.468  1.00  0.00     0.031 A 
ATOM     51  C   UNL     1       8.306  -4.989 -11.550  1.00  0.00     0.049 A 
ATOM     52  C   UNL     1       6.048  -8.473  -7.798  1.00  0.00     0.074 A 
ATOM     53  C   UNL     1       8.836  -5.562 -12.693  1.00  0.00     0.029 A 
ATOM     54  N   UNL     1       7.777  -6.019 -10.791  1.00  0.00    -0.354 N 
ATOM     55  N   UNL     1       6.635  -7.790  -8.752  1.00  0.00    -0.248 NA
ATOM     56  C   UNL     1       5.875  -9.901  -8.102  1.00  0.00     0.031 C 
ATOM     57  C   UNL     1       8.563  -6.932 -12.658  1.00  0.00     0.029 A 
ATOM     58  C   UNL     1       7.926  -7.220 -11.462  1.00  0.00     0.049 A 
ATOM     59  H   UNL     1       7.358  -5.913  -9.906  1.00  0.00     0.167 HD
ATOM     60  C   UNL     1       6.907  -8.705  -9.760  1.00  0.00     0.074 A 
ATOM     61  C   UNL     1       6.455  -9.997  -9.289  1.00  0.00     0.031 C 
ATOM     62  C   UNL     1       7.469  -8.495 -10.975  1.00  0.00     0.031 A 
BRANCH  49  63
ATOM     63  C   UNL     1       8.814  -2.600 -12.162  1.00  0.00    -0.014 A 
ATOM     64  C   UNL     1      10.032  -1.937 -11.957  1.00  0.00     0.009 A 
ATOM     65  C   UNL     1       8.107  -2.376 -13.355  1.00  0.00     0.009 A 
ATOM     66  C   UNL     1      10.526  -1.060 -12.926  1.00  0.00     0.001 A 
ATOM     67  C   UNL     1       8.615  -1.520 -14.331  1.00  0.00     0.001 A 
ATOM     68  C   UNL     1       9.822  -0.859 -14.115  1.00  0.00     0.000 A 
ENDBRANCH  49  63
BRANCH  50  69
ATOM     69  C   UNL     1       4.880  -8.946  -5.524  1.00  0.00    -0.014 A 
ATOM     70  C   UNL     1       5.611  -9.985  -4.928  1.00  0.00     0.009 A 
ATOM     71  C   UNL     1       3.503  -8.854  -5.261  1.00  0.00     0.009 A 
ATOM     72  C   UNL     1       4.969 -10.929  -4.120  1.00  0.00     0.001 A 
ATOM     73  C   UNL     1       2.873  -9.774  -4.422  1.00  0.00     0.001 A 
ATOM     74  C   UNL     1       3.603 -10.820  -3.864  1.00  0.00     0.000 A 
ENDBRANCH  50  69
BRANCH  62  75
ATOM     75  C   UNL     1       7.644  -9.689 -11.871  1.00  0.00    -0.014 A 
ATOM     76  C   UNL     1       6.542 -10.293 -12.497  1.00  0.00     0.009 A 
ATOM     77  C   UNL     1       8.932 -10.180 -12.135  1.00  0.00     0.009 A 
ATOM     78  C   UNL     1       6.727 -11.384 -13.348  1.00  0.00     0.001 A 
ATOM     79  C   UNL     1       9.116 -11.249 -13.012  1.00  0.00     0.001 A 
ATOM     80  C   UNL     1       8.012 -11.856 -13.610  1.00  0.00     0.000 A 
ENDBRANCH  62  75
ENDBRANCH  36  37
ENDBRANCH  29  31
ENDBRANCH  28  29
ENDBRANCH  27  28
ENDBRANCH  26  27
ENDBRANCH  25  26
ENDBRANCH   1  25
TORSDOF 18
