REMARK SMILES O=C(Cc1ccc(NC(=O)c2ccc(N3C(=O)c4ccccc4C3=O)cc2)cc1)OCCOCCOC(=O)c1ccc(-c2c3nc(c(-c4ccccc4)c4ccc([nH]4)c(-c4ccccc4)c4nc(c(-c5ccccc5)c5ccc2[nH]5)C=C4)C=C3)cc1
REMARK SMILES IDX 32 1 31 2 30 3 2 4 1 5 3 6 4 7 5 8 29 9 6 10 28 11 7 12 8 13
REMARK SMILES IDX 9 14 10 16 11 17 12 18 27 19 13 20 26 21 14 22 15 23 16 24
REMARK SMILES IDX 24 25 17 26 18 27 23 28 25 29 19 30 22 31 20 32 21 33 33 34
REMARK SMILES IDX 34 35 35 36 36 37 37 38 38 39 39 40 40 41 86 42 41 43 85 44
REMARK SMILES IDX 42 45 43 46 44 47 79 48 45 49 84 50 78 51 80 52 46 53 83 54
REMARK SMILES IDX 77 55 76 56 47 58 69 59 54 60 68 61 55 62 58 63 67 64 81 65
REMARK SMILES IDX 56 66 57 67 66 69 82 70 59 71 48 72 49 73 53 74 50 75 52 76
REMARK SMILES IDX 51 77 70 78 71 79 75 80 72 81 74 82 73 83 60 84 61 85 65 86
REMARK SMILES IDX 62 87 64 88 63 89
REMARK H PARENT 8 15 80 57 58 68
REMARK Flexibility Score: inf
ROOT
ATOM      1  C   UNL     1       4.634  -0.677   0.823  1.00  0.00     0.202 C 
ENDROOT
BRANCH   1   2
ATOM      2  C   UNL     1       3.975   0.698   0.701  1.00  0.00     0.261 C 
BRANCH   2   3
ATOM      3  O   UNL     1       2.543   0.700   0.633  1.00  0.00    -0.463 OA
BRANCH   3   4
ATOM      4  C   UNL     1       1.790   0.585  -0.486  1.00  0.00     0.310 C 
ATOM      5  O   UNL     1       0.568   0.714  -0.392  1.00  0.00    -0.252 OA
BRANCH   4   6
ATOM      6  C   UNL     1       2.403   0.174  -1.806  1.00  0.00     0.158 C 
BRANCH   6   7
ATOM      7  C   UNL     1       3.539   1.017  -2.309  1.00  0.00    -0.037 A 
ATOM      8  C   UNL     1       4.812   0.454  -2.442  1.00  0.00     0.006 A 
ATOM      9  C   UNL     1       3.367   2.379  -2.571  1.00  0.00     0.006 A 
ATOM     10  C   UNL     1       5.897   1.255  -2.786  1.00  0.00     0.026 A 
ATOM     11  C   UNL     1       4.451   3.158  -2.988  1.00  0.00     0.026 A 
ATOM     12  C   UNL     1       5.718   2.589  -3.148  1.00  0.00     0.041 A 
BRANCH  12  13
ATOM     13  N   UNL     1       6.734   3.407  -3.681  1.00  0.00    -0.322 N 
ATOM     14  C   UNL     1       7.953   3.106  -4.258  1.00  0.00     0.255 C 
ATOM     15  H   UNL     1       6.539   4.371  -3.635  1.00  0.00     0.170 HD
ATOM     16  O   UNL     1       8.747   4.005  -4.525  1.00  0.00    -0.269 OA
BRANCH  14  17
ATOM     17  C   UNL     1       8.318   1.714  -4.594  1.00  0.00     0.040 A 
ATOM     18  C   UNL     1       9.503   1.188  -4.085  1.00  0.00     0.016 A 
ATOM     19  C   UNL     1       7.459   0.897  -5.327  1.00  0.00     0.016 A 
ATOM     20  C   UNL     1       9.754  -0.188  -4.188  1.00  0.00     0.028 A 
ATOM     21  C   UNL     1       7.707  -0.479  -5.401  1.00  0.00     0.028 A 
ATOM     22  C   UNL     1       8.835  -1.063  -4.795  1.00  0.00     0.052 A 
BRANCH  22  23
ATOM     23  N   UNL     1       9.017  -2.483  -4.776  1.00  0.00    -0.242 N 
ATOM     24  C   UNL     1       8.156  -3.398  -5.349  1.00  0.00     0.266 C 
ATOM     25  C   UNL     1      10.052  -3.146  -4.136  1.00  0.00     0.266 C 
ATOM     26  O   UNL     1       7.101  -3.269  -5.950  1.00  0.00    -0.268 OA
ATOM     27  C   UNL     1       8.705  -4.725  -5.109  1.00  0.00     0.053 A 
ATOM     28  C   UNL     1       9.852  -4.576  -4.365  1.00  0.00     0.053 A 
ATOM     29  O   UNL     1      10.986  -2.748  -3.472  1.00  0.00    -0.268 OA
ATOM     30  C   UNL     1       8.242  -5.964  -5.511  1.00  0.00     0.015 A 
ATOM     31  C   UNL     1      10.604  -5.666  -3.965  1.00  0.00     0.015 A 
ATOM     32  C   UNL     1       8.990  -7.080  -5.131  1.00  0.00     0.001 A 
ATOM     33  C   UNL     1      10.160  -6.933  -4.360  1.00  0.00     0.001 A 
ENDBRANCH  22  23
ENDBRANCH  14  17
ENDBRANCH  12  13
ENDBRANCH   6   7
ENDBRANCH   4   6
ENDBRANCH   3   4
ENDBRANCH   2   3
ENDBRANCH   1   2
BRANCH   1  34
ATOM     34  O   UNL     1       4.092  -1.765   0.085  1.00  0.00    -0.374 OA
BRANCH  34  35
ATOM     35  C   UNL     1       2.894  -2.372   0.584  1.00  0.00     0.202 C 
BRANCH  35  36
ATOM     36  C   UNL     1       3.012  -3.285   1.808  1.00  0.00     0.261 C 
BRANCH  36  37
ATOM     37  O   UNL     1       3.375  -2.551   2.987  1.00  0.00    -0.460 OA
BRANCH  37  38
ATOM     38  C   UNL     1       4.649  -2.746   3.401  1.00  0.00     0.338 C 
ATOM     39  O   UNL     1       5.464  -3.527   2.941  1.00  0.00    -0.246 OA
BRANCH  38  40
ATOM     40  C   UNL     1       5.013  -1.706   4.383  1.00  0.00     0.060 A 
ATOM     41  C   UNL     1       6.267  -1.098   4.233  1.00  0.00     0.016 A 
ATOM     42  C   UNL     1       4.180  -1.372   5.452  1.00  0.00     0.016 A 
ATOM     43  C   UNL     1       6.739  -0.232   5.211  1.00  0.00     0.010 A 
ATOM     44  C   UNL     1       4.655  -0.504   6.437  1.00  0.00     0.010 A 
ATOM     45  C   UNL     1       5.961   0.013   6.349  1.00  0.00    -0.014 A 
BRANCH  45  46
ATOM     46  C   UNL     1       6.612   0.602   7.539  1.00  0.00     0.031 A 
ATOM     47  C   UNL     1       7.072  -0.327   8.630  1.00  0.00     0.074 A 
ATOM     48  C   UNL     1       6.849   1.922   7.615  1.00  0.00     0.049 A 
ATOM     49  N   UNL     1       7.693  -0.053   9.748  1.00  0.00    -0.248 NA
ATOM     50  C   UNL     1       6.793  -1.761   8.434  1.00  0.00     0.031 C 
ATOM     51  C   UNL     1       6.496   2.906   6.594  1.00  0.00     0.029 A 
ATOM     52  N   UNL     1       7.458   2.655   8.599  1.00  0.00    -0.354 N 
ATOM     53  C   UNL     1       7.862  -1.274  10.392  1.00  0.00     0.074 A 
ATOM     54  C   UNL     1       7.252  -2.285   9.559  1.00  0.00     0.031 C 
ATOM     55  C   UNL     1       6.905   4.120   7.002  1.00  0.00     0.029 A 
ATOM     56  C   UNL     1       7.518   3.998   8.323  1.00  0.00     0.049 A 
ATOM     57  H   UNL     1       7.817   2.258   9.425  1.00  0.00     0.167 HD
ATOM     58  C   UNL     1       8.477  -1.532  11.570  1.00  0.00     0.031 A 
ATOM     59  C   UNL     1       8.008   5.011   9.061  1.00  0.00     0.031 A 
ATOM     60  C   UNL     1       9.078  -0.520  12.396  1.00  0.00     0.049 A 
ATOM     61  C   UNL     1       8.627   4.707  10.399  1.00  0.00     0.074 A 
ATOM     62  C   UNL     1       9.747  -0.671  13.597  1.00  0.00     0.029 A 
ATOM     63  N   UNL     1       9.073   0.836  12.106  1.00  0.00    -0.354 N 
ATOM     64  N   UNL     1       8.809   3.547  10.985  1.00  0.00    -0.248 NA
ATOM     65  C   UNL     1       9.122   5.855  11.171  1.00  0.00     0.031 C 
ATOM     66  C   UNL     1      10.092   0.601  14.065  1.00  0.00     0.029 A 
ATOM     67  C   UNL     1       9.700   1.538  13.120  1.00  0.00     0.049 A 
ATOM     68  H   UNL     1       8.681   1.240  11.298  1.00  0.00     0.167 HD
ATOM     69  C   UNL     1       9.471   3.822  12.175  1.00  0.00     0.074 A 
ATOM     70  C   UNL     1       9.670   5.256  12.219  1.00  0.00     0.031 C 
ATOM     71  C   UNL     1       9.884   2.966  13.143  1.00  0.00     0.031 A 
BRANCH  58  72
ATOM     72  C   UNL     1       8.483  -2.957  12.051  1.00  0.00    -0.014 A 
ATOM     73  C   UNL     1       9.240  -3.950  11.408  1.00  0.00     0.009 A 
ATOM     74  C   UNL     1       7.722  -3.309  13.176  1.00  0.00     0.009 A 
ATOM     75  C   UNL     1       9.203  -5.272  11.859  1.00  0.00     0.001 A 
ATOM     76  C   UNL     1       7.712  -4.624  13.644  1.00  0.00     0.001 A 
ATOM     77  C   UNL     1       8.443  -5.607  12.979  1.00  0.00     0.000 A 
ENDBRANCH  58  72
BRANCH  59  78
ATOM     78  C   UNL     1       7.939   6.407   8.554  1.00  0.00    -0.014 A 
ATOM     79  C   UNL     1       9.107   7.097   8.197  1.00  0.00     0.009 A 
ATOM     80  C   UNL     1       6.703   7.062   8.439  1.00  0.00     0.009 A 
ATOM     81  C   UNL     1       9.042   8.422   7.761  1.00  0.00     0.001 A 
ATOM     82  C   UNL     1       6.638   8.377   7.973  1.00  0.00     0.001 A 
ATOM     83  C   UNL     1       7.808   9.059   7.645  1.00  0.00     0.000 A 
ENDBRANCH  59  78
BRANCH  71  84
ATOM     84  C   UNL     1      10.635   3.557  14.305  1.00  0.00    -0.014 A 
ATOM     85  C   UNL     1       9.995   4.358  15.263  1.00  0.00     0.009 A 
ATOM     86  C   UNL     1      12.004   3.281  14.454  1.00  0.00     0.009 A 
ATOM     87  C   UNL     1      10.721   4.908  16.321  1.00  0.00     0.001 A 
ATOM     88  C   UNL     1      12.719   3.804  15.531  1.00  0.00     0.001 A 
ATOM     89  C   UNL     1      12.081   4.627  16.457  1.00  0.00     0.000 A 
ENDBRANCH  71  84
ENDBRANCH  45  46
ENDBRANCH  38  40
ENDBRANCH  37  38
ENDBRANCH  36  37
ENDBRANCH  35  36
ENDBRANCH  34  35
ENDBRANCH   1  34
TORSDOF 18
