REMARK SMILES COc1cc(/C=C/C(=O)OCCOCCOC(=O)c2ccc(-c3c4nc(c(-c5ccccc5)c5ccc([nH]5)c(-c5ccccc5)c5nc(c(-c6ccccc6)c6ccc3[nH]6)C=C5)C=C4)cc2)cc(OC)c1O
REMARK SMILES IDX 13 1 12 2 11 3 10 4 8 5 9 6 7 7 6 8 5 9 3 10 4 11 71 12
REMARK SMILES IDX 68 13 67 14 2 15 1 16 72 17 69 19 70 20 14 21 15 22 16 23
REMARK SMILES IDX 17 24 18 25 19 26 20 27 66 28 21 29 65 30 22 31 23 32 24 33
REMARK SMILES IDX 59 34 25 35 64 36 58 37 60 38 26 39 63 40 57 41 56 42 27 44
REMARK SMILES IDX 49 45 34 46 48 47 35 48 38 49 47 50 61 51 36 52 37 53 46 55
REMARK SMILES IDX 62 56 39 57 28 58 29 59 33 60 30 61 32 62 31 63 50 64 51 65
REMARK SMILES IDX 55 66 52 67 54 68 53 69 40 70 41 71 45 72 42 73 44 74 43 75
REMARK H PARENT 72 18 60 43 38 54
REMARK Flexibility Score: inf
ROOT
ATOM      1  O   UNL     1      -2.228   4.724  -7.995  1.00  0.00    -0.374 OA
ENDROOT
BRANCH   1   2
ATOM      2  C   UNL     1      -2.093   3.845  -9.109  1.00  0.00     0.202 C 
BRANCH   2   3
ATOM      3  C   UNL     1      -0.814   3.006  -9.151  1.00  0.00     0.261 C 
BRANCH   3   4
ATOM      4  O   UNL     1      -0.703   2.137  -8.010  1.00  0.00    -0.460 OA
BRANCH   4   5
ATOM      5  C   UNL     1       0.301   2.445  -7.155  1.00  0.00     0.330 C 
ATOM      6  O   UNL     1       1.141   3.320  -7.308  1.00  0.00    -0.247 OA
BRANCH   5   7
ATOM      7  C   UNL     1       0.272   1.639  -5.917  1.00  0.00     0.094 C 
ATOM      8  C   UNL     1      -0.520   0.588  -5.653  1.00  0.00     0.016 C 
BRANCH   8   9
ATOM      9  C   UNL     1      -0.445  -0.148  -4.377  1.00  0.00    -0.018 A 
ATOM     10  C   UNL     1      -0.174  -0.235  -1.963  1.00  0.00     0.165 A 
ATOM     11  C   UNL     1      -0.246   0.499  -3.149  1.00  0.00     0.058 A 
ATOM     12  C   UNL     1      -0.357  -1.625  -1.976  1.00  0.00     0.200 A 
ATOM     13  C   UNL     1      -0.562  -2.292  -3.188  1.00  0.00     0.165 A 
ATOM     14  C   UNL     1      -0.614  -1.540  -4.375  1.00  0.00     0.058 A 
BRANCH  10  15
ATOM     15  O   UNL     1      -0.039   0.478  -0.797  1.00  0.00    -0.493 OA
ATOM     16  C   UNL     1       1.163   0.171  -0.084  1.00  0.00     0.278 C 
ENDBRANCH  10  15
BRANCH  12  17
ATOM     17  O   UNL     1      -0.402  -2.290  -0.781  1.00  0.00    -0.502 OA
ATOM     18  H   UNL     1      -0.261  -1.825   0.020  1.00  0.00     0.293 HD
ENDBRANCH  12  17
BRANCH  13  19
ATOM     19  O   UNL     1      -0.773  -3.629  -3.395  1.00  0.00    -0.493 OA
ATOM     20  C   UNL     1      -0.658  -4.509  -2.285  1.00  0.00     0.278 C 
ENDBRANCH  13  19
ENDBRANCH   8   9
ENDBRANCH   5   7
ENDBRANCH   4   5
ENDBRANCH   3   4
ENDBRANCH   2   3
ENDBRANCH   1   2
BRANCH   1  21
ATOM     21  C   UNL     1      -2.708   4.156  -6.774  1.00  0.00     0.202 C 
BRANCH  21  22
ATOM     22  C   UNL     1      -4.219   3.902  -6.701  1.00  0.00     0.261 C 
BRANCH  22  23
ATOM     23  O   UNL     1      -4.618   2.798  -7.536  1.00  0.00    -0.460 OA
BRANCH  23  24
ATOM     24  C   UNL     1      -5.356   3.125  -8.620  1.00  0.00     0.338 C 
ATOM     25  O   UNL     1      -5.772   4.235  -8.933  1.00  0.00    -0.246 OA
BRANCH  24  26
ATOM     26  C   UNL     1      -5.460   1.960  -9.514  1.00  0.00     0.060 A 
ATOM     27  C   UNL     1      -5.097   2.122 -10.859  1.00  0.00     0.016 A 
ATOM     28  C   UNL     1      -5.961   0.740  -9.056  1.00  0.00     0.016 A 
ATOM     29  C   UNL     1      -5.271   1.074 -11.763  1.00  0.00     0.010 A 
ATOM     30  C   UNL     1      -6.146  -0.304  -9.964  1.00  0.00     0.010 A 
ATOM     31  C   UNL     1      -5.832  -0.132 -11.325  1.00  0.00    -0.014 A 
BRANCH  31  32
ATOM     32  C   UNL     1      -6.248  -1.171 -12.295  1.00  0.00     0.031 A 
ATOM     33  C   UNL     1      -7.700  -1.258 -12.673  1.00  0.00     0.074 A 
ATOM     34  C   UNL     1      -5.363  -2.050 -12.794  1.00  0.00     0.049 A 
ATOM     35  N   UNL     1      -8.326  -2.182 -13.355  1.00  0.00    -0.248 NA
ATOM     36  C   UNL     1      -8.562  -0.158 -12.212  1.00  0.00     0.031 C 
ATOM     37  C   UNL     1      -3.922  -2.034 -12.552  1.00  0.00     0.029 A 
ATOM     38  N   UNL     1      -5.561  -3.148 -13.593  1.00  0.00    -0.354 N 
ATOM     39  C   UNL     1      -9.658  -1.789 -13.381  1.00  0.00     0.074 A 
ATOM     40  C   UNL     1      -9.752  -0.551 -12.639  1.00  0.00     0.031 C 
ATOM     41  C   UNL     1      -3.367  -3.091 -13.170  1.00  0.00     0.029 A 
ATOM     42  C   UNL     1      -4.419  -3.881 -13.807  1.00  0.00     0.049 A 
ATOM     43  H   UNL     1      -6.436  -3.388 -13.976  1.00  0.00     0.167 HD
ATOM     44  C   UNL     1     -10.709  -2.409 -13.966  1.00  0.00     0.031 A 
ATOM     45  C   UNL     1      -4.251  -5.073 -14.412  1.00  0.00     0.031 A 
ATOM     46  C   UNL     1     -10.613  -3.646 -14.693  1.00  0.00     0.049 A 
ATOM     47  C   UNL     1      -5.448  -5.787 -14.983  1.00  0.00     0.074 A 
ATOM     48  C   UNL     1     -11.618  -4.353 -15.328  1.00  0.00     0.029 A 
ATOM     49  N   UNL     1      -9.440  -4.361 -14.876  1.00  0.00    -0.354 N 
ATOM     50  N   UNL     1      -6.704  -5.410 -15.004  1.00  0.00    -0.248 NA
ATOM     51  C   UNL     1      -5.204  -7.093 -15.614  1.00  0.00     0.031 C 
ATOM     52  C   UNL     1     -11.062  -5.523 -15.853  1.00  0.00     0.029 A 
ATOM     53  C   UNL     1      -9.700  -5.512 -15.597  1.00  0.00     0.049 A 
ATOM     54  H   UNL     1      -8.554  -4.090 -14.542  1.00  0.00     0.167 HD
ATOM     55  C   UNL     1      -7.390  -6.410 -15.684  1.00  0.00     0.074 A 
ATOM     56  C   UNL     1      -6.413  -7.411 -16.057  1.00  0.00     0.031 C 
ATOM     57  C   UNL     1      -8.710  -6.487 -15.978  1.00  0.00     0.031 A 
BRANCH  44  58
ATOM     58  C   UNL     1     -12.063  -1.779 -13.803  1.00  0.00    -0.014 A 
ATOM     59  C   UNL     1     -12.403  -0.594 -14.473  1.00  0.00     0.009 A 
ATOM     60  C   UNL     1     -13.023  -2.399 -12.988  1.00  0.00     0.009 A 
ATOM     61  C   UNL     1     -13.668  -0.025 -14.303  1.00  0.00     0.001 A 
ATOM     62  C   UNL     1     -14.295  -1.844 -12.842  1.00  0.00     0.001 A 
ATOM     63  C   UNL     1     -14.613  -0.653 -13.492  1.00  0.00     0.000 A 
ENDBRANCH  44  58
BRANCH  45  64
ATOM     64  C   UNL     1      -2.901  -5.689 -14.482  1.00  0.00    -0.014 A 
ATOM     65  C   UNL     1      -2.229  -5.798 -15.709  1.00  0.00     0.009 A 
ATOM     66  C   UNL     1      -2.282  -6.185 -13.324  1.00  0.00     0.009 A 
ATOM     67  C   UNL     1      -0.976  -6.413 -15.778  1.00  0.00     0.001 A 
ATOM     68  C   UNL     1      -1.017  -6.773 -13.391  1.00  0.00     0.001 A 
ATOM     69  C   UNL     1      -0.369  -6.895 -14.619  1.00  0.00     0.000 A 
ENDBRANCH  45  64
BRANCH  57  70
ATOM     70  C   UNL     1      -9.175  -7.655 -16.801  1.00  0.00    -0.014 A 
ATOM     71  C   UNL     1      -9.303  -8.937 -16.249  1.00  0.00     0.009 A 
ATOM     72  C   UNL     1      -9.569  -7.442 -18.133  1.00  0.00     0.009 A 
ATOM     73  C   UNL     1      -9.800  -9.989 -17.023  1.00  0.00     0.001 A 
ATOM     74  C   UNL     1     -10.089  -8.489 -18.894  1.00  0.00     0.001 A 
ATOM     75  C   UNL     1     -10.199  -9.762 -18.340  1.00  0.00     0.000 A 
ENDBRANCH  57  70
ENDBRANCH  31  32
ENDBRANCH  24  26
ENDBRANCH  23  24
ENDBRANCH  22  23
ENDBRANCH  21  22
ENDBRANCH   1  21
TORSDOF 18
