REMARK SMILES CCc1cccc2c3c([nH]c12)[C@](CC)(CC(=O)OCCOCCOC(=O)c1ccc(-c2c4nc(c(-c5ccccc5)c5ccc([nH]5)c(-c5ccccc5)c5nc(c(-c6ccccc6)c6ccc2[nH]6)C=C5)C=C4)cc1)OCC3
REMARK SMILES IDX 21 1 20 2 19 3 18 4 16 5 17 6 15 7 12 8 3 9 4 10 11 11 5 12
REMARK SMILES IDX 7 13 10 14 6 15 8 16 9 17 77 19 76 20 75 21 2 22 1 23 13 24
REMARK SMILES IDX 14 25 22 26 23 27 24 28 25 29 26 30 27 31 28 32 74 33 29 34
REMARK SMILES IDX 73 35 30 36 31 37 32 38 67 39 33 40 72 41 66 42 68 43 34 44
REMARK SMILES IDX 71 45 65 46 64 47 35 49 57 50 42 51 56 52 43 53 46 54 55 55
REMARK SMILES IDX 69 56 44 57 45 58 54 60 70 61 47 62 36 63 37 64 41 65 38 66
REMARK SMILES IDX 40 67 39 68 58 69 59 70 63 71 60 72 62 73 61 74 48 75 49 76
REMARK SMILES IDX 53 77 50 78 52 79 51 80
REMARK H PARENT 10 18 68 48 46 59
REMARK Flexibility Score: inf
ROOT
ATOM      1  O   UNL     1      -3.219  -4.980   4.510  1.00  0.00    -0.374 OA
ENDROOT
BRANCH   1   2
ATOM      2  C   UNL     1      -3.057  -6.262   5.101  1.00  0.00     0.202 C 
BRANCH   2   3
ATOM      3  C   UNL     1      -2.912  -7.476   4.175  1.00  0.00     0.261 C 
BRANCH   3   4
ATOM      4  O   UNL     1      -1.952  -7.330   3.109  1.00  0.00    -0.463 OA
BRANCH   4   5
ATOM      5  C   UNL     1      -2.500  -7.090   1.899  1.00  0.00     0.309 C 
ATOM      6  O   UNL     1      -3.708  -6.927   1.722  1.00  0.00    -0.252 OA
BRANCH   5   7
ATOM      7  C   UNL     1      -1.590  -7.145   0.698  1.00  0.00     0.164 C 
BRANCH   7   8
ATOM      8  C   UNL     1      -0.059  -7.009   0.637  1.00  0.00     0.118 C 
ATOM      9  C   UNL     1       1.018  -2.098   1.282  1.00  0.00    -0.024 A 
ATOM     10  C   UNL     1       1.729  -1.420   2.294  1.00  0.00     0.006 A 
ATOM     11  C   UNL     1       0.981  -3.506   1.404  1.00  0.00     0.049 A 
ATOM     12  C   UNL     1       2.451  -2.096   3.275  1.00  0.00     0.001 A 
ATOM     13  C   UNL     1       1.737  -4.209   2.347  1.00  0.00     0.003 A 
ATOM     14  N   UNL     1       0.264  -4.450   0.685  1.00  0.00    -0.356 N 
ATOM     15  C   UNL     1       2.507  -3.489   3.280  1.00  0.00     0.010 A 
ATOM     16  C   UNL     1       1.511  -5.589   2.108  1.00  0.00    -0.014 A 
ATOM     17  C   UNL     1       0.517  -5.713   1.161  1.00  0.00     0.052 A 
ATOM     18  H   UNL     1      -0.343  -4.243  -0.062  1.00  0.00     0.166 HD
ATOM     19  C   UNL     1       2.130  -6.795   2.700  1.00  0.00     0.066 C 
ATOM     20  C   UNL     1       1.133  -7.952   2.579  1.00  0.00     0.166 C 
ATOM     21  O   UNL     1       0.617  -8.132   1.256  1.00  0.00    -0.368 OA
BRANCH   9  22
ATOM     22  C   UNL     1       0.330  -1.366   0.153  1.00  0.00     0.034 C 
ATOM     23  C   UNL     1       0.829   0.048  -0.130  1.00  0.00     0.009 C 
ENDBRANCH   9  22
BRANCH   8  24
ATOM     24  C   UNL     1       0.355  -7.119  -0.873  1.00  0.00     0.039 C 
ATOM     25  C   UNL     1      -0.006  -8.441  -1.551  1.00  0.00     0.007 C 
ENDBRANCH   8  24
ENDBRANCH   7   8
ENDBRANCH   5   7
ENDBRANCH   4   5
ENDBRANCH   3   4
ENDBRANCH   2   3
ENDBRANCH   1   2
BRANCH   1  26
ATOM     26  C   UNL     1      -2.074  -4.382   3.894  1.00  0.00     0.202 C 
BRANCH  26  27
ATOM     27  C   UNL     1      -0.809  -4.275   4.752  1.00  0.00     0.261 C 
BRANCH  27  28
ATOM     28  O   UNL     1      -0.196  -5.566   4.893  1.00  0.00    -0.460 OA
BRANCH  28  29
ATOM     29  C   UNL     1       0.719  -5.642   5.891  1.00  0.00     0.338 C 
ATOM     30  O   UNL     1       1.471  -4.771   6.290  1.00  0.00    -0.246 OA
BRANCH  29  31
ATOM     31  C   UNL     1       0.271  -6.793   6.686  1.00  0.00     0.060 A 
ATOM     32  C   UNL     1       0.243  -8.084   6.157  1.00  0.00     0.016 A 
ATOM     33  C   UNL     1      -0.432  -6.464   7.850  1.00  0.00     0.016 A 
ATOM     34  C   UNL     1      -0.598  -9.026   6.733  1.00  0.00     0.010 A 
ATOM     35  C   UNL     1      -1.279  -7.401   8.416  1.00  0.00     0.010 A 
ATOM     36  C   UNL     1      -1.400  -8.663   7.825  1.00  0.00    -0.014 A 
BRANCH  36  37
ATOM     37  C   UNL     1      -2.251  -9.687   8.428  1.00  0.00     0.031 A 
ATOM     38  C   UNL     1      -1.507 -10.738   9.168  1.00  0.00     0.074 A 
ATOM     39  C   UNL     1      -3.595  -9.606   8.516  1.00  0.00     0.049 A 
ATOM     40  N   UNL     1      -1.615 -12.022   9.074  1.00  0.00    -0.248 NA
ATOM     41  C   UNL     1      -0.463 -10.280  10.102  1.00  0.00     0.031 C 
ATOM     42  C   UNL     1      -4.413  -8.443   8.167  1.00  0.00     0.029 A 
ATOM     43  N   UNL     1      -4.501 -10.477   9.063  1.00  0.00    -0.354 N 
ATOM     44  C   UNL     1      -0.777 -12.533  10.061  1.00  0.00     0.074 A 
ATOM     45  C   UNL     1       0.009 -11.436  10.560  1.00  0.00     0.031 C 
ATOM     46  C   UNL     1      -5.640  -8.583   8.710  1.00  0.00     0.029 A 
ATOM     47  C   UNL     1      -5.730  -9.892   9.336  1.00  0.00     0.049 A 
ATOM     48  H   UNL     1      -4.300 -11.424   9.245  1.00  0.00     0.167 HD
ATOM     49  C   UNL     1      -0.966 -13.767  10.595  1.00  0.00     0.031 A 
ATOM     50  C   UNL     1      -6.741 -10.389  10.086  1.00  0.00     0.031 A 
ATOM     51  C   UNL     1      -1.797 -14.607   9.782  1.00  0.00     0.049 A 
ATOM     52  C   UNL     1      -6.601 -11.854  10.211  1.00  0.00     0.074 A 
ATOM     53  C   UNL     1      -1.634 -15.428   8.691  1.00  0.00     0.029 A 
ATOM     54  N   UNL     1      -3.139 -14.428   9.967  1.00  0.00    -0.354 N 
ATOM     55  N   UNL     1      -6.707 -12.681   9.212  1.00  0.00    -0.248 NA
ATOM     56  C   UNL     1      -6.092 -12.432  11.451  1.00  0.00     0.031 C 
ATOM     57  C   UNL     1      -2.933 -15.630   8.140  1.00  0.00     0.029 A 
ATOM     58  C   UNL     1      -3.855 -14.924   8.907  1.00  0.00     0.049 A 
ATOM     59  H   UNL     1      -3.540 -13.999  10.757  1.00  0.00     0.167 HD
ATOM     60  C   UNL     1      -5.913 -13.751   9.569  1.00  0.00     0.074 A 
ATOM     61  C   UNL     1      -5.712 -13.631  11.005  1.00  0.00     0.031 C 
ATOM     62  C   UNL     1      -5.191 -14.435   8.639  1.00  0.00     0.031 A 
BRANCH  49  63
ATOM     63  C   UNL     1      -0.765 -14.060  12.062  1.00  0.00    -0.014 A 
ATOM     64  C   UNL     1      -0.729 -13.057  13.052  1.00  0.00     0.009 A 
ATOM     65  C   UNL     1      -0.900 -15.384  12.513  1.00  0.00     0.009 A 
ATOM     66  C   UNL     1      -0.806 -13.353  14.415  1.00  0.00     0.001 A 
ATOM     67  C   UNL     1      -1.019 -15.682  13.876  1.00  0.00     0.001 A 
ATOM     68  C   UNL     1      -0.971 -14.666  14.826  1.00  0.00     0.000 A 
ENDBRANCH  49  63
BRANCH  50  69
ATOM     69  C   UNL     1      -7.707  -9.627  10.906  1.00  0.00    -0.014 A 
ATOM     70  C   UNL     1      -7.312  -8.428  11.529  1.00  0.00     0.009 A 
ATOM     71  C   UNL     1      -8.935 -10.189  11.285  1.00  0.00     0.009 A 
ATOM     72  C   UNL     1      -8.100  -7.825  12.513  1.00  0.00     0.001 A 
ATOM     73  C   UNL     1      -9.722  -9.589  12.277  1.00  0.00     0.001 A 
ATOM     74  C   UNL     1      -9.298  -8.415  12.898  1.00  0.00     0.000 A 
ENDBRANCH  50  69
BRANCH  62  75
ATOM     75  C   UNL     1      -5.676 -14.446   7.221  1.00  0.00    -0.014 A 
ATOM     76  C   UNL     1      -5.961 -15.688   6.631  1.00  0.00     0.009 A 
ATOM     77  C   UNL     1      -5.763 -13.292   6.428  1.00  0.00     0.009 A 
ATOM     78  C   UNL     1      -6.308 -15.778   5.283  1.00  0.00     0.001 A 
ATOM     79  C   UNL     1      -6.135 -13.380   5.083  1.00  0.00     0.001 A 
ATOM     80  C   UNL     1      -6.397 -14.623   4.509  1.00  0.00     0.000 A 
ENDBRANCH  62  75
ENDBRANCH  36  37
ENDBRANCH  29  31
ENDBRANCH  28  29
ENDBRANCH  27  28
ENDBRANCH  26  27
ENDBRANCH   1  26
TORSDOF 17
