REMARK SMILES C[C@@H](C[NH3+])S/C=C/C(=O)OCCOCCOC(=O)c1ccc(-c2c3nc(c(-c4ccccc4)c4ccc([nH]4)c(-c4ccccc4)c4nc(c(-c5ccccc5)c5ccc2[nH]5)C=C4)C=C3)cc1
REMARK SMILES IDX 12 1 11 2 10 3 8 4 9 5 7 6 6 7 5 8 2 9 1 10 3 11 4 12 13 16
REMARK SMILES IDX 14 17 15 18 16 19 17 20 18 21 19 22 20 23 66 24 21 25 65 26
REMARK SMILES IDX 22 27 23 28 24 29 59 30 25 31 64 32 58 33 60 34 26 35 63 36
REMARK SMILES IDX 57 37 56 38 27 40 49 41 34 42 48 43 35 44 38 45 47 46 61 47
REMARK SMILES IDX 36 48 37 49 46 51 62 52 39 53 28 54 29 55 33 56 30 57 32 58
REMARK SMILES IDX 31 59 50 60 51 61 55 62 52 63 54 64 53 65 40 66 41 67 45 68
REMARK SMILES IDX 42 69 44 70 43 71
REMARK H PARENT 4 13 4 14 4 15 60 39 38 50
REMARK Flexibility Score: inf
ROOT
ATOM      1  C   UNL     1      -2.627  -4.558  -4.147  1.00  0.00     0.202 C 
ENDROOT
BRANCH   1   2
ATOM      2  C   UNL     1      -2.856  -4.560  -2.634  1.00  0.00     0.261 C 
BRANCH   2   3
ATOM      3  O   UNL     1      -2.610  -3.263  -2.068  1.00  0.00    -0.460 OA
BRANCH   3   4
ATOM      4  C   UNL     1      -1.534  -3.195  -1.250  1.00  0.00     0.331 C 
ATOM      5  O   UNL     1      -0.873  -4.139  -0.840  1.00  0.00    -0.247 OA
BRANCH   4   6
ATOM      6  C   UNL     1      -1.148  -1.811  -0.921  1.00  0.00     0.100 C 
ATOM      7  C   UNL     1      -1.835  -0.704  -1.218  1.00  0.00     0.048 C 
BRANCH   7   8
ATOM      8  S   UNL     1      -1.391   0.904  -0.768  1.00  0.00    -0.125 SA
BRANCH   8   9
ATOM      9  C   UNL     1       0.426   1.108  -0.945  1.00  0.00     0.103 C 
ATOM     10  C   UNL     1       1.254   0.348   0.092  1.00  0.00     0.026 C 
BRANCH   9  11
ATOM     11  C   UNL     1       0.983   1.008  -2.383  1.00  0.00     0.273 C 
BRANCH  11  12
ATOM     12  N   UNL     1       0.977  -0.317  -3.006  1.00  0.00    -0.357 N 
ATOM     13  H   UNL     1       1.593  -0.941  -2.485  1.00  0.00     0.344 HD
ATOM     14  H   UNL     1       1.305  -0.241  -3.969  1.00  0.00     0.344 HD
ATOM     15  H   UNL     1       0.028  -0.691  -2.999  1.00  0.00     0.344 HD
ENDBRANCH  11  12
ENDBRANCH   9  11
ENDBRANCH   8   9
ENDBRANCH   7   8
ENDBRANCH   4   6
ENDBRANCH   3   4
ENDBRANCH   2   3
ENDBRANCH   1   2
BRANCH   1  16
ATOM     16  O   UNL     1      -1.317  -4.198  -4.580  1.00  0.00    -0.374 OA
BRANCH  16  17
ATOM     17  C   UNL     1      -1.026  -2.800  -4.666  1.00  0.00     0.202 C 
BRANCH  17  18
ATOM     18  C   UNL     1      -1.592  -2.073  -5.893  1.00  0.00     0.261 C 
BRANCH  18  19
ATOM     19  O   UNL     1      -3.022  -1.915  -5.802  1.00  0.00    -0.460 OA
BRANCH  19  20
ATOM     20  C   UNL     1      -3.740  -2.606  -6.715  1.00  0.00     0.338 C 
ATOM     21  O   UNL     1      -3.314  -3.264  -7.656  1.00  0.00    -0.246 OA
BRANCH  20  22
ATOM     22  C   UNL     1      -5.160  -2.627  -6.317  1.00  0.00     0.060 A 
ATOM     23  C   UNL     1      -5.788  -3.876  -6.217  1.00  0.00     0.016 A 
ATOM     24  C   UNL     1      -5.880  -1.451  -6.099  1.00  0.00     0.016 A 
ATOM     25  C   UNL     1      -7.151  -3.952  -5.941  1.00  0.00     0.010 A 
ATOM     26  C   UNL     1      -7.252  -1.529  -5.833  1.00  0.00     0.010 A 
ATOM     27  C   UNL     1      -7.899  -2.777  -5.785  1.00  0.00    -0.014 A 
BRANCH  27  28
ATOM     28  C   UNL     1      -9.377  -2.854  -5.712  1.00  0.00     0.031 A 
ATOM     29  C   UNL     1     -10.184  -2.597  -6.955  1.00  0.00     0.074 A 
ATOM     30  C   UNL     1      -9.996  -3.174  -4.562  1.00  0.00     0.049 A 
ATOM     31  N   UNL     1     -11.483  -2.586  -7.114  1.00  0.00    -0.248 NA
ATOM     32  C   UNL     1      -9.423  -2.314  -8.184  1.00  0.00     0.031 C 
ATOM     33  C   UNL     1      -9.328  -3.487  -3.300  1.00  0.00     0.029 A 
ATOM     34  N   UNL     1     -11.333  -3.283  -4.274  1.00  0.00    -0.354 N 
ATOM     35  C   UNL     1     -11.695  -2.293  -8.455  1.00  0.00     0.074 A 
ATOM     36  C   UNL     1     -10.395  -2.104  -9.060  1.00  0.00     0.031 C 
ATOM     37  C   UNL     1     -10.262  -3.745  -2.367  1.00  0.00     0.029 A 
ATOM     38  C   UNL     1     -11.588  -3.585  -2.959  1.00  0.00     0.049 A 
ATOM     39  H   UNL     1     -12.042  -3.156  -4.946  1.00  0.00     0.167 HD
ATOM     40  C   UNL     1     -12.868  -2.195  -9.125  1.00  0.00     0.031 A 
ATOM     41  C   UNL     1     -12.759  -3.699  -2.304  1.00  0.00     0.031 A 
ATOM     42  C   UNL     1     -14.163  -2.365  -8.524  1.00  0.00     0.049 A 
ATOM     43  C   UNL     1     -14.050  -3.507  -3.054  1.00  0.00     0.074 A 
ATOM     44  C   UNL     1     -15.409  -2.294  -9.124  1.00  0.00     0.029 A 
ATOM     45  N   UNL     1     -14.379  -2.634  -7.182  1.00  0.00    -0.354 N 
ATOM     46  N   UNL     1     -14.238  -3.253  -4.326  1.00  0.00    -0.248 NA
ATOM     47  C   UNL     1     -15.292  -3.625  -2.275  1.00  0.00     0.031 C 
ATOM     48  C   UNL     1     -16.381  -2.468  -8.133  1.00  0.00     0.029 A 
ATOM     49  C   UNL     1     -15.738  -2.705  -6.928  1.00  0.00     0.049 A 
ATOM     50  H   UNL     1     -13.671  -2.756  -6.509  1.00  0.00     0.167 HD
ATOM     51  C   UNL     1     -15.615  -3.208  -4.506  1.00  0.00     0.074 A 
ATOM     52  C   UNL     1     -16.215  -3.475  -3.215  1.00  0.00     0.031 C 
ATOM     53  C   UNL     1     -16.320  -2.971  -5.639  1.00  0.00     0.031 A 
BRANCH  40  54
ATOM     54  C   UNL     1     -12.799  -1.857 -10.588  1.00  0.00    -0.014 A 
ATOM     55  C   UNL     1     -12.355  -2.795 -11.532  1.00  0.00     0.009 A 
ATOM     56  C   UNL     1     -13.214  -0.591 -11.030  1.00  0.00     0.009 A 
ATOM     57  C   UNL     1     -12.298  -2.461 -12.887  1.00  0.00     0.001 A 
ATOM     58  C   UNL     1     -13.181  -0.269 -12.387  1.00  0.00     0.001 A 
ATOM     59  C   UNL     1     -12.715  -1.201 -13.314  1.00  0.00     0.000 A 
ENDBRANCH  40  54
BRANCH  41  60
ATOM     60  C   UNL     1     -12.771  -3.987  -0.846  1.00  0.00    -0.014 A 
ATOM     61  C   UNL     1     -13.223  -5.225  -0.363  1.00  0.00     0.009 A 
ATOM     62  C   UNL     1     -12.349  -3.013   0.073  1.00  0.00     0.009 A 
ATOM     63  C   UNL     1     -13.276  -5.471   1.011  1.00  0.00     0.001 A 
ATOM     64  C   UNL     1     -12.377  -3.272   1.444  1.00  0.00     0.001 A 
ATOM     65  C   UNL     1     -12.849  -4.497   1.913  1.00  0.00     0.000 A 
ENDBRANCH  41  60
BRANCH  53  66
ATOM     66  C   UNL     1     -17.819  -3.023  -5.542  1.00  0.00    -0.014 A 
ATOM     67  C   UNL     1     -18.547  -2.003  -4.910  1.00  0.00     0.009 A 
ATOM     68  C   UNL     1     -18.515  -4.091  -6.131  1.00  0.00     0.009 A 
ATOM     69  C   UNL     1     -19.940  -2.067  -4.844  1.00  0.00     0.001 A 
ATOM     70  C   UNL     1     -19.909  -4.138  -6.087  1.00  0.00     0.001 A 
ATOM     71  C   UNL     1     -20.620  -3.132  -5.436  1.00  0.00     0.000 A 
ENDBRANCH  53  66
ENDBRANCH  27  28
ENDBRANCH  20  22
ENDBRANCH  19  20
ENDBRANCH  18  19
ENDBRANCH  17  18
ENDBRANCH  16  17
ENDBRANCH   1  16
TORSDOF 18
