REMARK SMILES C[C@]([NH3+])(Cc1ccc(I)cc1)C(=O)OCCOCCOC(=O)c1ccc(-c2c3nc(c(-c4ccccc4)c4ccc([nH]4)c(-c4ccccc4)c4nc(c(-c5ccccc5)c5ccc2[nH]5)C=C4)C=C3)cc1
REMARK SMILES IDX 17 1 16 2 15 3 14 4 12 5 13 6 2 7 1 8 4 9 5 10 6 11 11 12
REMARK SMILES IDX 7 13 10 14 8 15 9 16 3 17 18 21 19 22 20 23 21 24 22 25
REMARK SMILES IDX 23 26 24 27 70 28 25 29 69 30 26 31 27 32 28 33 63 34 29 35
REMARK SMILES IDX 68 36 62 37 64 38 30 39 67 40 61 41 60 42 31 44 53 45 38 46
REMARK SMILES IDX 52 47 39 48 42 49 51 50 65 51 40 52 41 53 50 55 66 56 43 57
REMARK SMILES IDX 32 58 33 59 37 60 34 61 36 62 35 63 54 64 55 65 59 66 56 67
REMARK SMILES IDX 58 68 57 69 44 70 45 71 49 72 46 73 48 74 47 75
REMARK H PARENT 3 18 3 19 3 20 64 43 42 54
REMARK Flexibility Score: inf
ROOT
ATOM      1  O   UNL     1       2.138   4.419   0.445  1.00  0.00    -0.374 OA
ENDROOT
BRANCH   1   2
ATOM      2  C   UNL     1       1.946   4.932  -0.868  1.00  0.00     0.202 C 
BRANCH   2   3
ATOM      3  C   UNL     1       1.755   3.922  -2.008  1.00  0.00     0.261 C 
BRANCH   3   4
ATOM      4  O   UNL     1       0.832   2.849  -1.755  1.00  0.00    -0.459 OA
BRANCH   4   5
ATOM      5  C   UNL     1       1.421   1.691  -1.348  1.00  0.00     0.368 C 
ATOM      6  O   UNL     1       2.626   1.570  -1.123  1.00  0.00    -0.245 OA
BRANCH   5   7
ATOM      7  C   UNL     1       0.470   0.465  -1.318  1.00  0.00     0.194 C 
ATOM      8  C   UNL     1       0.747  -0.283  -2.642  1.00  0.00     0.092 C 
BRANCH   7   9
ATOM      9  C   UNL     1      -1.054   0.773  -1.261  1.00  0.00     0.116 C 
BRANCH   9  10
ATOM     10  C   UNL     1      -1.714   1.236   0.026  1.00  0.00    -0.041 A 
ATOM     11  C   UNL     1      -2.527   2.380   0.020  1.00  0.00     0.005 A 
ATOM     12  C   UNL     1      -1.657   0.478   1.204  1.00  0.00     0.005 A 
ATOM     13  C   UNL     1      -3.225   2.778   1.166  1.00  0.00     0.015 A 
ATOM     14  C   UNL     1      -2.346   0.874   2.355  1.00  0.00     0.015 A 
ATOM     15  C   UNL     1      -3.124   2.026   2.333  1.00  0.00     0.013 A 
ATOM     16  I   UNL     1      -4.143   2.619   4.043  1.00  0.00    -0.044 I 
ENDBRANCH   9  10
ENDBRANCH   7   9
BRANCH   7  17
ATOM     17  N   UNL     1       0.919  -0.431  -0.216  1.00  0.00    -0.343 N 
ATOM     18  H   UNL     1       0.754   0.025   0.681  1.00  0.00     0.345 HD
ATOM     19  H   UNL     1       1.915  -0.626  -0.321  1.00  0.00     0.345 HD
ATOM     20  H   UNL     1       0.396  -1.306  -0.255  1.00  0.00     0.345 HD
ENDBRANCH   7  17
ENDBRANCH   5   7
ENDBRANCH   4   5
ENDBRANCH   3   4
ENDBRANCH   2   3
ENDBRANCH   1   2
BRANCH   1  21
ATOM     21  C   UNL     1       0.989   3.914   1.136  1.00  0.00     0.202 C 
BRANCH  21  22
ATOM     22  C   UNL     1      -0.177   4.893   1.290  1.00  0.00     0.261 C 
BRANCH  22  23
ATOM     23  O   UNL     1      -0.802   5.108   0.011  1.00  0.00    -0.460 OA
BRANCH  23  24
ATOM     24  C   UNL     1      -1.696   6.118  -0.011  1.00  0.00     0.338 C 
ATOM     25  O   UNL     1      -2.178   6.709   0.935  1.00  0.00    -0.246 OA
BRANCH  24  26
ATOM     26  C   UNL     1      -1.919   6.494  -1.416  1.00  0.00     0.060 A 
ATOM     27  C   UNL     1      -1.046   7.411  -2.012  1.00  0.00     0.016 A 
ATOM     28  C   UNL     1      -3.027   6.008  -2.111  1.00  0.00     0.016 A 
ATOM     29  C   UNL     1      -1.302   7.873  -3.305  1.00  0.00     0.010 A 
ATOM     30  C   UNL     1      -3.274   6.464  -3.410  1.00  0.00     0.010 A 
ATOM     31  C   UNL     1      -2.431   7.420  -4.004  1.00  0.00    -0.014 A 
BRANCH  31  32
ATOM     32  C   UNL     1      -2.788   8.020  -5.314  1.00  0.00     0.031 A 
ATOM     33  C   UNL     1      -3.853   9.080  -5.382  1.00  0.00     0.074 A 
ATOM     34  C   UNL     1      -2.160   7.636  -6.440  1.00  0.00     0.049 A 
ATOM     35  N   UNL     1      -4.321   9.715  -6.427  1.00  0.00    -0.248 NA
ATOM     36  C   UNL     1      -4.465   9.482  -4.106  1.00  0.00     0.031 C 
ATOM     37  C   UNL     1      -1.081   6.653  -6.516  1.00  0.00     0.029 A 
ATOM     38  N   UNL     1      -2.348   8.033  -7.741  1.00  0.00    -0.354 N 
ATOM     39  C   UNL     1      -5.277  10.595  -5.936  1.00  0.00     0.074 A 
ATOM     40  C   UNL     1      -5.345  10.390  -4.504  1.00  0.00     0.031 C 
ATOM     41  C   UNL     1      -0.699   6.526  -7.799  1.00  0.00     0.029 A 
ATOM     42  C   UNL     1      -1.529   7.390  -8.635  1.00  0.00     0.049 A 
ATOM     43  H   UNL     1      -3.007   8.714  -8.007  1.00  0.00     0.167 HD
ATOM     44  C   UNL     1      -6.026  11.500  -6.610  1.00  0.00     0.031 A 
ATOM     45  C   UNL     1      -1.467   7.473  -9.978  1.00  0.00     0.031 A 
ATOM     46  C   UNL     1      -5.985  11.700  -8.033  1.00  0.00     0.049 A 
ATOM     47  C   UNL     1      -2.398   8.395 -10.717  1.00  0.00     0.074 A 
ATOM     48  C   UNL     1      -6.693  12.613  -8.797  1.00  0.00     0.029 A 
ATOM     49  N   UNL     1      -5.205  10.965  -8.910  1.00  0.00    -0.354 N 
ATOM     50  N   UNL     1      -3.278   9.239 -10.237  1.00  0.00    -0.248 NA
ATOM     51  C   UNL     1      -2.330   8.367 -12.186  1.00  0.00     0.031 C 
ATOM     52  C   UNL     1      -6.380  12.394 -10.143  1.00  0.00     0.029 A 
ATOM     53  C   UNL     1      -5.443  11.376 -10.211  1.00  0.00     0.049 A 
ATOM     54  H   UNL     1      -4.574  10.256  -8.648  1.00  0.00     0.167 HD
ATOM     55  C   UNL     1      -3.853   9.855 -11.341  1.00  0.00     0.074 A 
ATOM     56  C   UNL     1      -3.218   9.295 -12.516  1.00  0.00     0.031 C 
ATOM     57  C   UNL     1      -4.819  10.804 -11.375  1.00  0.00     0.031 A 
BRANCH  44  58
ATOM     58  C   UNL     1      -6.983  12.332  -5.807  1.00  0.00    -0.014 A 
ATOM     59  C   UNL     1      -6.524  13.389  -5.005  1.00  0.00     0.009 A 
ATOM     60  C   UNL     1      -8.361  12.078  -5.879  1.00  0.00     0.009 A 
ATOM     61  C   UNL     1      -7.427  14.158  -4.268  1.00  0.00     0.001 A 
ATOM     62  C   UNL     1      -9.262  12.862  -5.157  1.00  0.00     0.001 A 
ATOM     63  C   UNL     1      -8.795  13.895  -4.347  1.00  0.00     0.000 A 
ENDBRANCH  44  58
BRANCH  45  64
ATOM     64  C   UNL     1      -0.496   6.636 -10.727  1.00  0.00    -0.014 A 
ATOM     65  C   UNL     1       0.631   7.217 -11.325  1.00  0.00     0.009 A 
ATOM     66  C   UNL     1      -0.702   5.254 -10.858  1.00  0.00     0.009 A 
ATOM     67  C   UNL     1       1.527   6.431 -12.054  1.00  0.00     0.001 A 
ATOM     68  C   UNL     1       0.206   4.468 -11.569  1.00  0.00     0.001 A 
ATOM     69  C   UNL     1       1.316   5.058 -12.171  1.00  0.00     0.000 A 
ENDBRANCH  45  64
BRANCH  57  70
ATOM     70  C   UNL     1      -5.243  11.310 -12.724  1.00  0.00    -0.014 A 
ATOM     71  C   UNL     1      -6.077  10.544 -13.553  1.00  0.00     0.009 A 
ATOM     72  C   UNL     1      -4.843  12.586 -13.150  1.00  0.00     0.009 A 
ATOM     73  C   UNL     1      -6.483  11.040 -14.794  1.00  0.00     0.001 A 
ATOM     74  C   UNL     1      -5.269  13.087 -14.381  1.00  0.00     0.001 A 
ATOM     75  C   UNL     1      -6.083  12.311 -15.205  1.00  0.00     0.000 A 
ENDBRANCH  57  70
ENDBRANCH  31  32
ENDBRANCH  24  26
ENDBRANCH  23  24
ENDBRANCH  22  23
ENDBRANCH  21  22
ENDBRANCH   1  21
TORSDOF 17
