REMARK SMILES Cc1c(Cl)cccc1S(=O)(=O)N[C@H]1C=C[C@@H](C(=O)OCCOCCOC(=O)c2ccc(-c3c4nc(c(-c5ccccc5)c5ccc([nH]5)c(-c5ccccc5)c5nc(c(-c6ccccc6)c6ccc3[nH]6)C=C5)C=C4)cc2)C1
REMARK SMILES IDX 21 1 20 2 19 3 17 4 18 5 16 6 13 7 14 8 76 9 15 10 12 11
REMARK SMILES IDX 9 13 10 14 11 15 8 16 1 17 2 18 3 19 4 20 5 21 7 22 6 23
REMARK SMILES IDX 22 24 23 25 24 26 25 27 26 28 27 29 28 30 29 31 75 32 30 33
REMARK SMILES IDX 74 34 31 35 32 36 33 37 68 38 34 39 73 40 67 41 69 42 35 43
REMARK SMILES IDX 72 44 66 45 65 46 36 48 58 49 43 50 57 51 44 52 47 53 56 54
REMARK SMILES IDX 70 55 45 56 46 57 55 59 71 60 48 61 37 62 38 63 42 64 39 65
REMARK SMILES IDX 41 66 40 67 59 68 60 69 64 70 61 71 63 72 62 73 49 74 50 75
REMARK SMILES IDX 54 76 51 77 53 78 52 79
REMARK H PARENT 12 12 69 47 47 58
REMARK Flexibility Score: inf
ROOT
ATOM      1  C   UNL     1       4.887   1.155   0.812  1.00  0.00     0.202 C 
ENDROOT
BRANCH   1   2
ATOM      2  C   UNL     1       4.274   2.564   0.727  1.00  0.00     0.261 C 
BRANCH   2   3
ATOM      3  O   UNL     1       3.104   2.722  -0.098  1.00  0.00    -0.463 OA
BRANCH   3   4
ATOM      4  C   UNL     1       3.333   3.350  -1.287  1.00  0.00     0.312 C 
ATOM      5  O   UNL     1       4.446   3.683  -1.688  1.00  0.00    -0.252 OA
BRANCH   4   6
ATOM      6  C   UNL     1       2.072   3.725  -2.061  1.00  0.00     0.123 C 
ATOM      7  C   UNL     1      -0.364   3.808  -1.612  1.00  0.00     0.093 C 
ATOM      8  C   UNL     1       0.304   5.132  -1.415  1.00  0.00    -0.011 C 
ATOM      9  C   UNL     1       0.811   2.860  -1.920  1.00  0.00     0.043 C 
ATOM     10  C   UNL     1       1.618   5.090  -1.650  1.00  0.00    -0.015 C 
BRANCH   7  11
ATOM     11  N   UNL     1      -1.020   3.471  -0.356  1.00  0.00    -0.204 NA
ATOM     12  H   UNL     1      -0.443   2.759   0.091  1.00  0.00     0.142 HD
BRANCH  11  13
ATOM     13  S   UNL     1      -2.596   2.894  -0.329  1.00  0.00     0.241 S 
ATOM     14  O   UNL     1      -3.223   3.237  -1.579  1.00  0.00    -0.207 OA
ATOM     15  O   UNL     1      -3.147   3.319   0.945  1.00  0.00    -0.207 OA
BRANCH  13  16
ATOM     16  C   UNL     1      -2.480   1.111  -0.238  1.00  0.00     0.086 A 
ATOM     17  C   UNL     1      -0.468   1.200   1.290  1.00  0.00     0.047 C 
ATOM     18  C   UNL     1      -1.490   0.436   0.504  1.00  0.00    -0.012 A 
ATOM     19  C   UNL     1      -1.521  -0.977   0.482  1.00  0.00     0.045 A 
ATOM     20  Cl  UNL     1      -0.368  -1.986   1.273  1.00  0.00    -0.084 Cl
ATOM     21  C   UNL     1      -2.527  -1.679  -0.189  1.00  0.00     0.021 A 
ATOM     22  C   UNL     1      -3.495   0.395  -0.900  1.00  0.00     0.022 A 
ATOM     23  C   UNL     1      -3.524  -0.995  -0.865  1.00  0.00     0.003 A 
ENDBRANCH  13  16
ENDBRANCH  11  13
ENDBRANCH   7  11
ENDBRANCH   4   6
ENDBRANCH   3   4
ENDBRANCH   2   3
ENDBRANCH   1   2
BRANCH   1  24
ATOM     24  O   UNL     1       4.874   0.315  -0.330  1.00  0.00    -0.374 OA
BRANCH  24  25
ATOM     25  C   UNL     1       3.618  -0.076  -0.861  1.00  0.00     0.202 C 
BRANCH  25  26
ATOM     26  C   UNL     1       2.626  -0.839   0.027  1.00  0.00     0.261 C 
BRANCH  26  27
ATOM     27  O   UNL     1       2.404  -0.305   1.347  1.00  0.00    -0.460 OA
BRANCH  27  28
ATOM     28  C   UNL     1       2.777  -1.130   2.366  1.00  0.00     0.338 C 
ATOM     29  O   UNL     1       3.372  -2.190   2.272  1.00  0.00    -0.246 OA
BRANCH  28  30
ATOM     30  C   UNL     1       2.443  -0.540   3.680  1.00  0.00     0.060 A 
ATOM     31  C   UNL     1       3.474  -0.295   4.586  1.00  0.00     0.016 A 
ATOM     32  C   UNL     1       1.120  -0.358   4.085  1.00  0.00     0.016 A 
ATOM     33  C   UNL     1       3.167   0.111   5.888  1.00  0.00     0.010 A 
ATOM     34  C   UNL     1       0.815   0.145   5.346  1.00  0.00     0.010 A 
ATOM     35  C   UNL     1       1.833   0.326   6.281  1.00  0.00    -0.014 A 
BRANCH  35  36
ATOM     36  C   UNL     1       1.501   0.662   7.686  1.00  0.00     0.031 A 
ATOM     37  C   UNL     1       0.743  -0.316   8.548  1.00  0.00     0.074 A 
ATOM     38  C   UNL     1       1.893   1.846   8.189  1.00  0.00     0.049 A 
ATOM     39  N   UNL     1       0.470  -0.245   9.827  1.00  0.00    -0.248 NA
ATOM     40  C   UNL     1       0.208  -1.520   7.891  1.00  0.00     0.031 C 
ATOM     41  C   UNL     1       2.576   2.898   7.435  1.00  0.00     0.029 A 
ATOM     42  N   UNL     1       1.790   2.354   9.458  1.00  0.00    -0.354 N 
ATOM     43  C   UNL     1      -0.260  -1.390  10.124  1.00  0.00     0.074 A 
ATOM     44  C   UNL     1      -0.444  -2.108   8.884  1.00  0.00     0.031 C 
ATOM     45  C   UNL     1       2.880   3.905   8.269  1.00  0.00     0.029 A 
ATOM     46  C   UNL     1       2.390   3.580   9.605  1.00  0.00     0.049 A 
ATOM     47  H   UNL     1       1.331   1.885  10.192  1.00  0.00     0.167 HD
ATOM     48  C   UNL     1      -0.715  -1.821  11.325  1.00  0.00     0.031 A 
ATOM     49  C   UNL     1       2.545   4.347  10.699  1.00  0.00     0.031 A 
ATOM     50  C   UNL     1      -0.533  -1.103  12.558  1.00  0.00     0.049 A 
ATOM     51  C   UNL     1       2.035   3.847  12.021  1.00  0.00     0.074 A 
ATOM     52  C   UNL     1      -0.907  -1.476  13.837  1.00  0.00     0.029 A 
ATOM     53  N   UNL     1       0.069   0.141  12.662  1.00  0.00    -0.354 N 
ATOM     54  N   UNL     1       1.431   2.718  12.300  1.00  0.00    -0.248 NA
ATOM     55  C   UNL     1       2.248   4.722  13.181  1.00  0.00     0.031 C 
ATOM     56  C   UNL     1      -0.577  -0.432  14.709  1.00  0.00     0.029 A 
ATOM     57  C   UNL     1       0.054   0.563  13.980  1.00  0.00     0.049 A 
ATOM     58  H   UNL     1       0.450   0.649  11.910  1.00  0.00     0.167 HD
ATOM     59  C   UNL     1       1.212   2.735  13.671  1.00  0.00     0.074 A 
ATOM     60  C   UNL     1       1.769   3.977  14.168  1.00  0.00     0.031 C 
ATOM     61  C   UNL     1       0.605   1.807  14.452  1.00  0.00     0.031 A 
BRANCH  48  62
ATOM     62  C   UNL     1      -1.455  -3.131  11.361  1.00  0.00    -0.014 A 
ATOM     63  C   UNL     1      -0.788  -4.349  11.144  1.00  0.00     0.009 A 
ATOM     64  C   UNL     1      -2.827  -3.154  11.655  1.00  0.00     0.009 A 
ATOM     65  C   UNL     1      -1.487  -5.558  11.188  1.00  0.00     0.001 A 
ATOM     66  C   UNL     1      -3.517  -4.366  11.726  1.00  0.00     0.001 A 
ATOM     67  C   UNL     1      -2.849  -5.566  11.483  1.00  0.00     0.000 A 
ENDBRANCH  48  62
BRANCH  49  68
ATOM     68  C   UNL     1       3.247   5.652  10.593  1.00  0.00    -0.014 A 
ATOM     69  C   UNL     1       4.521   5.826  11.153  1.00  0.00     0.009 A 
ATOM     70  C   UNL     1       2.647   6.728   9.921  1.00  0.00     0.009 A 
ATOM     71  C   UNL     1       5.169   7.061  11.065  1.00  0.00     0.001 A 
ATOM     72  C   UNL     1       3.309   7.952   9.809  1.00  0.00     0.001 A 
ATOM     73  C   UNL     1       4.565   8.120  10.389  1.00  0.00     0.000 A 
ENDBRANCH  49  68
BRANCH  61  74
ATOM     74  C   UNL     1       0.537   2.094  15.925  1.00  0.00    -0.014 A 
ATOM     75  C   UNL     1      -0.312   3.087  16.436  1.00  0.00     0.009 A 
ATOM     76  C   UNL     1       1.317   1.340  16.816  1.00  0.00     0.009 A 
ATOM     77  C   UNL     1      -0.348   3.348  17.807  1.00  0.00     0.001 A 
ATOM     78  C   UNL     1       1.256   1.582  18.188  1.00  0.00     0.001 A 
ATOM     79  C   UNL     1       0.433   2.593  18.681  1.00  0.00     0.000 A 
ENDBRANCH  61  74
ENDBRANCH  35  36
ENDBRANCH  28  30
ENDBRANCH  27  28
ENDBRANCH  26  27
ENDBRANCH  25  26
ENDBRANCH  24  25
ENDBRANCH   1  24
TORSDOF 17
