REMARK SMILES O=C(OCCOCCOC(=O)c1cc(-c2cccc(Cl)c2)ccc1Cl)c1ccc(-c2c3nc(c(-c4ccccc4)c4ccc([nH]4)c(-c4ccccc4)c4nc(c(-c5ccccc5)c5ccc2[nH]5)C=C4)C=C3)cc1
REMARK SMILES IDX 5 1 4 2 3 3 2 4 1 5 26 6 27 7 73 8 28 9 72 10 29 11 30 12
REMARK SMILES IDX 31 13 66 14 32 15 71 16 65 17 67 18 33 19 70 20 64 21 63 22
REMARK SMILES IDX 34 24 56 25 41 26 55 27 42 28 45 29 54 30 68 31 43 32 44 33
REMARK SMILES IDX 53 35 69 36 46 37 35 38 36 39 40 40 37 41 39 42 38 43 57 44
REMARK SMILES IDX 58 45 62 46 59 47 61 48 60 49 47 50 48 51 52 52 49 53 51 54
REMARK SMILES IDX 50 55 6 56 7 57 8 58 9 59 10 60 11 61 12 62 13 63 24 64
REMARK SMILES IDX 14 65 23 66 25 67 22 68 15 69 16 70 21 71 17 72 19 73 18 74
REMARK SMILES IDX 20 75
REMARK H PARENT 67 23 45 34
REMARK Flexibility Score: inf
ROOT
ATOM      1  C   UNL     1       4.251   1.753   0.063  1.00  0.00     0.202 C 
ENDROOT
BRANCH   1   2
ATOM      2  C   UNL     1       3.918   0.936  -1.189  1.00  0.00     0.261 C 
BRANCH   2   3
ATOM      3  O   UNL     1       2.544   0.512  -1.160  1.00  0.00    -0.460 OA
BRANCH   3   4
ATOM      4  C   UNL     1       2.044  -0.722  -0.921  1.00  0.00     0.338 C 
ATOM      5  O   UNL     1       0.834  -0.901  -1.047  1.00  0.00    -0.246 OA
BRANCH   4   6
ATOM      6  C   UNL     1       2.878  -1.891  -0.505  1.00  0.00     0.060 A 
ATOM      7  C   UNL     1       4.091  -1.802   0.178  1.00  0.00     0.016 A 
ATOM      8  C   UNL     1       2.345  -3.173  -0.730  1.00  0.00     0.016 A 
ATOM      9  C   UNL     1       4.783  -2.932   0.584  1.00  0.00     0.010 A 
ATOM     10  C   UNL     1       3.014  -4.319  -0.287  1.00  0.00     0.010 A 
ATOM     11  C   UNL     1       4.243  -4.195   0.366  1.00  0.00    -0.014 A 
BRANCH  11  12
ATOM     12  C   UNL     1       5.043  -5.356   0.789  1.00  0.00     0.031 A 
ATOM     13  C   UNL     1       5.815  -6.110  -0.245  1.00  0.00     0.074 A 
ATOM     14  C   UNL     1       5.186  -5.606   2.103  1.00  0.00     0.049 A 
ATOM     15  N   UNL     1       6.606  -7.137  -0.097  1.00  0.00    -0.248 NA
ATOM     16  C   UNL     1       5.698  -5.629  -1.633  1.00  0.00     0.031 C 
ATOM     17  C   UNL     1       4.567  -4.829   3.183  1.00  0.00     0.029 A 
ATOM     18  N   UNL     1       5.932  -6.548   2.757  1.00  0.00    -0.354 N 
ATOM     19  C   UNL     1       7.068  -7.436  -1.371  1.00  0.00     0.074 A 
ATOM     20  C   UNL     1       6.467  -6.489  -2.282  1.00  0.00     0.031 C 
ATOM     21  C   UNL     1       4.989  -5.308   4.364  1.00  0.00     0.029 A 
ATOM     22  C   UNL     1       5.849  -6.460   4.125  1.00  0.00     0.049 A 
ATOM     23  H   UNL     1       6.475  -7.225   2.291  1.00  0.00     0.167 HD
ATOM     24  C   UNL     1       7.913  -8.426  -1.740  1.00  0.00     0.031 A 
ATOM     25  C   UNL     1       6.391  -7.247   5.073  1.00  0.00     0.031 A 
ATOM     26  C   UNL     1       8.475  -9.370  -0.815  1.00  0.00     0.049 A 
ATOM     27  C   UNL     1       7.234  -8.408   4.623  1.00  0.00     0.074 A 
ATOM     28  C   UNL     1       9.273 -10.468  -1.073  1.00  0.00     0.029 A 
ATOM     29  N   UNL     1       8.289  -9.318   0.560  1.00  0.00    -0.354 N 
ATOM     30  N   UNL     1       7.610  -8.732   3.408  1.00  0.00    -0.248 NA
ATOM     31  C   UNL     1       7.712  -9.321   5.668  1.00  0.00     0.031 C 
ATOM     32  C   UNL     1       9.532 -11.108   0.145  1.00  0.00     0.029 A 
ATOM     33  C   UNL     1       8.940 -10.377   1.165  1.00  0.00     0.049 A 
ATOM     34  H   UNL     1       7.770  -8.629   1.034  1.00  0.00     0.167 HD
ATOM     35  C   UNL     1       8.375  -9.881   3.541  1.00  0.00     0.074 A 
ATOM     36  C   UNL     1       8.434 -10.178   4.960  1.00  0.00     0.031 C 
ATOM     37  C   UNL     1       8.970 -10.633   2.582  1.00  0.00     0.031 A 
BRANCH  24  38
ATOM     38  C   UNL     1       8.191  -8.567  -3.208  1.00  0.00    -0.014 A 
ATOM     39  C   UNL     1       9.018  -7.661  -3.890  1.00  0.00     0.009 A 
ATOM     40  C   UNL     1       7.582  -9.607  -3.928  1.00  0.00     0.009 A 
ATOM     41  C   UNL     1       9.199  -7.773  -5.271  1.00  0.00     0.001 A 
ATOM     42  C   UNL     1       7.783  -9.730  -5.303  1.00  0.00     0.001 A 
ATOM     43  C   UNL     1       8.583  -8.807  -5.976  1.00  0.00     0.000 A 
ENDBRANCH  24  38
BRANCH  25  44
ATOM     44  C   UNL     1       6.101  -7.011   6.513  1.00  0.00    -0.014 A 
ATOM     45  C   UNL     1       7.120  -6.661   7.412  1.00  0.00     0.009 A 
ATOM     46  C   UNL     1       4.793  -7.162   7.005  1.00  0.00     0.009 A 
ATOM     47  C   UNL     1       6.839  -6.494   8.772  1.00  0.00     0.001 A 
ATOM     48  C   UNL     1       4.509  -6.962   8.357  1.00  0.00     0.001 A 
ATOM     49  C   UNL     1       5.535  -6.640   9.242  1.00  0.00     0.000 A 
ENDBRANCH  25  44
BRANCH  37  50
ATOM     50  C   UNL     1       9.745 -11.828   3.052  1.00  0.00    -0.014 A 
ATOM     51  C   UNL     1       9.091 -12.982   3.509  1.00  0.00     0.009 A 
ATOM     52  C   UNL     1      11.147 -11.809   2.997  1.00  0.00     0.009 A 
ATOM     53  C   UNL     1       9.831 -14.085   3.934  1.00  0.00     0.001 A 
ATOM     54  C   UNL     1      11.882 -12.924   3.395  1.00  0.00     0.001 A 
ATOM     55  C   UNL     1      11.224 -14.057   3.872  1.00  0.00     0.000 A 
ENDBRANCH  37  50
ENDBRANCH  11  12
ENDBRANCH   4   6
ENDBRANCH   3   4
ENDBRANCH   2   3
ENDBRANCH   1   2
BRANCH   1  56
ATOM     56  O   UNL     1       4.070   1.044   1.289  1.00  0.00    -0.374 OA
BRANCH  56  57
ATOM     57  C   UNL     1       2.748   1.096   1.842  1.00  0.00     0.202 C 
BRANCH  57  58
ATOM     58  C   UNL     1       2.822   1.653   3.263  1.00  0.00     0.261 C 
BRANCH  58  59
ATOM     59  O   UNL     1       3.285   3.009   3.174  1.00  0.00    -0.460 OA
BRANCH  59  60
ATOM     60  C   UNL     1       4.619   3.197   3.314  1.00  0.00     0.339 C 
ATOM     61  O   UNL     1       5.446   2.405   3.734  1.00  0.00    -0.246 OA
BRANCH  60  62
ATOM     62  C   UNL     1       4.963   4.445   2.608  1.00  0.00     0.079 A 
ATOM     63  C   UNL     1       5.982   4.365   1.639  1.00  0.00     0.026 A 
ATOM     64  C   UNL     1       4.267   5.641   2.799  1.00  0.00     0.055 A 
ATOM     65  C   UNL     1       6.268   5.457   0.810  1.00  0.00    -0.017 A 
ATOM     66  C   UNL     1       4.552   6.734   1.981  1.00  0.00     0.022 A 
ATOM     67  Cl  UNL     1       3.085   5.863   4.039  1.00  0.00    -0.083 Cl
ATOM     68  C   UNL     1       5.532   6.638   0.989  1.00  0.00     0.010 A 
BRANCH  65  69
ATOM     69  C   UNL     1       7.301   5.395  -0.227  1.00  0.00    -0.017 A 
ATOM     70  C   UNL     1       8.556   5.986  -0.008  1.00  0.00     0.009 A 
ATOM     71  C   UNL     1       7.041   4.816  -1.478  1.00  0.00     0.029 A 
ATOM     72  C   UNL     1       9.520   6.021  -1.019  1.00  0.00     0.002 A 
ATOM     73  C   UNL     1       8.008   4.853  -2.486  1.00  0.00     0.041 A 
ATOM     74  C   UNL     1       9.243   5.459  -2.263  1.00  0.00     0.020 A 
ATOM     75  Cl  UNL     1       7.662   4.165  -4.025  1.00  0.00    -0.084 Cl
ENDBRANCH  65  69
ENDBRANCH  60  62
ENDBRANCH  59  60
ENDBRANCH  58  59
ENDBRANCH  57  58
ENDBRANCH  56  57
ENDBRANCH   1  56
TORSDOF 15
