REMARK SMILES O=C(OCCOCCOC(=O)[C@@H]1CCC[N@@H+](Cc2ccc(F)cc2Cl)C1)c1ccc(-c2c3nc(c(-c4ccccc4)c4ccc([nH]4)c(-c4ccccc4)c4nc(c(-c5ccccc5)c5ccc2[nH]5)C=C4)C=C3)cc1
REMARK SMILES IDX 6 1 5 2 4 3 3 4 2 5 1 6 27 7 28 8 74 9 29 10 73 11 30 12
REMARK SMILES IDX 31 13 32 14 67 15 33 16 72 17 66 18 68 19 34 20 71 21 65 22
REMARK SMILES IDX 64 23 35 25 57 26 42 27 56 28 43 29 46 30 55 31 69 32 44 33
REMARK SMILES IDX 45 34 54 36 70 37 47 38 36 39 37 40 41 41 38 42 40 43 39 44
REMARK SMILES IDX 58 45 59 46 63 47 60 48 62 49 61 50 48 51 49 52 53 53 50 54
REMARK SMILES IDX 52 55 51 56 7 57 8 58 9 59 10 60 11 61 12 62 13 63 26 64
REMARK SMILES IDX 14 65 16 66 15 67 17 69 18 70 19 71 24 72 20 73 23 74 25 75
REMARK SMILES IDX 21 76 22 77
REMARK H PARENT 68 24 46 35 16 68
REMARK Flexibility Score: inf
ROOT
ATOM      1  O   UNL     1       3.583   0.665   1.122  1.00  0.00    -0.374 OA
ENDROOT
BRANCH   1   2
ATOM      2  C   UNL     1       4.020   1.556   0.092  1.00  0.00     0.202 C 
BRANCH   2   3
ATOM      3  C   UNL     1       3.947   0.940  -1.309  1.00  0.00     0.261 C 
BRANCH   3   4
ATOM      4  O   UNL     1       2.628   0.448  -1.584  1.00  0.00    -0.460 OA
BRANCH   4   5
ATOM      5  C   UNL     1       2.115  -0.773  -1.304  1.00  0.00     0.338 C 
ATOM      6  O   UNL     1       0.904  -0.939  -1.445  1.00  0.00    -0.246 OA
BRANCH   5   7
ATOM      7  C   UNL     1       2.930  -1.956  -0.880  1.00  0.00     0.060 A 
ATOM      8  C   UNL     1       4.138  -1.916  -0.178  1.00  0.00     0.016 A 
ATOM      9  C   UNL     1       2.376  -3.221  -1.154  1.00  0.00     0.016 A 
ATOM     10  C   UNL     1       4.803  -3.076   0.196  1.00  0.00     0.010 A 
ATOM     11  C   UNL     1       3.024  -4.395  -0.760  1.00  0.00     0.010 A 
ATOM     12  C   UNL     1       4.252  -4.318  -0.100  1.00  0.00    -0.014 A 
BRANCH  12  13
ATOM     13  C   UNL     1       5.054  -5.516   0.193  1.00  0.00     0.031 A 
ATOM     14  C   UNL     1       5.808  -6.152  -0.932  1.00  0.00     0.074 A 
ATOM     15  C   UNL     1       5.194  -5.927   1.465  1.00  0.00     0.049 A 
ATOM     16  N   UNL     1       6.570  -7.211  -0.922  1.00  0.00    -0.248 NA
ATOM     17  C   UNL     1       5.704  -5.491  -2.245  1.00  0.00     0.031 C 
ATOM     18  C   UNL     1       4.594  -5.279   2.633  1.00  0.00     0.029 A 
ATOM     19  N   UNL     1       5.912  -6.967   1.989  1.00  0.00    -0.354 N 
ATOM     20  C   UNL     1       7.018  -7.357  -2.228  1.00  0.00     0.074 A 
ATOM     21  C   UNL     1       6.443  -6.284  -3.006  1.00  0.00     0.031 C 
ATOM     22  C   UNL     1       4.987  -5.927   3.742  1.00  0.00     0.029 A 
ATOM     23  C   UNL     1       5.811  -7.066   3.355  1.00  0.00     0.049 A 
ATOM     24  H   UNL     1       6.448  -7.584   1.441  1.00  0.00     0.167 HD
ATOM     25  C   UNL     1       7.829  -8.316  -2.729  1.00  0.00     0.031 A 
ATOM     26  C   UNL     1       6.311  -7.998   4.187  1.00  0.00     0.031 A 
ATOM     27  C   UNL     1       8.362  -9.388  -1.935  1.00  0.00     0.049 A 
ATOM     28  C   UNL     1       7.119  -9.116   3.587  1.00  0.00     0.074 A 
ATOM     29  C   UNL     1       9.131 -10.464  -2.334  1.00  0.00     0.029 A 
ATOM     30  N   UNL     1       8.169  -9.511  -0.565  1.00  0.00    -0.354 N 
ATOM     31  N   UNL     1       7.487  -9.289   2.338  1.00  0.00    -0.248 NA
ATOM     32  C   UNL     1       7.567 -10.173   4.501  1.00  0.00     0.031 C 
ATOM     33  C   UNL     1       9.363 -11.265  -1.210  1.00  0.00     0.029 A 
ATOM     34  C   UNL     1       8.787 -10.658  -0.103  1.00  0.00     0.049 A 
ATOM     35  H   UNL     1       7.666  -8.876  -0.006  1.00  0.00     0.167 HD
ATOM     36  C   UNL     1       8.220 -10.466   2.318  1.00  0.00     0.074 A 
ATOM     37  C   UNL     1       8.264 -10.951   3.685  1.00  0.00     0.031 C 
ATOM     38  C   UNL     1       8.802 -11.099   1.269  1.00  0.00     0.031 A 
BRANCH  25  39
ATOM     39  C   UNL     1       8.095  -8.275  -4.205  1.00  0.00    -0.014 A 
ATOM     40  C   UNL     1       8.930  -7.301  -4.776  1.00  0.00     0.009 A 
ATOM     41  C   UNL     1       7.457  -9.200  -5.046  1.00  0.00     0.009 A 
ATOM     42  C   UNL     1       9.086  -7.230  -6.163  1.00  0.00     0.001 A 
ATOM     43  C   UNL     1       7.635  -9.142  -6.429  1.00  0.00     0.001 A 
ATOM     44  C   UNL     1       8.439  -8.150  -6.988  1.00  0.00     0.000 A 
ENDBRANCH  25  39
BRANCH  26  45
ATOM     45  C   UNL     1       6.014  -7.947   5.644  1.00  0.00    -0.014 A 
ATOM     46  C   UNL     1       7.034  -7.732   6.584  1.00  0.00     0.009 A 
ATOM     47  C   UNL     1       4.699  -8.123   6.106  1.00  0.00     0.009 A 
ATOM     48  C   UNL     1       6.745  -7.716   7.952  1.00  0.00     0.001 A 
ATOM     49  C   UNL     1       4.408  -8.076   7.471  1.00  0.00     0.001 A 
ATOM     50  C   UNL     1       5.433  -7.882   8.394  1.00  0.00     0.000 A 
ENDBRANCH  26  45
BRANCH  38  51
ATOM     51  C   UNL     1       9.551 -12.362   1.575  1.00  0.00    -0.014 A 
ATOM     52  C   UNL     1       8.873 -13.555   1.865  1.00  0.00     0.009 A 
ATOM     53  C   UNL     1      10.953 -12.364   1.521  1.00  0.00     0.009 A 
ATOM     54  C   UNL     1       9.589 -14.723   2.125  1.00  0.00     0.001 A 
ATOM     55  C   UNL     1      11.665 -13.540   1.754  1.00  0.00     0.001 A 
ATOM     56  C   UNL     1      10.983 -14.716   2.063  1.00  0.00     0.000 A 
ENDBRANCH  38  51
ENDBRANCH  12  13
ENDBRANCH   5   7
ENDBRANCH   4   5
ENDBRANCH   3   4
ENDBRANCH   2   3
ENDBRANCH   1   2
BRANCH   1  57
ATOM     57  C   UNL     1       2.199   0.793   1.482  1.00  0.00     0.202 C 
BRANCH  57  58
ATOM     58  C   UNL     1       2.066   1.311   2.913  1.00  0.00     0.261 C 
BRANCH  58  59
ATOM     59  O   UNL     1       2.982   2.400   3.083  1.00  0.00    -0.463 OA
BRANCH  59  60
ATOM     60  C   UNL     1       4.186   2.030   3.601  1.00  0.00     0.314 C 
ATOM     61  O   UNL     1       4.393   0.982   4.203  1.00  0.00    -0.252 OA
BRANCH  60  62
ATOM     62  C   UNL     1       5.301   2.976   3.188  1.00  0.00     0.154 C 
ATOM     63  C   UNL     1       6.430   2.947   4.213  1.00  0.00     0.027 C 
ATOM     64  C   UNL     1       4.883   4.420   2.897  1.00  0.00     0.277 C 
ATOM     65  C   UNL     1       5.963   3.641   5.481  1.00  0.00     0.062 C 
ATOM     66  N   UNL     1       4.638   5.264   4.071  1.00  0.00    -0.330 N 
ATOM     67  C   UNL     1       5.590   5.088   5.176  1.00  0.00     0.262 C 
ATOM     68  H   UNL     1       3.754   4.919   4.445  1.00  0.00     0.348 HD
BRANCH  66  69
ATOM     69  C   UNL     1       4.437   6.695   3.714  1.00  0.00     0.300 C 
BRANCH  69  70
ATOM     70  C   UNL     1       5.717   7.489   3.466  1.00  0.00     0.025 A 
ATOM     71  C   UNL     1       6.366   7.376   2.220  1.00  0.00     0.014 A 
ATOM     72  C   UNL     1       6.356   8.230   4.481  1.00  0.00     0.052 A 
ATOM     73  C   UNL     1       7.654   7.880   2.035  1.00  0.00     0.040 A 
ATOM     74  C   UNL     1       7.646   8.733   4.294  1.00  0.00     0.060 A 
ATOM     75  Cl  UNL     1       5.621   8.522   6.019  1.00  0.00    -0.084 Cl
ATOM     76  C   UNL     1       8.290   8.530   3.082  1.00  0.00     0.124 A 
ATOM     77  F   UNL     1       9.545   8.967   2.922  1.00  0.00    -0.207 F 
ENDBRANCH  69  70
ENDBRANCH  66  69
ENDBRANCH  60  62
ENDBRANCH  59  60
ENDBRANCH  58  59
ENDBRANCH  57  58
ENDBRANCH   1  57
TORSDOF 16
