REMARK SMILES COc1cc2c(CC(=O)OCCOCCOC(=O)c3ccc(-c4c5nc(c(-c6ccccc6)c6ccc([nH]6)c(-c6ccccc6)c6nc(c(-c7ccccc7)c7ccc4[nH]7)C=C6)C=C5)cc3)c(C)n(C(=O)c3ccc(Cl)cc3)c2cc1Cl
REMARK SMILES IDX 12 1 11 2 10 3 8 4 9 5 7 6 6 7 3 8 4 9 81 10 5 11 80 12
REMARK SMILES IDX 82 13 79 14 67 15 69 16 68 17 2 18 1 19 70 20 71 21 72 22
REMARK SMILES IDX 73 23 78 24 74 25 77 26 75 27 76 28 13 29 14 30 15 31 16 32
REMARK SMILES IDX 17 33 18 34 19 35 20 36 66 37 21 38 65 39 22 40 23 41 24 42
REMARK SMILES IDX 59 43 25 44 64 45 58 46 60 47 26 48 63 49 57 50 56 51 27 53
REMARK SMILES IDX 49 54 34 55 48 56 35 57 38 58 47 59 61 60 36 61 37 62 46 64
REMARK SMILES IDX 62 65 39 66 28 67 29 68 33 69 30 70 32 71 31 72 50 73 51 74
REMARK SMILES IDX 55 75 52 76 54 77 53 78 40 79 41 80 45 81 42 82 44 83 43 84
REMARK H PARENT 60 52 38 63
REMARK Flexibility Score: inf
ROOT
ATOM      1  C   UNL     1      -2.876  -5.961   1.637  1.00  0.00     0.202 C 
ENDROOT
BRANCH   1   2
ATOM      2  C   UNL     1      -3.005  -6.764   0.332  1.00  0.00     0.261 C 
BRANCH   2   3
ATOM      3  O   UNL     1      -2.229  -6.268  -0.773  1.00  0.00    -0.463 OA
BRANCH   3   4
ATOM      4  C   UNL     1      -2.966  -5.682  -1.753  1.00  0.00     0.310 C 
ATOM      5  O   UNL     1      -4.196  -5.638  -1.749  1.00  0.00    -0.252 OA
BRANCH   4   6
ATOM      6  C   UNL     1      -2.192  -5.057  -2.891  1.00  0.00     0.160 C 
BRANCH   6   7
ATOM      7  C   UNL     1      -0.685  -4.970  -2.847  1.00  0.00    -0.008 A 
ATOM      8  C   UNL     1       0.748  -1.903  -1.027  1.00  0.00     0.138 A 
ATOM      9  C   UNL     1      -0.241  -2.698  -1.632  1.00  0.00     0.058 A 
ATOM     10  C   UNL     1       2.081  -2.214  -1.246  1.00  0.00     0.085 A 
ATOM     11  C   UNL     1       0.090  -3.896  -2.317  1.00  0.00     0.008 A 
ATOM     12  C   UNL     1       2.423  -3.285  -2.080  1.00  0.00     0.051 A 
ATOM     13  Cl  UNL     1       3.406  -1.453  -0.438  1.00  0.00    -0.080 Cl
ATOM     14  C   UNL     1       1.438  -4.179  -2.554  1.00  0.00     0.058 A 
ATOM     15  C   UNL     1       0.207  -5.866  -3.433  1.00  0.00     0.028 A 
ATOM     16  N   UNL     1       1.521  -5.390  -3.272  1.00  0.00    -0.280 N 
ATOM     17  C   UNL     1      -0.179  -7.128  -4.146  1.00  0.00     0.065 C 
BRANCH   8  18
ATOM     18  O   UNL     1       0.267  -1.028  -0.088  1.00  0.00    -0.495 OA
ATOM     19  C   UNL     1       0.735   0.312  -0.185  1.00  0.00     0.278 C 
ENDBRANCH   8  18
BRANCH  16  20
ATOM     20  C   UNL     1       2.723  -5.998  -3.757  1.00  0.00     0.262 C 
ATOM     21  O   UNL     1       2.655  -7.009  -4.453  1.00  0.00    -0.268 OA
BRANCH  20  22
ATOM     22  C   UNL     1       4.087  -5.488  -3.535  1.00  0.00     0.040 A 
ATOM     23  C   UNL     1       4.692  -5.599  -2.276  1.00  0.00     0.015 A 
ATOM     24  C   UNL     1       4.742  -4.844  -4.591  1.00  0.00     0.015 A 
ATOM     25  C   UNL     1       5.918  -4.966  -2.051  1.00  0.00     0.021 A 
ATOM     26  C   UNL     1       5.975  -4.230  -4.363  1.00  0.00     0.021 A 
ATOM     27  C   UNL     1       6.545  -4.273  -3.090  1.00  0.00     0.041 A 
ATOM     28  Cl  UNL     1       8.019  -3.438  -2.790  1.00  0.00    -0.084 Cl
ENDBRANCH  20  22
ENDBRANCH  16  20
ENDBRANCH   6   7
ENDBRANCH   4   6
ENDBRANCH   3   4
ENDBRANCH   2   3
ENDBRANCH   1   2
BRANCH   1  29
ATOM     29  O   UNL     1      -2.798  -4.544   1.618  1.00  0.00    -0.374 OA
BRANCH  29  30
ATOM     30  C   UNL     1      -1.667  -3.958   0.978  1.00  0.00     0.202 C 
BRANCH  30  31
ATOM     31  C   UNL     1      -0.245  -4.253   1.497  1.00  0.00     0.261 C 
BRANCH  31  32
ATOM     32  O   UNL     1       0.061  -5.646   1.513  1.00  0.00    -0.460 OA
BRANCH  32  33
ATOM     33  C   UNL     1       0.779  -6.047   2.593  1.00  0.00     0.338 C 
ATOM     34  O   UNL     1       1.535  -5.384   3.287  1.00  0.00    -0.246 OA
BRANCH  33  35
ATOM     35  C   UNL     1       0.112  -7.283   3.013  1.00  0.00     0.060 A 
ATOM     36  C   UNL     1      -0.053  -8.327   2.099  1.00  0.00     0.016 A 
ATOM     37  C   UNL     1      -0.672  -7.181   4.174  1.00  0.00     0.016 A 
ATOM     38  C   UNL     1      -1.083  -9.230   2.311  1.00  0.00     0.010 A 
ATOM     39  C   UNL     1      -1.726  -8.062   4.359  1.00  0.00     0.010 A 
ATOM     40  C   UNL     1      -1.946  -9.066   3.411  1.00  0.00    -0.014 A 
BRANCH  40  41
ATOM     41  C   UNL     1      -2.859 -10.166   3.717  1.00  0.00     0.031 A 
ATOM     42  C   UNL     1      -2.091 -11.370   4.133  1.00  0.00     0.074 A 
ATOM     43  C   UNL     1      -4.204 -10.098   3.795  1.00  0.00     0.049 A 
ATOM     44  N   UNL     1      -2.065 -12.531   3.570  1.00  0.00    -0.248 NA
ATOM     45  C   UNL     1      -1.081 -11.193   5.196  1.00  0.00     0.031 C 
ATOM     46  C   UNL     1      -5.041  -8.899   3.707  1.00  0.00     0.029 A 
ATOM     47  N   UNL     1      -5.111 -11.079   4.097  1.00  0.00    -0.354 N 
ATOM     48  C   UNL     1      -1.175 -13.286   4.330  1.00  0.00     0.074 A 
ATOM     49  C   UNL     1      -0.458 -12.367   5.168  1.00  0.00     0.031 C 
ATOM     50  C   UNL     1      -6.274  -9.175   4.192  1.00  0.00     0.029 A 
ATOM     51  C   UNL     1      -6.354 -10.594   4.495  1.00  0.00     0.049 A 
ATOM     52  H   UNL     1      -4.902 -12.040   4.039  1.00  0.00     0.167 HD
ATOM     53  C   UNL     1      -1.319 -14.631   4.447  1.00  0.00     0.031 A 
ATOM     54  C   UNL     1      -7.351 -11.295   5.092  1.00  0.00     0.031 A 
ATOM     55  C   UNL     1      -2.148 -15.161   3.402  1.00  0.00     0.049 A 
ATOM     56  C   UNL     1      -7.133 -12.729   4.820  1.00  0.00     0.074 A 
ATOM     57  C   UNL     1      -2.007 -15.421   2.058  1.00  0.00     0.029 A 
ATOM     58  N   UNL     1      -3.489 -15.115   3.678  1.00  0.00    -0.354 N 
ATOM     59  N   UNL     1      -7.230 -13.260   3.636  1.00  0.00    -0.248 NA
ATOM     60  C   UNL     1      -6.488 -13.559   5.831  1.00  0.00     0.031 C 
ATOM     61  C   UNL     1      -3.316 -15.337   1.503  1.00  0.00     0.029 A 
ATOM     62  C   UNL     1      -4.227 -15.078   2.526  1.00  0.00     0.049 A 
ATOM     63  H   UNL     1      -3.871 -15.110   4.585  1.00  0.00     0.167 HD
ATOM     64  C   UNL     1      -6.289 -14.270   3.642  1.00  0.00     0.074 A 
ATOM     65  C   UNL     1      -6.005 -14.527   5.048  1.00  0.00     0.031 C 
ATOM     66  C   UNL     1      -5.587 -14.578   2.515  1.00  0.00     0.031 A 
BRANCH  53  67
ATOM     67  C   UNL     1      -1.158 -15.348   5.771  1.00  0.00    -0.014 A 
ATOM     68  C   UNL     1      -1.074 -14.686   7.014  1.00  0.00     0.009 A 
ATOM     69  C   UNL     1      -1.382 -16.734   5.818  1.00  0.00     0.009 A 
ATOM     70  C   UNL     1      -1.208 -15.358   8.232  1.00  0.00     0.001 A 
ATOM     71  C   UNL     1      -1.553 -17.406   7.036  1.00  0.00     0.001 A 
ATOM     72  C   UNL     1      -1.468 -16.718   8.242  1.00  0.00     0.000 A 
ENDBRANCH  53  67
BRANCH  54  73
ATOM     73  C   UNL     1      -8.316 -10.862   6.130  1.00  0.00    -0.014 A 
ATOM     74  C   UNL     1      -7.932  -9.903   7.084  1.00  0.00     0.009 A 
ATOM     75  C   UNL     1      -9.478 -11.611   6.388  1.00  0.00     0.009 A 
ATOM     76  C   UNL     1      -8.644  -9.741   8.278  1.00  0.00     0.001 A 
ATOM     77  C   UNL     1     -10.191 -11.449   7.585  1.00  0.00     0.001 A 
ATOM     78  C   UNL     1      -9.762 -10.529   8.538  1.00  0.00     0.000 A 
ENDBRANCH  54  73
BRANCH  66  79
ATOM     79  C   UNL     1      -6.171 -14.192   1.184  1.00  0.00    -0.014 A 
ATOM     80  C   UNL     1      -6.360 -15.218   0.244  1.00  0.00     0.009 A 
ATOM     81  C   UNL     1      -6.418 -12.868   0.787  1.00  0.00     0.009 A 
ATOM     82  C   UNL     1      -6.751 -14.934  -1.063  1.00  0.00     0.001 A 
ATOM     83  C   UNL     1      -6.840 -12.585  -0.517  1.00  0.00     0.001 A 
ATOM     84  C   UNL     1      -6.992 -13.617  -1.444  1.00  0.00     0.000 A 
ENDBRANCH  66  79
ENDBRANCH  40  41
ENDBRANCH  33  35
ENDBRANCH  32  33
ENDBRANCH  31  32
ENDBRANCH  30  31
ENDBRANCH  29  30
ENDBRANCH   1  29
TORSDOF 18
