REMARK SMILES O=C(OCCOCCOC(=O)c1c[nH]c(=O)c(-c2cccc([N+](=O)[O-])c2)c1)c1ccc(-c2c3nc(c(-c4ccccc4)c4ccc([nH]4)c(-c4ccccc4)c4nc(c(-c5ccccc5)c5ccc2[nH]5)C=C4)C=C3)cc1
REMARK SMILES IDX 6 1 5 2 4 3 3 4 2 5 1 6 28 7 29 8 75 9 30 10 74 11 31 12
REMARK SMILES IDX 32 13 33 14 68 15 34 16 73 17 67 18 69 19 35 20 72 21 66 22
REMARK SMILES IDX 65 23 36 25 58 26 43 27 57 28 44 29 47 30 56 31 70 32 45 33
REMARK SMILES IDX 46 34 55 36 71 37 48 38 37 39 38 40 42 41 39 42 41 43 40 44
REMARK SMILES IDX 59 45 60 46 64 47 61 48 63 49 62 50 49 51 50 52 54 53 51 54
REMARK SMILES IDX 53 55 52 56 7 57 8 58 9 59 10 60 11 61 12 62 13 63 27 64
REMARK SMILES IDX 14 65 17 66 15 67 16 69 18 70 19 71 26 72 20 73 22 74 21 75
REMARK SMILES IDX 23 76 24 77 25 78
REMARK H PARENT 69 24 47 35 14 68
REMARK Flexibility Score: inf
ROOT
ATOM      1  O   UNL     1       3.969  -0.960   1.287  1.00  0.00    -0.374 OA
ENDROOT
BRANCH   1   2
ATOM      2  C   UNL     1       4.255   0.411   1.551  1.00  0.00     0.202 C 
BRANCH   2   3
ATOM      3  C   UNL     1       3.981   1.347   0.375  1.00  0.00     0.261 C 
BRANCH   3   4
ATOM      4  O   UNL     1       2.599   1.266  -0.007  1.00  0.00    -0.460 OA
BRANCH   4   5
ATOM      5  C   UNL     1       2.076   0.616  -1.071  1.00  0.00     0.338 C 
ATOM      6  O   UNL     1       0.862   0.660  -1.256  1.00  0.00    -0.246 OA
BRANCH   5   7
ATOM      7  C   UNL     1       2.897  -0.169  -2.039  1.00  0.00     0.060 A 
ATOM      8  C   UNL     1       4.041  -0.894  -1.701  1.00  0.00     0.016 A 
ATOM      9  C   UNL     1       2.401  -0.289  -3.345  1.00  0.00     0.016 A 
ATOM     10  C   UNL     1       4.686  -1.710  -2.611  1.00  0.00     0.010 A 
ATOM     11  C   UNL     1       3.024  -1.135  -4.266  1.00  0.00     0.010 A 
ATOM     12  C   UNL     1       4.160  -1.857  -3.886  1.00  0.00    -0.014 A 
BRANCH  12  13
ATOM     13  C   UNL     1       4.867  -2.754  -4.806  1.00  0.00     0.031 A 
ATOM     14  C   UNL     1       5.733  -2.150  -5.856  1.00  0.00     0.074 A 
ATOM     15  C   UNL     1       4.799  -4.082  -4.598  1.00  0.00     0.049 A 
ATOM     16  N   UNL     1       6.375  -2.736  -6.827  1.00  0.00    -0.248 NA
ATOM     17  C   UNL     1       5.912  -0.687  -5.802  1.00  0.00     0.031 C 
ATOM     18  C   UNL     1       4.085  -4.731  -3.492  1.00  0.00     0.029 A 
ATOM     19  N   UNL     1       5.351  -5.122  -5.292  1.00  0.00    -0.354 N 
ATOM     20  C   UNL     1       6.994  -1.712  -7.528  1.00  0.00     0.074 A 
ATOM     21  C   UNL     1       6.672  -0.470  -6.864  1.00  0.00     0.031 C 
ATOM     22  C   UNL     1       4.245  -6.060  -3.586  1.00  0.00     0.029 A 
ATOM     23  C   UNL     1       4.997  -6.355  -4.799  1.00  0.00     0.049 A 
ATOM     24  H   UNL     1       5.943  -5.001  -6.069  1.00  0.00     0.167 HD
ATOM     25  C   UNL     1       7.741  -1.818  -8.648  1.00  0.00     0.031 A 
ATOM     26  C   UNL     1       5.208  -7.578  -5.317  1.00  0.00     0.031 A 
ATOM     27  C   UNL     1       8.028  -3.077  -9.277  1.00  0.00     0.049 A 
ATOM     28  C   UNL     1       5.947  -7.654  -6.626  1.00  0.00     0.074 A 
ATOM     29  C   UNL     1       8.745  -3.324 -10.430  1.00  0.00     0.029 A 
ATOM     30  N   UNL     1       7.595  -4.306  -8.795  1.00  0.00    -0.354 N 
ATOM     31  N   UNL     1       6.505  -6.684  -7.314  1.00  0.00    -0.248 NA
ATOM     32  C   UNL     1       6.064  -8.979  -7.245  1.00  0.00     0.031 C 
ATOM     33  C   UNL     1       8.686  -4.697 -10.684  1.00  0.00     0.029 A 
ATOM     34  C   UNL     1       7.990  -5.313  -9.653  1.00  0.00     0.049 A 
ATOM     35  H   UNL     1       7.082  -4.439  -7.965  1.00  0.00     0.167 HD
ATOM     36  C   UNL     1       7.048  -7.281  -8.441  1.00  0.00     0.074 A 
ATOM     37  C   UNL     1       6.778  -8.702  -8.328  1.00  0.00     0.031 C 
ATOM     38  C   UNL     1       7.699  -6.714  -9.486  1.00  0.00     0.031 A 
BRANCH  25  39
ATOM     39  C   UNL     1       8.190  -0.547  -9.303  1.00  0.00    -0.014 A 
ATOM     40  C   UNL     1       9.203   0.257  -8.759  1.00  0.00     0.009 A 
ATOM     41  C   UNL     1       7.573  -0.145 -10.499  1.00  0.00     0.009 A 
ATOM     42  C   UNL     1       9.569   1.450  -9.387  1.00  0.00     0.001 A 
ATOM     43  C   UNL     1       7.957   1.034 -11.137  1.00  0.00     0.001 A 
ATOM     44  C   UNL     1       8.950   1.835 -10.577  1.00  0.00     0.000 A 
ENDBRANCH  25  39
BRANCH  26  45
ATOM     45  C   UNL     1       4.627  -8.791  -4.680  1.00  0.00    -0.014 A 
ATOM     46  C   UNL     1       5.444  -9.829  -4.208  1.00  0.00     0.009 A 
ATOM     47  C   UNL     1       3.232  -8.939  -4.582  1.00  0.00     0.009 A 
ATOM     48  C   UNL     1       4.878 -10.998  -3.688  1.00  0.00     0.001 A 
ATOM     49  C   UNL     1       2.669 -10.092  -4.029  1.00  0.00     0.001 A 
ATOM     50  C   UNL     1       3.493 -11.127  -3.597  1.00  0.00     0.000 A 
ENDBRANCH  26  45
BRANCH  38  51
ATOM     51  C   UNL     1       8.176  -7.638 -10.567  1.00  0.00    -0.014 A 
ATOM     52  C   UNL     1       7.275  -8.206 -11.480  1.00  0.00     0.009 A 
ATOM     53  C   UNL     1       9.551  -7.874 -10.717  1.00  0.00     0.009 A 
ATOM     54  C   UNL     1       7.745  -9.012 -12.516  1.00  0.00     0.001 A 
ATOM     55  C   UNL     1      10.019  -8.652 -11.773  1.00  0.00     0.001 A 
ATOM     56  C   UNL     1       9.116  -9.226 -12.667  1.00  0.00     0.000 A 
ENDBRANCH  38  51
ENDBRANCH  12  13
ENDBRANCH   5   7
ENDBRANCH   4   5
ENDBRANCH   3   4
ENDBRANCH   2   3
ENDBRANCH   1   2
BRANCH   1  57
ATOM     57  C   UNL     1       2.632  -1.407   1.530  1.00  0.00     0.202 C 
BRANCH  57  58
ATOM     58  C   UNL     1       2.705  -2.772   2.222  1.00  0.00     0.261 C 
BRANCH  58  59
ATOM     59  O   UNL     1       3.376  -2.598   3.477  1.00  0.00    -0.460 OA
BRANCH  59  60
ATOM     60  C   UNL     1       4.736  -2.502   3.400  1.00  0.00     0.339 C 
ATOM     61  O   UNL     1       5.463  -2.999   2.566  1.00  0.00    -0.246 OA
BRANCH  60  62
ATOM     62  C   UNL     1       5.167  -1.531   4.445  1.00  0.00     0.077 A 
ATOM     63  C   UNL     1       6.231  -0.740   4.245  1.00  0.00     0.101 A 
ATOM     64  C   UNL     1       4.420  -1.397   5.670  1.00  0.00     0.031 A 
ATOM     65  N   UNL     1       6.588   0.194   5.193  1.00  0.00    -0.328 N 
ATOM     66  C   UNL     1       4.793  -0.569   6.661  1.00  0.00     0.048 A 
ATOM     67  C   UNL     1       5.944   0.359   6.407  1.00  0.00     0.255 A 
ATOM     68  H   UNL     1       7.352   0.782   4.994  1.00  0.00     0.169 HD
ATOM     69  O   UNL     1       6.298   1.213   7.212  1.00  0.00    -0.269 OA
BRANCH  66  70
ATOM     70  C   UNL     1       4.038  -0.672   7.921  1.00  0.00    -0.006 A 
ATOM     71  C   UNL     1       3.799  -1.962   8.444  1.00  0.00     0.009 A 
ATOM     72  C   UNL     1       3.478   0.434   8.562  1.00  0.00     0.094 A 
ATOM     73  C   UNL     1       2.957  -2.162   9.532  1.00  0.00     0.008 A 
ATOM     74  C   UNL     1       2.641   0.228   9.671  1.00  0.00     0.270 A 
ATOM     75  C   UNL     1       2.366  -1.065  10.146  1.00  0.00     0.085 A 
BRANCH  74  76
ATOM     76  N   UNL     1       2.010   1.376  10.334  1.00  0.00     0.062 N 
ATOM     77  O   UNL     1       1.303   1.148  11.327  1.00  0.00    -0.258 OA
ATOM     78  O   UNL     1       2.210   2.501   9.857  1.00  0.00    -0.258 OA
ENDBRANCH  74  76
ENDBRANCH  66  70
ENDBRANCH  60  62
ENDBRANCH  59  60
ENDBRANCH  58  59
ENDBRANCH  57  58
ENDBRANCH   1  57
TORSDOF 16
