REMARK SMILES CC[NH2+][C@]1(C(=O)OCCOCCOC(=O)c2ccc(-c3c4nc(c(-c5ccccc5)c5ccc([nH]5)c(-c5ccccc5)c5nc(c(-c6ccccc6)c6ccc3[nH]6)C=C5)C=C4)cc2)CCC[C@H]([N@@H+]2CCC[C@@H]2C(C)C)C1
REMARK SMILES IDX 10 1 9 2 8 3 7 4 5 5 6 6 4 7 64 8 76 9 65 10 67 11 66 12
REMARK SMILES IDX 3 13 2 16 1 17 68 18 69 19 72 20 70 22 71 23 73 24 74 25
REMARK SMILES IDX 75 26 11 27 12 28 13 29 14 30 15 31 16 32 17 33 63 34 18 35
REMARK SMILES IDX 62 36 19 37 20 38 21 39 56 40 22 41 61 42 55 43 57 44 23 45
REMARK SMILES IDX 60 46 54 47 53 48 24 50 46 51 31 52 45 53 32 54 35 55 44 56
REMARK SMILES IDX 58 57 33 58 34 59 43 61 59 62 36 63 25 64 26 65 30 66 27 67
REMARK SMILES IDX 29 68 28 69 47 70 48 71 52 72 49 73 51 74 50 75 37 76 38 77
REMARK SMILES IDX 42 78 39 79 41 80 40 81
REMARK H PARENT 3 14 3 15 68 21 57 49 35 60
REMARK Flexibility Score: inf
ROOT
ATOM      1  O   UNL     1       2.375   0.011   2.986  1.00  0.00    -0.374 OA
ENDROOT
BRANCH   1   2
ATOM      2  C   UNL     1       3.195   0.241   1.848  1.00  0.00     0.202 C 
BRANCH   2   3
ATOM      3  C   UNL     1       3.788  -0.993   1.167  1.00  0.00     0.261 C 
BRANCH   3   4
ATOM      4  O   UNL     1       2.792  -1.890   0.663  1.00  0.00    -0.459 OA
BRANCH   4   5
ATOM      5  C   UNL     1       2.441  -2.962   1.449  1.00  0.00     0.368 C 
ATOM      6  O   UNL     1       2.865  -3.155   2.580  1.00  0.00    -0.245 OA
BRANCH   5   7
ATOM      7  C   UNL     1       1.418  -3.912   0.662  1.00  0.00     0.200 C 
ATOM      8  C   UNL     1       2.195  -5.270   0.635  1.00  0.00     0.081 C 
ATOM      9  C   UNL     1       0.094  -4.020   1.606  1.00  0.00     0.146 C 
ATOM     10  C   UNL     1       1.482  -6.568   1.060  1.00  0.00     0.013 C 
ATOM     11  C   UNL     1      -0.603  -5.429   1.973  1.00  0.00     0.191 C 
ATOM     12  C   UNL     1       0.512  -6.442   2.223  1.00  0.00     0.065 C 
BRANCH   7  13
ATOM     13  N   UNL     1       1.067  -3.119  -0.623  1.00  0.00    -0.332 N 
ATOM     14  H   UNL     1       0.048  -3.143  -0.664  1.00  0.00     0.347 HD
ATOM     15  H   UNL     1       1.637  -2.292  -0.440  1.00  0.00     0.347 HD
BRANCH  13  16
ATOM     16  C   UNL     1       1.496  -3.360  -2.017  1.00  0.00     0.257 C 
ATOM     17  C   UNL     1       0.398  -3.146  -3.114  1.00  0.00     0.071 C 
ENDBRANCH  13  16
ENDBRANCH   7  13
BRANCH  11  18
ATOM     18  N   UNL     1      -1.846  -5.955   1.312  1.00  0.00    -0.330 N 
ATOM     19  C   UNL     1      -2.505  -7.120   1.929  1.00  0.00     0.262 C 
ATOM     20  C   UNL     1      -1.986  -6.224  -0.128  1.00  0.00     0.187 C 
ATOM     21  H   UNL     1      -2.264  -5.041   1.487  1.00  0.00     0.348 HD
ATOM     22  C   UNL     1      -2.226  -8.314   1.021  1.00  0.00     0.067 C 
ATOM     23  C   UNL     1      -2.033  -7.729  -0.358  1.00  0.00     0.071 C 
BRANCH  20  24
ATOM     24  C   UNL     1      -1.087  -5.364  -0.973  1.00  0.00     0.041 C 
ATOM     25  C   UNL     1      -0.425  -6.040  -2.176  1.00  0.00     0.014 C 
ATOM     26  C   UNL     1      -1.825  -4.005  -1.091  1.00  0.00     0.014 C 
ENDBRANCH  20  24
ENDBRANCH  11  18
ENDBRANCH   5   7
ENDBRANCH   4   5
ENDBRANCH   3   4
ENDBRANCH   2   3
ENDBRANCH   1   2
BRANCH   1  27
ATOM     27  C   UNL     1       1.008  -0.333   2.747  1.00  0.00     0.202 C 
BRANCH  27  28
ATOM     28  C   UNL     1       0.076   0.821   2.364  1.00  0.00     0.261 C 
BRANCH  28  29
ATOM     29  O   UNL     1       0.272   1.232   0.996  1.00  0.00    -0.460 OA
BRANCH  29  30
ATOM     30  C   UNL     1       0.852   2.438   0.833  1.00  0.00     0.338 C 
ATOM     31  O   UNL     1       1.210   3.224   1.707  1.00  0.00    -0.246 OA
BRANCH  30  32
ATOM     32  C   UNL     1       1.171   2.649  -0.584  1.00  0.00     0.060 A 
ATOM     33  C   UNL     1       2.518   2.767  -0.951  1.00  0.00     0.016 A 
ATOM     34  C   UNL     1       0.154   2.858  -1.516  1.00  0.00     0.016 A 
ATOM     35  C   UNL     1       2.855   3.146  -2.246  1.00  0.00     0.010 A 
ATOM     36  C   UNL     1       0.494   3.248  -2.813  1.00  0.00     0.010 A 
ATOM     37  C   UNL     1       1.842   3.433  -3.170  1.00  0.00    -0.014 A 
BRANCH  37  38
ATOM     38  C   UNL     1       2.186   4.083  -4.455  1.00  0.00     0.031 A 
ATOM     39  C   UNL     1       1.968   5.563  -4.601  1.00  0.00     0.074 A 
ATOM     40  C   UNL     1       2.701   3.365  -5.467  1.00  0.00     0.049 A 
ATOM     41  N   UNL     1       2.135   6.326  -5.651  1.00  0.00    -0.248 NA
ATOM     42  C   UNL     1       1.497   6.279  -3.404  1.00  0.00     0.031 C 
ATOM     43  C   UNL     1       3.010   1.937  -5.420  1.00  0.00     0.029 A 
ATOM     44  N   UNL     1       3.050   3.747  -6.737  1.00  0.00    -0.354 N 
ATOM     45  C   UNL     1       1.774   7.605  -5.247  1.00  0.00     0.074 A 
ATOM     46  C   UNL     1       1.353   7.512  -3.866  1.00  0.00     0.031 C 
ATOM     47  C   UNL     1       3.495   1.559  -6.615  1.00  0.00     0.029 A 
ATOM     48  C   UNL     1       3.490   2.708  -7.518  1.00  0.00     0.049 A 
ATOM     49  H   UNL     1       2.990   4.676  -7.057  1.00  0.00     0.167 HD
ATOM     50  C   UNL     1       1.794   8.755  -5.962  1.00  0.00     0.031 A 
ATOM     51  C   UNL     1       3.821   2.684  -8.823  1.00  0.00     0.031 A 
ATOM     52  C   UNL     1       2.199   8.837  -7.340  1.00  0.00     0.049 A 
ATOM     53  C   UNL     1       3.748   3.958  -9.622  1.00  0.00     0.074 A 
ATOM     54  C   UNL     1       2.267   9.954  -8.155  1.00  0.00     0.029 A 
ATOM     55  N   UNL     1       2.598   7.755  -8.110  1.00  0.00    -0.354 N 
ATOM     56  N   UNL     1       3.421   5.165  -9.227  1.00  0.00    -0.248 NA
ATOM     57  C   UNL     1       4.098   3.864 -11.046  1.00  0.00     0.031 C 
ATOM     58  C   UNL     1       2.644   9.536  -9.435  1.00  0.00     0.029 A 
ATOM     59  C   UNL     1       2.882   8.172  -9.399  1.00  0.00     0.049 A 
ATOM     60  H   UNL     1       2.668   6.827  -7.788  1.00  0.00     0.167 HD
ATOM     61  C   UNL     1       3.558   5.980 -10.345  1.00  0.00     0.074 A 
ATOM     62  C   UNL     1       4.012   5.131 -11.427  1.00  0.00     0.031 C 
ATOM     63  C   UNL     1       3.332   7.312 -10.464  1.00  0.00     0.031 A 
BRANCH  50  64
ATOM     64  C   UNL     1       1.321  10.008  -5.277  1.00  0.00    -0.014 A 
ATOM     65  C   UNL     1       2.063  10.607  -4.247  1.00  0.00     0.009 A 
ATOM     66  C   UNL     1       0.123  10.614  -5.689  1.00  0.00     0.009 A 
ATOM     67  C   UNL     1       1.597  11.766  -3.620  1.00  0.00     0.001 A 
ATOM     68  C   UNL     1      -0.324  11.789  -5.083  1.00  0.00     0.001 A 
ATOM     69  C   UNL     1       0.407  12.358  -4.042  1.00  0.00     0.000 A 
ENDBRANCH  50  64
BRANCH  51  70
ATOM     70  C   UNL     1       4.229   1.406  -9.464  1.00  0.00    -0.014 A 
ATOM     71  C   UNL     1       5.545   1.219  -9.915  1.00  0.00     0.009 A 
ATOM     72  C   UNL     1       3.298   0.371  -9.644  1.00  0.00     0.009 A 
ATOM     73  C   UNL     1       5.911   0.034 -10.556  1.00  0.00     0.001 A 
ATOM     74  C   UNL     1       3.676  -0.826 -10.256  1.00  0.00     0.001 A 
ATOM     75  C   UNL     1       4.979  -0.990 -10.721  1.00  0.00     0.000 A 
ENDBRANCH  51  70
BRANCH  63  76
ATOM     76  C   UNL     1       3.617   7.942 -11.800  1.00  0.00    -0.014 A 
ATOM     77  C   UNL     1       2.804   7.696 -12.917  1.00  0.00     0.009 A 
ATOM     78  C   UNL     1       4.696   8.831 -11.929  1.00  0.00     0.009 A 
ATOM     79  C   UNL     1       3.088   8.299 -14.145  1.00  0.00     0.001 A 
ATOM     80  C   UNL     1       4.958   9.459 -13.147  1.00  0.00     0.001 A 
ATOM     81  C   UNL     1       4.161   9.184 -14.257  1.00  0.00     0.000 A 
ENDBRANCH  63  76
ENDBRANCH  37  38
ENDBRANCH  30  32
ENDBRANCH  29  30
ENDBRANCH  28  29
ENDBRANCH  27  28
ENDBRANCH   1  27
TORSDOF 18
