REMARK SMILES CCN(CC)c1ccc([C@@H]2c3[nH]c4ccccc4c3C[C@@H](C(=O)OCCOCCOC(=O)c3ccc(-c4c5nc(c(-c6ccccc6)c6ccc([nH]6)c(-c6ccccc6)c6nc(c(-c7ccccc7)c7ccc4[nH]7)C=C6)C=C5)cc3)N2C(C)=O)cc1
REMARK SMILES IDX 26 1 25 2 24 3 22 4 23 5 21 6 10 7 11 8 81 9 12 10 19 11
REMARK SMILES IDX 13 12 18 14 20 15 14 16 17 17 15 18 16 19 9 20 6 21 7 22
REMARK SMILES IDX 86 23 8 24 85 25 3 26 2 27 1 28 4 29 5 30 82 31 83 32 84 33
REMARK SMILES IDX 27 34 28 35 29 36 30 37 31 38 32 39 33 40 34 41 80 42 35 43
REMARK SMILES IDX 79 44 36 45 37 46 38 47 73 48 39 49 78 50 72 51 74 52 40 53
REMARK SMILES IDX 77 54 71 55 70 56 41 58 63 59 48 60 62 61 49 62 52 63 61 64
REMARK SMILES IDX 75 65 50 66 51 67 60 69 76 70 53 71 42 72 43 73 47 74 44 75
REMARK SMILES IDX 46 76 45 77 64 78 65 79 69 80 66 81 68 82 67 83 54 84 55 85
REMARK SMILES IDX 59 86 56 87 58 88 57 89
REMARK H PARENT 12 13 74 57 52 68
REMARK Flexibility Score: inf
ROOT
ATOM      1  C   UNL     1       6.937   5.008   1.134  1.00  0.00     0.202 C 
ENDROOT
BRANCH   1   2
ATOM      2  C   UNL     1       8.358   4.474   0.836  1.00  0.00     0.261 C 
BRANCH   2   3
ATOM      3  O   UNL     1       8.525   4.003  -0.532  1.00  0.00    -0.462 OA
BRANCH   3   4
ATOM      4  C   UNL     1       8.675   2.697  -0.931  1.00  0.00     0.329 C 
ATOM      5  O   UNL     1       8.640   1.746  -0.162  1.00  0.00    -0.250 OA
BRANCH   4   6
ATOM      6  C   UNL     1       8.650   2.576  -2.549  1.00  0.00     0.200 C 
ATOM      7  C   UNL     1       6.251   2.942  -2.427  1.00  0.00     0.163 C 
ATOM      8  C   UNL     1       6.597   4.400  -2.670  1.00  0.00     0.047 A 
ATOM      9  N   UNL     1       7.289   2.241  -3.161  1.00  0.00    -0.316 N 
ATOM     10  N   UNL     1       5.733   5.441  -2.827  1.00  0.00    -0.356 N 
ATOM     11  C   UNL     1       7.858   4.855  -3.083  1.00  0.00    -0.014 A 
ATOM     12  C   UNL     1       6.245   6.226  -3.841  1.00  0.00     0.046 A 
ATOM     13  H   UNL     1       4.907   5.603  -2.318  1.00  0.00     0.166 HD
ATOM     14  C   UNL     1       7.613   5.967  -3.915  1.00  0.00     0.003 A 
ATOM     15  C   UNL     1       9.078   3.962  -3.094  1.00  0.00     0.075 C 
ATOM     16  C   UNL     1       5.588   7.027  -4.771  1.00  0.00     0.026 A 
ATOM     17  C   UNL     1       8.393   6.582  -4.905  1.00  0.00     0.010 A 
ATOM     18  C   UNL     1       6.356   7.514  -5.833  1.00  0.00     0.002 A 
ATOM     19  C   UNL     1       7.735   7.312  -5.893  1.00  0.00     0.001 A 
BRANCH   7  20
ATOM     20  C   UNL     1       4.858   2.370  -2.577  1.00  0.00    -0.019 A 
ATOM     21  C   UNL     1       2.155   1.506  -2.370  1.00  0.00     0.037 A 
ATOM     22  C   UNL     1       2.533   2.570  -3.192  1.00  0.00     0.026 A 
ATOM     23  C   UNL     1       3.195   0.758  -1.811  1.00  0.00     0.026 A 
ATOM     24  C   UNL     1       3.856   2.987  -3.309  1.00  0.00     0.008 A 
ATOM     25  C   UNL     1       4.529   1.174  -1.914  1.00  0.00     0.008 A 
BRANCH  21  26
ATOM     26  N   UNL     1       0.828   1.245  -2.058  1.00  0.00    -0.372 N 
BRANCH  26  27
ATOM     27  C   UNL     1       0.432   1.338  -0.641  1.00  0.00     0.113 C 
ATOM     28  C   UNL     1       0.587   0.019   0.104  1.00  0.00     0.027 C 
ENDBRANCH  26  27
BRANCH  26  29
ATOM     29  C   UNL     1      -0.240   1.329  -3.063  1.00  0.00     0.113 C 
ATOM     30  C   UNL     1      -0.614   2.752  -3.466  1.00  0.00     0.027 C 
ENDBRANCH  26  29
ENDBRANCH  21  26
ENDBRANCH   7  20
BRANCH   9  31
ATOM     31  C   UNL     1       7.044   2.268  -4.558  1.00  0.00     0.221 C 
ATOM     32  C   UNL     1       7.817   1.391  -5.483  1.00  0.00     0.114 C 
ATOM     33  O   UNL     1       6.189   2.987  -5.089  1.00  0.00    -0.275 OA
ENDBRANCH   9  31
ENDBRANCH   4   6
ENDBRANCH   3   4
ENDBRANCH   2   3
ENDBRANCH   1   2
BRANCH   1  34
ATOM     34  O   UNL     1       6.152   4.125   1.948  1.00  0.00    -0.374 OA
BRANCH  34  35
ATOM     35  C   UNL     1       5.497   3.088   1.222  1.00  0.00     0.202 C 
BRANCH  35  36
ATOM     36  C   UNL     1       4.075   3.461   0.792  1.00  0.00     0.261 C 
BRANCH  36  37
ATOM     37  O   UNL     1       4.055   4.640  -0.035  1.00  0.00    -0.460 OA
BRANCH  37  38
ATOM     38  C   UNL     1       3.061   5.503   0.266  1.00  0.00     0.338 C 
ATOM     39  O   UNL     1       2.144   5.344   1.067  1.00  0.00    -0.246 OA
BRANCH  38  40
ATOM     40  C   UNL     1       3.272   6.783  -0.417  1.00  0.00     0.060 A 
ATOM     41  C   UNL     1       3.714   7.861   0.353  1.00  0.00     0.016 A 
ATOM     42  C   UNL     1       2.904   6.964  -1.753  1.00  0.00     0.016 A 
ATOM     43  C   UNL     1       3.745   9.139  -0.200  1.00  0.00     0.010 A 
ATOM     44  C   UNL     1       2.975   8.244  -2.317  1.00  0.00     0.010 A 
ATOM     45  C   UNL     1       3.354   9.348  -1.532  1.00  0.00    -0.014 A 
BRANCH  45  46
ATOM     46  C   UNL     1       3.236  10.735  -2.054  1.00  0.00     0.031 A 
ATOM     47  C   UNL     1       1.873  11.338  -2.275  1.00  0.00     0.074 A 
ATOM     48  C   UNL     1       4.337  11.477  -2.277  1.00  0.00     0.049 A 
ATOM     49  N   UNL     1       1.555  12.533  -2.709  1.00  0.00    -0.248 NA
ATOM     50  C   UNL     1       0.715  10.484  -1.968  1.00  0.00     0.031 C 
ATOM     51  C   UNL     1       5.714  11.029  -2.070  1.00  0.00     0.029 A 
ATOM     52  N   UNL     1       4.467  12.771  -2.719  1.00  0.00    -0.354 N 
ATOM     53  C   UNL     1       0.166  12.570  -2.733  1.00  0.00     0.074 A 
ATOM     54  C   UNL     1      -0.299  11.269  -2.306  1.00  0.00     0.031 C 
ATOM     55  C   UNL     1       6.550  12.037  -2.369  1.00  0.00     0.029 A 
ATOM     56  C   UNL     1       5.772  13.183  -2.835  1.00  0.00     0.049 A 
ATOM     57  H   UNL     1       3.698  13.347  -2.933  1.00  0.00     0.167 HD
ATOM     58  C   UNL     1      -0.652  13.597  -3.072  1.00  0.00     0.031 A 
ATOM     59  C   UNL     1       6.286  14.343  -3.288  1.00  0.00     0.031 A 
ATOM     60  C   UNL     1      -0.194  14.891  -3.506  1.00  0.00     0.049 A 
ATOM     61  C   UNL     1       5.357  15.436  -3.745  1.00  0.00     0.074 A 
ATOM     62  C   UNL     1      -0.948  16.001  -3.847  1.00  0.00     0.029 A 
ATOM     63  N   UNL     1       1.135  15.245  -3.670  1.00  0.00    -0.354 N 
ATOM     64  N   UNL     1       4.046  15.469  -3.729  1.00  0.00    -0.248 NA
ATOM     65  C   UNL     1       5.982  16.654  -4.283  1.00  0.00     0.031 C 
ATOM     66  C   UNL     1      -0.077  17.004  -4.285  1.00  0.00     0.029 A 
ATOM     67  C   UNL     1       1.223  16.542  -4.149  1.00  0.00     0.049 A 
ATOM     68  H   UNL     1       1.904  14.662  -3.475  1.00  0.00     0.167 HD
ATOM     69  C   UNL     1       3.691  16.713  -4.235  1.00  0.00     0.074 A 
ATOM     70  C   UNL     1       4.924  17.416  -4.525  1.00  0.00     0.031 C 
ATOM     71  C   UNL     1       2.454  17.228  -4.445  1.00  0.00     0.031 A 
BRANCH  58  72
ATOM     72  C   UNL     1      -2.136  13.350  -3.024  1.00  0.00    -0.014 A 
ATOM     73  C   UNL     1      -2.816  13.202  -1.805  1.00  0.00     0.009 A 
ATOM     74  C   UNL     1      -2.872  13.310  -4.219  1.00  0.00     0.009 A 
ATOM     75  C   UNL     1      -4.196  12.985  -1.786  1.00  0.00     0.001 A 
ATOM     76  C   UNL     1      -4.255  13.124  -4.197  1.00  0.00     0.001 A 
ATOM     77  C   UNL     1      -4.915  12.952  -2.981  1.00  0.00     0.000 A 
ENDBRANCH  58  72
BRANCH  59  78
ATOM     78  C   UNL     1       7.760  14.523  -3.368  1.00  0.00    -0.014 A 
ATOM     79  C   UNL     1       8.418  15.456  -2.553  1.00  0.00     0.009 A 
ATOM     80  C   UNL     1       8.516  13.772  -4.283  1.00  0.00     0.009 A 
ATOM     81  C   UNL     1       9.797  15.650  -2.669  1.00  0.00     0.001 A 
ATOM     82  C   UNL     1       9.899  13.944  -4.374  1.00  0.00     0.001 A 
ATOM     83  C   UNL     1      10.536  14.890  -3.575  1.00  0.00     0.000 A 
ENDBRANCH  59  78
BRANCH  71  84
ATOM     84  C   UNL     1       2.372  18.625  -4.997  1.00  0.00    -0.014 A 
ATOM     85  C   UNL     1       2.724  18.905  -6.326  1.00  0.00     0.009 A 
ATOM     86  C   UNL     1       1.898  19.669  -4.186  1.00  0.00     0.009 A 
ATOM     87  C   UNL     1       2.636  20.209  -6.821  1.00  0.00     0.001 A 
ATOM     88  C   UNL     1       1.780  20.964  -4.693  1.00  0.00     0.001 A 
ATOM     89  C   UNL     1       2.159  21.235  -6.007  1.00  0.00     0.000 A 
ENDBRANCH  71  84
ENDBRANCH  45  46
ENDBRANCH  38  40
ENDBRANCH  37  38
ENDBRANCH  36  37
ENDBRANCH  35  36
ENDBRANCH  34  35
ENDBRANCH   1  34
TORSDOF 19
