REMARK SMILES CC[C@H](C)[C@@H](NC(=O)c1csc(NC(C)=O)n1)C(=O)OCCOCCOC(=O)c1ccc(-c2c3nc(c(-c4ccccc4)c4ccc([nH]4)c(-c4ccccc4)c4nc(c(-c5ccccc5)c5ccc2[nH]5)C=C4)C=C3)cc1
REMARK SMILES IDX 22 1 21 2 20 3 18 4 19 5 5 6 3 7 4 8 2 9 1 10 6 11 7 12 8 14
REMARK SMILES IDX 9 15 10 16 17 17 11 18 12 19 13 20 14 21 15 23 16 24 23 25
REMARK SMILES IDX 24 26 25 27 26 28 27 29 28 30 29 31 30 32 76 33 31 34 75 35
REMARK SMILES IDX 32 36 33 37 34 38 69 39 35 40 74 41 68 42 70 43 36 44 73 45
REMARK SMILES IDX 67 46 66 47 37 49 59 50 44 51 58 52 45 53 48 54 57 55 71 56
REMARK SMILES IDX 46 57 47 58 56 60 72 61 49 62 38 63 39 64 43 65 40 66 42 67
REMARK SMILES IDX 41 68 60 69 61 70 65 71 62 72 64 73 63 74 50 75 51 76 55 77
REMARK SMILES IDX 52 78 54 79 53 80
REMARK H PARENT 6 13 13 22 70 48 48 59
REMARK Flexibility Score: inf
ROOT
ATOM      1  C   UNL     1       2.152   7.051  -0.704  1.00  0.00     0.202 C 
ENDROOT
BRANCH   1   2
ATOM      2  C   UNL     1       2.696   6.054   0.338  1.00  0.00     0.261 C 
BRANCH   2   3
ATOM      3  O   UNL     1       2.092   4.778   0.565  1.00  0.00    -0.462 OA
BRANCH   3   4
ATOM      4  C   UNL     1       0.904   4.773   1.231  1.00  0.00     0.329 C 
ATOM      5  O   UNL     1       0.087   5.688   1.206  1.00  0.00    -0.250 OA
BRANCH   4   6
ATOM      6  C   UNL     1       0.694   3.471   2.036  1.00  0.00     0.195 C 
BRANCH   6   7
ATOM      7  C   UNL     1       0.976   2.210   1.130  1.00  0.00     0.019 C 
ATOM      8  C   UNL     1       0.594   0.886   1.818  1.00  0.00     0.010 C 
BRANCH   7   9
ATOM      9  C   UNL     1       0.271   2.228  -0.247  1.00  0.00     0.002 C 
ATOM     10  C   UNL     1       1.200   1.739  -1.356  1.00  0.00     0.004 C 
ENDBRANCH   7   9
ENDBRANCH   6   7
BRANCH   6  11
ATOM     11  N   UNL     1       1.514   3.336   3.272  1.00  0.00    -0.337 N 
ATOM     12  C   UNL     1       1.970   4.162   4.266  1.00  0.00     0.271 C 
ATOM     13  H   UNL     1       1.805   2.406   3.412  1.00  0.00     0.164 HD
ATOM     14  O   UNL     1       2.428   3.608   5.268  1.00  0.00    -0.267 OA
BRANCH  12  15
ATOM     15  C   UNL     1       2.072   5.606   4.097  1.00  0.00     0.141 A 
ATOM     16  C   UNL     1       3.170   6.329   4.540  1.00  0.00     0.102 A 
ATOM     17  N   UNL     1       1.099   6.387   3.503  1.00  0.00    -0.215 NA
ATOM     18  S   UNL     1       3.028   7.970   4.068  1.00  0.00    -0.104 S 
ATOM     19  C   UNL     1       1.554   7.603   3.303  1.00  0.00     0.190 A 
BRANCH  19  20
ATOM     20  N   UNL     1       0.915   8.448   2.430  1.00  0.00    -0.302 N 
ATOM     21  C   UNL     1       1.427   9.600   1.877  1.00  0.00     0.223 C 
ATOM     22  H   UNL     1      -0.003   8.206   2.173  1.00  0.00     0.172 HD
ATOM     23  C   UNL     1       0.533  10.192   0.813  1.00  0.00     0.114 C 
ATOM     24  O   UNL     1       2.516  10.113   2.113  1.00  0.00    -0.275 OA
ENDBRANCH  19  20
ENDBRANCH  12  15
ENDBRANCH   6  11
ENDBRANCH   4   6
ENDBRANCH   3   4
ENDBRANCH   2   3
ENDBRANCH   1   2
BRANCH   1  25
ATOM     25  O   UNL     1       0.826   6.979  -1.187  1.00  0.00    -0.374 OA
BRANCH  25  26
ATOM     26  C   UNL     1       0.448   5.817  -1.919  1.00  0.00     0.202 C 
BRANCH  26  27
ATOM     27  C   UNL     1       1.307   5.410  -3.118  1.00  0.00     0.261 C 
BRANCH  27  28
ATOM     28  O   UNL     1       2.638   5.038  -2.711  1.00  0.00    -0.460 OA
BRANCH  28  29
ATOM     29  C   UNL     1       3.623   5.647  -3.416  1.00  0.00     0.338 C 
ATOM     30  O   UNL     1       3.499   6.340  -4.410  1.00  0.00    -0.246 OA
BRANCH  29  31
ATOM     31  C   UNL     1       4.905   5.538  -2.699  1.00  0.00     0.060 A 
ATOM     32  C   UNL     1       5.525   6.732  -2.303  1.00  0.00     0.016 A 
ATOM     33  C   UNL     1       5.551   4.312  -2.542  1.00  0.00     0.016 A 
ATOM     34  C   UNL     1       6.831   6.713  -1.823  1.00  0.00     0.010 A 
ATOM     35  C   UNL     1       6.872   4.297  -2.080  1.00  0.00     0.010 A 
ATOM     36  C   UNL     1       7.532   5.503  -1.777  1.00  0.00    -0.014 A 
BRANCH  36  37
ATOM     37  C   UNL     1       9.010   5.542  -1.664  1.00  0.00     0.031 A 
ATOM     38  C   UNL     1       9.821   5.528  -2.933  1.00  0.00     0.074 A 
ATOM     39  C   UNL     1       9.621   5.654  -0.473  1.00  0.00     0.049 A 
ATOM     40  N   UNL     1      11.120   5.554  -3.090  1.00  0.00    -0.248 NA
ATOM     41  C   UNL     1       9.063   5.484  -4.196  1.00  0.00     0.031 C 
ATOM     42  C   UNL     1       8.949   5.746   0.821  1.00  0.00     0.029 A 
ATOM     43  N   UNL     1      10.957   5.712  -0.167  1.00  0.00    -0.354 N 
ATOM     44  C   UNL     1      11.333   5.524  -4.463  1.00  0.00     0.074 A 
ATOM     45  C   UNL     1      10.034   5.451  -5.095  1.00  0.00     0.031 C 
ATOM     46  C   UNL     1       9.880   5.842   1.787  1.00  0.00     0.029 A 
ATOM     47  C   UNL     1      11.209   5.790   1.180  1.00  0.00     0.049 A 
ATOM     48  H   UNL     1      11.668   5.699  -0.848  1.00  0.00     0.167 HD
ATOM     49  C   UNL     1      12.504   5.560  -5.142  1.00  0.00     0.031 A 
ATOM     50  C   UNL     1      12.380   5.800   1.845  1.00  0.00     0.031 A 
ATOM     51  C   UNL     1      13.797   5.621  -4.519  1.00  0.00     0.049 A 
ATOM     52  C   UNL     1      13.672   5.750   1.072  1.00  0.00     0.074 A 
ATOM     53  C   UNL     1      15.043   5.662  -5.119  1.00  0.00     0.029 A 
ATOM     54  N   UNL     1      14.009   5.643  -3.150  1.00  0.00    -0.354 N 
ATOM     55  N   UNL     1      13.860   5.731  -0.225  1.00  0.00    -0.248 NA
ATOM     56  C   UNL     1      14.914   5.730   1.860  1.00  0.00     0.031 C 
ATOM     57  C   UNL     1      16.012   5.659  -4.110  1.00  0.00     0.029 A 
ATOM     58  C   UNL     1      15.367   5.670  -2.884  1.00  0.00     0.049 A 
ATOM     59  H   UNL     1      13.299   5.640  -2.467  1.00  0.00     0.167 HD
ATOM     60  C   UNL     1      15.238   5.724  -0.409  1.00  0.00     0.074 A 
ATOM     61  C   UNL     1      15.837   5.753   0.908  1.00  0.00     0.031 C 
ATOM     62  C   UNL     1      15.944   5.698  -1.566  1.00  0.00     0.031 A 
BRANCH  49  63
ATOM     63  C   UNL     1      12.433   5.494  -6.641  1.00  0.00    -0.014 A 
ATOM     64  C   UNL     1      11.991   6.589  -7.399  1.00  0.00     0.009 A 
ATOM     65  C   UNL     1      12.837   4.325  -7.304  1.00  0.00     0.009 A 
ATOM     66  C   UNL     1      11.925   6.502  -8.792  1.00  0.00     0.001 A 
ATOM     67  C   UNL     1      12.794   4.250  -8.697  1.00  0.00     0.001 A 
ATOM     68  C   UNL     1      12.330   5.335  -9.439  1.00  0.00     0.000 A 
ENDBRANCH  49  63
BRANCH  50  69
ATOM     69  C   UNL     1      12.392   5.832   3.331  1.00  0.00    -0.014 A 
ATOM     70  C   UNL     1      12.836   6.970   4.021  1.00  0.00     0.009 A 
ATOM     71  C   UNL     1      11.979   4.710   4.066  1.00  0.00     0.009 A 
ATOM     72  C   UNL     1      12.888   6.974   5.418  1.00  0.00     0.001 A 
ATOM     73  C   UNL     1      12.006   4.727   5.462  1.00  0.00     0.001 A 
ATOM     74  C   UNL     1      12.469   5.855   6.136  1.00  0.00     0.000 A 
ENDBRANCH  50  69
BRANCH  62  75
ATOM     75  C   UNL     1      17.442   5.734  -1.460  1.00  0.00    -0.014 A 
ATOM     76  C   UNL     1      18.170   4.611  -1.038  1.00  0.00     0.009 A 
ATOM     77  C   UNL     1      18.137   6.895  -1.835  1.00  0.00     0.009 A 
ATOM     78  C   UNL     1      19.564   4.662  -0.964  1.00  0.00     0.001 A 
ATOM     79  C   UNL     1      19.531   6.934  -1.786  1.00  0.00     0.001 A 
ATOM     80  C   UNL     1      20.242   5.820  -1.342  1.00  0.00     0.000 A 
ENDBRANCH  62  75
ENDBRANCH  36  37
ENDBRANCH  29  31
ENDBRANCH  28  29
ENDBRANCH  27  28
ENDBRANCH  26  27
ENDBRANCH  25  26
ENDBRANCH   1  25
TORSDOF 19
