REMARK SMILES Cc1cc(=O)oc2cc(O[C@@H](C)C(=O)N[C@H](CC(C)C)C(=O)OCCOCCOC(=O)c3ccc(-c4c5nc(c(-c6ccccc6)c6ccc([nH]6)c(-c6ccccc6)c6nc(c(-c7ccccc7)c7ccc4[nH]7)C=C6)C=C5)cc3)ccc12
REMARK SMILES IDX 25 1 24 2 23 3 21 4 22 5 16 6 15 7 13 8 14 9 11 11 12 12
REMARK SMILES IDX 10 13 9 14 1 15 2 16 3 17 82 18 4 19 7 20 81 21 5 22 6 23
REMARK SMILES IDX 8 24 80 25 17 26 18 27 19 28 20 29 26 30 27 31 28 32 29 33
REMARK SMILES IDX 30 34 31 35 32 36 33 37 79 38 34 39 78 40 35 41 36 42 37 43
REMARK SMILES IDX 72 44 38 45 77 46 71 47 73 48 39 49 76 50 70 51 69 52 40 54
REMARK SMILES IDX 62 55 47 56 61 57 48 58 51 59 60 60 74 61 49 62 50 63 59 65
REMARK SMILES IDX 75 66 52 67 41 68 42 69 46 70 43 71 45 72 44 73 63 74 64 75
REMARK SMILES IDX 68 76 65 77 67 78 66 79 53 80 54 81 58 82 55 83 57 84 56 85
REMARK H PARENT 15 10 73 53 51 64
REMARK Flexibility Score: inf
ROOT
ATOM      1  C   UNL     1      -3.254   4.064  -0.368  1.00  0.00     0.202 C 
ENDROOT
BRANCH   1   2
ATOM      2  C   UNL     1      -2.795   2.690   0.349  1.00  0.00     0.261 C 
BRANCH   2   3
ATOM      3  O   UNL     1      -1.730   2.697   1.451  1.00  0.00    -0.462 OA
BRANCH   3   4
ATOM      4  C   UNL     1      -0.365   2.527   1.488  1.00  0.00     0.328 C 
ATOM      5  O   UNL     1       0.431   3.464   1.607  1.00  0.00    -0.250 OA
BRANCH   4   6
ATOM      6  C   UNL     1       0.263   1.261   1.984  1.00  0.00     0.192 C 
BRANCH   6   7
ATOM      7  N   UNL     1      -0.558   0.172   1.564  1.00  0.00    -0.339 N 
ATOM      8  C   UNL     1      -0.598  -0.178   0.223  1.00  0.00     0.261 C 
ATOM      9  O   UNL     1      -0.883  -1.365   0.002  1.00  0.00    -0.271 OA
ATOM     10  H   UNL     1      -1.092  -0.328   2.223  1.00  0.00     0.164 HD
BRANCH   8  11
ATOM     11  C   UNL     1      -0.389   0.886  -1.083  1.00  0.00     0.258 C 
ATOM     12  C   UNL     1       0.378   0.169  -2.196  1.00  0.00     0.064 C 
BRANCH  11  13
ATOM     13  O   UNL     1      -0.439   2.286  -1.415  1.00  0.00    -0.481 OA
BRANCH  13  14
ATOM     14  C   UNL     1       0.403   3.326  -1.171  1.00  0.00     0.124 A 
ATOM     15  C   UNL     1       1.757   7.750   1.358  1.00  0.00     0.045 C 
ATOM     16  C   UNL     1       2.505   6.635   0.664  1.00  0.00    -0.033 A 
ATOM     17  C   UNL     1       3.828   6.466   0.712  1.00  0.00     0.098 A 
ATOM     18  C   UNL     1       1.783   5.609  -0.073  1.00  0.00     0.021 A 
ATOM     19  C   UNL     1       4.509   5.345   0.029  1.00  0.00     0.336 A 
ATOM     20  C   UNL     1       2.403   4.624  -0.859  1.00  0.00     0.142 A 
ATOM     21  C   UNL     1       0.448   5.490   0.093  1.00  0.00     0.016 A 
ATOM     22  O   UNL     1       5.681   5.095   0.285  1.00  0.00    -0.246 OA
ATOM     23  O   UNL     1       3.806   4.637  -0.939  1.00  0.00    -0.423 OA
ATOM     24  C   UNL     1       1.730   3.506  -1.453  1.00  0.00     0.094 A 
ATOM     25  C   UNL     1      -0.182   4.406  -0.504  1.00  0.00     0.047 A 
ENDBRANCH  13  14
ENDBRANCH  11  13
ENDBRANCH   8  11
ENDBRANCH   6   7
BRANCH   6  26
ATOM     26  C   UNL     1       0.595   1.685   3.480  1.00  0.00     0.040 C 
BRANCH  26  27
ATOM     27  C   UNL     1       2.107   1.815   3.929  1.00  0.00    -0.015 C 
ATOM     28  C   UNL     1       3.191   1.445   2.914  1.00  0.00     0.007 C 
ATOM     29  C   UNL     1       2.472   3.230   4.455  1.00  0.00     0.007 C 
ENDBRANCH  26  27
ENDBRANCH   6  26
ENDBRANCH   4   6
ENDBRANCH   3   4
ENDBRANCH   2   3
ENDBRANCH   1   2
BRANCH   1  30
ATOM     30  O   UNL     1      -2.723   4.253  -1.694  1.00  0.00    -0.374 OA
BRANCH  30  31
ATOM     31  C   UNL     1      -2.196   5.476  -2.267  1.00  0.00     0.202 C 
BRANCH  31  32
ATOM     32  C   UNL     1      -1.802   6.804  -1.556  1.00  0.00     0.261 C 
BRANCH  32  33
ATOM     33  O   UNL     1      -2.123   6.880  -0.173  1.00  0.00    -0.460 OA
BRANCH  33  34
ATOM     34  C   UNL     1      -3.233   7.597   0.095  1.00  0.00     0.338 C 
ATOM     35  O   UNL     1      -3.879   8.267  -0.668  1.00  0.00    -0.246 OA
BRANCH  34  36
ATOM     36  C   UNL     1      -3.698   7.221   1.442  1.00  0.00     0.060 A 
ATOM     37  C   UNL     1      -5.013   6.763   1.491  1.00  0.00     0.016 A 
ATOM     38  C   UNL     1      -2.929   7.347   2.604  1.00  0.00     0.016 A 
ATOM     39  C   UNL     1      -5.618   6.561   2.717  1.00  0.00     0.010 A 
ATOM     40  C   UNL     1      -3.540   7.125   3.844  1.00  0.00     0.010 A 
ATOM     41  C   UNL     1      -4.909   6.807   3.901  1.00  0.00    -0.014 A 
BRANCH  41  42
ATOM     42  C   UNL     1      -5.710   6.925   5.144  1.00  0.00     0.031 A 
ATOM     43  C   UNL     1      -6.021   8.297   5.682  1.00  0.00     0.074 A 
ATOM     44  C   UNL     1      -6.321   5.842   5.657  1.00  0.00     0.049 A 
ATOM     45  N   UNL     1      -6.858   8.645   6.627  1.00  0.00    -0.248 NA
ATOM     46  C   UNL     1      -5.311   9.430   5.065  1.00  0.00     0.031 C 
ATOM     47  C   UNL     1      -6.157   4.471   5.171  1.00  0.00     0.029 A 
ATOM     48  N   UNL     1      -7.245   5.736   6.664  1.00  0.00    -0.354 N 
ATOM     49  C   UNL     1      -6.777  10.030   6.712  1.00  0.00     0.074 A 
ATOM     50  C   UNL     1      -5.778  10.457   5.759  1.00  0.00     0.031 C 
ATOM     51  C   UNL     1      -6.989   3.667   5.853  1.00  0.00     0.029 A 
ATOM     52  C   UNL     1      -7.711   4.457   6.847  1.00  0.00     0.049 A 
ATOM     53  H   UNL     1      -7.546   6.502   7.203  1.00  0.00     0.167 HD
ATOM     54  C   UNL     1      -7.483  10.876   7.499  1.00  0.00     0.031 A 
ATOM     55  C   UNL     1      -8.619   3.977   7.718  1.00  0.00     0.031 A 
ATOM     56  C   UNL     1      -8.472  10.454   8.454  1.00  0.00     0.049 A 
ATOM     57  C   UNL     1      -9.316   4.928   8.652  1.00  0.00     0.074 A 
ATOM     58  C   UNL     1      -9.236  11.233   9.304  1.00  0.00     0.029 A 
ATOM     59  N   UNL     1      -8.832   9.136   8.687  1.00  0.00    -0.354 N 
ATOM     60  N   UNL     1      -9.234   6.235   8.716  1.00  0.00    -0.248 NA
ATOM     61  C   UNL     1     -10.241   4.335   9.628  1.00  0.00     0.031 C 
ATOM     62  C   UNL     1     -10.008  10.382  10.100  1.00  0.00     0.029 A 
ATOM     63  C   UNL     1      -9.783   9.077   9.692  1.00  0.00     0.049 A 
ATOM     64  H   UNL     1      -8.466   8.357   8.209  1.00  0.00     0.167 HD
ATOM     65  C   UNL     1     -10.115   6.622   9.720  1.00  0.00     0.074 A 
ATOM     66  C   UNL     1     -10.735   5.412  10.220  1.00  0.00     0.031 C 
ATOM     67  C   UNL     1     -10.387   7.866  10.184  1.00  0.00     0.031 A 
BRANCH  54  68
ATOM     68  C   UNL     1      -7.178  12.345   7.386  1.00  0.00    -0.014 A 
ATOM     69  C   UNL     1      -7.536  13.084   6.247  1.00  0.00     0.009 A 
ATOM     70  C   UNL     1      -6.549  13.005   8.453  1.00  0.00     0.009 A 
ATOM     71  C   UNL     1      -7.239  14.447   6.167  1.00  0.00     0.001 A 
ATOM     72  C   UNL     1      -6.283  14.374   8.383  1.00  0.00     0.001 A 
ATOM     73  C   UNL     1      -6.619  15.091   7.237  1.00  0.00     0.000 A 
ENDBRANCH  54  68
BRANCH  55  74
ATOM     74  C   UNL     1      -8.907   2.519   7.763  1.00  0.00    -0.014 A 
ATOM     75  C   UNL     1     -10.167   2.017   7.404  1.00  0.00     0.009 A 
ATOM     76  C   UNL     1      -7.917   1.620   8.193  1.00  0.00     0.009 A 
ATOM     77  C   UNL     1     -10.436   0.649   7.501  1.00  0.00     0.001 A 
ATOM     78  C   UNL     1      -8.178   0.251   8.256  1.00  0.00     0.001 A 
ATOM     79  C   UNL     1      -9.441  -0.233   7.921  1.00  0.00     0.000 A 
ENDBRANCH  55  74
BRANCH  67  80
ATOM     80  C   UNL     1     -11.426   7.988  11.266  1.00  0.00    -0.014 A 
ATOM     81  C   UNL     1     -11.184   7.530  12.570  1.00  0.00     0.009 A 
ATOM     82  C   UNL     1     -12.654   8.607  10.981  1.00  0.00     0.009 A 
ATOM     83  C   UNL     1     -12.165   7.654  13.556  1.00  0.00     0.001 A 
ATOM     84  C   UNL     1     -13.619   8.761  11.977  1.00  0.00     0.001 A 
ATOM     85  C   UNL     1     -13.379   8.274  13.260  1.00  0.00     0.000 A 
ENDBRANCH  67  80
ENDBRANCH  41  42
ENDBRANCH  34  36
ENDBRANCH  33  34
ENDBRANCH  32  33
ENDBRANCH  31  32
ENDBRANCH  30  31
ENDBRANCH   1  30
TORSDOF 20
