REMARK SMILES COc1ccc2cc([C@@H](O)[C@H](F)C(=O)OCCOCCOC(=O)c3ccc(-c4c5nc(c(-c6ccccc6)c6ccc([nH]6)c(-c6ccccc6)c6nc(c(-c7ccccc7)c7ccc4[nH]7)C=C6)C=C5)cc3)ccc2c1
REMARK SMILES IDX 17 1 16 2 15 3 13 4 14 5 11 6 12 7 9 8 8 9 3 10 4 11 75 12
REMARK SMILES IDX 5 13 74 14 6 15 73 16 7 17 72 18 2 19 1 20 10 21 18 23 19 24
REMARK SMILES IDX 20 25 21 26 22 27 23 28 24 29 25 30 71 31 26 32 70 33 27 34
REMARK SMILES IDX 28 35 29 36 64 37 30 38 69 39 63 40 65 41 31 42 68 43 62 44
REMARK SMILES IDX 61 45 32 47 54 48 39 49 53 50 40 51 43 52 52 53 66 54 41 55
REMARK SMILES IDX 42 56 51 58 67 59 44 60 33 61 34 62 38 63 35 64 37 65 36 66
REMARK SMILES IDX 55 67 56 68 60 69 57 70 59 71 58 72 45 73 46 74 50 75 47 76
REMARK SMILES IDX 49 77 48 78
REMARK H PARENT 10 22 65 46 43 57
REMARK Flexibility Score: inf
ROOT
ATOM      1  C   UNL     1       3.249  10.473  -8.339  1.00  0.00     0.202 C 
ENDROOT
BRANCH   1   2
ATOM      2  C   UNL     1       3.329   9.179  -9.156  1.00  0.00     0.261 C 
BRANCH   2   3
ATOM      3  O   UNL     1       2.595   8.150  -8.478  1.00  0.00    -0.461 OA
BRANCH   3   4
ATOM      4  C   UNL     1       3.260   7.001  -8.166  1.00  0.00     0.343 C 
ATOM      5  O   UNL     1       4.371   6.685  -8.570  1.00  0.00    -0.249 OA
BRANCH   4   6
ATOM      6  C   UNL     1       2.442   6.186  -7.187  1.00  0.00     0.308 C 
ATOM      7  F   UNL     1       1.598   6.989  -6.463  1.00  0.00    -0.232 F 
BRANCH   6   8
ATOM      8  C   UNL     1       1.663   5.077  -7.911  1.00  0.00     0.190 C 
BRANCH   8   9
ATOM      9  C   UNL     1       0.390   4.661  -7.199  1.00  0.00    -0.015 A 
ATOM     10  C   UNL     1      -4.351   4.452  -5.379  1.00  0.00     0.119 A 
ATOM     11  C   UNL     1      -4.172   5.754  -5.841  1.00  0.00     0.047 A 
ATOM     12  C   UNL     1      -3.290   3.544  -5.437  1.00  0.00     0.055 A 
ATOM     13  C   UNL     1      -2.950   6.132  -6.398  1.00  0.00     0.012 A 
ATOM     14  C   UNL     1      -2.057   3.905  -6.002  1.00  0.00    -0.015 A 
ATOM     15  C   UNL     1      -1.894   5.214  -6.498  1.00  0.00    -0.018 A 
ATOM     16  C   UNL     1      -0.986   2.998  -6.098  1.00  0.00     0.009 A 
ATOM     17  C   UNL     1      -0.678   5.572  -7.092  1.00  0.00     0.015 A 
ATOM     18  C   UNL     1       0.225   3.371  -6.690  1.00  0.00     0.007 A 
BRANCH  10  19
ATOM     19  O   UNL     1      -5.506   3.971  -4.824  1.00  0.00    -0.497 OA
ATOM     20  C   UNL     1      -6.705   4.570  -5.309  1.00  0.00     0.278 C 
ENDBRANCH  10  19
ENDBRANCH   8   9
BRANCH   8  21
ATOM     21  O   UNL     1       1.300   5.443  -9.250  1.00  0.00    -0.385 OA
ATOM     22  H   UNL     1       0.679   6.188  -9.225  1.00  0.00     0.211 HD
ENDBRANCH   8  21
ENDBRANCH   6   8
ENDBRANCH   4   6
ENDBRANCH   3   4
ENDBRANCH   2   3
ENDBRANCH   1   2
BRANCH   1  23
ATOM     23  O   UNL     1       4.022  10.472  -7.136  1.00  0.00    -0.374 OA
BRANCH  23  24
ATOM     24  C   UNL     1       3.465   9.794  -6.009  1.00  0.00     0.202 C 
BRANCH  24  25
ATOM     25  C   UNL     1       2.446  10.594  -5.189  1.00  0.00     0.261 C 
BRANCH  25  26
ATOM     26  O   UNL     1       1.229  10.829  -5.920  1.00  0.00    -0.460 OA
BRANCH  26  27
ATOM     27  C   UNL     1       1.028  12.110  -6.299  1.00  0.00     0.338 C 
ATOM     28  O   UNL     1       1.724  13.085  -6.037  1.00  0.00    -0.246 OA
BRANCH  27  29
ATOM     29  C   UNL     1      -0.104  12.185  -7.237  1.00  0.00     0.060 A 
ATOM     30  C   UNL     1       0.111  12.827  -8.462  1.00  0.00     0.016 A 
ATOM     31  C   UNL     1      -1.374  11.710  -6.896  1.00  0.00     0.016 A 
ATOM     32  C   UNL     1      -0.954  13.036  -9.335  1.00  0.00     0.010 A 
ATOM     33  C   UNL     1      -2.443  11.929  -7.770  1.00  0.00     0.010 A 
ATOM     34  C   UNL     1      -2.243  12.621  -8.979  1.00  0.00    -0.014 A 
BRANCH  34  35
ATOM     35  C   UNL     1      -3.400  13.027  -9.811  1.00  0.00     0.031 A 
ATOM     36  C   UNL     1      -4.209  14.227  -9.406  1.00  0.00     0.074 A 
ATOM     37  C   UNL     1      -3.709  12.353 -10.931  1.00  0.00     0.049 A 
ATOM     38  N   UNL     1      -5.257  14.755  -9.987  1.00  0.00    -0.248 NA
ATOM     39  C   UNL     1      -3.780  14.926  -8.184  1.00  0.00     0.031 C 
ATOM     40  C   UNL     1      -2.974  11.204 -11.459  1.00  0.00     0.029 A 
ATOM     41  N   UNL     1      -4.728  12.545 -11.830  1.00  0.00    -0.354 N 
ATOM     42  C   UNL     1      -5.618  15.840  -9.198  1.00  0.00     0.074 A 
ATOM     43  C   UNL     1      -4.694  15.881  -8.085  1.00  0.00     0.031 C 
ATOM     44  C   UNL     1      -3.564  10.797 -12.595  1.00  0.00     0.029 A 
ATOM     45  C   UNL     1      -4.734  11.634 -12.856  1.00  0.00     0.049 A 
ATOM     46  H   UNL     1      -5.392  13.268 -11.746  1.00  0.00     0.167 HD
ATOM     47  C   UNL     1      -6.626  16.725  -9.384  1.00  0.00     0.031 A 
ATOM     48  C   UNL     1      -5.593  11.484 -13.882  1.00  0.00     0.031 A 
ATOM     49  C   UNL     1      -7.554  16.680 -10.482  1.00  0.00     0.049 A 
ATOM     50  C   UNL     1      -6.760  12.424 -14.015  1.00  0.00     0.074 A 
ATOM     51  C   UNL     1      -8.587  17.553 -10.775  1.00  0.00     0.029 A 
ATOM     52  N   UNL     1      -7.568  15.700 -11.461  1.00  0.00    -0.354 N 
ATOM     53  N   UNL     1      -7.071  13.466 -13.282  1.00  0.00    -0.248 NA
ATOM     54  C   UNL     1      -7.695  12.164 -15.120  1.00  0.00     0.031 C 
ATOM     55  C   UNL     1      -9.264  17.067 -11.900  1.00  0.00     0.029 A 
ATOM     56  C   UNL     1      -8.617  15.922 -12.338  1.00  0.00     0.049 A 
ATOM     57  H   UNL     1      -6.926  14.955 -11.525  1.00  0.00     0.167 HD
ATOM     58  C   UNL     1      -8.220  14.001 -13.851  1.00  0.00     0.074 A 
ATOM     59  C   UNL     1      -8.546  13.173 -14.994  1.00  0.00     0.031 C 
ATOM     60  C   UNL     1      -8.936  15.085 -13.465  1.00  0.00     0.031 A 
BRANCH  47  61
ATOM     61  C   UNL     1      -6.802  17.792  -8.341  1.00  0.00    -0.014 A 
ATOM     62  C   UNL     1      -5.901  18.863  -8.230  1.00  0.00     0.009 A 
ATOM     63  C   UNL     1      -7.895  17.729  -7.463  1.00  0.00     0.009 A 
ATOM     64  C   UNL     1      -6.071  19.827  -7.233  1.00  0.00     0.001 A 
ATOM     65  C   UNL     1      -8.076  18.708  -6.485  1.00  0.00     0.001 A 
ATOM     66  C   UNL     1      -7.158  19.750  -6.364  1.00  0.00     0.000 A 
ENDBRANCH  47  61
BRANCH  48  67
ATOM     67  C   UNL     1      -5.387  10.394 -14.868  1.00  0.00    -0.014 A 
ATOM     68  C   UNL     1      -4.965  10.687 -16.173  1.00  0.00     0.009 A 
ATOM     69  C   UNL     1      -5.614   9.056 -14.511  1.00  0.00     0.009 A 
ATOM     70  C   UNL     1      -4.789   9.662 -17.106  1.00  0.00     0.001 A 
ATOM     71  C   UNL     1      -5.415   8.031 -15.438  1.00  0.00     0.001 A 
ATOM     72  C   UNL     1      -5.008   8.336 -16.736  1.00  0.00     0.000 A 
ENDBRANCH  48  67
BRANCH  60  73
ATOM     73  C   UNL     1     -10.129  15.454 -14.300  1.00  0.00    -0.014 A 
ATOM     74  C   UNL     1     -11.315  14.706 -14.246  1.00  0.00     0.009 A 
ATOM     75  C   UNL     1     -10.078  16.592 -15.121  1.00  0.00     0.009 A 
ATOM     76  C   UNL     1     -12.418  15.075 -15.020  1.00  0.00     0.001 A 
ATOM     77  C   UNL     1     -11.190  16.973 -15.874  1.00  0.00     0.001 A 
ATOM     78  C   UNL     1     -12.356  16.209 -15.829  1.00  0.00     0.000 A 
ENDBRANCH  60  73
ENDBRANCH  34  35
ENDBRANCH  27  29
ENDBRANCH  26  27
ENDBRANCH  25  26
ENDBRANCH  24  25
ENDBRANCH  23  24
ENDBRANCH   1  23
TORSDOF 18
