REMARK SMILES O=C(OCCOCCOC(=O)c1cn(C2CN(C(=O)Nc3ccsc3)C2)nn1)c1ccc(-c2c3nc(c(-c4ccccc4)c4ccc([nH]4)c(-c4ccccc4)c4nc(c(-c5ccccc5)c5ccc2[nH]5)C=C4)C=C3)cc1
REMARK SMILES IDX 6 1 5 2 4 3 3 4 2 5 1 6 29 7 30 8 76 9 31 10 75 11 32 12
REMARK SMILES IDX 33 13 34 14 69 15 35 16 74 17 68 18 70 19 36 20 73 21 67 22
REMARK SMILES IDX 66 23 37 25 59 26 44 27 58 28 45 29 48 30 57 31 71 32 46 33
REMARK SMILES IDX 47 34 56 36 72 37 49 38 38 39 39 40 43 41 40 42 42 43 41 44
REMARK SMILES IDX 60 45 61 46 65 47 62 48 64 49 63 50 50 51 51 52 55 53 52 54
REMARK SMILES IDX 54 55 53 56 7 57 8 58 9 59 10 60 11 61 12 62 13 63 28 64
REMARK SMILES IDX 14 65 27 66 15 67 16 68 26 69 17 70 18 71 19 72 20 73 21 75
REMARK SMILES IDX 22 76 25 77 23 78 24 79
REMARK H PARENT 70 24 48 35 20 74
REMARK Flexibility Score: inf
ROOT
ATOM      1  O   UNL     1       3.957  -0.232   1.222  1.00  0.00    -0.374 OA
ENDROOT
BRANCH   1   2
ATOM      2  C   UNL     1       4.400   1.000   0.649  1.00  0.00     0.202 C 
BRANCH   2   3
ATOM      3  C   UNL     1       4.557   0.937  -0.866  1.00  0.00     0.261 C 
BRANCH   3   4
ATOM      4  O   UNL     1       3.328   0.961  -1.624  1.00  0.00    -0.460 OA
BRANCH   4   5
ATOM      5  C   UNL     1       2.207   0.430  -1.083  1.00  0.00     0.338 C 
ATOM      6  O   UNL     1       1.323   1.100  -0.568  1.00  0.00    -0.246 OA
BRANCH   5   7
ATOM      7  C   UNL     1       2.031  -1.000  -1.437  1.00  0.00     0.060 A 
ATOM      8  C   UNL     1       3.098  -1.775  -1.894  1.00  0.00     0.016 A 
ATOM      9  C   UNL     1       0.741  -1.550  -1.390  1.00  0.00     0.016 A 
ATOM     10  C   UNL     1       2.870  -3.034  -2.412  1.00  0.00     0.010 A 
ATOM     11  C   UNL     1       0.510  -2.823  -1.905  1.00  0.00     0.010 A 
ATOM     12  C   UNL     1       1.568  -3.533  -2.474  1.00  0.00    -0.014 A 
BRANCH  12  13
ATOM     13  C   UNL     1       1.410  -4.779  -3.214  1.00  0.00     0.031 A 
ATOM     14  C   UNL     1       2.167  -5.963  -2.723  1.00  0.00     0.074 A 
ATOM     15  C   UNL     1       0.648  -4.882  -4.318  1.00  0.00     0.049 A 
ATOM     16  N   UNL     1       3.084  -6.640  -3.337  1.00  0.00    -0.248 NA
ATOM     17  C   UNL     1       1.892  -6.417  -1.354  1.00  0.00     0.031 C 
ATOM     18  C   UNL     1      -0.354  -3.942  -4.822  1.00  0.00     0.029 A 
ATOM     19  N   UNL     1       0.559  -5.935  -5.180  1.00  0.00    -0.354 N 
ATOM     20  C   UNL     1       3.416  -7.695  -2.491  1.00  0.00     0.074 A 
ATOM     21  C   UNL     1       2.706  -7.468  -1.255  1.00  0.00     0.031 C 
ATOM     22  C   UNL     1      -1.112  -4.567  -5.749  1.00  0.00     0.029 A 
ATOM     23  C   UNL     1      -0.551  -5.884  -6.001  1.00  0.00     0.049 A 
ATOM     24  H   UNL     1       1.222  -6.662  -5.214  1.00  0.00     0.167 HD
ATOM     25  C   UNL     1       4.133  -8.777  -2.901  1.00  0.00     0.031 A 
ATOM     26  C   UNL     1      -1.024  -6.884  -6.778  1.00  0.00     0.031 A 
ATOM     27  C   UNL     1       4.849  -8.547  -4.122  1.00  0.00     0.049 A 
ATOM     28  C   UNL     1       0.069  -7.851  -7.016  1.00  0.00     0.074 A 
ATOM     29  C   UNL     1       5.867  -7.705  -4.519  1.00  0.00     0.029 A 
ATOM     30  N   UNL     1       4.341  -9.090  -5.275  1.00  0.00    -0.354 N 
ATOM     31  N   UNL     1       1.112  -7.604  -7.755  1.00  0.00    -0.248 NA
ATOM     32  C   UNL     1       0.190  -9.004  -6.137  1.00  0.00     0.031 C 
ATOM     33  C   UNL     1       5.611  -7.434  -5.895  1.00  0.00     0.029 A 
ATOM     34  C   UNL     1       4.454  -8.132  -6.248  1.00  0.00     0.049 A 
ATOM     35  H   UNL     1       3.967  -9.994  -5.383  1.00  0.00     0.167 HD
ATOM     36  C   UNL     1       2.150  -8.302  -7.156  1.00  0.00     0.074 A 
ATOM     37  C   UNL     1       1.498  -9.243  -6.253  1.00  0.00     0.031 C 
ATOM     38  C   UNL     1       3.440  -7.862  -7.242  1.00  0.00     0.031 A 
BRANCH  25  39
ATOM     39  C   UNL     1       3.937 -10.165  -2.350  1.00  0.00    -0.014 A 
ATOM     40  C   UNL     1       4.832 -11.186  -2.719  1.00  0.00     0.009 A 
ATOM     41  C   UNL     1       2.751 -10.561  -1.705  1.00  0.00     0.009 A 
ATOM     42  C   UNL     1       4.530 -12.535  -2.495  1.00  0.00     0.001 A 
ATOM     43  C   UNL     1       2.466 -11.903  -1.442  1.00  0.00     0.001 A 
ATOM     44  C   UNL     1       3.345 -12.893  -1.859  1.00  0.00     0.000 A 
ENDBRANCH  25  39
BRANCH  26  45
ATOM     45  C   UNL     1      -2.436  -7.171  -7.089  1.00  0.00    -0.014 A 
ATOM     46  C   UNL     1      -2.788  -7.981  -8.177  1.00  0.00     0.009 A 
ATOM     47  C   UNL     1      -3.443  -6.836  -6.163  1.00  0.00     0.009 A 
ATOM     48  C   UNL     1      -4.099  -8.454  -8.320  1.00  0.00     0.001 A 
ATOM     49  C   UNL     1      -4.751  -7.301  -6.309  1.00  0.00     0.001 A 
ATOM     50  C   UNL     1      -5.076  -8.122  -7.382  1.00  0.00     0.000 A 
ENDBRANCH  26  45
BRANCH  38  51
ATOM     51  C   UNL     1       3.750  -6.763  -8.226  1.00  0.00    -0.014 A 
ATOM     52  C   UNL     1       3.177  -5.483  -8.122  1.00  0.00     0.009 A 
ATOM     53  C   UNL     1       4.769  -6.964  -9.169  1.00  0.00     0.009 A 
ATOM     54  C   UNL     1       3.592  -4.443  -8.958  1.00  0.00     0.001 A 
ATOM     55  C   UNL     1       5.198  -5.918  -9.990  1.00  0.00     0.001 A 
ATOM     56  C   UNL     1       4.607  -4.660  -9.888  1.00  0.00     0.000 A 
ENDBRANCH  38  51
ENDBRANCH  12  13
ENDBRANCH   5   7
ENDBRANCH   4   5
ENDBRANCH   3   4
ENDBRANCH   2   3
ENDBRANCH   1   2
BRANCH   1  57
ATOM     57  C   UNL     1       2.827  -0.126   2.101  1.00  0.00     0.202 C 
BRANCH  57  58
ATOM     58  C   UNL     1       3.060   0.564   3.454  1.00  0.00     0.261 C 
BRANCH  58  59
ATOM     59  O   UNL     1       3.230   1.984   3.286  1.00  0.00    -0.458 OA
BRANCH  59  60
ATOM     60  C   UNL     1       4.522   2.420   3.363  1.00  0.00     0.360 C 
ATOM     61  O   UNL     1       5.444   1.777   3.837  1.00  0.00    -0.244 OA
BRANCH  60  62
ATOM     62  C   UNL     1       4.715   3.662   2.633  1.00  0.00     0.190 A 
ATOM     63  C   UNL     1       3.952   4.813   2.602  1.00  0.00     0.147 A 
ATOM     64  N   UNL     1       5.772   3.804   1.766  1.00  0.00    -0.123 NA
ATOM     65  N   UNL     1       4.699   5.665   1.829  1.00  0.00    -0.245 N 
ATOM     66  N   UNL     1       5.699   5.004   1.218  1.00  0.00    -0.066 NA
BRANCH  65  67
ATOM     67  C   UNL     1       4.797   7.087   1.936  1.00  0.00     0.148 C 
ATOM     68  C   UNL     1       3.558   7.939   2.210  1.00  0.00     0.150 C 
ATOM     69  C   UNL     1       5.218   7.428   3.386  1.00  0.00     0.150 C 
ATOM     70  N   UNL     1       4.380   8.590   3.241  1.00  0.00    -0.320 N 
ATOM     71  C   UNL     1       4.054   9.668   3.993  1.00  0.00     0.322 C 
ATOM     72  O   UNL     1       3.091  10.377   3.686  1.00  0.00    -0.248 OA
ATOM     73  N   UNL     1       4.668   9.914   5.181  1.00  0.00    -0.307 N 
ATOM     74  H   UNL     1       4.173  10.536   5.761  1.00  0.00     0.171 HD
BRANCH  73  75
ATOM     75  C   UNL     1       5.853   9.460   5.733  1.00  0.00     0.053 A 
ATOM     76  C   UNL     1       7.080   9.155   5.076  1.00  0.00     0.038 A 
ATOM     77  C   UNL     1       5.994   9.337   7.101  1.00  0.00     0.091 A 
ATOM     78  C   UNL     1       8.022   8.618   5.929  1.00  0.00     0.067 A 
ATOM     79  S   UNL     1       7.487   8.632   7.551  1.00  0.00    -0.150 S 
ENDBRANCH  73  75
ENDBRANCH  65  67
ENDBRANCH  60  62
ENDBRANCH  59  60
ENDBRANCH  58  59
ENDBRANCH  57  58
ENDBRANCH   1  57
TORSDOF 16
