REMARK SMILES O=C(OCCOCCOC(=O)c1ccc(-c2c(F)cccc2F)cn1)c1ccc(-c2c3nc(c(-c4ccccc4)c4ccc([nH]4)c(-c4ccccc4)c4nc(c(-c5ccccc5)c5ccc2[nH]5)C=C4)C=C3)cc1
REMARK SMILES IDX 5 1 4 2 3 3 2 4 1 5 26 6 27 7 73 8 28 9 72 10 29 11 30 12
REMARK SMILES IDX 31 13 66 14 32 15 71 16 65 17 67 18 33 19 70 20 64 21 63 22
REMARK SMILES IDX 34 24 56 25 41 26 55 27 42 28 45 29 54 30 68 31 43 32 44 33
REMARK SMILES IDX 53 35 69 36 46 37 35 38 36 39 40 40 37 41 39 42 38 43 57 44
REMARK SMILES IDX 58 45 62 46 59 47 61 48 60 49 47 50 48 51 52 52 49 53 51 54
REMARK SMILES IDX 50 55 6 56 7 57 8 58 9 59 10 60 11 61 12 62 13 63 25 64
REMARK SMILES IDX 14 65 24 66 15 67 16 68 17 69 22 70 18 71 19 72 21 73 23 74
REMARK SMILES IDX 20 75
REMARK H PARENT 67 23 45 34
REMARK Flexibility Score: inf
ROOT
ATOM      1  C   UNL     1       4.292  -0.155  -1.754  1.00  0.00     0.202 C 
ENDROOT
BRANCH   1   2
ATOM      2  C   UNL     1       4.022  -1.206  -0.672  1.00  0.00     0.261 C 
BRANCH   2   3
ATOM      3  O   UNL     1       2.663  -1.118  -0.209  1.00  0.00    -0.460 OA
BRANCH   3   4
ATOM      4  C   UNL     1       2.168  -0.446   0.856  1.00  0.00     0.338 C 
ATOM      5  O   UNL     1       0.950  -0.458   1.033  1.00  0.00    -0.246 OA
BRANCH   4   6
ATOM      6  C   UNL     1       3.002   0.289   1.861  1.00  0.00     0.060 A 
ATOM      7  C   UNL     1       4.275   0.815   1.637  1.00  0.00     0.016 A 
ATOM      8  C   UNL     1       2.411   0.528   3.117  1.00  0.00     0.016 A 
ATOM      9  C   UNL     1       4.968   1.492   2.631  1.00  0.00     0.010 A 
ATOM     10  C   UNL     1       3.086   1.240   4.114  1.00  0.00     0.010 A 
ATOM     11  C   UNL     1       4.383   1.700   3.877  1.00  0.00    -0.014 A 
BRANCH  11  12
ATOM     12  C   UNL     1       5.218   2.302   4.930  1.00  0.00     0.031 A 
ATOM     13  C   UNL     1       5.848   1.397   5.944  1.00  0.00     0.074 A 
ATOM     14  C   UNL     1       5.532   3.608   4.861  1.00  0.00     0.049 A 
ATOM     15  N   UNL     1       6.694   1.685   6.896  1.00  0.00    -0.248 NA
ATOM     16  C   UNL     1       5.494  -0.030   5.859  1.00  0.00     0.031 C 
ATOM     17  C   UNL     1       5.053   4.537   3.834  1.00  0.00     0.029 A 
ATOM     18  N   UNL     1       6.369   4.366   5.634  1.00  0.00    -0.354 N 
ATOM     19  C   UNL     1       6.960   0.481   7.533  1.00  0.00     0.074 A 
ATOM     20  C   UNL     1       6.182  -0.540   6.868  1.00  0.00     0.031 C 
ATOM     21  C   UNL     1       5.644   5.729   4.014  1.00  0.00     0.029 A 
ATOM     22  C   UNL     1       6.498   5.661   5.194  1.00  0.00     0.049 A 
ATOM     23  H   UNL     1       6.834   4.017   6.429  1.00  0.00     0.167 HD
ATOM     24  C   UNL     1       7.778   0.251   8.586  1.00  0.00     0.031 A 
ATOM     25  C   UNL     1       7.225   6.674   5.700  1.00  0.00     0.031 A 
ATOM     26  C   UNL     1       8.528   1.282   9.246  1.00  0.00     0.049 A 
ATOM     27  C   UNL     1       8.055   6.410   6.926  1.00  0.00     0.074 A 
ATOM     28  C   UNL     1       9.338   1.187  10.363  1.00  0.00     0.029 A 
ATOM     29  N   UNL     1       8.555   2.609   8.838  1.00  0.00    -0.354 N 
ATOM     30  N   UNL     1       8.261   5.277   7.555  1.00  0.00    -0.248 NA
ATOM     31  C   UNL     1       8.743   7.565   7.517  1.00  0.00     0.031 C 
ATOM     32  C   UNL     1       9.819   2.468  10.657  1.00  0.00     0.029 A 
ATOM     33  C   UNL     1       9.350   3.349   9.694  1.00  0.00     0.049 A 
ATOM     34  H   UNL     1       8.078   2.969   8.056  1.00  0.00     0.167 HD
ATOM     35  C   UNL     1       9.114   5.577   8.608  1.00  0.00     0.074 A 
ATOM     36  C   UNL     1       9.402   6.996   8.517  1.00  0.00     0.031 C 
ATOM     37  C   UNL     1       9.611   4.760   9.569  1.00  0.00     0.031 A 
BRANCH  24  38
ATOM     38  C   UNL     1       7.816  -1.152   9.117  1.00  0.00    -0.014 A 
ATOM     39  C   UNL     1       8.475  -2.183   8.427  1.00  0.00     0.009 A 
ATOM     40  C   UNL     1       7.133  -1.456  10.304  1.00  0.00     0.009 A 
ATOM     41  C   UNL     1       8.412  -3.498   8.896  1.00  0.00     0.001 A 
ATOM     42  C   UNL     1       7.092  -2.767  10.783  1.00  0.00     0.001 A 
ATOM     43  C   UNL     1       7.721  -3.788  10.073  1.00  0.00     0.000 A 
ENDBRANCH  24  38
BRANCH  25  44
ATOM     44  C   UNL     1       7.179   8.022   5.073  1.00  0.00    -0.014 A 
ATOM     45  C   UNL     1       8.314   8.569   4.454  1.00  0.00     0.009 A 
ATOM     46  C   UNL     1       5.996   8.778   5.101  1.00  0.00     0.009 A 
ATOM     47  C   UNL     1       8.268   9.850   3.896  1.00  0.00     0.001 A 
ATOM     48  C   UNL     1       5.945  10.045   4.517  1.00  0.00     0.001 A 
ATOM     49  C   UNL     1       7.084  10.584   3.923  1.00  0.00     0.000 A 
ENDBRANCH  25  44
BRANCH  37  50
ATOM     50  C   UNL     1      10.533   5.385  10.573  1.00  0.00    -0.014 A 
ATOM     51  C   UNL     1      10.041   6.214  11.592  1.00  0.00     0.009 A 
ATOM     52  C   UNL     1      11.908   5.107  10.517  1.00  0.00     0.009 A 
ATOM     53  C   UNL     1      10.915   6.779  12.520  1.00  0.00     0.001 A 
ATOM     54  C   UNL     1      12.775   5.654  11.463  1.00  0.00     0.001 A 
ATOM     55  C   UNL     1      12.279   6.496  12.457  1.00  0.00     0.000 A 
ENDBRANCH  37  50
ENDBRANCH  11  12
ENDBRANCH   4   6
ENDBRANCH   3   4
ENDBRANCH   2   3
ENDBRANCH   1   2
BRANCH   1  56
ATOM     56  O   UNL     1       4.039   1.182  -1.315  1.00  0.00    -0.374 OA
BRANCH  56  57
ATOM     57  C   UNL     1       2.729   1.686  -1.592  1.00  0.00     0.202 C 
BRANCH  57  58
ATOM     58  C   UNL     1       2.821   2.874  -2.552  1.00  0.00     0.261 C 
BRANCH  58  59
ATOM     59  O   UNL     1       3.311   2.403  -3.817  1.00  0.00    -0.459 OA
BRANCH  59  60
ATOM     60  C   UNL     1       4.668   2.414  -3.943  1.00  0.00     0.356 C 
ATOM     61  O   UNL     1       5.457   3.088  -3.303  1.00  0.00    -0.244 OA
BRANCH  60  62
ATOM     62  C   UNL     1       5.028   1.314  -4.882  1.00  0.00     0.148 A 
ATOM     63  C   UNL     1       4.258   1.071  -6.011  1.00  0.00     0.037 A 
ATOM     64  N   UNL     1       6.073   0.529  -4.505  1.00  0.00    -0.249 NA
ATOM     65  C   UNL     1       4.577  -0.031  -6.798  1.00  0.00     0.013 A 
ATOM     66  C   UNL     1       6.348  -0.538  -5.286  1.00  0.00     0.121 A 
ATOM     67  C   UNL     1       5.644  -0.866  -6.442  1.00  0.00     0.006 A 
BRANCH  67  68
ATOM     68  C   UNL     1       6.020  -1.999  -7.280  1.00  0.00     0.055 A 
ATOM     69  C   UNL     1       6.731  -1.795  -8.468  1.00  0.00     0.134 A 
ATOM     70  C   UNL     1       5.668  -3.313  -6.957  1.00  0.00     0.134 A 
ATOM     71  F   UNL     1       7.102  -0.554  -8.820  1.00  0.00    -0.206 F 
ATOM     72  C   UNL     1       7.066  -2.850  -9.313  1.00  0.00     0.040 A 
ATOM     73  C   UNL     1       5.991  -4.381  -7.795  1.00  0.00     0.040 A 
ATOM     74  F   UNL     1       4.991  -3.569  -5.827  1.00  0.00    -0.206 F 
ATOM     75  C   UNL     1       6.689  -4.149  -8.979  1.00  0.00     0.006 A 
ENDBRANCH  67  68
ENDBRANCH  60  62
ENDBRANCH  59  60
ENDBRANCH  58  59
ENDBRANCH  57  58
ENDBRANCH  56  57
ENDBRANCH   1  56
TORSDOF 15
