REMARK SMILES O=C(COc1ccc(Br)cc1/C=C1\C(=O)Nc2ccc(Br)cc21)OCCOCCOC(=O)c1ccc(-c2c3nc(c(-c4ccccc4)c4ccc([nH]4)c(-c4ccccc4)c4nc(c(-c5ccccc5)c5ccc2[nH]5)C=C4)C=C3)cc1
REMARK SMILES IDX 26 1 25 2 24 3 2 4 1 5 3 6 4 7 5 8 6 9 11 10 7 11 10 12 8 13
REMARK SMILES IDX 9 14 12 15 13 16 14 17 23 18 15 19 16 20 17 21 22 22 18 24
REMARK SMILES IDX 20 25 19 26 21 27 27 28 28 29 29 30 30 31 31 32 32 33 33 34
REMARK SMILES IDX 34 35 80 36 35 37 79 38 36 39 37 40 38 41 73 42 39 43 78 44
REMARK SMILES IDX 72 45 74 46 40 47 77 48 71 49 70 50 41 52 63 53 48 54 62 55
REMARK SMILES IDX 49 56 52 57 61 58 75 59 50 60 51 61 60 63 76 64 53 65 42 66
REMARK SMILES IDX 43 67 47 68 44 69 46 70 45 71 64 72 65 73 69 74 66 75 68 76
REMARK SMILES IDX 67 77 54 78 55 79 59 80 56 81 58 82 57 83
REMARK H PARENT 16 23 74 51 52 62
REMARK Flexibility Score: inf
ROOT
ATOM      1  C   UNL     1       4.985  -0.084  -1.151  1.00  0.00     0.202 C 
ENDROOT
BRANCH   1   2
ATOM      2  C   UNL     1       4.557  -0.445   0.266  1.00  0.00     0.261 C 
BRANCH   2   3
ATOM      3  O   UNL     1       3.132  -0.367   0.418  1.00  0.00    -0.461 OA
BRANCH   3   4
ATOM      4  C   UNL     1       2.511   0.791   0.766  1.00  0.00     0.344 C 
ATOM      5  O   UNL     1       1.313   0.940   0.532  1.00  0.00    -0.248 OA
BRANCH   4   6
ATOM      6  C   UNL     1       3.329   1.859   1.494  1.00  0.00     0.351 C 
BRANCH   6   7
ATOM      7  O   UNL     1       4.221   1.453   2.538  1.00  0.00    -0.481 OA
BRANCH   7   8
ATOM      8  C   UNL     1       3.562   1.117   3.697  1.00  0.00     0.127 A 
ATOM      9  C   UNL     1       2.654   0.041   3.683  1.00  0.00     0.048 A 
ATOM     10  C   UNL     1       3.814   1.849   4.876  1.00  0.00     0.018 A 
ATOM     11  C   UNL     1       1.843  -0.220   4.776  1.00  0.00     0.019 A 
ATOM     12  C   UNL     1       2.961   1.564   5.952  1.00  0.00     0.027 A 
ATOM     13  C   UNL     1       1.977   0.571   5.897  1.00  0.00     0.018 A 
ATOM     14  Br  UNL     1       0.824   0.310   7.373  1.00  0.00    -0.051 Br
BRANCH  10  15
ATOM     15  C   UNL     1       4.894   2.890   4.922  1.00  0.00     0.026 C 
ATOM     16  C   UNL     1       5.173   3.837   5.844  1.00  0.00     0.050 C 
ATOM     17  C   UNL     1       4.412   4.148   7.105  1.00  0.00     0.256 C 
ATOM     18  C   UNL     1       5.925   5.073   5.547  1.00  0.00     0.012 A 
ATOM     19  O   UNL     1       4.108   3.419   8.018  1.00  0.00    -0.269 OA
ATOM     20  N   UNL     1       4.282   5.526   7.086  1.00  0.00    -0.321 N 
ATOM     21  C   UNL     1       5.204   6.082   6.207  1.00  0.00     0.049 A 
ATOM     22  C   UNL     1       7.116   5.384   4.919  1.00  0.00     0.026 A 
ATOM     23  H   UNL     1       3.630   6.037   7.617  1.00  0.00     0.170 HD
ATOM     24  C   UNL     1       5.513   7.420   6.121  1.00  0.00     0.028 A 
ATOM     25  C   UNL     1       7.504   6.734   4.908  1.00  0.00     0.018 A 
ATOM     26  C   UNL     1       6.688   7.748   5.452  1.00  0.00     0.018 A 
ATOM     27  Br  UNL     1       9.204   7.218   4.227  1.00  0.00    -0.051 Br
ENDBRANCH  10  15
ENDBRANCH   7   8
ENDBRANCH   6   7
ENDBRANCH   4   6
ENDBRANCH   3   4
ENDBRANCH   2   3
ENDBRANCH   1   2
BRANCH   1  28
ATOM     28  O   UNL     1       4.398   1.110  -1.661  1.00  0.00    -0.374 OA
BRANCH  28  29
ATOM     29  C   UNL     1       3.179   0.931  -2.404  1.00  0.00     0.202 C 
BRANCH  29  30
ATOM     30  C   UNL     1       3.355   0.403  -3.834  1.00  0.00     0.261 C 
BRANCH  30  31
ATOM     31  O   UNL     1       3.558  -1.024  -3.826  1.00  0.00    -0.460 OA
BRANCH  31  32
ATOM     32  C   UNL     1       4.807  -1.446  -4.137  1.00  0.00     0.338 C 
ATOM     33  O   UNL     1       5.734  -0.766  -4.541  1.00  0.00    -0.246 OA
BRANCH  32  34
ATOM     34  C   UNL     1       4.972  -2.846  -3.680  1.00  0.00     0.060 A 
ATOM     35  C   UNL     1       3.974  -3.806  -3.855  1.00  0.00     0.016 A 
ATOM     36  C   UNL     1       6.180  -3.188  -3.054  1.00  0.00     0.016 A 
ATOM     37  C   UNL     1       4.212  -5.125  -3.458  1.00  0.00     0.010 A 
ATOM     38  C   UNL     1       6.416  -4.503  -2.655  1.00  0.00     0.010 A 
ATOM     39  C   UNL     1       5.447  -5.487  -2.888  1.00  0.00    -0.014 A 
BRANCH  39  40
ATOM     40  C   UNL     1       5.801  -6.917  -2.740  1.00  0.00     0.031 A 
ATOM     41  C   UNL     1       5.763  -7.616  -1.418  1.00  0.00     0.074 A 
ATOM     42  C   UNL     1       6.192  -7.576  -3.848  1.00  0.00     0.049 A 
ATOM     43  N   UNL     1       5.955  -8.885  -1.163  1.00  0.00    -0.248 NA
ATOM     44  C   UNL     1       5.479  -6.796  -0.233  1.00  0.00     0.031 C 
ATOM     45  C   UNL     1       6.303  -6.976  -5.180  1.00  0.00     0.029 A 
ATOM     46  N   UNL     1       6.554  -8.884  -4.039  1.00  0.00    -0.354 N 
ATOM     47  C   UNL     1       5.793  -9.025   0.208  1.00  0.00     0.074 A 
ATOM     48  C   UNL     1       5.532  -7.702   0.737  1.00  0.00     0.031 C 
ATOM     49  C   UNL     1       6.670  -7.921  -6.056  1.00  0.00     0.029 A 
ATOM     50  C   UNL     1       6.845  -9.184  -5.347  1.00  0.00     0.049 A 
ATOM     51  H   UNL     1       6.601  -9.543  -3.309  1.00  0.00     0.167 HD
ATOM     52  C   UNL     1       5.843 -10.159   0.947  1.00  0.00     0.031 A 
ATOM     53  C   UNL     1       7.199 -10.349  -5.921  1.00  0.00     0.031 A 
ATOM     54  C   UNL     1       6.136 -11.464   0.409  1.00  0.00     0.049 A 
ATOM     55  C   UNL     1       7.281 -11.584  -5.073  1.00  0.00     0.074 A 
ATOM     56  C   UNL     1       6.171 -12.678   1.074  1.00  0.00     0.029 A 
ATOM     57  N   UNL     1       6.460 -11.724  -0.914  1.00  0.00    -0.354 N 
ATOM     58  N   UNL     1       7.037 -11.717  -3.792  1.00  0.00    -0.248 NA
ATOM     59  C   UNL     1       7.668 -12.830  -5.747  1.00  0.00     0.031 C 
ATOM     60  C   UNL     1       6.578 -13.661   0.168  1.00  0.00     0.029 A 
ATOM     61  C   UNL     1       6.729 -13.073  -1.078  1.00  0.00     0.049 A 
ATOM     62  H   UNL     1       6.494 -11.050  -1.631  1.00  0.00     0.167 HD
ATOM     63  C   UNL     1       7.220 -13.063  -3.509  1.00  0.00     0.074 A 
ATOM     64  C   UNL     1       7.581 -13.708  -4.755  1.00  0.00     0.031 C 
ATOM     65  C   UNL     1       7.096 -13.703  -2.321  1.00  0.00     0.031 A 
BRANCH  52  66
ATOM     66  C   UNL     1       5.568 -10.058   2.421  1.00  0.00    -0.014 A 
ATOM     67  C   UNL     1       6.590 -10.315   3.348  1.00  0.00     0.009 A 
ATOM     68  C   UNL     1       4.267  -9.822   2.895  1.00  0.00     0.009 A 
ATOM     69  C   UNL     1       6.316 -10.351   4.717  1.00  0.00     0.001 A 
ATOM     70  C   UNL     1       4.000  -9.833   4.266  1.00  0.00     0.001 A 
ATOM     71  C   UNL     1       5.022 -10.106   5.175  1.00  0.00     0.000 A 
ENDBRANCH  52  66
BRANCH  53  72
ATOM     72  C   UNL     1       7.442 -10.390  -7.385  1.00  0.00    -0.014 A 
ATOM     73  C   UNL     1       8.560  -9.750  -7.944  1.00  0.00     0.009 A 
ATOM     74  C   UNL     1       6.515 -11.005  -8.240  1.00  0.00     0.009 A 
ATOM     75  C   UNL     1       8.733  -9.703  -9.328  1.00  0.00     0.001 A 
ATOM     76  C   UNL     1       6.705 -10.980  -9.624  1.00  0.00     0.001 A 
ATOM     77  C   UNL     1       7.807 -10.321 -10.167  1.00  0.00     0.000 A 
ENDBRANCH  53  72
BRANCH  65  78
ATOM     78  C   UNL     1       7.345 -15.185  -2.296  1.00  0.00    -0.014 A 
ATOM     79  C   UNL     1       6.277 -16.067  -2.063  1.00  0.00     0.009 A 
ATOM     80  C   UNL     1       8.645 -15.703  -2.398  1.00  0.00     0.009 A 
ATOM     81  C   UNL     1       6.508 -17.436  -1.915  1.00  0.00     0.001 A 
ATOM     82  C   UNL     1       8.869 -17.076  -2.278  1.00  0.00     0.001 A 
ATOM     83  C   UNL     1       7.803 -17.939  -2.026  1.00  0.00     0.000 A 
ENDBRANCH  65  78
ENDBRANCH  39  40
ENDBRANCH  32  34
ENDBRANCH  31  32
ENDBRANCH  30  31
ENDBRANCH  29  30
ENDBRANCH  28  29
ENDBRANCH   1  28
TORSDOF 17
