REMARK SMILES O=C(OCCOCCOC(=O)[C@@H]1CCC(=O)N(CCCOC2CCCCC2)[C@H]1c1ccco1)c1ccc(-c2c3nc(c(-c4ccccc4)c4ccc([nH]4)c(-c4ccccc4)c4nc(c(-c5ccccc5)c5ccc2[nH]5)C=C4)C=C3)cc1
REMARK SMILES IDX 7 1 6 2 5 3 4 4 3 5 2 6 1 7 34 8 35 9 81 10 36 11 80 12
REMARK SMILES IDX 37 13 38 14 39 15 74 16 40 17 79 18 73 19 75 20 41 21 78 22
REMARK SMILES IDX 72 23 71 24 42 26 64 27 49 28 63 29 50 30 53 31 62 32 76 33
REMARK SMILES IDX 51 34 52 35 61 37 77 38 54 39 43 40 44 41 48 42 45 43 47 44
REMARK SMILES IDX 46 45 65 46 66 47 70 48 67 49 69 50 68 51 55 52 56 53 60 54
REMARK SMILES IDX 57 55 59 56 58 57 8 58 9 59 10 60 11 61 12 62 13 63 28 64
REMARK SMILES IDX 14 65 17 66 15 67 16 68 29 69 30 70 33 71 31 72 32 73 18 74
REMARK SMILES IDX 19 75 20 76 21 77 22 78 23 79 27 80 24 81 26 82 25 83
REMARK H PARENT 75 25 53 36
REMARK Flexibility Score: inf
ROOT
ATOM      1  C   UNL     1       1.720  -2.256  -1.451  1.00  0.00     0.202 C 
ENDROOT
BRANCH   1   2
ATOM      2  O   UNL     1       2.861  -1.403  -1.372  1.00  0.00    -0.374 OA
BRANCH   2   3
ATOM      3  C   UNL     1       3.279  -1.044  -0.063  1.00  0.00     0.202 C 
BRANCH   3   4
ATOM      4  C   UNL     1       2.438  -0.010   0.690  1.00  0.00     0.261 C 
BRANCH   4   5
ATOM      5  O   UNL     1       1.117   0.160   0.148  1.00  0.00    -0.460 OA
BRANCH   5   6
ATOM      6  C   UNL     1       0.754   1.234  -0.598  1.00  0.00     0.338 C 
ATOM      7  O   UNL     1      -0.420   1.529  -0.774  1.00  0.00    -0.246 OA
BRANCH   6   8
ATOM      8  C   UNL     1       1.814   2.062  -1.211  1.00  0.00     0.060 A 
ATOM      9  C   UNL     1       2.772   1.486  -2.041  1.00  0.00     0.016 A 
ATOM     10  C   UNL     1       1.803   3.443  -1.032  1.00  0.00     0.016 A 
ATOM     11  C   UNL     1       3.796   2.242  -2.584  1.00  0.00     0.010 A 
ATOM     12  C   UNL     1       2.740   4.227  -1.710  1.00  0.00     0.010 A 
ATOM     13  C   UNL     1       3.738   3.630  -2.504  1.00  0.00    -0.014 A 
BRANCH  13  14
ATOM     14  C   UNL     1       4.640   4.463  -3.336  1.00  0.00     0.031 A 
ATOM     15  C   UNL     1       5.436   5.551  -2.691  1.00  0.00     0.074 A 
ATOM     16  C   UNL     1       4.670   4.293  -4.674  1.00  0.00     0.049 A 
ATOM     17  N   UNL     1       5.954   6.622  -3.227  1.00  0.00    -0.248 NA
ATOM     18  C   UNL     1       5.644   5.432  -1.240  1.00  0.00     0.031 C 
ATOM     19  C   UNL     1       4.001   3.222  -5.420  1.00  0.00     0.029 A 
ATOM     20  N   UNL     1       5.278   5.038  -5.653  1.00  0.00    -0.354 N 
ATOM     21  C   UNL     1       6.463   7.358  -2.166  1.00  0.00     0.074 A 
ATOM     22  C   UNL     1       6.220   6.592  -0.961  1.00  0.00     0.031 C 
ATOM     23  C   UNL     1       4.258   3.360  -6.727  1.00  0.00     0.029 A 
ATOM     24  C   UNL     1       4.986   4.602  -6.924  1.00  0.00     0.049 A 
ATOM     25  H   UNL     1       5.863   5.807  -5.465  1.00  0.00     0.167 HD
ATOM     26  C   UNL     1       7.041   8.581  -2.207  1.00  0.00     0.031 A 
ATOM     27  C   UNL     1       5.196   5.178  -8.121  1.00  0.00     0.031 A 
ATOM     28  C   UNL     1       7.282   9.299  -3.431  1.00  0.00     0.049 A 
ATOM     29  C   UNL     1       5.817   6.541  -8.149  1.00  0.00     0.074 A 
ATOM     30  C   UNL     1       7.842  10.550  -3.610  1.00  0.00     0.029 A 
ATOM     31  N   UNL     1       6.985   8.807  -4.696  1.00  0.00    -0.354 N 
ATOM     32  N   UNL     1       6.208   7.284  -7.141  1.00  0.00    -0.248 NA
ATOM     33  C   UNL     1       6.003   7.156  -9.467  1.00  0.00     0.031 C 
ATOM     34  C   UNL     1       7.852  10.828  -4.982  1.00  0.00     0.029 A 
ATOM     35  C   UNL     1       7.347   9.729  -5.661  1.00  0.00     0.049 A 
ATOM     36  H   UNL     1       6.576   7.930  -4.879  1.00  0.00     0.167 HD
ATOM     37  C   UNL     1       6.700   8.452  -7.702  1.00  0.00     0.074 A 
ATOM     38  C   UNL     1       6.569   8.311  -9.140  1.00  0.00     0.031 C 
ATOM     39  C   UNL     1       7.213   9.544  -7.084  1.00  0.00     0.031 A 
BRANCH  26  40
ATOM     40  C   UNL     1       7.349   9.235  -0.888  1.00  0.00    -0.014 A 
ATOM     41  C   UNL     1       8.359   8.760  -0.037  1.00  0.00     0.009 A 
ATOM     42  C   UNL     1       6.571  10.327  -0.469  1.00  0.00     0.009 A 
ATOM     43  C   UNL     1       8.540   9.325   1.229  1.00  0.00     0.001 A 
ATOM     44  C   UNL     1       6.775  10.910   0.783  1.00  0.00     0.001 A 
ATOM     45  C   UNL     1       7.748  10.397   1.638  1.00  0.00     0.000 A 
ENDBRANCH  26  40
BRANCH  27  46
ATOM     46  C   UNL     1       4.736   4.494  -9.359  1.00  0.00    -0.014 A 
ATOM     47  C   UNL     1       5.663   3.932 -10.248  1.00  0.00     0.009 A 
ATOM     48  C   UNL     1       3.364   4.334  -9.622  1.00  0.00     0.009 A 
ATOM     49  C   UNL     1       5.227   3.228 -11.374  1.00  0.00     0.001 A 
ATOM     50  C   UNL     1       2.932   3.603 -10.730  1.00  0.00     0.001 A 
ATOM     51  C   UNL     1       3.864   3.054 -11.608  1.00  0.00     0.000 A 
ENDBRANCH  27  46
BRANCH  39  52
ATOM     52  C   UNL     1       7.723  10.642  -7.967  1.00  0.00    -0.014 A 
ATOM     53  C   UNL     1       6.848  11.535  -8.601  1.00  0.00     0.009 A 
ATOM     54  C   UNL     1       9.108  10.820  -8.105  1.00  0.00     0.009 A 
ATOM     55  C   UNL     1       7.354  12.581  -9.373  1.00  0.00     0.001 A 
ATOM     56  C   UNL     1       9.611  11.880  -8.858  1.00  0.00     0.001 A 
ATOM     57  C   UNL     1       8.733  12.757  -9.494  1.00  0.00     0.000 A 
ENDBRANCH  39  52
ENDBRANCH  13  14
ENDBRANCH   6   8
ENDBRANCH   5   6
ENDBRANCH   4   5
ENDBRANCH   3   4
ENDBRANCH   2   3
ENDBRANCH   1   2
BRANCH   1  58
ATOM     58  C   UNL     1       2.153  -3.663  -1.847  1.00  0.00     0.261 C 
BRANCH  58  59
ATOM     59  O   UNL     1       2.788  -4.300  -0.720  1.00  0.00    -0.463 OA
BRANCH  59  60
ATOM     60  C   UNL     1       4.145  -4.279  -0.701  1.00  0.00     0.311 C 
ATOM     61  O   UNL     1       4.851  -3.845  -1.602  1.00  0.00    -0.252 OA
BRANCH  60  62
ATOM     62  C   UNL     1       4.705  -4.970   0.531  1.00  0.00     0.130 C 
ATOM     63  C   UNL     1       3.778  -5.120   1.728  1.00  0.00     0.028 C 
ATOM     64  C   UNL     1       6.035  -4.314   0.950  1.00  0.00     0.166 C 
ATOM     65  C   UNL     1       3.570  -3.829   2.479  1.00  0.00     0.101 C 
ATOM     66  N   UNL     1       5.941  -3.213   1.934  1.00  0.00    -0.332 N 
ATOM     67  C   UNL     1       4.785  -2.942   2.655  1.00  0.00     0.223 C 
ATOM     68  O   UNL     1       4.660  -1.937   3.361  1.00  0.00    -0.275 OA
BRANCH  64  69
ATOM     69  C   UNL     1       6.977  -5.391   1.406  1.00  0.00     0.127 A 
ATOM     70  C   UNL     1       7.724  -6.312   0.695  1.00  0.00     0.048 A 
ATOM     71  O   UNL     1       7.191  -5.553   2.741  1.00  0.00    -0.467 OA
ATOM     72  C   UNL     1       8.486  -7.026   1.646  1.00  0.00     0.042 A 
ATOM     73  C   UNL     1       8.138  -6.517   2.875  1.00  0.00     0.195 A 
ENDBRANCH  64  69
BRANCH  66  74
ATOM     74  C   UNL     1       7.034  -2.212   2.028  1.00  0.00     0.122 C 
BRANCH  74  75
ATOM     75  C   UNL     1       8.478  -2.666   2.251  1.00  0.00     0.050 C 
BRANCH  75  76
ATOM     76  C   UNL     1       9.304  -2.962   0.998  1.00  0.00     0.162 C 
BRANCH  76  77
ATOM     77  O   UNL     1       9.866  -1.785   0.442  1.00  0.00    -0.378 OA
BRANCH  77  78
ATOM     78  C   UNL     1       9.310  -1.098  -0.683  1.00  0.00     0.118 C 
ATOM     79  C   UNL     1       8.074  -1.658  -1.409  1.00  0.00     0.032 C 
ATOM     80  C   UNL     1       9.258   0.384  -0.287  1.00  0.00     0.032 C 
ATOM     81  C   UNL     1       6.773  -0.855  -1.371  1.00  0.00     0.003 C 
ATOM     82  C   UNL     1       8.168   1.182  -0.979  1.00  0.00     0.003 C 
ATOM     83  C   UNL     1       6.836   0.516  -0.715  1.00  0.00     0.000 C 
ENDBRANCH  77  78
ENDBRANCH  76  77
ENDBRANCH  75  76
ENDBRANCH  74  75
ENDBRANCH  66  74
ENDBRANCH  60  62
ENDBRANCH  59  60
ENDBRANCH  58  59
ENDBRANCH   1  58
TORSDOF 20
