REMARK SMILES C[C@]([NH3+])(C(=O)N1[C@@H](C(=O)OCCOCCOC(=O)c2ccc(-c3c4nc(c(-c5ccccc5)c5ccc([nH]5)c(-c5ccccc5)c5nc(c(-c6ccccc6)c6ccc3[nH]6)C=C5)C=C4)cc2)C[C@H]2CCCC[C@@H]21)C(F)(F)F
REMARK SMILES IDX 12 1 11 2 10 3 8 4 9 5 7 6 6 7 73 8 67 9 68 10 72 11 69 12
REMARK SMILES IDX 71 13 70 14 4 15 5 16 2 17 1 18 74 19 75 20 76 21 77 22 3 23
REMARK SMILES IDX 13 27 14 28 15 29 16 30 17 31 18 32 19 33 20 34 66 35 21 36
REMARK SMILES IDX 65 37 22 38 23 39 24 40 59 41 25 42 64 43 58 44 60 45 26 46
REMARK SMILES IDX 63 47 57 48 56 49 27 51 49 52 34 53 48 54 35 55 38 56 47 57
REMARK SMILES IDX 61 58 36 59 37 60 46 62 62 63 39 64 28 65 29 66 33 67 30 68
REMARK SMILES IDX 32 69 31 70 50 71 51 72 55 73 52 74 54 75 53 76 40 77 41 78
REMARK SMILES IDX 45 79 42 80 44 81 43 82
REMARK H PARENT 3 24 3 25 3 26 60 50 38 61
REMARK Flexibility Score: inf
ROOT
ATOM      1  C   UNL     1      -3.759  -0.485  -3.058  1.00  0.00     0.202 C 
ENDROOT
BRANCH   1   2
ATOM      2  C   UNL     1      -2.280  -0.642  -2.677  1.00  0.00     0.261 C 
BRANCH   2   3
ATOM      3  O   UNL     1      -1.957   0.081  -1.468  1.00  0.00    -0.462 OA
BRANCH   3   4
ATOM      4  C   UNL     1      -1.107   1.141  -1.591  1.00  0.00     0.328 C 
ATOM      5  O   UNL     1      -0.626   1.527  -2.652  1.00  0.00    -0.250 OA
BRANCH   4   6
ATOM      6  C   UNL     1      -0.916   1.919  -0.270  1.00  0.00     0.196 C 
ATOM      7  N   UNL     1      -1.441   1.286   0.965  1.00  0.00    -0.320 N 
ATOM      8  C   UNL     1      -2.607   2.010   1.452  1.00  0.00     0.089 C 
ATOM      9  C   UNL     1      -1.691   3.253  -0.379  1.00  0.00     0.043 C 
ATOM     10  C   UNL     1      -2.264   3.438   1.014  1.00  0.00     0.014 C 
ATOM     11  C   UNL     1      -2.884   2.047   2.960  1.00  0.00     0.025 C 
ATOM     12  C   UNL     1      -3.464   4.353   1.171  1.00  0.00     0.006 C 
ATOM     13  C   UNL     1      -4.014   3.036   3.285  1.00  0.00     0.002 C 
ATOM     14  C   UNL     1      -3.826   4.422   2.658  1.00  0.00     0.000 C 
BRANCH   7  15
ATOM     15  C   UNL     1      -0.945   0.152   1.593  1.00  0.00     0.294 C 
ATOM     16  O   UNL     1      -1.685  -0.542   2.290  1.00  0.00    -0.267 OA
BRANCH  15  17
ATOM     17  C   UNL     1       0.584  -0.100   1.546  1.00  0.00     0.267 C 
ATOM     18  C   UNL     1       1.284   1.066   2.272  1.00  0.00     0.100 C 
BRANCH  17  19
ATOM     19  C   UNL     1       0.869  -1.398   2.352  1.00  0.00     0.453 C 
ATOM     20  F   UNL     1       0.282  -2.485   1.802  1.00  0.00    -0.164 F 
ATOM     21  F   UNL     1       2.210  -1.647   2.329  1.00  0.00    -0.164 F 
ATOM     22  F   UNL     1       0.519  -1.319   3.651  1.00  0.00    -0.164 F 
ENDBRANCH  17  19
BRANCH  17  23
ATOM     23  N   UNL     1       1.074  -0.151   0.119  1.00  0.00    -0.337 N 
ATOM     24  H   UNL     1       0.617  -0.920  -0.370  1.00  0.00     0.345 HD
ATOM     25  H   UNL     1       2.084  -0.296   0.112  1.00  0.00     0.345 HD
ATOM     26  H   UNL     1       0.854   0.729  -0.347  1.00  0.00     0.345 HD
ENDBRANCH  17  23
ENDBRANCH  15  17
ENDBRANCH   7  15
ENDBRANCH   4   6
ENDBRANCH   3   4
ENDBRANCH   2   3
ENDBRANCH   1   2
BRANCH   1  27
ATOM     27  O   UNL     1      -4.093   0.757  -3.690  1.00  0.00    -0.374 OA
BRANCH  27  28
ATOM     28  C   UNL     1      -4.190   1.877  -2.814  1.00  0.00     0.202 C 
BRANCH  28  29
ATOM     29  C   UNL     1      -5.598   2.182  -2.303  1.00  0.00     0.261 C 
BRANCH  29  30
ATOM     30  O   UNL     1      -6.096   1.077  -1.532  1.00  0.00    -0.460 OA
BRANCH  30  31
ATOM     31  C   UNL     1      -6.974   0.299  -2.200  1.00  0.00     0.338 C 
ATOM     32  O   UNL     1      -7.492   0.534  -3.287  1.00  0.00    -0.246 OA
BRANCH  31  33
ATOM     33  C   UNL     1      -7.161  -0.988  -1.509  1.00  0.00     0.060 A 
ATOM     34  C   UNL     1      -7.235  -2.129  -2.317  1.00  0.00     0.016 A 
ATOM     35  C   UNL     1      -7.350  -1.081  -0.127  1.00  0.00     0.016 A 
ATOM     36  C   UNL     1      -7.598  -3.350  -1.762  1.00  0.00     0.010 A 
ATOM     37  C   UNL     1      -7.712  -2.312   0.431  1.00  0.00     0.010 A 
ATOM     38  C   UNL     1      -7.897  -3.434  -0.396  1.00  0.00    -0.014 A 
BRANCH  38  39
ATOM     39  C   UNL     1      -8.597  -4.642   0.098  1.00  0.00     0.031 A 
ATOM     40  C   UNL     1     -10.096  -4.601   0.240  1.00  0.00     0.074 A 
ATOM     41  C   UNL     1      -7.928  -5.785   0.323  1.00  0.00     0.049 A 
ATOM     42  N   UNL     1     -10.927  -5.560   0.560  1.00  0.00    -0.248 NA
ATOM     43  C   UNL     1     -10.744  -3.304  -0.021  1.00  0.00     0.031 C 
ATOM     44  C   UNL     1      -6.485  -5.965   0.171  1.00  0.00     0.029 A 
ATOM     45  N   UNL     1      -8.386  -7.019   0.709  1.00  0.00    -0.354 N 
ATOM     46  C   UNL     1     -12.191  -4.983   0.542  1.00  0.00     0.074 A 
ATOM     47  C   UNL     1     -12.016  -3.585   0.217  1.00  0.00     0.031 C 
ATOM     48  C   UNL     1      -6.178  -7.246   0.441  1.00  0.00     0.029 A 
ATOM     49  C   UNL     1      -7.396  -7.964   0.807  1.00  0.00     0.049 A 
ATOM     50  H   UNL     1      -9.334  -7.208   0.897  1.00  0.00     0.167 HD
ATOM     51  C   UNL     1     -13.393  -5.564   0.766  1.00  0.00     0.031 A 
ATOM     52  C   UNL     1      -7.470  -9.264   1.151  1.00  0.00     0.031 A 
ATOM     53  C   UNL     1     -13.570  -6.951   1.101  1.00  0.00     0.049 A 
ATOM     54  C   UNL     1      -8.809  -9.869   1.471  1.00  0.00     0.074 A 
ATOM     55  C   UNL     1     -14.747  -7.641   1.333  1.00  0.00     0.029 A 
ATOM     56  N   UNL     1     -12.535  -7.858   1.260  1.00  0.00    -0.354 N 
ATOM     57  N   UNL     1     -10.000  -9.322   1.421  1.00  0.00    -0.248 NA
ATOM     58  C   UNL     1      -8.812 -11.280   1.885  1.00  0.00     0.031 C 
ATOM     59  C   UNL     1     -14.419  -8.955   1.685  1.00  0.00     0.029 A 
ATOM     60  C   UNL     1     -13.042  -9.096   1.615  1.00  0.00     0.049 A 
ATOM     61  H   UNL     1     -11.579  -7.653   1.138  1.00  0.00     0.167 HD
ATOM     62  C   UNL     1     -10.895 -10.328   1.764  1.00  0.00     0.074 A 
ATOM     63  C   UNL     1     -10.110 -11.520   2.010  1.00  0.00     0.031 C 
ATOM     64  C   UNL     1     -12.247 -10.272   1.858  1.00  0.00     0.031 A 
BRANCH  51  65
ATOM     65  C   UNL     1     -14.605  -4.678   0.692  1.00  0.00    -0.014 A 
ATOM     66  C   UNL     1     -15.070  -4.173  -0.533  1.00  0.00     0.009 A 
ATOM     67  C   UNL     1     -15.292  -4.342   1.869  1.00  0.00     0.009 A 
ATOM     68  C   UNL     1     -16.172  -3.315  -0.572  1.00  0.00     0.001 A 
ATOM     69  C   UNL     1     -16.410  -3.507   1.824  1.00  0.00     0.001 A 
ATOM     70  C   UNL     1     -16.841  -2.985   0.606  1.00  0.00     0.000 A 
ENDBRANCH  51  65
BRANCH  52  71
ATOM     71  C   UNL     1      -6.237 -10.091   1.197  1.00  0.00    -0.014 A 
ATOM     72  C   UNL     1      -6.013 -11.092   0.240  1.00  0.00     0.009 A 
ATOM     73  C   UNL     1      -5.282  -9.890   2.206  1.00  0.00     0.009 A 
ATOM     74  C   UNL     1      -4.868 -11.889   0.304  1.00  0.00     0.001 A 
ATOM     75  C   UNL     1      -4.126 -10.672   2.253  1.00  0.00     0.001 A 
ATOM     76  C   UNL     1      -3.924 -11.676   1.308  1.00  0.00     0.000 A 
ENDBRANCH  52  71
BRANCH  64  77
ATOM     77  C   UNL     1     -12.963 -11.547   2.203  1.00  0.00    -0.014 A 
ATOM     78  C   UNL     1     -12.916 -12.085   3.498  1.00  0.00     0.009 A 
ATOM     79  C   UNL     1     -13.723 -12.202   1.221  1.00  0.00     0.009 A 
ATOM     80  C   UNL     1     -13.585 -13.275   3.792  1.00  0.00     0.001 A 
ATOM     81  C   UNL     1     -14.414 -13.375   1.525  1.00  0.00     0.001 A 
ATOM     82  C   UNL     1     -14.336 -13.916   2.807  1.00  0.00     0.000 A 
ENDBRANCH  64  77
ENDBRANCH  38  39
ENDBRANCH  31  33
ENDBRANCH  30  31
ENDBRANCH  29  30
ENDBRANCH  28  29
ENDBRANCH  27  28
ENDBRANCH   1  27
TORSDOF 18
