REMARK SMILES CC1=NN(c2ccc(C(=O)OCCOCCOC(=O)c3ccc(-c4c5nc(c(-c6ccccc6)c6ccc([nH]6)c(-c6ccccc6)c6nc(c(-c7ccccc7)c7ccc4[nH]7)C=C6)C=C5)cc3)cc2)C(=O)/C1=C\c1ccc(N2CCCC2)cc1
REMARK SMILES IDX 13 1 12 2 11 3 9 4 10 5 8 6 5 7 6 8 69 9 7 10 68 11 4 12
REMARK SMILES IDX 1 13 2 14 3 15 72 16 70 17 73 18 71 19 74 20 75 21 84 22
REMARK SMILES IDX 76 23 83 24 77 25 78 26 79 27 82 28 80 29 81 30 14 31 15 32
REMARK SMILES IDX 16 33 17 34 18 35 19 36 20 37 21 38 67 39 22 40 66 41 23 42
REMARK SMILES IDX 24 43 25 44 60 45 26 46 65 47 59 48 61 49 27 50 64 51 58 52
REMARK SMILES IDX 57 53 28 55 50 56 35 57 49 58 36 59 39 60 48 61 62 62 37 63
REMARK SMILES IDX 38 64 47 66 63 67 40 68 29 69 30 70 34 71 31 72 33 73 32 74
REMARK SMILES IDX 51 75 52 76 56 77 53 78 55 79 54 80 41 81 42 82 46 83 43 84
REMARK SMILES IDX 45 85 44 86
REMARK H PARENT 61 54 39 65
REMARK Flexibility Score: inf
ROOT
ATOM      1  C   UNL     1       4.239   8.870  -0.590  1.00  0.00     0.202 C 
ENDROOT
BRANCH   1   2
ATOM      2  C   UNL     1       5.074   7.663  -0.149  1.00  0.00     0.261 C 
BRANCH   2   3
ATOM      3  O   UNL     1       4.388   6.426  -0.381  1.00  0.00    -0.460 OA
BRANCH   3   4
ATOM      4  C   UNL     1       3.891   5.839   0.736  1.00  0.00     0.338 C 
ATOM      5  O   UNL     1       4.065   6.188   1.891  1.00  0.00    -0.246 OA
BRANCH   4   6
ATOM      6  C   UNL     1       2.950   4.764   0.355  1.00  0.00     0.060 A 
ATOM      7  C   UNL     1       1.251   2.604  -0.129  1.00  0.00     0.069 A 
ATOM      8  C   UNL     1       0.933   3.518   0.879  1.00  0.00     0.029 A 
ATOM      9  C   UNL     1       2.355   2.847  -0.961  1.00  0.00     0.029 A 
ATOM     10  C   UNL     1       1.806   4.577   1.145  1.00  0.00     0.018 A 
ATOM     11  C   UNL     1       3.193   3.937  -0.739  1.00  0.00     0.018 A 
BRANCH   7  12
ATOM     12  N   UNL     1       0.574   1.375  -0.210  1.00  0.00    -0.196 N 
ATOM     13  C   UNL     1      -2.449  -0.545   0.131  1.00  0.00     0.069 C 
ATOM     14  C   UNL     1      -1.070   0.010  -0.000  1.00  0.00     0.071 C 
ATOM     15  N   UNL     1      -0.783   1.286   0.070  1.00  0.00    -0.169 NA
ATOM     16  C   UNL     1       0.130  -0.822  -0.202  1.00  0.00     0.065 C 
ATOM     17  C   UNL     1       1.216   0.152  -0.441  1.00  0.00     0.280 C 
ATOM     18  C   UNL     1       0.234  -2.149  -0.048  1.00  0.00     0.024 C 
ATOM     19  O   UNL     1       2.378  -0.089  -0.715  1.00  0.00    -0.267 OA
BRANCH  18  20
ATOM     20  C   UNL     1       1.530  -2.834   0.020  1.00  0.00    -0.025 A 
ATOM     21  C   UNL     1       1.996  -3.615  -1.036  1.00  0.00     0.010 A 
ATOM     22  C   UNL     1       2.341  -2.672   1.149  1.00  0.00     0.010 A 
ATOM     23  C   UNL     1       3.268  -4.205  -0.964  1.00  0.00     0.026 A 
ATOM     24  C   UNL     1       3.601  -3.276   1.213  1.00  0.00     0.026 A 
ATOM     25  C   UNL     1       4.093  -4.054   0.161  1.00  0.00     0.037 A 
BRANCH  25  26
ATOM     26  N   UNL     1       5.346  -4.624   0.194  1.00  0.00    -0.372 N 
ATOM     27  C   UNL     1       5.983  -5.138   1.402  1.00  0.00     0.116 C 
ATOM     28  C   UNL     1       6.331  -4.253  -0.822  1.00  0.00     0.116 C 
ATOM     29  C   UNL     1       7.436  -4.702   1.256  1.00  0.00     0.023 C 
ATOM     30  C   UNL     1       7.659  -4.750  -0.248  1.00  0.00     0.023 C 
ENDBRANCH  25  26
ENDBRANCH  18  20
ENDBRANCH   7  12
ENDBRANCH   4   6
ENDBRANCH   3   4
ENDBRANCH   2   3
ENDBRANCH   1   2
BRANCH   1  31
ATOM     31  O   UNL     1       2.979   9.069   0.047  1.00  0.00    -0.374 OA
BRANCH  31  32
ATOM     32  C   UNL     1       1.882   8.258  -0.374  1.00  0.00     0.202 C 
BRANCH  32  33
ATOM     33  C   UNL     1       1.213   8.603  -1.710  1.00  0.00     0.261 C 
BRANCH  33  34
ATOM     34  O   UNL     1       2.097   8.439  -2.832  1.00  0.00    -0.460 OA
BRANCH  34  35
ATOM     35  C   UNL     1       2.516   9.599  -3.393  1.00  0.00     0.338 C 
ATOM     36  O   UNL     1       2.185  10.733  -3.091  1.00  0.00    -0.246 OA
BRANCH  35  37
ATOM     37  C   UNL     1       3.606   9.326  -4.346  1.00  0.00     0.060 A 
ATOM     38  C   UNL     1       4.818  10.004  -4.160  1.00  0.00     0.016 A 
ATOM     39  C   UNL     1       3.422   8.487  -5.447  1.00  0.00     0.016 A 
ATOM     40  C   UNL     1       5.837   9.882  -5.101  1.00  0.00     0.010 A 
ATOM     41  C   UNL     1       4.443   8.373  -6.395  1.00  0.00     0.010 A 
ATOM     42  C   UNL     1       5.641   9.096  -6.244  1.00  0.00    -0.014 A 
BRANCH  42  43
ATOM     43  C   UNL     1       6.632   9.142  -7.346  1.00  0.00     0.031 A 
ATOM     44  C   UNL     1       6.331   9.970  -8.566  1.00  0.00     0.074 A 
ATOM     45  C   UNL     1       7.798   8.480  -7.250  1.00  0.00     0.049 A 
ATOM     46  N   UNL     1       7.032  10.118  -9.661  1.00  0.00    -0.248 NA
ATOM     47  C   UNL     1       5.073  10.734  -8.549  1.00  0.00     0.031 C 
ATOM     48  C   UNL     1       8.232   7.690  -6.098  1.00  0.00     0.029 A 
ATOM     49  N   UNL     1       8.834   8.369  -8.144  1.00  0.00    -0.354 N 
ATOM     50  C   UNL     1       6.301  10.987 -10.462  1.00  0.00     0.074 A 
ATOM     51  C   UNL     1       5.086  11.304  -9.745  1.00  0.00     0.031 C 
ATOM     52  C   UNL     1       9.447   7.174  -6.357  1.00  0.00     0.029 A 
ATOM     53  C   UNL     1       9.855   7.564  -7.705  1.00  0.00     0.049 A 
ATOM     54  H   UNL     1       8.843   8.824  -9.017  1.00  0.00     0.167 HD
ATOM     55  C   UNL     1       6.617  11.485 -11.681  1.00  0.00     0.031 A 
ATOM     56  C   UNL     1      10.981   7.169  -8.329  1.00  0.00     0.031 A 
ATOM     57  C   UNL     1       7.818  11.157 -12.403  1.00  0.00     0.049 A 
ATOM     58  C   UNL     1      11.256   7.653  -9.729  1.00  0.00     0.074 A 
ATOM     59  C   UNL     1       8.226  11.605 -13.648  1.00  0.00     0.029 A 
ATOM     60  N   UNL     1       8.802  10.294 -11.946  1.00  0.00    -0.354 N 
ATOM     61  N   UNL     1      10.563   8.483 -10.471  1.00  0.00    -0.248 NA
ATOM     62  C   UNL     1      12.476   7.147 -10.375  1.00  0.00     0.031 C 
ATOM     63  C   UNL     1       9.430  10.971 -13.968  1.00  0.00     0.029 A 
ATOM     64  C   UNL     1       9.805  10.179 -12.894  1.00  0.00     0.049 A 
ATOM     65  H   UNL     1       8.790   9.833 -11.077  1.00  0.00     0.167 HD
ATOM     66  C   UNL     1      11.283   8.628 -11.652  1.00  0.00     0.074 A 
ATOM     67  C   UNL     1      12.472   7.812 -11.521  1.00  0.00     0.031 C 
ATOM     68  C   UNL     1      10.987   9.371 -12.746  1.00  0.00     0.031 A 
BRANCH  55  69
ATOM     69  C   UNL     1       5.633  12.422 -12.325  1.00  0.00    -0.014 A 
ATOM     70  C   UNL     1       5.442  13.724 -11.835  1.00  0.00     0.009 A 
ATOM     71  C   UNL     1       4.922  12.014 -13.464  1.00  0.00     0.009 A 
ATOM     72  C   UNL     1       4.536  14.587 -12.456  1.00  0.00     0.001 A 
ATOM     73  C   UNL     1       4.039  12.889 -14.100  1.00  0.00     0.001 A 
ATOM     74  C   UNL     1       3.841  14.171 -13.591  1.00  0.00     0.000 A 
ENDBRANCH  55  69
BRANCH  56  75
ATOM     75  C   UNL     1      11.933   6.245  -7.656  1.00  0.00    -0.014 A 
ATOM     76  C   UNL     1      13.224   6.674  -7.311  1.00  0.00     0.009 A 
ATOM     77  C   UNL     1      11.572   4.912  -7.400  1.00  0.00     0.009 A 
ATOM     78  C   UNL     1      14.144   5.779  -6.759  1.00  0.00     0.001 A 
ATOM     79  C   UNL     1      12.483   4.029  -6.817  1.00  0.00     0.001 A 
ATOM     80  C   UNL     1      13.773   4.460  -6.510  1.00  0.00     0.000 A 
ENDBRANCH  56  75
BRANCH  68  81
ATOM     81  C   UNL     1      11.991   9.381 -13.867  1.00  0.00    -0.014 A 
ATOM     82  C   UNL     1      12.193   8.257 -14.682  1.00  0.00     0.009 A 
ATOM     83  C   UNL     1      12.718  10.552 -14.133  1.00  0.00     0.009 A 
ATOM     84  C   UNL     1      13.131   8.294 -15.716  1.00  0.00     0.001 A 
ATOM     85  C   UNL     1      13.631  10.598 -15.187  1.00  0.00     0.001 A 
ATOM     86  C   UNL     1      13.845   9.465 -15.971  1.00  0.00     0.000 A 
ENDBRANCH  68  81
ENDBRANCH  42  43
ENDBRANCH  35  37
ENDBRANCH  34  35
ENDBRANCH  33  34
ENDBRANCH  32  33
ENDBRANCH  31  32
ENDBRANCH   1  31
TORSDOF 17
