REMARK SMILES C/C=C/c1cncc(-c2ccc([C@@H](C)C(=O)OCCOCCOC(=O)c3ccc(-c4c5nc(c(-c6ccccc6)c6ccc([nH]6)c(-c6ccccc6)c6nc(c(-c7ccccc7)c7ccc4[nH]7)C=C6)C=C5)cc3)cc2)c1
REMARK SMILES IDX 19 1 18 2 17 3 15 4 16 5 13 6 14 7 12 8 9 9 10 10 75 11
REMARK SMILES IDX 11 12 74 13 8 14 4 15 5 16 76 17 6 18 7 19 3 20 1 21 2 22
REMARK SMILES IDX 20 23 21 24 22 25 23 26 24 27 25 28 26 29 27 30 73 31 28 32
REMARK SMILES IDX 72 33 29 34 30 35 31 36 66 37 32 38 71 39 65 40 67 41 33 42
REMARK SMILES IDX 70 43 64 44 63 45 34 47 56 48 41 49 55 50 42 51 45 52 54 53
REMARK SMILES IDX 68 54 43 55 44 56 53 58 69 59 46 60 35 61 36 62 40 63 37 64
REMARK SMILES IDX 39 65 38 66 57 67 58 68 62 69 59 70 61 71 60 72 47 73 48 74
REMARK SMILES IDX 52 75 49 76 51 77 50 78
REMARK H PARENT 67 46 45 57
REMARK Flexibility Score: inf
ROOT
ATOM      1  C   UNL     1       4.482  -4.580  -8.320  1.00  0.00     0.202 C 
ENDROOT
BRANCH   1   2
ATOM      2  C   UNL     1       4.090  -5.972  -8.821  1.00  0.00     0.261 C 
BRANCH   2   3
ATOM      3  O   UNL     1       3.255  -6.647  -7.862  1.00  0.00    -0.463 OA
BRANCH   3   4
ATOM      4  C   UNL     1       3.746  -7.806  -7.351  1.00  0.00     0.313 C 
ATOM      5  O   UNL     1       4.762  -8.364  -7.754  1.00  0.00    -0.252 OA
BRANCH   4   6
ATOM      6  C   UNL     1       2.890  -8.401  -6.242  1.00  0.00     0.126 C 
ATOM      7  C   UNL     1       2.006  -9.499  -6.828  1.00  0.00     0.025 C 
BRANCH   6   8
ATOM      8  C   UNL     1       2.097  -7.437  -5.364  1.00  0.00    -0.034 A 
ATOM      9  C   UNL     1       0.532  -5.816  -3.622  1.00  0.00    -0.017 A 
ATOM     10  C   UNL     1       0.237  -5.907  -4.991  1.00  0.00     0.009 A 
ATOM     11  C   UNL     1       1.645  -6.520  -3.145  1.00  0.00     0.009 A 
ATOM     12  C   UNL     1       1.006  -6.704  -5.849  1.00  0.00     0.005 A 
ATOM     13  C   UNL     1       2.414  -7.319  -4.000  1.00  0.00     0.005 A 
BRANCH   9  14
ATOM     14  C   UNL     1      -0.328  -5.047  -2.714  1.00  0.00     0.001 A 
ATOM     15  C   UNL     1      -0.705  -3.250  -1.115  1.00  0.00    -0.007 A 
ATOM     16  C   UNL     1      -2.024  -3.686  -1.026  1.00  0.00     0.119 A 
ATOM     17  C   UNL     1       0.151  -3.963  -1.964  1.00  0.00     0.020 A 
ATOM     18  N   UNL     1      -2.533  -4.727  -1.722  1.00  0.00    -0.263 NA
ATOM     19  C   UNL     1      -1.675  -5.375  -2.545  1.00  0.00     0.119 A 
BRANCH  15  20
ATOM     20  C   UNL     1      -0.259  -2.111  -0.306  1.00  0.00     0.005 C 
ATOM     21  C   UNL     1       0.945   0.057   0.028  1.00  0.00     0.035 C 
ATOM     22  C   UNL     1       0.524  -1.129  -0.779  1.00  0.00    -0.030 C 
ENDBRANCH  15  20
ENDBRANCH   9  14
ENDBRANCH   6   8
ENDBRANCH   4   6
ENDBRANCH   3   4
ENDBRANCH   2   3
ENDBRANCH   1   2
BRANCH   1  23
ATOM     23  O   UNL     1       5.379  -4.552  -7.209  1.00  0.00    -0.374 OA
BRANCH  23  24
ATOM     24  C   UNL     1       4.826  -4.820  -5.920  1.00  0.00     0.202 C 
BRANCH  24  25
ATOM     25  C   UNL     1       4.079  -3.659  -5.256  1.00  0.00     0.261 C 
BRANCH  25  26
ATOM     26  O   UNL     1       2.867  -3.325  -5.958  1.00  0.00    -0.460 OA
BRANCH  26  27
ATOM     27  C   UNL     1       2.862  -2.106  -6.544  1.00  0.00     0.338 C 
ATOM     28  O   UNL     1       3.721  -1.240  -6.467  1.00  0.00    -0.246 OA
BRANCH  27  29
ATOM     29  C   UNL     1       1.718  -1.996  -7.467  1.00  0.00     0.060 A 
ATOM     30  C   UNL     1       1.987  -1.607  -8.786  1.00  0.00     0.016 A 
ATOM     31  C   UNL     1       0.403  -2.193  -7.040  1.00  0.00     0.016 A 
ATOM     32  C   UNL     1       0.939  -1.369  -9.672  1.00  0.00     0.010 A 
ATOM     33  C   UNL     1      -0.649  -1.943  -7.929  1.00  0.00     0.010 A 
ATOM     34  C   UNL     1      -0.387  -1.499  -9.238  1.00  0.00    -0.014 A 
BRANCH  34  35
ATOM     35  C   UNL     1      -1.490  -1.042 -10.117  1.00  0.00     0.031 A 
ATOM     36  C   UNL     1      -2.078   0.326  -9.907  1.00  0.00     0.074 A 
ATOM     37  C   UNL     1      -1.943  -1.822 -11.115  1.00  0.00     0.049 A 
ATOM     38  N   UNL     1      -3.050   0.918 -10.553  1.00  0.00    -0.248 NA
ATOM     39  C   UNL     1      -1.487   1.137  -8.830  1.00  0.00     0.031 C 
ATOM     40  C   UNL     1      -1.427  -3.146 -11.456  1.00  0.00     0.029 A 
ATOM     41  N   UNL     1      -2.946  -1.604 -12.026  1.00  0.00    -0.354 N 
ATOM     42  C   UNL     1      -3.192   2.166  -9.960  1.00  0.00     0.074 A 
ATOM     43  C   UNL     1      -2.223   2.238  -8.887  1.00  0.00     0.031 C 
ATOM     44  C   UNL     1      -2.123  -3.628 -12.501  1.00  0.00     0.029 A 
ATOM     45  C   UNL     1      -3.149  -2.659 -12.881  1.00  0.00     0.049 A 
ATOM     46  H   UNL     1      -3.469  -0.771 -12.064  1.00  0.00     0.167 HD
ATOM     47  C   UNL     1      -4.046   3.166 -10.281  1.00  0.00     0.031 A 
ATOM     48  C   UNL     1      -4.072  -2.833 -13.846  1.00  0.00     0.031 A 
ATOM     49  C   UNL     1      -5.022   3.095 -11.335  1.00  0.00     0.049 A 
ATOM     50  C   UNL     1      -5.072  -1.742 -14.123  1.00  0.00     0.074 A 
ATOM     51  C   UNL     1      -5.921   4.065 -11.745  1.00  0.00     0.029 A 
ATOM     52  N   UNL     1      -5.233   1.988 -12.140  1.00  0.00    -0.354 N 
ATOM     53  N   UNL     1      -5.177  -0.558 -13.572  1.00  0.00    -0.248 NA
ATOM     54  C   UNL     1      -6.079  -2.016 -15.160  1.00  0.00     0.031 C 
ATOM     55  C   UNL     1      -6.713   3.524 -12.764  1.00  0.00     0.029 A 
ATOM     56  C   UNL     1      -6.270   2.237 -13.023  1.00  0.00     0.049 A 
ATOM     57  H   UNL     1      -4.721   1.148 -12.091  1.00  0.00     0.167 HD
ATOM     58  C   UNL     1      -6.244   0.063 -14.210  1.00  0.00     0.074 A 
ATOM     59  C   UNL     1      -6.745  -0.870 -15.198  1.00  0.00     0.031 C 
ATOM     60  C   UNL     1      -6.761   1.298 -13.997  1.00  0.00     0.031 A 
BRANCH  47  61
ATOM     61  C   UNL     1      -3.986   4.417  -9.452  1.00  0.00    -0.014 A 
ATOM     62  C   UNL     1      -2.926   5.328  -9.585  1.00  0.00     0.009 A 
ATOM     63  C   UNL     1      -5.022   4.705  -8.550  1.00  0.00     0.009 A 
ATOM     64  C   UNL     1      -2.890   6.487  -8.807  1.00  0.00     0.001 A 
ATOM     65  C   UNL     1      -4.996   5.877  -7.792  1.00  0.00     0.001 A 
ATOM     66  C   UNL     1      -3.927   6.762  -7.915  1.00  0.00     0.000 A 
ENDBRANCH  47  61
BRANCH  48  67
ATOM     67  C   UNL     1      -4.116  -4.105 -14.612  1.00  0.00    -0.014 A 
ATOM     68  C   UNL     1      -3.748  -4.140 -15.965  1.00  0.00     0.009 A 
ATOM     69  C   UNL     1      -4.548  -5.290 -13.994  1.00  0.00     0.009 A 
ATOM     70  C   UNL     1      -3.832  -5.332 -16.689  1.00  0.00     0.001 A 
ATOM     71  C   UNL     1      -4.607  -6.484 -14.713  1.00  0.00     0.001 A 
ATOM     72  C   UNL     1      -4.256  -6.503 -16.062  1.00  0.00     0.000 A 
ENDBRANCH  48  67
BRANCH  60  73
ATOM     73  C   UNL     1      -7.912   1.723 -14.865  1.00  0.00    -0.014 A 
ATOM     74  C   UNL     1      -9.199   1.198 -14.674  1.00  0.00     0.009 A 
ATOM     75  C   UNL     1      -7.712   2.695 -15.858  1.00  0.00     0.009 A 
ATOM     76  C   UNL     1     -10.259   1.619 -15.481  1.00  0.00     0.001 A 
ATOM     77  C   UNL     1      -8.778   3.132 -16.646  1.00  0.00     0.001 A 
ATOM     78  C   UNL     1     -10.049   2.588 -16.462  1.00  0.00     0.000 A 
ENDBRANCH  60  73
ENDBRANCH  34  35
ENDBRANCH  27  29
ENDBRANCH  26  27
ENDBRANCH  25  26
ENDBRANCH  24  25
ENDBRANCH  23  24
ENDBRANCH   1  23
TORSDOF 17
