REMARK SMILES CCNS(=O)(=O)c1ccc(CC(=O)OCCOCCOC(=O)c2ccc(-c3c4nc(c(-c5ccccc5)c5ccc([nH]5)c(-c5ccccc5)c5nc(c(-c6ccccc6)c6ccc3[nH]6)C=C5)C=C4)cc2)cc1
REMARK SMILES IDX 16 1 15 2 14 3 12 4 13 5 11 6 10 7 7 8 8 9 72 10 9 11 71 12
REMARK SMILES IDX 4 13 5 14 6 15 3 16 2 18 1 19 17 20 18 21 19 22 20 23 21 24
REMARK SMILES IDX 22 25 23 26 24 27 70 28 25 29 69 30 26 31 27 32 28 33 63 34
REMARK SMILES IDX 29 35 68 36 62 37 64 38 30 39 67 40 61 41 60 42 31 44 53 45
REMARK SMILES IDX 38 46 52 47 39 48 42 49 51 50 65 51 40 52 41 53 50 55 66 56
REMARK SMILES IDX 43 57 32 58 33 59 37 60 34 61 36 62 35 63 54 64 55 65 59 66
REMARK SMILES IDX 56 67 58 68 57 69 44 70 45 71 49 72 46 73 48 74 47 75
REMARK H PARENT 3 17 64 43 42 54
REMARK Flexibility Score: inf
ROOT
ATOM      1  C   UNL     1      -6.568   1.968   7.810  1.00  0.00     0.202 C 
ENDROOT
BRANCH   1   2
ATOM      2  C   UNL     1      -6.965   0.593   7.261  1.00  0.00     0.261 C 
BRANCH   2   3
ATOM      3  O   UNL     1      -6.119   0.146   6.184  1.00  0.00    -0.463 OA
BRANCH   3   4
ATOM      4  C   UNL     1      -6.741  -0.022   4.987  1.00  0.00     0.310 C 
ATOM      5  O   UNL     1      -7.949   0.117   4.808  1.00  0.00    -0.252 OA
BRANCH   4   6
ATOM      6  C   UNL     1      -5.833  -0.429   3.852  1.00  0.00     0.158 C 
BRANCH   6   7
ATOM      7  C   UNL     1      -4.336  -0.270   4.001  1.00  0.00    -0.037 A 
ATOM      8  C   UNL     1      -1.542  -0.062   4.083  1.00  0.00     0.082 A 
ATOM      9  C   UNL     1      -2.302   1.036   3.680  1.00  0.00     0.022 A 
ATOM     10  C   UNL     1      -2.161  -1.255   4.462  1.00  0.00     0.022 A 
ATOM     11  C   UNL     1      -3.695   0.925   3.630  1.00  0.00     0.006 A 
ATOM     12  C   UNL     1      -3.554  -1.353   4.430  1.00  0.00     0.006 A 
BRANCH   8  13
ATOM     13  S   UNL     1       0.228   0.044   4.083  1.00  0.00     0.240 S 
ATOM     14  O   UNL     1       0.776  -1.279   4.293  1.00  0.00    -0.207 OA
ATOM     15  O   UNL     1       0.595   1.158   4.926  1.00  0.00    -0.207 OA
BRANCH  13  16
ATOM     16  N   UNL     1       0.596   0.495   2.500  1.00  0.00    -0.211 NA
ATOM     17  H   UNL     1       0.003   1.291   2.266  1.00  0.00     0.141 HD
BRANCH  16  18
ATOM     18  C   UNL     1       0.422  -0.504   1.440  1.00  0.00     0.095 C 
ATOM     19  C   UNL     1       0.942   0.060   0.128  1.00  0.00     0.022 C 
ENDBRANCH  16  18
ENDBRANCH  13  16
ENDBRANCH   8  13
ENDBRANCH   6   7
ENDBRANCH   4   6
ENDBRANCH   3   4
ENDBRANCH   2   3
ENDBRANCH   1   2
BRANCH   1  20
ATOM     20  O   UNL     1      -6.572   3.069   6.905  1.00  0.00    -0.374 OA
BRANCH  20  21
ATOM     21  C   UNL     1      -5.555   3.113   5.907  1.00  0.00     0.202 C 
BRANCH  21  22
ATOM     22  C   UNL     1      -4.128   3.453   6.357  1.00  0.00     0.261 C 
BRANCH  22  23
ATOM     23  O   UNL     1      -3.610   2.544   7.342  1.00  0.00    -0.460 OA
BRANCH  23  24
ATOM     24  C   UNL     1      -3.421   3.106   8.560  1.00  0.00     0.338 C 
ATOM     25  O   UNL     1      -3.568   4.279   8.864  1.00  0.00    -0.246 OA
BRANCH  24  26
ATOM     26  C   UNL     1      -3.174   2.074   9.584  1.00  0.00     0.060 A 
ATOM     27  C   UNL     1      -3.973   2.129  10.733  1.00  0.00     0.016 A 
ATOM     28  C   UNL     1      -2.126   1.157   9.490  1.00  0.00     0.016 A 
ATOM     29  C   UNL     1      -3.675   1.324  11.826  1.00  0.00     0.010 A 
ATOM     30  C   UNL     1      -1.829   0.344  10.592  1.00  0.00     0.010 A 
ATOM     31  C   UNL     1      -2.571   0.462  11.782  1.00  0.00    -0.014 A 
BRANCH  31  32
ATOM     32  C   UNL     1      -2.136  -0.185  13.044  1.00  0.00     0.031 A 
ATOM     33  C   UNL     1      -0.970   0.388  13.806  1.00  0.00     0.074 A 
ATOM     34  C   UNL     1      -2.843  -1.206  13.561  1.00  0.00     0.049 A 
ATOM     35  N   UNL     1      -0.504   0.053  14.983  1.00  0.00    -0.248 NA
ATOM     36  C   UNL     1      -0.237   1.489  13.161  1.00  0.00     0.031 C 
ATOM     37  C   UNL     1      -4.015  -1.821  12.939  1.00  0.00     0.029 A 
ATOM     38  N   UNL     1      -2.692  -1.887  14.743  1.00  0.00    -0.354 N 
ATOM     39  C   UNL     1       0.573   0.900  15.218  1.00  0.00     0.074 A 
ATOM     40  C   UNL     1       0.716   1.737  14.047  1.00  0.00     0.031 C 
ATOM     41  C   UNL     1      -4.490  -2.776  13.755  1.00  0.00     0.029 A 
ATOM     42  C   UNL     1      -3.643  -2.857  14.942  1.00  0.00     0.049 A 
ATOM     43  H   UNL     1      -1.971  -1.698  15.386  1.00  0.00     0.167 HD
ATOM     44  C   UNL     1       1.365   0.983  16.314  1.00  0.00     0.031 A 
ATOM     45  C   UNL     1      -3.811  -3.714  15.967  1.00  0.00     0.031 A 
ATOM     46  C   UNL     1       1.234   0.139  17.473  1.00  0.00     0.049 A 
ATOM     47  C   UNL     1      -2.878  -3.643  17.146  1.00  0.00     0.074 A 
ATOM     48  C   UNL     1       1.981   0.150  18.638  1.00  0.00     0.029 A 
ATOM     49  N   UNL     1       0.297  -0.873  17.609  1.00  0.00    -0.354 N 
ATOM     50  N   UNL     1      -1.886  -2.816  17.368  1.00  0.00    -0.248 NA
ATOM     51  C   UNL     1      -3.104  -4.617  18.223  1.00  0.00     0.031 C 
ATOM     52  C   UNL     1       1.535  -0.896  19.453  1.00  0.00     0.029 A 
ATOM     53  C   UNL     1       0.464  -1.513  18.826  1.00  0.00     0.049 A 
ATOM     54  H   UNL     1      -0.387  -1.104  16.939  1.00  0.00     0.167 HD
ATOM     55  C   UNL     1      -1.386  -3.150  18.620  1.00  0.00     0.074 A 
ATOM     56  C   UNL     1      -2.201  -4.240  19.117  1.00  0.00     0.031 C 
ATOM     57  C   UNL     1      -0.347  -2.604  19.301  1.00  0.00     0.031 A 
BRANCH  44  58
ATOM     58  C   UNL     1       2.472   2.003  16.294  1.00  0.00    -0.014 A 
ATOM     59  C   UNL     1       2.201   3.380  16.366  1.00  0.00     0.009 A 
ATOM     60  C   UNL     1       3.808   1.580  16.230  1.00  0.00     0.009 A 
ATOM     61  C   UNL     1       3.244   4.309  16.340  1.00  0.00     0.001 A 
ATOM     62  C   UNL     1       4.850   2.509  16.235  1.00  0.00     0.001 A 
ATOM     63  C   UNL     1       4.567   3.873  16.279  1.00  0.00     0.000 A 
ENDBRANCH  44  58
BRANCH  45  64
ATOM     64  C   UNL     1      -4.908  -4.717  15.927  1.00  0.00    -0.014 A 
ATOM     65  C   UNL     1      -5.993  -4.636  16.813  1.00  0.00     0.009 A 
ATOM     66  C   UNL     1      -4.864  -5.776  15.005  1.00  0.00     0.009 A 
ATOM     67  C   UNL     1      -6.996  -5.609  16.795  1.00  0.00     0.001 A 
ATOM     68  C   UNL     1      -5.884  -6.728  14.968  1.00  0.00     0.001 A 
ATOM     69  C   UNL     1      -6.943  -6.651  15.870  1.00  0.00     0.000 A 
ENDBRANCH  45  64
BRANCH  57  70
ATOM     70  C   UNL     1      -0.060  -3.160  20.669  1.00  0.00    -0.014 A 
ATOM     71  C   UNL     1       0.461  -4.452  20.842  1.00  0.00     0.009 A 
ATOM     72  C   UNL     1      -0.306  -2.371  21.804  1.00  0.00     0.009 A 
ATOM     73  C   UNL     1       0.681  -4.960  22.124  1.00  0.00     0.001 A 
ATOM     74  C   UNL     1      -0.052  -2.868  23.083  1.00  0.00     0.001 A 
ATOM     75  C   UNL     1       0.427  -4.167  23.243  1.00  0.00     0.000 A 
ENDBRANCH  57  70
ENDBRANCH  31  32
ENDBRANCH  24  26
ENDBRANCH  23  24
ENDBRANCH  22  23
ENDBRANCH  21  22
ENDBRANCH  20  21
ENDBRANCH   1  20
TORSDOF 18
