REMARK SMILES O=C(OCCOCCOC(=O)c1cccnc1NC[C@H](c1ccccc1)[NH+]1CCOCC1)c1ccc(-c2c3nc(c(-c4ccccc4)c4ccc([nH]4)c(-c4ccccc4)c4nc(c(-c5ccccc5)c5ccc2[nH]5)C=C4)C=C3)cc1
REMARK SMILES IDX 7 1 6 2 5 3 4 4 3 5 2 6 1 7 33 8 34 9 80 10 35 11 79 12
REMARK SMILES IDX 36 13 37 14 38 15 73 16 39 17 78 18 72 19 74 20 40 21 77 22
REMARK SMILES IDX 71 23 70 24 41 26 63 27 48 28 62 29 49 30 52 31 61 32 75 33
REMARK SMILES IDX 50 34 51 35 60 37 76 38 53 39 42 40 43 41 47 42 44 43 46 44
REMARK SMILES IDX 45 45 64 46 65 47 69 48 66 49 68 50 67 51 54 52 55 53 59 54
REMARK SMILES IDX 56 55 58 56 57 57 8 58 9 59 10 60 11 61 12 62 13 63 17 64
REMARK SMILES IDX 14 65 16 66 15 67 18 68 19 70 20 71 27 72 28 73 32 74 29 76
REMARK SMILES IDX 31 77 30 78 21 79 22 80 26 81 23 82 25 83 24 84
REMARK H PARENT 74 25 52 36 18 69 27 75
REMARK Flexibility Score: inf
ROOT
ATOM      1  C   UNL     1       7.481  -5.457   1.532  1.00  0.00     0.202 C 
ENDROOT
BRANCH   1   2
ATOM      2  O   UNL     1       8.148  -4.221   1.771  1.00  0.00    -0.374 OA
BRANCH   2   3
ATOM      3  C   UNL     1       8.748  -3.582   0.653  1.00  0.00     0.202 C 
BRANCH   3   4
ATOM      4  C   UNL     1      10.179  -4.019   0.348  1.00  0.00     0.261 C 
BRANCH   4   5
ATOM      5  O   UNL     1      10.273  -5.449   0.268  1.00  0.00    -0.460 OA
BRANCH   5   6
ATOM      6  C   UNL     1      10.893  -6.252   1.166  1.00  0.00     0.338 C 
ATOM      7  O   UNL     1      11.060  -7.441   0.908  1.00  0.00    -0.246 OA
BRANCH   6   8
ATOM      8  C   UNL     1      11.386  -5.741   2.475  1.00  0.00     0.060 A 
ATOM      9  C   UNL     1      10.692  -4.797   3.229  1.00  0.00     0.016 A 
ATOM     10  C   UNL     1      12.528  -6.324   3.037  1.00  0.00     0.016 A 
ATOM     11  C   UNL     1      11.115  -4.390   4.474  1.00  0.00     0.010 A 
ATOM     12  C   UNL     1      12.923  -5.983   4.335  1.00  0.00     0.010 A 
ATOM     13  C   UNL     1      12.194  -5.030   5.060  1.00  0.00    -0.014 A 
BRANCH  13  14
ATOM     14  C   UNL     1      12.499  -4.670   6.450  1.00  0.00     0.031 A 
ATOM     15  C   UNL     1      13.715  -3.856   6.726  1.00  0.00     0.074 A 
ATOM     16  C   UNL     1      11.607  -4.983   7.410  1.00  0.00     0.049 A 
ATOM     17  N   UNL     1      14.233  -3.525   7.875  1.00  0.00    -0.248 NA
ATOM     18  C   UNL     1      14.443  -3.336   5.555  1.00  0.00     0.031 C 
ATOM     19  C   UNL     1      10.315  -5.647   7.184  1.00  0.00     0.029 A 
ATOM     20  N   UNL     1      11.629  -4.763   8.759  1.00  0.00    -0.354 N 
ATOM     21  C   UNL     1      15.380  -2.809   7.567  1.00  0.00     0.074 A 
ATOM     22  C   UNL     1      15.472  -2.728   6.128  1.00  0.00     0.031 C 
ATOM     23  C   UNL     1       9.666  -5.761   8.353  1.00  0.00     0.029 A 
ATOM     24  C   UNL     1      10.535  -5.278   9.414  1.00  0.00     0.049 A 
ATOM     25  H   UNL     1      12.356  -4.283   9.216  1.00  0.00     0.167 HD
ATOM     26  C   UNL     1      16.283  -2.299   8.432  1.00  0.00     0.031 A 
ATOM     27  C   UNL     1      10.306  -5.406  10.733  1.00  0.00     0.031 A 
ATOM     28  C   UNL     1      16.145  -2.405   9.857  1.00  0.00     0.049 A 
ATOM     29  C   UNL     1      11.383  -4.926  11.665  1.00  0.00     0.074 A 
ATOM     30  C   UNL     1      17.005  -1.966  10.844  1.00  0.00     0.029 A 
ATOM     31  N   UNL     1      15.064  -3.002  10.494  1.00  0.00    -0.354 N 
ATOM     32  N   UNL     1      12.499  -4.296  11.378  1.00  0.00    -0.248 NA
ATOM     33  C   UNL     1      11.192  -5.198  13.094  1.00  0.00     0.031 C 
ATOM     34  C   UNL     1      16.474  -2.355  12.078  1.00  0.00     0.029 A 
ATOM     35  C   UNL     1      15.254  -2.981  11.862  1.00  0.00     0.049 A 
ATOM     36  H   UNL     1      14.280  -3.384  10.038  1.00  0.00     0.167 HD
ATOM     37  C   UNL     1      13.142  -4.093  12.589  1.00  0.00     0.074 A 
ATOM     38  C   UNL     1      12.271  -4.633  13.616  1.00  0.00     0.031 C 
ATOM     39  C   UNL     1      14.348  -3.529  12.839  1.00  0.00     0.031 A 
BRANCH  26  40
ATOM     40  C   UNL     1      17.525  -1.692   7.854  1.00  0.00    -0.014 A 
ATOM     41  C   UNL     1      17.517  -0.442   7.218  1.00  0.00     0.009 A 
ATOM     42  C   UNL     1      18.734  -2.400   7.951  1.00  0.00     0.009 A 
ATOM     43  C   UNL     1      18.694   0.075   6.670  1.00  0.00     0.001 A 
ATOM     44  C   UNL     1      19.912  -1.871   7.424  1.00  0.00     0.001 A 
ATOM     45  C   UNL     1      19.890  -0.636   6.777  1.00  0.00     0.000 A 
ENDBRANCH  26  40
BRANCH  27  46
ATOM     46  C   UNL     1       9.099  -6.116  11.241  1.00  0.00    -0.014 A 
ATOM     47  C   UNL     1       8.167  -5.467  12.064  1.00  0.00     0.009 A 
ATOM     48  C   UNL     1       8.898  -7.476  10.945  1.00  0.00     0.009 A 
ATOM     49  C   UNL     1       7.089  -6.172  12.611  1.00  0.00     0.001 A 
ATOM     50  C   UNL     1       7.801  -8.169  11.460  1.00  0.00     0.001 A 
ATOM     51  C   UNL     1       6.906  -7.521  12.307  1.00  0.00     0.000 A 
ENDBRANCH  27  46
BRANCH  39  52
ATOM     52  C   UNL     1      14.770  -3.456  14.275  1.00  0.00    -0.014 A 
ATOM     53  C   UNL     1      15.193  -4.604  14.961  1.00  0.00     0.009 A 
ATOM     54  C   UNL     1      14.802  -2.213  14.924  1.00  0.00     0.009 A 
ATOM     55  C   UNL     1      15.621  -4.509  16.285  1.00  0.00     0.001 A 
ATOM     56  C   UNL     1      15.263  -2.118  16.235  1.00  0.00     0.001 A 
ATOM     57  C   UNL     1      15.664  -3.266  16.916  1.00  0.00     0.000 A 
ENDBRANCH  39  52
ENDBRANCH  13  14
ENDBRANCH   6   8
ENDBRANCH   5   6
ENDBRANCH   4   5
ENDBRANCH   3   4
ENDBRANCH   2   3
ENDBRANCH   1   2
BRANCH   1  58
ATOM     58  C   UNL     1       6.090  -5.350   2.158  1.00  0.00     0.261 C 
BRANCH  58  59
ATOM     59  O   UNL     1       5.345  -4.356   1.431  1.00  0.00    -0.460 OA
BRANCH  59  60
ATOM     60  C   UNL     1       5.562  -3.054   1.788  1.00  0.00     0.341 C 
ATOM     61  O   UNL     1       6.047  -2.640   2.816  1.00  0.00    -0.246 OA
BRANCH  60  62
ATOM     62  C   UNL     1       5.215  -2.216   0.617  1.00  0.00     0.102 A 
ATOM     63  C   UNL     1       4.099  -2.567  -0.155  1.00  0.00     0.021 A 
ATOM     64  C   UNL     1       6.013  -1.121   0.237  1.00  0.00     0.140 A 
ATOM     65  C   UNL     1       3.796  -1.829  -1.285  1.00  0.00     0.021 A 
ATOM     66  N   UNL     1       5.719  -0.422  -0.884  1.00  0.00    -0.239 NA
ATOM     67  C   UNL     1       4.627  -0.772  -1.602  1.00  0.00     0.113 A 
BRANCH  64  68
ATOM     68  N   UNL     1       7.166  -0.784   0.918  1.00  0.00    -0.363 N 
ATOM     69  H   UNL     1       7.332  -1.216   1.787  1.00  0.00     0.162 HD
BRANCH  68  70
ATOM     70  C   UNL     1       8.160   0.180   0.426  1.00  0.00     0.184 C 
BRANCH  70  71
ATOM     71  C   UNL     1       8.577   1.187   1.552  1.00  0.00     0.234 C 
BRANCH  71  72
ATOM     72  N   UNL     1       9.901   1.830   1.379  1.00  0.00    -0.323 N 
ATOM     73  C   UNL     1      10.431   2.478   2.594  1.00  0.00     0.291 C 
ATOM     74  C   UNL     1      10.156   2.656   0.192  1.00  0.00     0.291 C 
ATOM     75  H   UNL     1      10.437   0.984   1.183  1.00  0.00     0.348 HD
ATOM     76  C   UNL     1      10.137   3.982   2.697  1.00  0.00     0.221 C 
ATOM     77  C   UNL     1      10.000   4.183   0.366  1.00  0.00     0.221 C 
ATOM     78  O   UNL     1      10.648   4.666   1.548  1.00  0.00    -0.370 OA
ENDBRANCH  71  72
BRANCH  71  79
ATOM     79  C   UNL     1       7.420   2.120   1.881  1.00  0.00     0.011 A 
ATOM     80  C   UNL     1       6.848   2.963   0.917  1.00  0.00     0.010 A 
ATOM     81  C   UNL     1       6.864   2.102   3.169  1.00  0.00     0.010 A 
ATOM     82  C   UNL     1       5.787   3.806   1.245  1.00  0.00     0.001 A 
ATOM     83  C   UNL     1       5.785   2.925   3.490  1.00  0.00     0.001 A 
ATOM     84  C   UNL     1       5.256   3.786   2.531  1.00  0.00     0.000 A 
ENDBRANCH  71  79
ENDBRANCH  70  71
ENDBRANCH  68  70
ENDBRANCH  64  68
ENDBRANCH  60  62
ENDBRANCH  59  60
ENDBRANCH  58  59
ENDBRANCH   1  58
TORSDOF 19
