REMARK SMILES CC(C)(C)OC(=O)N1C[C@H](Oc2ccncc2)C[C@H]1C(=O)OCCOCCOC(=O)c1ccc(-c2c3nc(c(-c4ccccc4)c4ccc([nH]4)c(-c4ccccc4)c4nc(c(-c5ccccc5)c5ccc2[nH]5)C=C4)C=C3)cc1
REMARK SMILES IDX 24 1 23 2 22 3 20 4 21 5 19 6 8 7 9 8 10 9 18 10 6 11 7 12
REMARK SMILES IDX 5 13 2 14 1 15 3 16 4 17 11 18 12 19 13 20 17 21 14 22 16 23
REMARK SMILES IDX 15 24 25 25 26 26 27 27 28 28 29 29 30 30 31 31 32 32 78 33
REMARK SMILES IDX 33 34 77 35 34 36 35 37 36 38 71 39 37 40 76 41 70 42 72 43
REMARK SMILES IDX 38 44 75 45 69 46 68 47 39 49 61 50 46 51 60 52 47 53 50 54
REMARK SMILES IDX 59 55 73 56 48 57 49 58 58 60 74 61 51 62 40 63 41 64 45 65
REMARK SMILES IDX 42 66 44 67 43 68 62 69 63 70 67 71 64 72 66 73 65 74 52 75
REMARK SMILES IDX 53 76 57 77 54 78 56 79 55 80
REMARK H PARENT 72 48 50 59
REMARK Flexibility Score: inf
ROOT
ATOM      1  C   UNL     1       0.126  -3.098   9.028  1.00  0.00     0.202 C 
ENDROOT
BRANCH   1   2
ATOM      2  C   UNL     1      -1.062  -3.045   8.060  1.00  0.00     0.261 C 
BRANCH   2   3
ATOM      3  O   UNL     1      -0.818  -3.692   6.802  1.00  0.00    -0.462 OA
BRANCH   3   4
ATOM      4  C   UNL     1      -0.396  -2.833   5.830  1.00  0.00     0.329 C 
ATOM      5  O   UNL     1      -0.205  -1.637   6.019  1.00  0.00    -0.250 OA
BRANCH   4   6
ATOM      6  C   UNL     1      -0.188  -3.550   4.483  1.00  0.00     0.202 C 
ATOM      7  N   UNL     1       0.655  -2.690   3.661  1.00  0.00    -0.291 N 
ATOM      8  C   UNL     1       2.005  -3.202   3.546  1.00  0.00     0.169 C 
ATOM      9  C   UNL     1       1.806  -4.714   3.640  1.00  0.00     0.195 C 
ATOM     10  C   UNL     1       0.580  -4.884   4.561  1.00  0.00     0.084 C 
BRANCH   7  11
ATOM     11  C   UNL     1       0.120  -1.572   3.076  1.00  0.00     0.411 C 
ATOM     12  O   UNL     1      -1.037  -1.224   3.274  1.00  0.00    -0.224 OA
BRANCH  11  13
ATOM     13  O   UNL     1       0.991  -0.964   2.238  1.00  0.00    -0.444 OA
BRANCH  13  14
ATOM     14  C   UNL     1       0.646   0.264   1.541  1.00  0.00     0.106 C 
ATOM     15  C   UNL     1       1.456   0.214   0.239  1.00  0.00     0.056 C 
ATOM     16  C   UNL     1       1.120   1.438   2.401  1.00  0.00     0.056 C 
ATOM     17  C   UNL     1      -0.835   0.425   1.169  1.00  0.00     0.056 C 
ENDBRANCH  13  14
ENDBRANCH  11  13
ENDBRANCH   7  11
BRANCH   9  18
ATOM     18  O   UNL     1       1.717  -5.401   2.373  1.00  0.00    -0.488 OA
BRANCH  18  19
ATOM     19  C   UNL     1       0.668  -5.066   1.566  1.00  0.00     0.122 A 
ATOM     20  C   UNL     1       0.729  -3.959   0.730  1.00  0.00     0.066 A 
ATOM     21  C   UNL     1      -0.436  -5.905   1.518  1.00  0.00     0.066 A 
ATOM     22  C   UNL     1      -0.385  -3.661  -0.033  1.00  0.00     0.115 A 
ATOM     23  C   UNL     1      -1.492  -5.536   0.704  1.00  0.00     0.115 A 
ATOM     24  N   UNL     1      -1.500  -4.422  -0.058  1.00  0.00    -0.264 NA
ENDBRANCH  18  19
ENDBRANCH   9  18
ENDBRANCH   4   6
ENDBRANCH   3   4
ENDBRANCH   2   3
ENDBRANCH   1   2
BRANCH   1  25
ATOM     25  O   UNL     1       1.376  -2.560   8.611  1.00  0.00    -0.374 OA
BRANCH  25  26
ATOM     26  C   UNL     1       2.194  -3.343   7.745  1.00  0.00     0.202 C 
BRANCH  26  27
ATOM     27  C   UNL     1       2.876  -4.581   8.341  1.00  0.00     0.261 C 
BRANCH  27  28
ATOM     28  O   UNL     1       1.922  -5.588   8.726  1.00  0.00    -0.460 OA
BRANCH  28  29
ATOM     29  C   UNL     1       1.897  -5.861  10.054  1.00  0.00     0.338 C 
ATOM     30  O   UNL     1       2.659  -5.447  10.911  1.00  0.00    -0.246 OA
BRANCH  29  31
ATOM     31  C   UNL     1       0.663  -6.596  10.389  1.00  0.00     0.060 A 
ATOM     32  C   UNL     1      -0.191  -6.021  11.341  1.00  0.00     0.016 A 
ATOM     33  C   UNL     1       0.379  -7.846   9.840  1.00  0.00     0.016 A 
ATOM     34  C   UNL     1      -1.316  -6.715  11.779  1.00  0.00     0.010 A 
ATOM     35  C   UNL     1      -0.741  -8.549  10.294  1.00  0.00     0.010 A 
ATOM     36  C   UNL     1      -1.573  -8.000  11.288  1.00  0.00    -0.014 A 
BRANCH  36  37
ATOM     37  C   UNL     1      -2.622  -8.830  11.925  1.00  0.00     0.031 A 
ATOM     38  C   UNL     1      -2.220  -9.829  12.974  1.00  0.00     0.074 A 
ATOM     39  C   UNL     1      -3.916  -8.686  11.589  1.00  0.00     0.049 A 
ATOM     40  N   UNL     1      -2.958 -10.693  13.621  1.00  0.00    -0.248 NA
ATOM     41  C   UNL     1      -0.795  -9.854  13.343  1.00  0.00     0.031 C 
ATOM     42  C   UNL     1      -4.438  -7.716  10.628  1.00  0.00     0.029 A 
ATOM     43  N   UNL     1      -5.025  -9.368  12.020  1.00  0.00    -0.354 N 
ATOM     44  C   UNL     1      -2.088 -11.373  14.464  1.00  0.00     0.074 A 
ATOM     45  C   UNL     1      -0.765 -10.835  14.233  1.00  0.00     0.031 C 
ATOM     46  C   UNL     1      -5.769  -7.878  10.529  1.00  0.00     0.029 A 
ATOM     47  C   UNL     1      -6.183  -8.983  11.392  1.00  0.00     0.049 A 
ATOM     48  H   UNL     1      -4.993 -10.067  12.713  1.00  0.00     0.167 HD
ATOM     49  C   UNL     1      -2.366 -12.355  15.353  1.00  0.00     0.031 A 
ATOM     50  C   UNL     1      -7.429  -9.486  11.481  1.00  0.00     0.031 A 
ATOM     51  C   UNL     1      -3.679 -12.899  15.574  1.00  0.00     0.049 A 
ATOM     52  C   UNL     1      -7.697 -10.642  12.407  1.00  0.00     0.074 A 
ATOM     53  C   UNL     1      -4.065 -13.881  16.469  1.00  0.00     0.029 A 
ATOM     54  N   UNL     1      -4.817 -12.514  14.883  1.00  0.00    -0.354 N 
ATOM     55  N   UNL     1      -6.872 -11.259  13.218  1.00  0.00    -0.248 NA
ATOM     56  C   UNL     1      -9.069 -11.171  12.428  1.00  0.00     0.031 C 
ATOM     57  C   UNL     1      -5.428 -14.132  16.278  1.00  0.00     0.029 A 
ATOM     58  C   UNL     1      -5.900 -13.266  15.305  1.00  0.00     0.049 A 
ATOM     59  H   UNL     1      -4.850 -11.811  14.195  1.00  0.00     0.167 HD
ATOM     60  C   UNL     1      -7.628 -12.233  13.860  1.00  0.00     0.074 A 
ATOM     61  C   UNL     1      -8.980 -12.116  13.354  1.00  0.00     0.031 C 
ATOM     62  C   UNL     1      -7.237 -13.142  14.786  1.00  0.00     0.031 A 
BRANCH  49  63
ATOM     63  C   UNL     1      -1.214 -12.936  16.122  1.00  0.00    -0.014 A 
ATOM     64  C   UNL     1      -0.586 -12.217  17.151  1.00  0.00     0.009 A 
ATOM     65  C   UNL     1      -0.771 -14.235  15.830  1.00  0.00     0.009 A 
ATOM     66  C   UNL     1       0.485 -12.778  17.851  1.00  0.00     0.001 A 
ATOM     67  C   UNL     1       0.283 -14.802  16.548  1.00  0.00     0.001 A 
ATOM     68  C   UNL     1       0.916 -14.070  17.551  1.00  0.00     0.000 A 
ENDBRANCH  49  63
BRANCH  50  69
ATOM     69  C   UNL     1      -8.516  -8.927  10.636  1.00  0.00    -0.014 A 
ATOM     70  C   UNL     1      -9.562  -8.188  11.208  1.00  0.00     0.009 A 
ATOM     71  C   UNL     1      -8.516  -9.143   9.249  1.00  0.00     0.009 A 
ATOM     72  C   UNL     1     -10.596  -7.693  10.409  1.00  0.00     0.001 A 
ATOM     73  C   UNL     1      -9.537  -8.624   8.450  1.00  0.00     0.001 A 
ATOM     74  C   UNL     1     -10.580  -7.907   9.031  1.00  0.00     0.000 A 
ENDBRANCH  50  69
BRANCH  62  75
ATOM     75  C   UNL     1      -8.287 -14.069  15.331  1.00  0.00    -0.014 A 
ATOM     76  C   UNL     1      -8.781 -15.135  14.566  1.00  0.00     0.009 A 
ATOM     77  C   UNL     1      -8.742 -13.906  16.649  1.00  0.00     0.009 A 
ATOM     78  C   UNL     1      -9.730 -16.008  15.103  1.00  0.00     0.001 A 
ATOM     79  C   UNL     1      -9.671 -14.795  17.192  1.00  0.00     0.001 A 
ATOM     80  C   UNL     1     -10.169 -15.841  16.416  1.00  0.00     0.000 A 
ENDBRANCH  62  75
ENDBRANCH  36  37
ENDBRANCH  29  31
ENDBRANCH  28  29
ENDBRANCH  27  28
ENDBRANCH  26  27
ENDBRANCH  25  26
ENDBRANCH   1  25
TORSDOF 19
