REMARK SMILES C/C(=N\Nc1nc(-c2ccc(Cl)cc2)cs1)c1nnn(-c2ccc(C(=O)OCCOCCOC(=O)c3ccc(-c4c5nc(c(-c6ccccc6)c6ccc([nH]6)c(-c6ccccc6)c6nc(c(-c7ccccc7)c7ccc4[nH]7)C=C6)C=C5)cc3)cc2)c1C
REMARK SMILES IDX 28 1 27 2 25 3 26 4 24 5 21 6 22 7 85 8 23 9 84 10 20 11
REMARK SMILES IDX 17 12 18 13 86 14 19 15 87 16 2 17 1 18 3 19 4 20 5 22 6 23
REMARK SMILES IDX 16 24 7 25 15 26 8 27 9 28 14 29 10 30 13 31 11 32 12 33
REMARK SMILES IDX 29 34 30 35 31 36 32 37 33 38 34 39 35 40 36 41 37 42 83 43
REMARK SMILES IDX 38 44 82 45 39 46 40 47 41 48 76 49 42 50 81 51 75 52 77 53
REMARK SMILES IDX 43 54 80 55 74 56 73 57 44 59 66 60 51 61 65 62 52 63 55 64
REMARK SMILES IDX 64 65 78 66 53 67 54 68 63 70 79 71 56 72 45 73 46 74 50 75
REMARK SMILES IDX 47 76 49 77 48 78 67 79 68 80 72 81 69 82 71 83 70 84 57 85
REMARK SMILES IDX 58 86 62 87 59 88 61 89 60 90
REMARK H PARENT 4 21 77 58 55 69
REMARK Flexibility Score: inf
ROOT
ATOM      1  C   UNL     1       9.455  -6.202  -2.715  1.00  0.00     0.261 C 
ENDROOT
BRANCH   1   2
ATOM      2  O   UNL     1       8.228  -5.971  -2.011  1.00  0.00    -0.460 OA
BRANCH   2   3
ATOM      3  C   UNL     1       7.252  -5.409  -2.765  1.00  0.00     0.338 C 
ATOM      4  O   UNL     1       7.337  -5.041  -3.924  1.00  0.00    -0.246 OA
BRANCH   3   5
ATOM      5  C   UNL     1       5.973  -5.417  -2.027  1.00  0.00     0.060 A 
ATOM      6  C   UNL     1       3.529  -4.943  -0.835  1.00  0.00     0.067 A 
ATOM      7  C   UNL     1       3.550  -5.371  -2.164  1.00  0.00     0.029 A 
ATOM      8  C   UNL     1       4.697  -4.925  -0.058  1.00  0.00     0.029 A 
ATOM      9  C   UNL     1       4.788  -5.586  -2.765  1.00  0.00     0.018 A 
ATOM     10  C   UNL     1       5.929  -5.163  -0.656  1.00  0.00     0.018 A 
BRANCH   6  11
ATOM     11  N   UNL     1       2.405  -4.226  -0.377  1.00  0.00    -0.217 N 
ATOM     12  C   UNL     1       1.077  -2.585   0.165  1.00  0.00     0.132 A 
ATOM     13  N   UNL     1       0.321  -3.693  -0.108  1.00  0.00    -0.128 NA
ATOM     14  C   UNL     1       2.417  -2.892  -0.004  1.00  0.00     0.071 A 
ATOM     15  N   UNL     1       1.136  -4.654  -0.535  1.00  0.00    -0.061 NA
ATOM     16  C   UNL     1       3.623  -2.019  -0.009  1.00  0.00     0.069 C 
BRANCH  12  17
ATOM     17  C   UNL     1       0.543  -1.258   0.448  1.00  0.00     0.087 C 
ATOM     18  C   UNL     1       1.039  -0.163  -0.463  1.00  0.00     0.071 C 
ATOM     19  N   UNL     1      -0.218  -1.166   1.501  1.00  0.00    -0.176 NA
BRANCH  19  20
ATOM     20  N   UNL     1      -0.660   0.015   2.053  1.00  0.00    -0.252 N 
ATOM     21  H   UNL     1      -1.150  -0.092   2.900  1.00  0.00     0.193 HD
BRANCH  20  22
ATOM     22  C   UNL     1      -0.538   1.301   1.635  1.00  0.00     0.203 A 
ATOM     23  N   UNL     1      -0.707   1.741   0.411  1.00  0.00    -0.219 NA
ATOM     24  S   UNL     1      -0.058   2.534   2.751  1.00  0.00    -0.103 S 
ATOM     25  C   UNL     1      -0.160   2.998   0.262  1.00  0.00     0.084 A 
ATOM     26  C   UNL     1       0.251   3.595   1.434  1.00  0.00     0.097 A 
BRANCH  25  27
ATOM     27  C   UNL     1       0.011   3.559  -1.067  1.00  0.00     0.001 A 
ATOM     28  C   UNL     1      -1.054   3.510  -1.975  1.00  0.00     0.012 A 
ATOM     29  C   UNL     1       1.253   4.053  -1.490  1.00  0.00     0.012 A 
ATOM     30  C   UNL     1      -0.893   3.980  -3.281  1.00  0.00     0.021 A 
ATOM     31  C   UNL     1       1.417   4.513  -2.801  1.00  0.00     0.021 A 
ATOM     32  C   UNL     1       0.342   4.481  -3.688  1.00  0.00     0.041 A 
ATOM     33  Cl  UNL     1       0.546   5.050  -5.298  1.00  0.00    -0.084 Cl
ENDBRANCH  25  27
ENDBRANCH  20  22
ENDBRANCH  19  20
ENDBRANCH  12  17
ENDBRANCH   6  11
ENDBRANCH   3   5
ENDBRANCH   2   3
ENDBRANCH   1   2
BRANCH   1  34
ATOM     34  C   UNL     1       9.707  -7.688  -2.967  1.00  0.00     0.202 C 
BRANCH  34  35
ATOM     35  O   UNL     1       8.800  -8.419  -3.791  1.00  0.00    -0.374 OA
BRANCH  35  36
ATOM     36  C   UNL     1       7.446  -8.619  -3.402  1.00  0.00     0.202 C 
BRANCH  36  37
ATOM     37  C   UNL     1       7.138  -9.538  -2.229  1.00  0.00     0.261 C 
BRANCH  37  38
ATOM     38  O   UNL     1       7.862  -9.175  -1.069  1.00  0.00    -0.460 OA
BRANCH  38  39
ATOM     39  C   UNL     1       8.995  -9.898  -0.893  1.00  0.00     0.338 C 
ATOM     40  O   UNL     1       9.504 -10.679  -1.670  1.00  0.00    -0.246 OA
BRANCH  39  41
ATOM     41  C   UNL     1       9.455  -9.699   0.487  1.00  0.00     0.060 A 
ATOM     42  C   UNL     1      10.506 -10.529   0.881  1.00  0.00     0.016 A 
ATOM     43  C   UNL     1       8.574  -9.110   1.402  1.00  0.00     0.016 A 
ATOM     44  C   UNL     1      10.456 -11.055   2.147  1.00  0.00     0.010 A 
ATOM     45  C   UNL     1       8.504  -9.659   2.651  1.00  0.00     0.010 A 
ATOM     46  C   UNL     1       9.373 -10.705   2.954  1.00  0.00    -0.014 A 
BRANCH  46  47
ATOM     47  C   UNL     1       9.174 -11.428   4.185  1.00  0.00     0.031 A 
ATOM     48  C   UNL     1      10.031 -10.910   5.267  1.00  0.00     0.074 A 
ATOM     49  C   UNL     1       8.210 -12.357   4.312  1.00  0.00     0.049 A 
ATOM     50  N   UNL     1      11.068 -11.474   5.787  1.00  0.00    -0.248 NA
ATOM     51  C   UNL     1       9.848  -9.498   5.649  1.00  0.00     0.031 C 
ATOM     52  C   UNL     1       7.144 -12.715   3.371  1.00  0.00     0.029 A 
ATOM     53  N   UNL     1       7.918 -13.114   5.397  1.00  0.00    -0.354 N 
ATOM     54  C   UNL     1      11.543 -10.557   6.716  1.00  0.00     0.074 A 
ATOM     55  C   UNL     1      10.932  -9.296   6.394  1.00  0.00     0.031 C 
ATOM     56  C   UNL     1       6.193 -13.425   4.028  1.00  0.00     0.029 A 
ATOM     57  C   UNL     1       6.649 -13.675   5.386  1.00  0.00     0.049 A 
ATOM     58  H   UNL     1       8.554 -13.254   6.135  1.00  0.00     0.167 HD
ATOM     59  C   UNL     1      12.127 -10.966   7.874  1.00  0.00     0.031 A 
ATOM     60  C   UNL     1       6.012 -14.220   6.454  1.00  0.00     0.031 A 
ATOM     61  C   UNL     1      12.530 -12.347   7.803  1.00  0.00     0.049 A 
ATOM     62  C   UNL     1       7.045 -14.498   7.486  1.00  0.00     0.074 A 
ATOM     63  C   UNL     1      13.409 -13.064   7.017  1.00  0.00     0.029 A 
ATOM     64  N   UNL     1      11.679 -13.271   8.363  1.00  0.00    -0.354 N 
ATOM     65  N   UNL     1       7.979 -15.393   7.335  1.00  0.00    -0.248 NA
ATOM     66  C   UNL     1       7.340 -13.449   8.453  1.00  0.00     0.031 C 
ATOM     67  C   UNL     1      12.762 -14.313   6.782  1.00  0.00     0.029 A 
ATOM     68  C   UNL     1      11.558 -14.321   7.489  1.00  0.00     0.049 A 
ATOM     69  H   UNL     1      11.234 -13.193   9.238  1.00  0.00     0.167 HD
ATOM     70  C   UNL     1       9.129 -14.799   7.837  1.00  0.00     0.074 A 
ATOM     71  C   UNL     1       8.656 -13.638   8.594  1.00  0.00     0.031 C 
ATOM     72  C   UNL     1      10.362 -15.123   7.346  1.00  0.00     0.031 A 
BRANCH  59  73
ATOM     73  C   UNL     1      11.898 -10.257   9.188  1.00  0.00    -0.014 A 
ATOM     74  C   UNL     1      12.537 -10.755  10.333  1.00  0.00     0.009 A 
ATOM     75  C   UNL     1      10.882  -9.302   9.400  1.00  0.00     0.009 A 
ATOM     76  C   UNL     1      12.124 -10.379  11.617  1.00  0.00     0.001 A 
ATOM     77  C   UNL     1      10.495  -8.891  10.676  1.00  0.00     0.001 A 
ATOM     78  C   UNL     1      11.098  -9.455  11.787  1.00  0.00     0.000 A 
ENDBRANCH  59  73
BRANCH  60  79
ATOM     79  C   UNL     1       4.567 -14.190   6.776  1.00  0.00    -0.014 A 
ATOM     80  C   UNL     1       4.019 -15.053   7.740  1.00  0.00     0.009 A 
ATOM     81  C   UNL     1       3.765 -13.123   6.329  1.00  0.00     0.009 A 
ATOM     82  C   UNL     1       2.731 -14.836   8.256  1.00  0.00     0.001 A 
ATOM     83  C   UNL     1       2.482 -12.906   6.843  1.00  0.00     0.001 A 
ATOM     84  C   UNL     1       1.969 -13.756   7.816  1.00  0.00     0.000 A 
ENDBRANCH  60  79
BRANCH  72  85
ATOM     85  C   UNL     1      10.444 -16.275   6.370  1.00  0.00    -0.014 A 
ATOM     86  C   UNL     1       9.843 -16.247   5.097  1.00  0.00     0.009 A 
ATOM     87  C   UNL     1      11.291 -17.348   6.678  1.00  0.00     0.009 A 
ATOM     88  C   UNL     1      10.068 -17.274   4.172  1.00  0.00     0.001 A 
ATOM     89  C   UNL     1      11.531 -18.363   5.748  1.00  0.00     0.001 A 
ATOM     90  C   UNL     1      10.918 -18.328   4.498  1.00  0.00     0.000 A 
ENDBRANCH  72  85
ENDBRANCH  46  47
ENDBRANCH  39  41
ENDBRANCH  38  39
ENDBRANCH  37  38
ENDBRANCH  36  37
ENDBRANCH  35  36
ENDBRANCH  34  35
ENDBRANCH   1  34
TORSDOF 19
