REMARK SMILES Cc1ccc(-c2ncc(C(=O)OCCOCCOC(=O)c3ccc(-c4c5nc(c(-c6ccccc6)c6ccc([nH]6)c(-c6ccccc6)c6nc(c(-c7ccccc7)c7ccc4[nH]7)C=C6)C=C5)cc3)c(Nc3ccccc3)n2)cc1
REMARK SMILES IDX 15 1 14 2 13 3 12 4 10 5 11 6 9 7 6 8 7 9 77 10 8 11 69 12
REMARK SMILES IDX 5 13 1 14 2 15 3 16 79 17 4 18 78 19 70 20 71 22 72 23 76 24
REMARK SMILES IDX 73 25 75 26 74 27 16 28 17 29 18 30 19 31 20 32 21 33 22 34
REMARK SMILES IDX 68 35 23 36 67 37 24 38 25 39 26 40 61 41 27 42 66 43 60 44
REMARK SMILES IDX 62 45 28 46 65 47 59 48 58 49 29 51 51 52 36 53 50 54 37 55
REMARK SMILES IDX 40 56 49 57 63 58 38 59 39 60 48 62 64 63 41 64 30 65 31 66
REMARK SMILES IDX 35 67 32 68 34 69 33 70 52 71 53 72 57 73 54 74 56 75 55 76
REMARK SMILES IDX 42 77 43 78 47 79 44 80 46 81 45 82
REMARK H PARENT 70 21 62 50 40 61
REMARK Flexibility Score: inf
ROOT
ATOM      1  O   UNL     1      -7.921   2.648   0.544  1.00  0.00    -0.374 OA
ENDROOT
BRANCH   1   2
ATOM      2  C   UNL     1      -7.901   1.982   1.796  1.00  0.00     0.202 C 
BRANCH   2   3
ATOM      3  C   UNL     1      -8.195   0.568   1.453  1.00  0.00     0.261 C 
BRANCH   3   4
ATOM      4  O   UNL     1      -7.007  -0.086   1.015  1.00  0.00    -0.460 OA
BRANCH   4   5
ATOM      5  C   UNL     1      -6.706   0.045  -0.309  1.00  0.00     0.343 C 
ATOM      6  O   UNL     1      -7.417   0.368  -1.224  1.00  0.00    -0.246 OA
BRANCH   5   7
ATOM      7  C   UNL     1      -5.257  -0.067  -0.383  1.00  0.00     0.121 A 
ATOM      8  C   UNL     1      -2.610   0.051  -0.227  1.00  0.00     0.161 A 
ATOM      9  N   UNL     1      -3.229  -0.756   0.653  1.00  0.00    -0.236 NA
ATOM     10  N   UNL     1      -3.204   0.755  -1.207  1.00  0.00    -0.210 NA
ATOM     11  C   UNL     1      -4.558  -0.793   0.554  1.00  0.00     0.133 A 
ATOM     12  C   UNL     1      -4.545   0.680  -1.302  1.00  0.00     0.149 A 
BRANCH   8  13
ATOM     13  C   UNL     1      -1.162   0.087  -0.143  1.00  0.00     0.019 A 
ATOM     14  C   UNL     1       3.133   0.020   0.022  1.00  0.00     0.044 C 
ATOM     15  C   UNL     1       1.638   0.065  -0.006  1.00  0.00    -0.051 A 
ATOM     16  C   UNL     1       0.925  -1.137   0.019  1.00  0.00     0.004 A 
ATOM     17  C   UNL     1       0.947   1.280  -0.081  1.00  0.00     0.004 A 
ATOM     18  C   UNL     1      -0.461  -1.123  -0.039  1.00  0.00     0.012 A 
ATOM     19  C   UNL     1      -0.446   1.291  -0.156  1.00  0.00     0.012 A 
ENDBRANCH   8  13
BRANCH  12  20
ATOM     20  N   UNL     1      -5.202   1.433  -2.293  1.00  0.00    -0.339 N 
ATOM     21  H   UNL     1      -6.154   1.628  -2.130  1.00  0.00     0.168 HD
BRANCH  20  22
ATOM     22  C   UNL     1      -4.665   1.939  -3.484  1.00  0.00     0.040 A 
ATOM     23  C   UNL     1      -5.003   3.230  -3.899  1.00  0.00     0.026 A 
ATOM     24  C   UNL     1      -3.855   1.152  -4.309  1.00  0.00     0.026 A 
ATOM     25  C   UNL     1      -4.482   3.752  -5.084  1.00  0.00     0.002 A 
ATOM     26  C   UNL     1      -3.351   1.662  -5.505  1.00  0.00     0.002 A 
ATOM     27  C   UNL     1      -3.652   2.968  -5.885  1.00  0.00     0.000 A 
ENDBRANCH  20  22
ENDBRANCH  12  20
ENDBRANCH   5   7
ENDBRANCH   4   5
ENDBRANCH   3   4
ENDBRANCH   2   3
ENDBRANCH   1   2
BRANCH   1  28
ATOM     28  C   UNL     1      -7.857   4.056   0.612  1.00  0.00     0.202 C 
BRANCH  28  29
ATOM     29  C   UNL     1      -8.966   4.668   1.482  1.00  0.00     0.261 C 
BRANCH  29  30
ATOM     30  O   UNL     1     -10.257   4.271   0.968  1.00  0.00    -0.460 OA
BRANCH  30  31
ATOM     31  C   UNL     1     -10.971   3.363   1.694  1.00  0.00     0.338 C 
ATOM     32  O   UNL     1     -11.080   3.349   2.909  1.00  0.00    -0.246 OA
BRANCH  31  33
ATOM     33  C   UNL     1     -11.326   2.201   0.820  1.00  0.00     0.060 A 
ATOM     34  C   UNL     1     -11.750   0.984   1.395  1.00  0.00     0.016 A 
ATOM     35  C   UNL     1     -10.888   2.224  -0.501  1.00  0.00     0.016 A 
ATOM     36  C   UNL     1     -11.581  -0.229   0.702  1.00  0.00     0.010 A 
ATOM     37  C   UNL     1     -10.631   1.026  -1.133  1.00  0.00     0.010 A 
ATOM     38  C   UNL     1     -10.944  -0.211  -0.539  1.00  0.00    -0.014 A 
BRANCH  38  39
ATOM     39  C   UNL     1     -10.392  -1.372  -1.253  1.00  0.00     0.031 A 
ATOM     40  C   UNL     1     -10.830  -1.611  -2.641  1.00  0.00     0.074 A 
ATOM     41  C   UNL     1      -9.305  -2.037  -0.785  1.00  0.00     0.049 A 
ATOM     42  N   UNL     1     -10.616  -2.709  -3.271  1.00  0.00    -0.248 NA
ATOM     43  C   UNL     1     -11.574  -0.641  -3.440  1.00  0.00     0.031 C 
ATOM     44  C   UNL     1      -8.302  -2.819  -1.512  1.00  0.00     0.029 A 
ATOM     45  N   UNL     1      -8.870  -2.133   0.524  1.00  0.00    -0.354 N 
ATOM     46  C   UNL     1     -10.846  -2.471  -4.603  1.00  0.00     0.074 A 
ATOM     47  C   UNL     1     -11.534  -1.206  -4.647  1.00  0.00     0.031 C 
ATOM     48  C   UNL     1      -7.510  -3.476  -0.641  1.00  0.00     0.029 A 
ATOM     49  C   UNL     1      -7.999  -3.207   0.701  1.00  0.00     0.049 A 
ATOM     50  H   UNL     1      -9.142  -1.518   1.243  1.00  0.00     0.167 HD
ATOM     51  C   UNL     1     -10.285  -3.307  -5.520  1.00  0.00     0.031 A 
ATOM     52  C   UNL     1      -8.275  -4.081   1.703  1.00  0.00     0.031 A 
ATOM     53  C   UNL     1      -9.527  -4.383  -4.852  1.00  0.00     0.049 A 
ATOM     54  C   UNL     1      -8.891  -5.276   1.026  1.00  0.00     0.074 A 
ATOM     55  C   UNL     1      -8.173  -4.617  -4.672  1.00  0.00     0.029 A 
ATOM     56  N   UNL     1     -10.179  -5.195  -3.913  1.00  0.00    -0.354 N 
ATOM     57  N   UNL     1      -9.374  -5.209  -0.190  1.00  0.00    -0.248 NA
ATOM     58  C   UNL     1      -8.853  -6.642   1.535  1.00  0.00     0.031 C 
ATOM     59  C   UNL     1      -8.022  -5.482  -3.542  1.00  0.00     0.029 A 
ATOM     60  C   UNL     1      -9.280  -5.800  -3.048  1.00  0.00     0.049 A 
ATOM     61  H   UNL     1     -11.155  -5.320  -3.874  1.00  0.00     0.167 HD
ATOM     62  C   UNL     1      -9.508  -6.458  -0.692  1.00  0.00     0.074 A 
ATOM     63  C   UNL     1      -9.258  -7.330   0.450  1.00  0.00     0.031 C 
ATOM     64  C   UNL     1      -9.747  -6.722  -2.007  1.00  0.00     0.031 A 
BRANCH  51  65
ATOM     65  C   UNL     1     -10.210  -2.961  -6.994  1.00  0.00    -0.014 A 
ATOM     66  C   UNL     1      -9.218  -3.534  -7.807  1.00  0.00     0.009 A 
ATOM     67  C   UNL     1     -11.074  -2.056  -7.642  1.00  0.00     0.009 A 
ATOM     68  C   UNL     1      -9.063  -3.175  -9.157  1.00  0.00     0.001 A 
ATOM     69  C   UNL     1     -10.898  -1.655  -8.975  1.00  0.00     0.001 A 
ATOM     70  C   UNL     1      -9.888  -2.218  -9.736  1.00  0.00     0.000 A 
ENDBRANCH  51  65
BRANCH  52  71
ATOM     71  C   UNL     1      -8.620  -3.340   2.968  1.00  0.00    -0.014 A 
ATOM     72  C   UNL     1      -7.537  -2.679   3.606  1.00  0.00     0.009 A 
ATOM     73  C   UNL     1      -9.912  -2.864   3.252  1.00  0.00     0.009 A 
ATOM     74  C   UNL     1      -7.723  -1.528   4.389  1.00  0.00     0.001 A 
ATOM     75  C   UNL     1     -10.097  -1.708   4.041  1.00  0.00     0.001 A 
ATOM     76  C   UNL     1      -9.006  -1.028   4.588  1.00  0.00     0.000 A 
ENDBRANCH  52  71
BRANCH  64  77
ATOM     77  C   UNL     1     -10.442  -7.979  -2.416  1.00  0.00    -0.014 A 
ATOM     78  C   UNL     1     -11.305  -8.666  -1.550  1.00  0.00     0.009 A 
ATOM     79  C   UNL     1     -10.411  -8.379  -3.764  1.00  0.00     0.009 A 
ATOM     80  C   UNL     1     -12.056  -9.751  -1.995  1.00  0.00     0.001 A 
ATOM     81  C   UNL     1     -11.209  -9.421  -4.225  1.00  0.00     0.001 A 
ATOM     82  C   UNL     1     -12.017 -10.118  -3.336  1.00  0.00     0.000 A 
ENDBRANCH  64  77
ENDBRANCH  38  39
ENDBRANCH  31  33
ENDBRANCH  30  31
ENDBRANCH  29  30
ENDBRANCH  28  29
ENDBRANCH   1  28
TORSDOF 17
