REMARK SMILES CCOc1cc2c(cc1/C=C1/C(=O)N(c3cccc(C(=O)OCCOCCOC(=O)c4ccc(-c5c6nc(c(-c7ccccc7)c7ccc([nH]7)c(-c7ccccc7)c7nc(c(-c8ccccc8)c8ccc5[nH]8)C=C7)C=C6)cc4)c3)C(=S)N=C1O)OCO2
REMARK SMILES IDX 24 1 23 2 22 3 20 4 21 5 19 6 15 7 16 8 79 9 17 10 18 11
REMARK SMILES IDX 14 12 10 13 11 14 12 15 83 16 13 17 82 18 80 19 81 20 9 21
REMARK SMILES IDX 4 22 5 23 6 24 8 25 7 26 87 27 85 28 86 29 3 30 2 31 1 32
REMARK SMILES IDX 84 33 25 35 26 36 27 37 28 38 29 39 30 40 31 41 32 42 78 43
REMARK SMILES IDX 33 44 77 45 34 46 35 47 36 48 71 49 37 50 76 51 70 52 72 53
REMARK SMILES IDX 38 54 75 55 69 56 68 57 39 59 61 60 46 61 60 62 47 63 50 64
REMARK SMILES IDX 59 65 73 66 48 67 49 68 58 70 74 71 51 72 40 73 41 74 45 75
REMARK SMILES IDX 42 76 44 77 43 78 62 79 63 80 67 81 64 82 66 83 65 84 52 85
REMARK SMILES IDX 53 86 57 87 54 88 56 89 55 90
REMARK H PARENT 84 34 72 58 50 69
REMARK Flexibility Score: inf
ROOT
ATOM      1  C   UNL     1      -1.961  11.164   4.993  1.00  0.00     0.202 C 
ENDROOT
BRANCH   1   2
ATOM      2  C   UNL     1      -2.608  10.171   4.021  1.00  0.00     0.261 C 
BRANCH   2   3
ATOM      3  O   UNL     1      -1.773   9.928   2.879  1.00  0.00    -0.460 OA
BRANCH   3   4
ATOM      4  C   UNL     1      -2.232  10.446   1.714  1.00  0.00     0.338 C 
ATOM      5  O   UNL     1      -3.322  10.967   1.523  1.00  0.00    -0.246 OA
BRANCH   4   6
ATOM      6  C   UNL     1      -1.139  10.481   0.715  1.00  0.00     0.062 A 
ATOM      7  C   UNL     1       0.928   9.635  -0.246  1.00  0.00     0.052 A 
ATOM      8  C   UNL     1       0.914  10.723  -1.143  1.00  0.00     0.027 A 
ATOM      9  C   UNL     1      -0.124   9.513   0.673  1.00  0.00     0.042 A 
ATOM     10  C   UNL     1      -0.088  11.694  -1.090  1.00  0.00     0.003 A 
ATOM     11  C   UNL     1      -1.111  11.576  -0.158  1.00  0.00     0.016 A 
BRANCH   7  12
ATOM     12  N   UNL     1       2.013   8.677  -0.283  1.00  0.00    -0.251 N 
ATOM     13  C   UNL     1       2.537   5.019  -0.360  1.00  0.00     0.031 C 
ATOM     14  C   UNL     1       2.826   6.344  -0.481  1.00  0.00     0.103 C 
ATOM     15  C   UNL     1       1.673   7.309  -0.314  1.00  0.00     0.270 C 
ATOM     16  C   UNL     1       4.085   7.021  -0.789  1.00  0.00     0.226 C 
ATOM     17  O   UNL     1       0.520   6.883  -0.233  1.00  0.00    -0.268 OA
ATOM     18  N   UNL     1       4.335   8.269  -0.698  1.00  0.00    -0.184 NA
ATOM     19  C   UNL     1       3.352   9.126  -0.279  1.00  0.00     0.210 C 
ATOM     20  S   UNL     1       3.864  10.660   0.260  1.00  0.00    -0.038 S 
BRANCH  13  21
ATOM     21  C   UNL     1       3.315   3.745  -0.488  1.00  0.00     0.021 A 
ATOM     22  C   UNL     1       2.659   2.501  -0.754  1.00  0.00     0.130 A 
ATOM     23  C   UNL     1       3.378   1.339  -1.080  1.00  0.00     0.097 A 
ATOM     24  C   UNL     1       4.746   1.391  -1.025  1.00  0.00     0.169 A 
ATOM     25  C   UNL     1       4.709   3.696  -0.336  1.00  0.00     0.062 A 
ATOM     26  C   UNL     1       5.393   2.533  -0.644  1.00  0.00     0.166 A 
ATOM     27  O   UNL     1       5.596   0.368  -1.299  1.00  0.00    -0.453 OA
ATOM     28  O   UNL     1       6.745   2.380  -0.634  1.00  0.00    -0.454 OA
ATOM     29  C   UNL     1       6.867   1.010  -1.074  1.00  0.00     0.468 C 
BRANCH  22  30
ATOM     30  O   UNL     1       1.284   2.405  -0.771  1.00  0.00    -0.493 OA
BRANCH  30  31
ATOM     31  C   UNL     1       0.763   1.687   0.367  1.00  0.00     0.226 C 
ATOM     32  C   UNL     1       0.720   0.172   0.180  1.00  0.00     0.049 C 
ENDBRANCH  30  31
ENDBRANCH  22  30
ENDBRANCH  13  21
BRANCH  16  33
ATOM     33  O   UNL     1       5.092   6.295  -1.263  1.00  0.00    -0.493 OA
ATOM     34  H   UNL     1       4.995   5.369  -1.362  1.00  0.00     0.295 HD
ENDBRANCH  16  33
ENDBRANCH   7  12
ENDBRANCH   4   6
ENDBRANCH   3   4
ENDBRANCH   2   3
ENDBRANCH   1   2
BRANCH   1  35
ATOM     35  O   UNL     1      -1.701  12.480   4.510  1.00  0.00    -0.374 OA
BRANCH  35  36
ATOM     36  C   UNL     1      -0.554  12.669   3.682  1.00  0.00     0.202 C 
BRANCH  36  37
ATOM     37  C   UNL     1       0.818  12.721   4.367  1.00  0.00     0.261 C 
BRANCH  37  38
ATOM     38  O   UNL     1       1.144  11.502   5.056  1.00  0.00    -0.460 OA
BRANCH  38  39
ATOM     39  C   UNL     1       1.049  11.586   6.404  1.00  0.00     0.338 C 
ATOM     40  O   UNL     1       0.789  12.575   7.070  1.00  0.00    -0.246 OA
BRANCH  39  41
ATOM     41  C   UNL     1       1.131  10.243   7.005  1.00  0.00     0.060 A 
ATOM     42  C   UNL     1       0.109   9.877   7.888  1.00  0.00     0.016 A 
ATOM     43  C   UNL     1       2.222   9.398   6.790  1.00  0.00     0.016 A 
ATOM     44  C   UNL     1       0.208   8.697   8.616  1.00  0.00     0.010 A 
ATOM     45  C   UNL     1       2.319   8.209   7.521  1.00  0.00     0.010 A 
ATOM     46  C   UNL     1       1.336   7.877   8.472  1.00  0.00    -0.014 A 
BRANCH  46  47
ATOM     47  C   UNL     1       1.522   6.749   9.417  1.00  0.00     0.031 A 
ATOM     48  C   UNL     1       2.511   6.879  10.544  1.00  0.00     0.074 A 
ATOM     49  C   UNL     1       0.761   5.645   9.314  1.00  0.00     0.049 A 
ATOM     50  N   UNL     1       2.765   6.047  11.523  1.00  0.00    -0.248 NA
ATOM     51  C   UNL     1       3.323   8.106  10.572  1.00  0.00     0.031 C 
ATOM     52  C   UNL     1      -0.248   5.410   8.282  1.00  0.00     0.029 A 
ATOM     53  N   UNL     1       0.712   4.521  10.099  1.00  0.00    -0.354 N 
ATOM     54  C   UNL     1       3.769   6.645  12.276  1.00  0.00     0.074 A 
ATOM     55  C   UNL     1       4.104   7.890  11.619  1.00  0.00     0.031 C 
ATOM     56  C   UNL     1      -0.829   4.219   8.506  1.00  0.00     0.029 A 
ATOM     57  C   UNL     1      -0.212   3.598   9.676  1.00  0.00     0.049 A 
ATOM     58  H   UNL     1       1.284   4.389  10.889  1.00  0.00     0.167 HD
ATOM     59  C   UNL     1       4.354   6.202  13.415  1.00  0.00     0.031 A 
ATOM     60  C   UNL     1      -0.524   2.385  10.171  1.00  0.00     0.031 A 
ATOM     61  C   UNL     1       4.027   4.957  14.061  1.00  0.00     0.049 A 
ATOM     62  C   UNL     1       0.171   1.894  11.412  1.00  0.00     0.074 A 
ATOM     63  C   UNL     1       4.540   4.436  15.237  1.00  0.00     0.029 A 
ATOM     64  N   UNL     1       3.113   4.033  13.580  1.00  0.00    -0.354 N 
ATOM     65  N   UNL     1       1.084   2.490  12.141  1.00  0.00    -0.248 NA
ATOM     66  C   UNL     1      -0.226   0.569  11.910  1.00  0.00     0.031 C 
ATOM     67  C   UNL     1       3.989   3.165  15.428  1.00  0.00     0.029 A 
ATOM     68  C   UNL     1       3.072   2.929  14.416  1.00  0.00     0.049 A 
ATOM     69  H   UNL     1       2.573   4.144  12.764  1.00  0.00     0.167 HD
ATOM     70  C   UNL     1       1.347   1.629  13.199  1.00  0.00     0.074 A 
ATOM     71  C   UNL     1       0.485   0.478  13.025  1.00  0.00     0.031 C 
ATOM     72  C   UNL     1       2.219   1.782  14.227  1.00  0.00     0.031 A 
BRANCH  59  73
ATOM     73  C   UNL     1       5.443   7.053  14.012  1.00  0.00    -0.014 A 
ATOM     74  C   UNL     1       5.170   8.303  14.592  1.00  0.00     0.009 A 
ATOM     75  C   UNL     1       6.765   6.581  14.019  1.00  0.00     0.009 A 
ATOM     76  C   UNL     1       6.203   9.078  15.126  1.00  0.00     0.001 A 
ATOM     77  C   UNL     1       7.790   7.341  14.585  1.00  0.00     0.001 A 
ATOM     78  C   UNL     1       7.511   8.594  15.127  1.00  0.00     0.000 A 
ENDBRANCH  59  73
BRANCH  60  79
ATOM     79  C   UNL     1      -1.544   1.549   9.486  1.00  0.00    -0.014 A 
ATOM     80  C   UNL     1      -2.786   1.289  10.084  1.00  0.00     0.009 A 
ATOM     81  C   UNL     1      -1.277   1.008   8.218  1.00  0.00     0.009 A 
ATOM     82  C   UNL     1      -3.729   0.486   9.437  1.00  0.00     0.001 A 
ATOM     83  C   UNL     1      -2.233   0.234   7.559  1.00  0.00     0.001 A 
ATOM     84  C   UNL     1      -3.455  -0.034   8.173  1.00  0.00     0.000 A 
ENDBRANCH  60  79
BRANCH  72  85
ATOM     85  C   UNL     1       2.252   0.697  15.270  1.00  0.00    -0.014 A 
ATOM     86  C   UNL     1       2.756  -0.583  14.988  1.00  0.00     0.009 A 
ATOM     87  C   UNL     1       1.792   0.972  16.568  1.00  0.00     0.009 A 
ATOM     88  C   UNL     1       2.752  -1.577  15.971  1.00  0.00     0.001 A 
ATOM     89  C   UNL     1       1.823  -0.012  17.558  1.00  0.00     0.001 A 
ATOM     90  C   UNL     1       2.290  -1.289  17.255  1.00  0.00     0.000 A 
ENDBRANCH  72  85
ENDBRANCH  46  47
ENDBRANCH  39  41
ENDBRANCH  38  39
ENDBRANCH  37  38
ENDBRANCH  36  37
ENDBRANCH  35  36
ENDBRANCH   1  35
TORSDOF 19
