REMARK SMILES Cc1ncccc1C(=O)N1CC[C@H](C(=O)OCCOCCOC(=O)c2ccc(-c3c4nc(c(-c5ccccc5)c5ccc([nH]5)c(-c5ccccc5)c5nc(c(-c6ccccc6)c6ccc3[nH]6)C=C5)C=C4)cc2)C1
REMARK SMILES IDX 19 1 18 2 17 3 16 4 14 5 15 6 13 7 10 8 11 9 73 10 12 11
REMARK SMILES IDX 8 12 9 13 7 14 1 15 2 16 3 17 4 18 6 19 5 20 20 21 21 22
REMARK SMILES IDX 22 23 23 24 24 25 25 26 26 27 72 28 27 29 71 30 28 31 29 32
REMARK SMILES IDX 30 33 65 34 31 35 70 36 64 37 66 38 32 39 69 40 63 41 62 42
REMARK SMILES IDX 33 44 55 45 40 46 54 47 41 48 44 49 53 50 67 51 42 52 43 53
REMARK SMILES IDX 52 55 68 56 45 57 34 58 35 59 39 60 36 61 38 62 37 63 56 64
REMARK SMILES IDX 57 65 61 66 58 67 60 68 59 69 46 70 47 71 51 72 48 73 50 74
REMARK SMILES IDX 49 75
REMARK H PARENT 66 43 44 54
REMARK Flexibility Score: inf
ROOT
ATOM      1  O   UNL     1       7.736  -1.564  -2.983  1.00  0.00    -0.374 OA
ENDROOT
BRANCH   1   2
ATOM      2  C   UNL     1       6.666  -1.193  -3.849  1.00  0.00     0.202 C 
BRANCH   2   3
ATOM      3  C   UNL     1       5.461  -2.138  -3.897  1.00  0.00     0.261 C 
BRANCH   3   4
ATOM      4  O   UNL     1       4.824  -2.269  -2.613  1.00  0.00    -0.463 OA
BRANCH   4   5
ATOM      5  C   UNL     1       4.907  -3.496  -2.032  1.00  0.00     0.310 C 
ATOM      6  O   UNL     1       5.404  -4.487  -2.552  1.00  0.00    -0.252 OA
BRANCH   5   7
ATOM      7  C   UNL     1       4.260  -3.546  -0.666  1.00  0.00     0.120 C 
ATOM      8  N   UNL     1       2.121  -2.722  -0.099  1.00  0.00    -0.338 N 
ATOM      9  C   UNL     1       3.021  -2.226   0.921  1.00  0.00     0.121 C 
ATOM     10  C   UNL     1       2.766  -3.786  -0.848  1.00  0.00     0.135 C 
ATOM     11  C   UNL     1       4.369  -2.290   0.218  1.00  0.00     0.039 C 
BRANCH   8  12
ATOM     12  C   UNL     1       0.821  -2.386  -0.407  1.00  0.00     0.255 C 
ATOM     13  O   UNL     1       0.116  -3.151  -1.070  1.00  0.00    -0.269 OA
BRANCH  12  14
ATOM     14  C   UNL     1       0.213  -1.091  -0.021  1.00  0.00     0.061 A 
ATOM     15  C   UNL     1       2.177   0.399  -0.742  1.00  0.00     0.067 C 
ATOM     16  C   UNL     1       0.786   0.169  -0.234  1.00  0.00     0.050 A 
ATOM     17  N   UNL     1       0.087   1.325  -0.037  1.00  0.00    -0.261 NA
ATOM     18  C   UNL     1      -1.220   1.236   0.288  1.00  0.00     0.111 A 
ATOM     19  C   UNL     1      -1.145  -1.135   0.334  1.00  0.00     0.017 A 
ATOM     20  C   UNL     1      -1.877   0.038   0.479  1.00  0.00     0.021 A 
ENDBRANCH  12  14
ENDBRANCH   8  12
ENDBRANCH   5   7
ENDBRANCH   4   5
ENDBRANCH   3   4
ENDBRANCH   2   3
ENDBRANCH   1   2
BRANCH   1  21
ATOM     21  C   UNL     1       7.562  -1.328  -1.587  1.00  0.00     0.202 C 
BRANCH  21  22
ATOM     22  C   UNL     1       7.722   0.119  -1.104  1.00  0.00     0.261 C 
BRANCH  22  23
ATOM     23  O   UNL     1       6.739   1.005  -1.670  1.00  0.00    -0.460 OA
BRANCH  23  24
ATOM     24  C   UNL     1       7.238   1.942  -2.511  1.00  0.00     0.338 C 
ATOM     25  O   UNL     1       8.417   2.158  -2.766  1.00  0.00    -0.246 OA
BRANCH  24  26
ATOM     26  C   UNL     1       6.147   2.600  -3.249  1.00  0.00     0.060 A 
ATOM     27  C   UNL     1       6.201   2.571  -4.649  1.00  0.00     0.016 A 
ATOM     28  C   UNL     1       5.129   3.295  -2.593  1.00  0.00     0.016 A 
ATOM     29  C   UNL     1       5.252   3.263  -5.399  1.00  0.00     0.010 A 
ATOM     30  C   UNL     1       4.183   3.997  -3.349  1.00  0.00     0.010 A 
ATOM     31  C   UNL     1       4.253   4.004  -4.754  1.00  0.00    -0.014 A 
BRANCH  31  32
ATOM     32  C   UNL     1       3.331   4.850  -5.549  1.00  0.00     0.031 A 
ATOM     33  C   UNL     1       3.594   6.325  -5.672  1.00  0.00     0.074 A 
ATOM     34  C   UNL     1       2.271   4.303  -6.168  1.00  0.00     0.049 A 
ATOM     35  N   UNL     1       2.891   7.242  -6.288  1.00  0.00    -0.248 NA
ATOM     36  C   UNL     1       4.810   6.833  -5.018  1.00  0.00     0.031 C 
ATOM     37  C   UNL     1       1.929   2.881  -6.160  1.00  0.00     0.029 A 
ATOM     38  N   UNL     1       1.280   4.885  -6.918  1.00  0.00    -0.354 N 
ATOM     39  C   UNL     1       3.574   8.436  -6.090  1.00  0.00     0.074 A 
ATOM     40  C   UNL     1       4.734   8.131  -5.280  1.00  0.00     0.031 C 
ATOM     41  C   UNL     1       0.797   2.703  -6.862  1.00  0.00     0.029 A 
ATOM     42  C   UNL     1       0.318   3.999  -7.337  1.00  0.00     0.049 A 
ATOM     43  H   UNL     1       1.261   5.845  -7.135  1.00  0.00     0.167 HD
ATOM     44  C   UNL     1       3.262   9.674  -6.544  1.00  0.00     0.031 A 
ATOM     45  C   UNL     1      -0.833   4.212  -8.002  1.00  0.00     0.031 A 
ATOM     46  C   UNL     1       2.100   9.982  -7.334  1.00  0.00     0.049 A 
ATOM     47  C   UNL     1      -1.202   5.611  -8.416  1.00  0.00     0.074 A 
ATOM     48  C   UNL     1       1.717  11.203  -7.864  1.00  0.00     0.029 A 
ATOM     49  N   UNL     1       1.125   9.066  -7.694  1.00  0.00    -0.354 N 
ATOM     50  N   UNL     1      -0.531   6.725  -8.255  1.00  0.00    -0.248 NA
ATOM     51  C   UNL     1      -2.491   5.779  -9.104  1.00  0.00     0.031 C 
ATOM     52  C   UNL     1       0.478  11.037  -8.494  1.00  0.00     0.029 A 
ATOM     53  C   UNL     1       0.120   9.701  -8.405  1.00  0.00     0.049 A 
ATOM     54  H   UNL     1       1.144   8.106  -7.478  1.00  0.00     0.167 HD
ATOM     55  C   UNL     1      -1.306   7.722  -8.835  1.00  0.00     0.074 A 
ATOM     56  C   UNL     1      -2.488   7.078  -9.368  1.00  0.00     0.031 C 
ATOM     57  C   UNL     1      -1.059   9.052  -8.918  1.00  0.00     0.031 A 
BRANCH  44  58
ATOM     58  C   UNL     1       4.179  10.801  -6.161  1.00  0.00    -0.014 A 
ATOM     59  C   UNL     1       5.450  10.938  -6.740  1.00  0.00     0.009 A 
ATOM     60  C   UNL     1       3.745  11.764  -5.236  1.00  0.00     0.009 A 
ATOM     61  C   UNL     1       6.280  12.001  -6.377  1.00  0.00     0.001 A 
ATOM     62  C   UNL     1       4.568  12.839  -4.893  1.00  0.00     0.001 A 
ATOM     63  C   UNL     1       5.837  12.952  -5.458  1.00  0.00     0.000 A 
ENDBRANCH  44  58
BRANCH  45  64
ATOM     64  C   UNL     1      -1.744   3.074  -8.288  1.00  0.00    -0.014 A 
ATOM     65  C   UNL     1      -1.924   2.611  -9.599  1.00  0.00     0.009 A 
ATOM     66  C   UNL     1      -2.449   2.452  -7.245  1.00  0.00     0.009 A 
ATOM     67  C   UNL     1      -2.806   1.559  -9.862  1.00  0.00     0.001 A 
ATOM     68  C   UNL     1      -3.308   1.384  -7.506  1.00  0.00     0.001 A 
ATOM     69  C   UNL     1      -3.493   0.944  -8.816  1.00  0.00     0.000 A 
ENDBRANCH  45  64
BRANCH  57  70
ATOM     70  C   UNL     1      -2.081   9.899  -9.623  1.00  0.00    -0.014 A 
ATOM     71  C   UNL     1      -3.315  10.196  -9.024  1.00  0.00     0.009 A 
ATOM     72  C   UNL     1      -1.788  10.442 -10.884  1.00  0.00     0.009 A 
ATOM     73  C   UNL     1      -4.247  10.996  -9.687  1.00  0.00     0.001 A 
ATOM     74  C   UNL     1      -2.712  11.263 -11.533  1.00  0.00     0.001 A 
ATOM     75  C   UNL     1      -3.943  11.532 -10.938  1.00  0.00     0.000 A 
ENDBRANCH  57  70
ENDBRANCH  31  32
ENDBRANCH  24  26
ENDBRANCH  23  24
ENDBRANCH  22  23
ENDBRANCH  21  22
ENDBRANCH   1  21
TORSDOF 16
