REMARK SMILES O=C(OCCOCCOC(=O)c1cccc(Nc2ccc([N+](=O)[O-])cc2)c1)c1ccc(-c2c3nc(c(-c4ccccc4)c4ccc([nH]4)c(-c4ccccc4)c4nc(c(-c5ccccc5)c5ccc2[nH]5)C=C4)C=C3)cc1
REMARK SMILES IDX 7 1 6 2 5 3 4 4 3 5 2 6 1 7 28 8 29 9 75 10 30 11 74 12
REMARK SMILES IDX 31 13 32 14 33 15 68 16 34 17 73 18 67 19 69 20 35 21 72 22
REMARK SMILES IDX 66 23 65 24 36 26 58 27 43 28 57 29 44 30 47 31 56 32 70 33
REMARK SMILES IDX 45 34 46 35 55 37 71 38 48 39 37 40 38 41 42 42 39 43 41 44
REMARK SMILES IDX 40 45 59 46 60 47 64 48 61 49 63 50 62 51 49 52 50 53 54 54
REMARK SMILES IDX 51 55 53 56 52 57 8 58 9 59 10 60 11 61 12 62 13 63 27 64
REMARK SMILES IDX 14 65 16 66 15 67 17 68 18 70 19 71 26 72 20 73 25 74 21 75
REMARK SMILES IDX 22 76 23 77 24 78
REMARK H PARENT 69 25 47 36 17 69
REMARK Flexibility Score: inf
ROOT
ATOM      1  C   UNL     1       2.619   2.033  -0.892  1.00  0.00     0.202 C 
ENDROOT
BRANCH   1   2
ATOM      2  O   UNL     1       3.944   1.490  -0.841  1.00  0.00    -0.374 OA
BRANCH   2   3
ATOM      3  C   UNL     1       4.171   0.318  -1.624  1.00  0.00     0.202 C 
BRANCH   3   4
ATOM      4  C   UNL     1       3.860  -0.991  -0.895  1.00  0.00     0.261 C 
BRANCH   4   5
ATOM      5  O   UNL     1       2.487  -1.013  -0.471  1.00  0.00    -0.460 OA
BRANCH   5   6
ATOM      6  C   UNL     1       1.986  -0.806   0.768  1.00  0.00     0.338 C 
ATOM      7  O   UNL     1       0.773  -0.911   0.937  1.00  0.00    -0.246 OA
BRANCH   6   8
ATOM      8  C   UNL     1       2.823  -0.459   1.957  1.00  0.00     0.060 A 
ATOM      9  C   UNL     1       4.037   0.229   1.908  1.00  0.00     0.016 A 
ATOM     10  C   UNL     1       2.292  -0.763   3.222  1.00  0.00     0.016 A 
ATOM     11  C   UNL     1       4.734   0.559   3.059  1.00  0.00     0.010 A 
ATOM     12  C   UNL     1       2.966  -0.399   4.392  1.00  0.00     0.010 A 
ATOM     13  C   UNL     1       4.199   0.254   4.305  1.00  0.00    -0.014 A 
BRANCH  13  14
ATOM     14  C   UNL     1       5.018   0.562   5.487  1.00  0.00     0.031 A 
ATOM     15  C   UNL     1       5.763  -0.554   6.146  1.00  0.00     0.074 A 
ATOM     16  C   UNL     1       5.200   1.846   5.844  1.00  0.00     0.049 A 
ATOM     17  N   UNL     1       6.547  -0.521   7.188  1.00  0.00    -0.248 NA
ATOM     18  C   UNL     1       5.621  -1.888   5.534  1.00  0.00     0.031 C 
ATOM     19  C   UNL     1       4.615   3.003   5.160  1.00  0.00     0.029 A 
ATOM     20  N   UNL     1       5.959   2.396   6.839  1.00  0.00    -0.354 N 
ATOM     21  C   UNL     1       6.970  -1.830   7.374  1.00  0.00     0.074 A 
ATOM     22  C   UNL     1       6.359  -2.634   6.341  1.00  0.00     0.031 C 
ATOM     23  C   UNL     1       5.064   4.128   5.739  1.00  0.00     0.029 A 
ATOM     24  C   UNL     1       5.907   3.768   6.872  1.00  0.00     0.049 A 
ATOM     25  H   UNL     1       6.492   1.861   7.471  1.00  0.00     0.167 HD
ATOM     26  C   UNL     1       7.788  -2.311   8.337  1.00  0.00     0.031 A 
ATOM     27  C   UNL     1       6.458   4.629   7.748  1.00  0.00     0.031 A 
ATOM     28  C   UNL     1       8.364  -1.487   9.363  1.00  0.00     0.049 A 
ATOM     29  C   UNL     1       7.276   4.055   8.871  1.00  0.00     0.074 A 
ATOM     30  C   UNL     1       9.143  -1.859  10.442  1.00  0.00     0.029 A 
ATOM     31  N   UNL     1       8.214  -0.107   9.428  1.00  0.00    -0.354 N 
ATOM     32  N   UNL     1       7.611   2.805   9.092  1.00  0.00    -0.248 NA
ATOM     33  C   UNL     1       7.778   5.002   9.873  1.00  0.00     0.031 C 
ATOM     34  C   UNL     1       9.423  -0.708  11.187  1.00  0.00     0.029 A 
ATOM     35  C   UNL     1       8.869   0.387  10.540  1.00  0.00     0.049 A 
ATOM     36  H   UNL     1       7.715   0.438   8.778  1.00  0.00     0.167 HD
ATOM     37  C   UNL     1       8.373   2.814  10.251  1.00  0.00     0.074 A 
ATOM     38  C   UNL     1       8.471   4.200  10.671  1.00  0.00     0.031 C 
ATOM     39  C   UNL     1       8.937   1.777  10.917  1.00  0.00     0.031 A 
BRANCH  26  40
ATOM     40  C   UNL     1       8.010  -3.796   8.359  1.00  0.00    -0.014 A 
ATOM     41  C   UNL     1       8.803  -4.439   7.395  1.00  0.00     0.009 A 
ATOM     42  C   UNL     1       7.371  -4.571   9.339  1.00  0.00     0.009 A 
ATOM     43  C   UNL     1       8.916  -5.832   7.389  1.00  0.00     0.001 A 
ATOM     44  C   UNL     1       7.506  -5.960   9.346  1.00  0.00     0.001 A 
ATOM     45  C   UNL     1       8.268  -6.591   8.364  1.00  0.00     0.000 A 
ENDBRANCH  26  40
BRANCH  27  46
ATOM     46  C   UNL     1       6.199   6.090   7.637  1.00  0.00    -0.014 A 
ATOM     47  C   UNL     1       7.237   6.993   7.365  1.00  0.00     0.009 A 
ATOM     48  C   UNL     1       4.899   6.593   7.815  1.00  0.00     0.009 A 
ATOM     49  C   UNL     1       6.982   8.367   7.296  1.00  0.00     0.001 A 
ATOM     50  C   UNL     1       4.641   7.962   7.714  1.00  0.00     0.001 A 
ATOM     51  C   UNL     1       5.685   8.849   7.466  1.00  0.00     0.000 A 
ENDBRANCH  27  46
BRANCH  39  52
ATOM     52  C   UNL     1       9.729   2.116  12.145  1.00  0.00    -0.014 A 
ATOM     53  C   UNL     1       9.093   2.497  13.336  1.00  0.00     0.009 A 
ATOM     54  C   UNL     1      11.127   2.006  12.117  1.00  0.00     0.009 A 
ATOM     55  C   UNL     1       9.850   2.790  14.471  1.00  0.00     0.001 A 
ATOM     56  C   UNL     1      11.878   2.272  13.261  1.00  0.00     0.001 A 
ATOM     57  C   UNL     1      11.239   2.672  14.434  1.00  0.00     0.000 A 
ENDBRANCH  39  52
ENDBRANCH  13  14
ENDBRANCH   6   8
ENDBRANCH   5   6
ENDBRANCH   4   5
ENDBRANCH   3   4
ENDBRANCH   2   3
ENDBRANCH   1   2
BRANCH   1  58
ATOM     58  C   UNL     1       2.706   3.547  -1.113  1.00  0.00     0.261 C 
BRANCH  58  59
ATOM     59  O   UNL     1       3.322   3.779  -2.388  1.00  0.00    -0.460 OA
BRANCH  59  60
ATOM     60  C   UNL     1       4.680   3.771  -2.370  1.00  0.00     0.338 C 
ATOM     61  O   UNL     1       5.414   4.001  -1.424  1.00  0.00    -0.246 OA
BRANCH  60  62
ATOM     62  C   UNL     1       5.134   3.201  -3.656  1.00  0.00     0.062 A 
ATOM     63  C   UNL     1       6.231   2.335  -3.659  1.00  0.00     0.016 A 
ATOM     64  C   UNL     1       4.432   3.457  -4.838  1.00  0.00     0.041 A 
ATOM     65  C   UNL     1       6.597   1.695  -4.838  1.00  0.00     0.003 A 
ATOM     66  C   UNL     1       4.830   2.869  -6.042  1.00  0.00     0.039 A 
ATOM     67  C   UNL     1       5.899   1.963  -6.020  1.00  0.00     0.026 A 
BRANCH  66  68
ATOM     68  N   UNL     1       4.134   3.215  -7.217  1.00  0.00    -0.355 N 
ATOM     69  H   UNL     1       3.227   3.580  -7.102  1.00  0.00     0.167 HD
BRANCH  68  70
ATOM     70  C   UNL     1       4.601   3.092  -8.534  1.00  0.00     0.039 A 
ATOM     71  C   UNL     1       5.115   4.223  -9.181  1.00  0.00     0.033 A 
ATOM     72  C   UNL     1       4.634   1.852  -9.180  1.00  0.00     0.033 A 
ATOM     73  C   UNL     1       5.664   4.122 -10.459  1.00  0.00     0.088 A 
ATOM     74  C   UNL     1       5.173   1.738 -10.464  1.00  0.00     0.088 A 
ATOM     75  C   UNL     1       5.693   2.876 -11.096  1.00  0.00     0.269 A 
BRANCH  75  76
ATOM     76  N   UNL     1       6.287   2.760 -12.432  1.00  0.00     0.062 N 
ATOM     77  O   UNL     1       6.721   3.793 -12.961  1.00  0.00    -0.258 OA
ATOM     78  O   UNL     1       6.321   1.636 -12.952  1.00  0.00    -0.258 OA
ENDBRANCH  75  76
ENDBRANCH  68  70
ENDBRANCH  66  68
ENDBRANCH  60  62
ENDBRANCH  59  60
ENDBRANCH  58  59
ENDBRANCH   1  58
TORSDOF 17
