REMARK SMILES COc1ccc(S(=O)(=O)N2CCCC[C@@H]2C(=O)OCCOCCOC(=O)c2ccc(-c3c4nc(c(-c5ccccc5)c5ccc([nH]5)c(-c5ccccc5)c5nc(c(-c6ccccc6)c6ccc3[nH]6)C=C5)C=C4)cc2)cc1C
REMARK SMILES IDX 20 1 19 2 18 3 16 4 17 5 15 6 10 7 11 8 12 9 14 10 13 11
REMARK SMILES IDX 7 12 8 13 9 14 6 15 3 16 4 17 76 18 5 19 75 20 77 21 2 22
REMARK SMILES IDX 1 23 21 24 22 25 23 26 24 27 25 28 26 29 27 30 28 31 74 32
REMARK SMILES IDX 29 33 73 34 30 35 31 36 32 37 67 38 33 39 72 40 66 41 68 42
REMARK SMILES IDX 34 43 71 44 65 45 64 46 35 48 57 49 42 50 56 51 43 52 46 53
REMARK SMILES IDX 55 54 69 55 44 56 45 57 54 59 70 60 47 61 36 62 37 63 41 64
REMARK SMILES IDX 38 65 40 66 39 67 58 68 59 69 63 70 60 71 62 72 61 73 48 74
REMARK SMILES IDX 49 75 53 76 50 77 52 78 51 79
REMARK H PARENT 68 47 46 58
REMARK Flexibility Score: inf
ROOT
ATOM      1  C   UNL     1       6.432   8.378   2.454  1.00  0.00     0.202 C 
ENDROOT
BRANCH   1   2
ATOM      2  C   UNL     1       5.240   8.424   3.397  1.00  0.00     0.261 C 
BRANCH   2   3
ATOM      3  O   UNL     1       4.708   7.119   3.723  1.00  0.00    -0.462 OA
BRANCH   3   4
ATOM      4  C   UNL     1       4.258   6.290   2.730  1.00  0.00     0.324 C 
ATOM      5  O   UNL     1       3.818   6.641   1.645  1.00  0.00    -0.250 OA
BRANCH   4   6
ATOM      6  C   UNL     1       4.522   4.830   3.112  1.00  0.00     0.183 C 
ATOM      7  N   UNL     1       3.550   4.235   4.085  1.00  0.00    -0.184 NA
ATOM      8  C   UNL     1       3.986   3.124   4.956  1.00  0.00     0.103 C 
ATOM      9  C   UNL     1       5.386   3.348   5.495  1.00  0.00     0.017 C 
ATOM     10  C   UNL     1       5.988   4.777   3.595  1.00  0.00     0.032 C 
ATOM     11  C   UNL     1       6.356   3.518   4.342  1.00  0.00     0.004 C 
BRANCH   7  12
ATOM     12  S   UNL     1       1.908   4.185   3.617  1.00  0.00     0.243 S 
ATOM     13  O   UNL     1       1.645   5.380   2.868  1.00  0.00    -0.207 OA
ATOM     14  O   UNL     1       1.133   3.791   4.777  1.00  0.00    -0.207 OA
BRANCH  12  15
ATOM     15  C   UNL     1       1.645   2.931   2.396  1.00  0.00     0.083 A 
ATOM     16  C   UNL     1       1.140   1.467   0.102  1.00  0.00     0.121 A 
ATOM     17  C   UNL     1       0.080   2.098   0.752  1.00  0.00     0.048 A 
ATOM     18  C   UNL     1       2.458   1.597   0.561  1.00  0.00    -0.008 A 
ATOM     19  C   UNL     1       0.335   2.841   1.897  1.00  0.00     0.025 A 
ATOM     20  C   UNL     1       2.693   2.275   1.762  1.00  0.00     0.029 A 
ATOM     21  C   UNL     1       3.628   1.071  -0.215  1.00  0.00     0.048 C 
BRANCH  16  22
ATOM     22  O   UNL     1       0.852   0.760  -1.034  1.00  0.00    -0.496 OA
ATOM     23  C   UNL     1       0.741  -0.626  -0.706  1.00  0.00     0.278 C 
ENDBRANCH  16  22
ENDBRANCH  12  15
ENDBRANCH   7  12
ENDBRANCH   4   6
ENDBRANCH   3   4
ENDBRANCH   2   3
ENDBRANCH   1   2
BRANCH   1  24
ATOM     24  O   UNL     1       5.934   8.094   1.159  1.00  0.00    -0.374 OA
BRANCH  24  25
ATOM     25  C   UNL     1       6.875   7.984   0.108  1.00  0.00     0.202 C 
BRANCH  25  26
ATOM     26  C   UNL     1       7.520   9.325  -0.263  1.00  0.00     0.261 C 
BRANCH  26  27
ATOM     27  O   UNL     1       6.503  10.248  -0.698  1.00  0.00    -0.460 OA
BRANCH  27  28
ATOM     28  C   UNL     1       6.101  11.146   0.241  1.00  0.00     0.338 C 
ATOM     29  O   UNL     1       6.844  11.844   0.913  1.00  0.00    -0.246 OA
BRANCH  28  30
ATOM     30  C   UNL     1       4.649  10.967   0.521  1.00  0.00     0.060 A 
ATOM     31  C   UNL     1       4.069  11.625   1.621  1.00  0.00     0.016 A 
ATOM     32  C   UNL     1       3.965   9.928  -0.107  1.00  0.00     0.016 A 
ATOM     33  C   UNL     1       2.866  11.154   2.165  1.00  0.00     0.010 A 
ATOM     34  C   UNL     1       2.841   9.405   0.497  1.00  0.00     0.010 A 
ATOM     35  C   UNL     1       2.288   9.999   1.640  1.00  0.00    -0.014 A 
BRANCH  35  36
ATOM     36  C   UNL     1       1.163   9.277   2.242  1.00  0.00     0.031 A 
ATOM     37  C   UNL     1      -0.082   9.090   1.455  1.00  0.00     0.074 A 
ATOM     38  C   UNL     1       1.325   8.576   3.389  1.00  0.00     0.049 A 
ATOM     39  N   UNL     1      -1.203   8.677   1.940  1.00  0.00    -0.248 NA
ATOM     40  C   UNL     1      -0.176   9.384   0.027  1.00  0.00     0.031 C 
ATOM     41  C   UNL     1       0.471   7.508   3.895  1.00  0.00     0.029 A 
ATOM     42  N   UNL     1       2.330   8.661   4.358  1.00  0.00    -0.354 N 
ATOM     43  C   UNL     1      -1.983   8.265   0.884  1.00  0.00     0.074 A 
ATOM     44  C   UNL     1      -1.371   8.870  -0.273  1.00  0.00     0.031 C 
ATOM     45  C   UNL     1       0.848   7.161   5.136  1.00  0.00     0.029 A 
ATOM     46  C   UNL     1       1.817   8.146   5.562  1.00  0.00     0.049 A 
ATOM     47  H   UNL     1       3.238   9.018   4.222  1.00  0.00     0.167 HD
ATOM     48  C   UNL     1      -2.953   7.328   1.099  1.00  0.00     0.031 A 
ATOM     49  C   UNL     1       1.677   8.929   6.665  1.00  0.00     0.031 A 
ATOM     50  C   UNL     1      -3.039   6.952   2.527  1.00  0.00     0.049 A 
ATOM     51  C   UNL     1       0.205   9.048   6.969  1.00  0.00     0.074 A 
ATOM     52  C   UNL     1      -2.785   5.777   3.217  1.00  0.00     0.029 A 
ATOM     53  N   UNL     1      -3.155   7.950   3.506  1.00  0.00    -0.354 N 
ATOM     54  N   UNL     1      -0.718   9.021   6.039  1.00  0.00    -0.248 NA
ATOM     55  C   UNL     1      -0.350   8.997   8.318  1.00  0.00     0.031 C 
ATOM     56  C   UNL     1      -2.648   6.096   4.600  1.00  0.00     0.029 A 
ATOM     57  C   UNL     1      -2.863   7.458   4.765  1.00  0.00     0.049 A 
ATOM     58  H   UNL     1      -3.411   8.882   3.320  1.00  0.00     0.167 HD
ATOM     59  C   UNL     1      -1.914   8.731   6.624  1.00  0.00     0.074 A 
ATOM     60  C   UNL     1      -1.660   8.835   8.055  1.00  0.00     0.031 C 
ATOM     61  C   UNL     1      -3.018   8.284   5.960  1.00  0.00     0.031 A 
BRANCH  48  62
ATOM     62  C   UNL     1      -3.650   6.554  -0.017  1.00  0.00    -0.014 A 
ATOM     63  C   UNL     1      -4.426   5.418   0.282  1.00  0.00     0.009 A 
ATOM     64  C   UNL     1      -3.561   6.860  -1.389  1.00  0.00     0.009 A 
ATOM     65  C   UNL     1      -5.013   4.620  -0.717  1.00  0.00     0.001 A 
ATOM     66  C   UNL     1      -4.130   6.065  -2.396  1.00  0.00     0.001 A 
ATOM     67  C   UNL     1      -4.853   4.935  -2.060  1.00  0.00     0.000 A 
ENDBRANCH  48  62
BRANCH  49  68
ATOM     68  C   UNL     1       2.762   9.938   6.795  1.00  0.00    -0.014 A 
ATOM     69  C   UNL     1       4.038   9.470   7.186  1.00  0.00     0.009 A 
ATOM     70  C   UNL     1       2.688  11.175   6.140  1.00  0.00     0.009 A 
ATOM     71  C   UNL     1       5.204  10.168   6.846  1.00  0.00     0.001 A 
ATOM     72  C   UNL     1       3.860  11.865   5.790  1.00  0.00     0.001 A 
ATOM     73  C   UNL     1       5.115  11.350   6.117  1.00  0.00     0.000 A 
ENDBRANCH  49  68
BRANCH  61  74
ATOM     74  C   UNL     1      -4.405   8.547   6.466  1.00  0.00    -0.014 A 
ATOM     75  C   UNL     1      -4.692   9.604   7.341  1.00  0.00     0.009 A 
ATOM     76  C   UNL     1      -5.495   7.880   5.873  1.00  0.00     0.009 A 
ATOM     77  C   UNL     1      -6.009   9.965   7.628  1.00  0.00     0.001 A 
ATOM     78  C   UNL     1      -6.810   8.267   6.122  1.00  0.00     0.001 A 
ATOM     79  C   UNL     1      -7.066   9.307   7.006  1.00  0.00     0.000 A 
ENDBRANCH  61  74
ENDBRANCH  35  36
ENDBRANCH  28  30
ENDBRANCH  27  28
ENDBRANCH  26  27
ENDBRANCH  25  26
ENDBRANCH  24  25
ENDBRANCH   1  24
TORSDOF 17
