REMARK SMILES CC[NH2+][C@]1(C(=O)OCCOCCOC(=O)c2ccc(-c3c4nc(c(-c5ccccc5)c5ccc([nH]5)c(-c5ccccc5)c5nc(c(-c6ccccc6)c6ccc3[nH]6)C=C5)C=C4)cc2)CCC[C@H]1CC[N@H+]1CCC[C@@H](CC)C1
REMARK SMILES IDX 9 1 8 2 7 3 5 4 6 5 4 6 64 7 67 8 65 9 66 10 3 11 2 14 1 15
REMARK SMILES IDX 68 16 69 17 70 18 71 19 77 20 72 22 74 23 73 24 75 25 76 26
REMARK SMILES IDX 10 27 11 28 12 29 13 30 14 31 15 32 16 33 17 34 63 35 18 36
REMARK SMILES IDX 62 37 19 38 20 39 21 40 56 41 22 42 61 43 55 44 57 45 23 46
REMARK SMILES IDX 60 47 54 48 53 49 24 51 46 52 31 53 45 54 32 55 35 56 44 57
REMARK SMILES IDX 58 58 33 59 34 60 43 62 59 63 36 64 25 65 26 66 30 67 27 68
REMARK SMILES IDX 29 69 28 70 47 71 48 72 52 73 49 74 51 75 50 76 37 77 38 78
REMARK SMILES IDX 42 79 39 80 41 81 40 82
REMARK H PARENT 3 12 3 13 70 21 57 50 35 61
REMARK Flexibility Score: inf
ROOT
ATOM      1  C   UNL     1       2.040  -0.111   0.816  1.00  0.00     0.202 C 
ENDROOT
BRANCH   1   2
ATOM      2  C   UNL     1       2.103  -1.144  -0.321  1.00  0.00     0.261 C 
BRANCH   2   3
ATOM      3  O   UNL     1       1.756  -0.631  -1.618  1.00  0.00    -0.459 OA
BRANCH   3   4
ATOM      4  C   UNL     1       0.699  -1.247  -2.227  1.00  0.00     0.368 C 
ATOM      5  O   UNL     1       0.142  -2.230  -1.749  1.00  0.00    -0.245 OA
BRANCH   4   6
ATOM      6  C   UNL     1       0.330  -0.610  -3.609  1.00  0.00     0.197 C 
ATOM      7  C   UNL     1       0.893   0.818  -3.808  1.00  0.00     0.081 C 
ATOM      8  C   UNL     1       0.950  -1.337  -4.845  1.00  0.00     0.068 C 
ATOM      9  C   UNL     1       0.797   1.094  -5.301  1.00  0.00     0.008 C 
ATOM     10  C   UNL     1       1.032  -0.253  -5.963  1.00  0.00     0.011 C 
BRANCH   6  11
ATOM     11  N   UNL     1      -1.162  -0.443  -3.796  1.00  0.00    -0.332 N 
ATOM     12  H   UNL     1      -1.404   0.505  -3.507  1.00  0.00     0.347 HD
ATOM     13  H   UNL     1      -1.331  -0.647  -4.781  1.00  0.00     0.347 HD
BRANCH  11  14
ATOM     14  C   UNL     1      -2.030  -1.364  -3.062  1.00  0.00     0.257 C 
ATOM     15  C   UNL     1      -3.485  -1.183  -3.470  1.00  0.00     0.071 C 
ENDBRANCH  11  14
ENDBRANCH   6  11
BRANCH   8  16
ATOM     16  C   UNL     1       2.352  -1.983  -4.717  1.00  0.00     0.072 C 
BRANCH  16  17
ATOM     17  C   UNL     1       2.692  -3.083  -3.688  1.00  0.00     0.262 C 
BRANCH  17  18
ATOM     18  N   UNL     1       1.879  -4.288  -3.484  1.00  0.00    -0.335 N 
ATOM     19  C   UNL     1       0.682  -4.435  -4.298  1.00  0.00     0.262 C 
ATOM     20  C   UNL     1       2.714  -5.496  -3.457  1.00  0.00     0.265 C 
ATOM     21  H   UNL     1       1.470  -4.149  -2.559  1.00  0.00     0.348 HD
ATOM     22  C   UNL     1      -0.134  -5.683  -3.973  1.00  0.00     0.062 C 
ATOM     23  C   UNL     1       1.928  -6.777  -3.121  1.00  0.00     0.044 C 
ATOM     24  C   UNL     1       0.723  -6.931  -4.052  1.00  0.00     0.015 C 
BRANCH  23  25
ATOM     25  C   UNL     1       2.830  -8.024  -3.126  1.00  0.00     0.006 C 
ATOM     26  C   UNL     1       3.356  -8.442  -4.493  1.00  0.00     0.004 C 
ENDBRANCH  23  25
ENDBRANCH  17  18
ENDBRANCH  16  17
ENDBRANCH   8  16
ENDBRANCH   4   6
ENDBRANCH   3   4
ENDBRANCH   2   3
ENDBRANCH   1   2
BRANCH   1  27
ATOM     27  O   UNL     1       1.048   0.903   0.769  1.00  0.00    -0.374 OA
BRANCH  27  28
ATOM     28  C   UNL     1       1.082   1.823  -0.319  1.00  0.00     0.202 C 
BRANCH  28  29
ATOM     29  C   UNL     1       2.391   2.576  -0.606  1.00  0.00     0.261 C 
BRANCH  29  30
ATOM     30  O   UNL     1       3.501   1.718  -0.952  1.00  0.00    -0.460 OA
BRANCH  30  31
ATOM     31  C   UNL     1       4.611   1.894  -0.198  1.00  0.00     0.338 C 
ATOM     32  O   UNL     1       4.776   2.707   0.704  1.00  0.00    -0.246 OA
BRANCH  31  33
ATOM     33  C   UNL     1       5.626   0.869  -0.491  1.00  0.00     0.060 A 
ATOM     34  C   UNL     1       5.949  -0.050   0.517  1.00  0.00     0.016 A 
ATOM     35  C   UNL     1       6.386   0.932  -1.660  1.00  0.00     0.016 A 
ATOM     36  C   UNL     1       7.065  -0.877   0.378  1.00  0.00     0.010 A 
ATOM     37  C   UNL     1       7.511   0.109  -1.792  1.00  0.00     0.010 A 
ATOM     38  C   UNL     1       7.879  -0.771  -0.757  1.00  0.00    -0.014 A 
BRANCH  38  39
ATOM     39  C   UNL     1       9.191  -1.464  -0.791  1.00  0.00     0.031 A 
ATOM     40  C   UNL     1      10.437  -0.702  -0.423  1.00  0.00     0.074 A 
ATOM     41  C   UNL     1       9.279  -2.763  -1.128  1.00  0.00     0.049 A 
ATOM     42  N   UNL     1      11.684  -1.102  -0.423  1.00  0.00    -0.248 NA
ATOM     43  C   UNL     1      10.252   0.694   0.005  1.00  0.00     0.031 C 
ATOM     44  C   UNL     1       8.150  -3.630  -1.458  1.00  0.00     0.029 A 
ATOM     45  N   UNL     1      10.378  -3.576  -1.252  1.00  0.00    -0.354 N 
ATOM     46  C   UNL     1      12.432  -0.008  -0.004  1.00  0.00     0.074 A 
ATOM     47  C   UNL     1      11.502   1.078   0.221  1.00  0.00     0.031 C 
ATOM     48  C   UNL     1       8.617  -4.854  -1.760  1.00  0.00     0.029 A 
ATOM     49  C   UNL     1      10.076  -4.846  -1.675  1.00  0.00     0.049 A 
ATOM     50  H   UNL     1      11.295  -3.276  -1.056  1.00  0.00     0.167 HD
ATOM     51  C   UNL     1      13.771   0.087   0.178  1.00  0.00     0.031 A 
ATOM     52  C   UNL     1      10.885  -5.879  -1.981  1.00  0.00     0.031 A 
ATOM     53  C   UNL     1      14.703  -0.984  -0.052  1.00  0.00     0.049 A 
ATOM     54  C   UNL     1      12.377  -5.723  -1.853  1.00  0.00     0.074 A 
ATOM     55  C   UNL     1      16.075  -0.986   0.131  1.00  0.00     0.029 A 
ATOM     56  N   UNL     1      14.359  -2.240  -0.524  1.00  0.00    -0.354 N 
ATOM     57  N   UNL     1      13.067  -4.692  -1.431  1.00  0.00    -0.248 NA
ATOM     58  C   UNL     1      13.200  -6.878  -2.244  1.00  0.00     0.031 C 
ATOM     59  C   UNL     1      16.569  -2.229  -0.281  1.00  0.00     0.029 A 
ATOM     60  C   UNL     1      15.497  -3.015  -0.672  1.00  0.00     0.049 A 
ATOM     61  H   UNL     1      13.443  -2.537  -0.725  1.00  0.00     0.167 HD
ATOM     62  C   UNL     1      14.400  -5.080  -1.484  1.00  0.00     0.074 A 
ATOM     63  C   UNL     1      14.423  -6.444  -1.967  1.00  0.00     0.031 C 
ATOM     64  C   UNL     1      15.507  -4.369  -1.158  1.00  0.00     0.031 A 
BRANCH  51  65
ATOM     65  C   UNL     1      14.316   1.415   0.621  1.00  0.00    -0.014 A 
ATOM     66  C   UNL     1      14.158   1.863   1.941  1.00  0.00     0.009 A 
ATOM     67  C   UNL     1      15.033   2.208  -0.288  1.00  0.00     0.009 A 
ATOM     68  C   UNL     1      14.684   3.096   2.334  1.00  0.00     0.001 A 
ATOM     69  C   UNL     1      15.576   3.429   0.114  1.00  0.00     0.001 A 
ATOM     70  C   UNL     1      15.396   3.876   1.422  1.00  0.00     0.000 A 
ENDBRANCH  51  65
BRANCH  52  71
ATOM     71  C   UNL     1      10.305  -7.153  -2.478  1.00  0.00    -0.014 A 
ATOM     72  C   UNL     1      10.325  -8.308  -1.682  1.00  0.00     0.009 A 
ATOM     73  C   UNL     1       9.747  -7.223  -3.764  1.00  0.00     0.009 A 
ATOM     74  C   UNL     1       9.816  -9.512  -2.173  1.00  0.00     0.001 A 
ATOM     75  C   UNL     1       9.216  -8.422  -4.243  1.00  0.00     0.001 A 
ATOM     76  C   UNL     1       9.259  -9.568  -3.450  1.00  0.00     0.000 A 
ENDBRANCH  52  71
BRANCH  64  77
ATOM     77  C   UNL     1      16.835  -5.059  -1.288  1.00  0.00    -0.014 A 
ATOM     78  C   UNL     1      17.420  -5.277  -2.544  1.00  0.00     0.009 A 
ATOM     79  C   UNL     1      17.532  -5.452  -0.134  1.00  0.00     0.009 A 
ATOM     80  C   UNL     1      18.667  -5.898  -2.643  1.00  0.00     0.001 A 
ATOM     81  C   UNL     1      18.788  -6.051  -0.235  1.00  0.00     0.001 A 
ATOM     82  C   UNL     1      19.351  -6.280  -1.490  1.00  0.00     0.000 A 
ENDBRANCH  64  77
ENDBRANCH  38  39
ENDBRANCH  31  33
ENDBRANCH  30  31
ENDBRANCH  29  30
ENDBRANCH  28  29
ENDBRANCH  27  28
ENDBRANCH   1  27
TORSDOF 20
