REMARK SMILES CC1=C(CC(=O)OCCOCCOC(=O)c2ccc(-c3c4nc(c(-c5ccccc5)c5ccc([nH]5)c(-c5ccccc5)c5nc(c(-c6ccccc6)c6ccc3[nH]6)C=C5)C=C4)cc2)c2cc(F)ccc2/C1=C\c1cccc(OCc2ccccc2)c1
REMARK SMILES IDX 8 1 7 2 5 3 6 4 4 5 3 6 1 7 2 8 71 9 64 10 70 11 72 12 65 13
REMARK SMILES IDX 69 14 66 15 68 16 67 17 73 18 74 19 86 20 75 21 77 22 76 23
REMARK SMILES IDX 78 24 79 25 80 26 81 27 85 28 82 29 84 30 83 31 9 32 10 33
REMARK SMILES IDX 11 34 12 35 13 36 14 37 15 38 16 39 17 40 63 41 18 42 62 43
REMARK SMILES IDX 19 44 20 45 21 46 56 47 22 48 61 49 55 50 57 51 23 52 60 53
REMARK SMILES IDX 54 54 53 55 24 57 46 58 31 59 45 60 32 61 35 62 44 63 58 64
REMARK SMILES IDX 33 65 34 66 43 68 59 69 36 70 25 71 26 72 30 73 27 74 29 75
REMARK SMILES IDX 28 76 47 77 48 78 52 79 49 80 51 81 50 82 37 83 38 84 42 85
REMARK SMILES IDX 39 86 41 87 40 88
REMARK H PARENT 57 56 35 67
REMARK Flexibility Score: inf
ROOT
ATOM      1  C   UNL     1       5.133  -3.227   0.436  1.00  0.00     0.261 C 
ENDROOT
BRANCH   1   2
ATOM      2  O   UNL     1       3.737  -2.949   0.202  1.00  0.00    -0.463 OA
BRANCH   2   3
ATOM      3  C   UNL     1       3.371  -2.874  -1.107  1.00  0.00     0.310 C 
ATOM      4  O   UNL     1       4.150  -2.983  -2.050  1.00  0.00    -0.252 OA
BRANCH   3   5
ATOM      5  C   UNL     1       1.882  -2.647  -1.353  1.00  0.00     0.159 C 
BRANCH   5   6
ATOM      6  C   UNL     1       0.948  -2.578  -0.189  1.00  0.00    -0.025 C 
ATOM      7  C   UNL     1       1.027  -0.086   0.226  1.00  0.00     0.045 C 
ATOM      8  C   UNL     1       0.562  -1.479   0.501  1.00  0.00    -0.039 C 
ATOM      9  C   UNL     1      -0.422  -1.860   1.525  1.00  0.00    -0.014 C 
ATOM     10  C   UNL     1       0.158  -3.719   0.312  1.00  0.00    -0.011 A 
ATOM     11  C   UNL     1      -0.628  -3.313   1.406  1.00  0.00    -0.010 A 
ATOM     12  C   UNL     1      -1.047  -1.012   2.357  1.00  0.00     0.017 C 
ATOM     13  C   UNL     1       0.097  -5.031  -0.139  1.00  0.00     0.048 A 
ATOM     14  C   UNL     1      -1.395  -4.227   2.119  1.00  0.00     0.012 A 
ATOM     15  C   UNL     1      -0.689  -5.939   0.572  1.00  0.00     0.123 A 
ATOM     16  C   UNL     1      -1.412  -5.557   1.703  1.00  0.00     0.040 A 
ATOM     17  F   UNL     1      -0.702  -7.225   0.198  1.00  0.00    -0.207 F 
BRANCH  12  18
ATOM     18  C   UNL     1      -2.098  -1.356   3.317  1.00  0.00    -0.021 A 
ATOM     19  C   UNL     1      -1.788  -1.658   4.643  1.00  0.00     0.008 A 
ATOM     20  C   UNL     1      -3.434  -1.353   2.897  1.00  0.00     0.054 A 
ATOM     21  C   UNL     1      -2.813  -1.955   5.540  1.00  0.00     0.004 A 
ATOM     22  C   UNL     1      -4.465  -1.508   3.818  1.00  0.00     0.120 A 
ATOM     23  C   UNL     1      -4.147  -1.864   5.130  1.00  0.00     0.046 A 
BRANCH  22  24
ATOM     24  O   UNL     1      -5.794  -1.308   3.566  1.00  0.00    -0.489 OA
BRANCH  24  25
ATOM     25  C   UNL     1      -6.171  -0.567   2.396  1.00  0.00     0.265 C 
BRANCH  25  26
ATOM     26  C   UNL     1      -5.976   0.937   2.497  1.00  0.00    -0.011 A 
ATOM     27  C   UNL     1      -7.046   1.772   2.846  1.00  0.00     0.007 A 
ATOM     28  C   UNL     1      -4.739   1.541   2.217  1.00  0.00     0.007 A 
ATOM     29  C   UNL     1      -6.880   3.160   2.908  1.00  0.00     0.000 A 
ATOM     30  C   UNL     1      -4.563   2.922   2.309  1.00  0.00     0.000 A 
ATOM     31  C   UNL     1      -5.637   3.734   2.648  1.00  0.00     0.000 A 
ENDBRANCH  25  26
ENDBRANCH  24  25
ENDBRANCH  22  24
ENDBRANCH  12  18
ENDBRANCH   5   6
ENDBRANCH   3   5
ENDBRANCH   2   3
ENDBRANCH   1   2
BRANCH   1  32
ATOM     32  C   UNL     1       5.394  -4.504   1.247  1.00  0.00     0.202 C 
BRANCH  32  33
ATOM     33  O   UNL     1       4.846  -5.729   0.767  1.00  0.00    -0.374 OA
BRANCH  33  34
ATOM     34  C   UNL     1       3.429  -5.862   0.741  1.00  0.00     0.202 C 
BRANCH  34  35
ATOM     35  C   UNL     1       2.690  -5.939   2.081  1.00  0.00     0.261 C 
BRANCH  35  36
ATOM     36  O   UNL     1       2.978  -4.859   2.972  1.00  0.00    -0.460 OA
BRANCH  36  37
ATOM     37  C   UNL     1       3.606  -5.234   4.109  1.00  0.00     0.338 C 
ATOM     38  O   UNL     1       3.925  -6.364   4.453  1.00  0.00    -0.246 OA
BRANCH  37  39
ATOM     39  C   UNL     1       4.007  -4.036   4.855  1.00  0.00     0.060 A 
ATOM     40  C   UNL     1       3.081  -3.041   5.173  1.00  0.00     0.016 A 
ATOM     41  C   UNL     1       5.337  -3.950   5.283  1.00  0.00     0.016 A 
ATOM     42  C   UNL     1       3.490  -1.963   5.956  1.00  0.00     0.010 A 
ATOM     43  C   UNL     1       5.738  -2.881   6.076  1.00  0.00     0.010 A 
ATOM     44  C   UNL     1       4.812  -1.891   6.434  1.00  0.00    -0.014 A 
BRANCH  44  45
ATOM     45  C   UNL     1       5.189  -0.841   7.407  1.00  0.00     0.031 A 
ATOM     46  C   UNL     1       6.096   0.285   7.020  1.00  0.00     0.074 A 
ATOM     47  C   UNL     1       4.706  -0.936   8.661  1.00  0.00     0.049 A 
ATOM     48  N   UNL     1       6.455   1.323   7.730  1.00  0.00    -0.248 NA
ATOM     49  C   UNL     1       6.683   0.244   5.671  1.00  0.00     0.031 C 
ATOM     50  C   UNL     1       3.853  -2.022   9.149  1.00  0.00     0.029 A 
ATOM     51  N   UNL     1       4.846  -0.109   9.746  1.00  0.00    -0.354 N 
ATOM     52  C   UNL     1       7.298   2.065   6.914  1.00  0.00     0.074 A 
ATOM     53  C   UNL     1       7.437   1.337   5.672  1.00  0.00     0.031 C 
ATOM     54  C   UNL     1       3.511  -1.773  10.422  1.00  0.00     0.029 A 
ATOM     55  C   UNL     1       4.150  -0.534  10.853  1.00  0.00     0.049 A 
ATOM     56  H   UNL     1       5.393   0.709   9.734  1.00  0.00     0.167 HD
ATOM     57  C   UNL     1       7.883   3.256   7.181  1.00  0.00     0.031 A 
ATOM     58  C   UNL     1       4.030   0.016  12.077  1.00  0.00     0.031 A 
ATOM     59  C   UNL     1       7.741   3.959   8.429  1.00  0.00     0.049 A 
ATOM     60  C   UNL     1       4.697   1.337  12.344  1.00  0.00     0.074 A 
ATOM     61  C   UNL     1       8.266   5.190   8.781  1.00  0.00     0.029 A 
ATOM     62  N   UNL     1       7.032   3.496   9.528  1.00  0.00    -0.354 N 
ATOM     63  N   UNL     1       5.422   2.071  11.534  1.00  0.00    -0.248 NA
ATOM     64  C   UNL     1       4.511   1.922  13.679  1.00  0.00     0.031 C 
ATOM     65  C   UNL     1       7.939   5.438  10.114  1.00  0.00     0.029 A 
ATOM     66  C   UNL     1       7.128   4.408  10.565  1.00  0.00     0.049 A 
ATOM     67  H   UNL     1       6.535   2.647   9.564  1.00  0.00     0.167 HD
ATOM     68  C   UNL     1       5.747   3.217  12.246  1.00  0.00     0.074 A 
ATOM     69  C   UNL     1       5.127   3.090  13.548  1.00  0.00     0.031 C 
ATOM     70  C   UNL     1       6.492   4.279  11.852  1.00  0.00     0.031 A 
BRANCH  57  71
ATOM     71  C   UNL     1       8.721   3.901   6.111  1.00  0.00    -0.014 A 
ATOM     72  C   UNL     1      10.097   4.092   6.321  1.00  0.00     0.009 A 
ATOM     73  C   UNL     1       8.128   4.451   4.964  1.00  0.00     0.009 A 
ATOM     74  C   UNL     1      10.854   4.847   5.423  1.00  0.00     0.001 A 
ATOM     75  C   UNL     1       8.895   5.180   4.052  1.00  0.00     0.001 A 
ATOM     76  C   UNL     1      10.252   5.391   4.290  1.00  0.00     0.000 A 
ENDBRANCH  57  71
BRANCH  58  77
ATOM     77  C   UNL     1       3.204  -0.667  13.110  1.00  0.00    -0.014 A 
ATOM     78  C   UNL     1       3.591  -1.918  13.620  1.00  0.00     0.009 A 
ATOM     79  C   UNL     1       2.000  -0.102  13.557  1.00  0.00     0.009 A 
ATOM     80  C   UNL     1       2.782  -2.598  14.533  1.00  0.00     0.001 A 
ATOM     81  C   UNL     1       1.212  -0.766  14.501  1.00  0.00     0.001 A 
ATOM     82  C   UNL     1       1.597  -2.017  14.979  1.00  0.00     0.000 A 
ENDBRANCH  58  77
BRANCH  70  83
ATOM     83  C   UNL     1       6.658   5.426  12.813  1.00  0.00    -0.014 A 
ATOM     84  C   UNL     1       6.128   6.685  12.482  1.00  0.00     0.009 A 
ATOM     85  C   UNL     1       7.434   5.303  13.975  1.00  0.00     0.009 A 
ATOM     86  C   UNL     1       6.390   7.800  13.279  1.00  0.00     0.001 A 
ATOM     87  C   UNL     1       7.661   6.412  14.793  1.00  0.00     0.001 A 
ATOM     88  C   UNL     1       7.152   7.661  14.437  1.00  0.00     0.000 A 
ENDBRANCH  70  83
ENDBRANCH  44  45
ENDBRANCH  37  39
ENDBRANCH  36  37
ENDBRANCH  35  36
ENDBRANCH  34  35
ENDBRANCH  33  34
ENDBRANCH  32  33
ENDBRANCH   1  32
TORSDOF 19
