REMARK SMILES CCCCOc1ccc(NC(=O)[C@]2(C)CC[C@](C)(C(=O)OCCOCCOC(=O)c3ccc(-c4c5nc(c(-c6ccccc6)c6ccc([nH]6)c(-c6ccccc6)c6nc(c(-c7ccccc7)c7ccc4[nH]7)C=C6)C=C5)cc3)C2(C)C)cc1
REMARK SMILES IDX 22 1 21 2 19 3 20 4 17 5 13 6 15 7 78 8 14 9 16 10 79 11
REMARK SMILES IDX 80 12 18 13 11 14 10 15 12 17 9 18 6 19 7 20 82 21 8 22
REMARK SMILES IDX 81 23 5 24 4 25 3 26 2 27 1 28 23 29 24 30 25 31 26 32 27 33
REMARK SMILES IDX 28 34 29 35 30 36 31 37 77 38 32 39 76 40 33 41 34 42 35 43
REMARK SMILES IDX 70 44 36 45 75 46 69 47 71 48 37 49 74 50 68 51 67 52 38 54
REMARK SMILES IDX 60 55 45 56 59 57 46 58 49 59 58 60 72 61 47 62 48 63 57 65
REMARK SMILES IDX 73 66 50 67 39 68 40 69 44 70 41 71 43 72 42 73 61 74 62 75
REMARK SMILES IDX 66 76 63 77 65 78 64 79 51 80 52 81 56 82 53 83 55 84 54 85
REMARK H PARENT 10 16 71 53 49 64
REMARK Flexibility Score: inf
ROOT
ATOM      1  C   UNL     1      -5.879   6.215   3.832  1.00  0.00     0.261 C 
ENDROOT
BRANCH   1   2
ATOM      2  O   UNL     1      -5.285   5.584   2.675  1.00  0.00    -0.463 OA
BRANCH   2   3
ATOM      3  C   UNL     1      -4.740   4.363   2.902  1.00  0.00     0.312 C 
ATOM      4  O   UNL     1      -4.772   3.816   3.999  1.00  0.00    -0.252 OA
BRANCH   3   5
ATOM      5  C   UNL     1      -3.935   3.804   1.704  1.00  0.00     0.071 C 
ATOM      6  C   UNL     1      -4.900   2.237  -0.091  1.00  0.00     0.053 C 
ATOM      7  C   UNL     1      -3.779   1.564   0.686  1.00  0.00     0.018 C 
ATOM      8  C   UNL     1      -4.562   3.790   0.219  1.00  0.00    -0.005 C 
ATOM      9  C   UNL     1      -4.696   1.849  -1.586  1.00  0.00     0.022 C 
ATOM     10  C   UNL     1      -3.715   2.303   2.004  1.00  0.00     0.020 C 
ATOM     11  C   UNL     1      -3.512   4.329  -0.807  1.00  0.00     0.013 C 
ATOM     12  C   UNL     1      -5.767   4.716   0.008  1.00  0.00     0.013 C 
ATOM     13  C   UNL     1      -2.559   4.498   1.837  1.00  0.00     0.024 C 
BRANCH   6  14
ATOM     14  C   UNL     1      -6.402   1.810   0.128  1.00  0.00     0.230 C 
ATOM     15  N   UNL     1      -6.991   1.058   1.094  1.00  0.00    -0.326 N 
ATOM     16  H   UNL     1      -7.927   0.837   0.886  1.00  0.00     0.169 HD
ATOM     17  O   UNL     1      -7.243   2.251  -0.682  1.00  0.00    -0.274 OA
BRANCH  15  18
ATOM     18  C   UNL     1      -6.571   0.530   2.314  1.00  0.00     0.041 A 
ATOM     19  C   UNL     1      -5.512   0.184   4.851  1.00  0.00     0.119 A 
ATOM     20  C   UNL     1      -4.929  -0.469   3.767  1.00  0.00     0.048 A 
ATOM     21  C   UNL     1      -6.693   0.891   4.685  1.00  0.00     0.048 A 
ATOM     22  C   UNL     1      -5.485  -0.315   2.491  1.00  0.00     0.030 A 
ATOM     23  C   UNL     1      -7.282   0.950   3.432  1.00  0.00     0.030 A 
BRANCH  19  24
ATOM     24  O   UNL     1      -4.961   0.194   6.097  1.00  0.00    -0.494 OA
BRANCH  24  25
ATOM     25  C   UNL     1      -4.968  -1.086   6.729  1.00  0.00     0.229 C 
BRANCH  25  26
ATOM     26  C   UNL     1      -6.286  -1.375   7.459  1.00  0.00     0.041 C 
BRANCH  26  27
ATOM     27  C   UNL     1      -7.525  -1.669   6.602  1.00  0.00     0.000 C 
ATOM     28  C   UNL     1      -7.339  -2.727   5.526  1.00  0.00     0.004 C 
ENDBRANCH  26  27
ENDBRANCH  25  26
ENDBRANCH  24  25
ENDBRANCH  19  24
ENDBRANCH  15  18
ENDBRANCH   6  14
ENDBRANCH   3   5
ENDBRANCH   2   3
ENDBRANCH   1   2
BRANCH   1  29
ATOM     29  C   UNL     1      -7.395   6.335   3.700  1.00  0.00     0.202 C 
BRANCH  29  30
ATOM     30  O   UNL     1      -8.174   5.170   3.940  1.00  0.00    -0.374 OA
BRANCH  30  31
ATOM     31  C   UNL     1      -8.206   4.180   2.923  1.00  0.00     0.202 C 
BRANCH  31  32
ATOM     32  C   UNL     1      -9.153   4.391   1.734  1.00  0.00     0.261 C 
BRANCH  32  33
ATOM     33  O   UNL     1      -8.890   5.614   1.045  1.00  0.00    -0.460 OA
BRANCH  33  34
ATOM     34  C   UNL     1      -9.746   6.613   1.367  1.00  0.00     0.338 C 
ATOM     35  O   UNL     1     -10.761   6.538   2.029  1.00  0.00    -0.246 OA
BRANCH  34  36
ATOM     36  C   UNL     1      -9.136   7.897   0.981  1.00  0.00     0.060 A 
ATOM     37  C   UNL     1      -9.148   8.908   1.950  1.00  0.00     0.016 A 
ATOM     38  C   UNL     1      -8.575   8.114  -0.280  1.00  0.00     0.016 A 
ATOM     39  C   UNL     1      -8.677  10.173   1.633  1.00  0.00     0.010 A 
ATOM     40  C   UNL     1      -8.110   9.389  -0.600  1.00  0.00     0.010 A 
ATOM     41  C   UNL     1      -8.213  10.432   0.339  1.00  0.00    -0.014 A 
BRANCH  41  42
ATOM     42  C   UNL     1      -8.047  11.839  -0.080  1.00  0.00     0.031 A 
ATOM     43  C   UNL     1      -9.145  12.475  -0.887  1.00  0.00     0.074 A 
ATOM     44  C   UNL     1      -6.983  12.556   0.317  1.00  0.00     0.049 A 
ATOM     45  N   UNL     1      -9.225  13.690  -1.364  1.00  0.00    -0.248 NA
ATOM     46  C   UNL     1     -10.310  11.628  -1.196  1.00  0.00     0.031 C 
ATOM     47  C   UNL     1      -5.895  12.062   1.161  1.00  0.00     0.029 A 
ATOM     48  N   UNL     1      -6.652  13.862   0.066  1.00  0.00    -0.354 N 
ATOM     49  C   UNL     1     -10.440  13.747  -2.037  1.00  0.00     0.074 A 
ATOM     50  C   UNL     1     -11.048  12.440  -1.936  1.00  0.00     0.031 C 
ATOM     51  C   UNL     1      -5.014  13.057   1.357  1.00  0.00     0.029 A 
ATOM     52  C   UNL     1      -5.456  14.239   0.621  1.00  0.00     0.049 A 
ATOM     53  H   UNL     1      -7.218  14.470  -0.462  1.00  0.00     0.167 HD
ATOM     54  C   UNL     1     -11.001  14.799  -2.676  1.00  0.00     0.031 A 
ATOM     55  C   UNL     1      -4.785  15.403   0.522  1.00  0.00     0.031 A 
ATOM     56  C   UNL     1     -10.385  16.094  -2.781  1.00  0.00     0.049 A 
ATOM     57  C   UNL     1      -5.387  16.529  -0.276  1.00  0.00     0.074 A 
ATOM     58  C   UNL     1     -10.870  17.230  -3.402  1.00  0.00     0.029 A 
ATOM     59  N   UNL     1      -9.144  16.420  -2.255  1.00  0.00    -0.354 N 
ATOM     60  N   UNL     1      -6.539  16.578  -0.900  1.00  0.00    -0.248 NA
ATOM     61  C   UNL     1      -4.596  17.764  -0.375  1.00  0.00     0.031 C 
ATOM     62  C   UNL     1      -9.892  18.225  -3.312  1.00  0.00     0.029 A 
ATOM     63  C   UNL     1      -8.832  17.732  -2.566  1.00  0.00     0.049 A 
ATOM     64  H   UNL     1      -8.571  15.810  -1.738  1.00  0.00     0.167 HD
ATOM     65  C   UNL     1      -6.628  17.858  -1.434  1.00  0.00     0.074 A 
ATOM     66  C   UNL     1      -5.418  18.555  -1.051  1.00  0.00     0.031 C 
ATOM     67  C   UNL     1      -7.624  18.410  -2.170  1.00  0.00     0.031 A 
BRANCH  54  68
ATOM     68  C   UNL     1     -12.325  14.575  -3.351  1.00  0.00    -0.014 A 
ATOM     69  C   UNL     1     -13.503  14.371  -2.615  1.00  0.00     0.009 A 
ATOM     70  C   UNL     1     -12.398  14.598  -4.753  1.00  0.00     0.009 A 
ATOM     71  C   UNL     1     -14.719  14.160  -3.269  1.00  0.00     0.001 A 
ATOM     72  C   UNL     1     -13.620  14.420  -5.404  1.00  0.00     0.001 A 
ATOM     73  C   UNL     1     -14.777  14.192  -4.662  1.00  0.00     0.000 A 
ENDBRANCH  54  68
BRANCH  55  74
ATOM     74  C   UNL     1      -3.457  15.554   1.173  1.00  0.00    -0.014 A 
ATOM     75  C   UNL     1      -3.276  16.441   2.244  1.00  0.00     0.009 A 
ATOM     76  C   UNL     1      -2.354  14.819   0.709  1.00  0.00     0.009 A 
ATOM     77  C   UNL     1      -2.013  16.610   2.817  1.00  0.00     0.001 A 
ATOM     78  C   UNL     1      -1.100  14.965   1.304  1.00  0.00     0.001 A 
ATOM     79  C   UNL     1      -0.928  15.869   2.351  1.00  0.00     0.000 A 
ENDBRANCH  55  74
BRANCH  67  80
ATOM     80  C   UNL     1      -7.476  19.854  -2.564  1.00  0.00    -0.014 A 
ATOM     81  C   UNL     1      -6.541  20.262  -3.527  1.00  0.00     0.009 A 
ATOM     82  C   UNL     1      -8.331  20.813  -1.996  1.00  0.00     0.009 A 
ATOM     83  C   UNL     1      -6.442  21.608  -3.887  1.00  0.00     0.001 A 
ATOM     84  C   UNL     1      -8.253  22.151  -2.383  1.00  0.00     0.001 A 
ATOM     85  C   UNL     1      -7.302  22.549  -3.320  1.00  0.00     0.000 A 
ENDBRANCH  67  80
ENDBRANCH  41  42
ENDBRANCH  34  36
ENDBRANCH  33  34
ENDBRANCH  32  33
ENDBRANCH  31  32
ENDBRANCH  30  31
ENDBRANCH  29  30
ENDBRANCH   1  29
TORSDOF 20
