REMARK SMILES CCN(C(=O)N[C@@H]1CCOC1)[C@H]1COC[C@H]1C(=O)OCCOCCOC(=O)c1ccc(-c2c3nc(c(-c4ccccc4)c4ccc([nH]4)c(-c4ccccc4)c4nc(c(-c5ccccc5)c5ccc2[nH]5)C=C4)C=C3)cc1
REMARK SMILES IDX 21 1 20 2 19 3 17 4 18 5 16 6 12 7 13 8 14 9 15 10 3 11 2 12
REMARK SMILES IDX 1 13 4 14 5 15 6 16 7 18 8 19 11 20 9 21 10 22 22 23 23 24
REMARK SMILES IDX 24 25 25 26 26 27 27 28 28 29 29 30 75 31 30 32 74 33 31 34
REMARK SMILES IDX 32 35 33 36 68 37 34 38 73 39 67 40 69 41 35 42 72 43 66 44
REMARK SMILES IDX 65 45 36 47 58 48 43 49 57 50 44 51 47 52 56 53 70 54 45 55
REMARK SMILES IDX 46 56 55 58 71 59 48 60 37 61 38 62 42 63 39 64 41 65 40 66
REMARK SMILES IDX 59 67 60 68 64 69 61 70 63 71 62 72 49 73 50 74 54 75 51 76
REMARK SMILES IDX 53 77 52 78
REMARK H PARENT 6 17 69 46 47 57
REMARK Flexibility Score: inf
ROOT
ATOM      1  C   UNL     1       3.512   3.154  -4.087  1.00  0.00     0.202 C 
ENDROOT
BRANCH   1   2
ATOM      2  C   UNL     1       4.658   2.276  -3.583  1.00  0.00     0.261 C 
BRANCH   2   3
ATOM      3  O   UNL     1       4.193   0.995  -3.132  1.00  0.00    -0.463 OA
BRANCH   3   4
ATOM      4  C   UNL     1       4.290   0.792  -1.800  1.00  0.00     0.313 C 
ATOM      5  O   UNL     1       4.857   1.554  -1.021  1.00  0.00    -0.252 OA
BRANCH   4   6
ATOM      6  C   UNL     1       3.595  -0.437  -1.296  1.00  0.00     0.150 C 
ATOM      7  C   UNL     1       2.837  -1.439  -2.154  1.00  0.00     0.129 C 
ATOM      8  C   UNL     1       2.892  -2.700  -1.287  1.00  0.00     0.186 C 
ATOM      9  O   UNL     1       4.074  -2.625  -0.478  1.00  0.00    -0.378 OA
ATOM     10  C   UNL     1       4.545  -1.272  -0.466  1.00  0.00     0.177 C 
BRANCH   7  11
ATOM     11  N   UNL     1       3.156  -1.660  -3.596  1.00  0.00    -0.319 N 
BRANCH  11  12
ATOM     12  C   UNL     1       4.309  -2.433  -4.021  1.00  0.00     0.118 C 
ATOM     13  C   UNL     1       5.613  -2.438  -3.261  1.00  0.00     0.027 C 
ENDBRANCH  11  12
BRANCH  11  14
ATOM     14  C   UNL     1       2.104  -1.449  -4.460  1.00  0.00     0.318 C 
ATOM     15  O   UNL     1       1.041  -0.938  -4.083  1.00  0.00    -0.249 OA
ATOM     16  N   UNL     1       2.079  -1.793  -5.753  1.00  0.00    -0.333 N 
ATOM     17  H   UNL     1       1.158  -1.666  -6.080  1.00  0.00     0.165 HD
BRANCH  16  18
ATOM     18  C   UNL     1       2.896  -2.291  -6.886  1.00  0.00     0.112 C 
ATOM     19  C   UNL     1       1.934  -2.577  -8.044  1.00  0.00     0.056 C 
ATOM     20  C   UNL     1       3.522  -3.688  -6.830  1.00  0.00     0.185 C 
ATOM     21  C   UNL     1       1.388  -3.941  -7.666  1.00  0.00     0.162 C 
ATOM     22  O   UNL     1       2.470  -4.640  -7.045  1.00  0.00    -0.379 OA
ENDBRANCH  16  18
ENDBRANCH  11  14
ENDBRANCH   7  11
ENDBRANCH   4   6
ENDBRANCH   3   4
ENDBRANCH   2   3
ENDBRANCH   1   2
BRANCH   1  23
ATOM     23  O   UNL     1       2.406   3.340  -3.211  1.00  0.00    -0.374 OA
BRANCH  23  24
ATOM     24  C   UNL     1       1.430   2.294  -3.163  1.00  0.00     0.202 C 
BRANCH  24  25
ATOM     25  C   UNL     1       0.501   2.153  -4.380  1.00  0.00     0.261 C 
BRANCH  25  26
ATOM     26  O   UNL     1       1.194   1.705  -5.562  1.00  0.00    -0.460 OA
BRANCH  26  27
ATOM     27  C   UNL     1       1.306   2.604  -6.565  1.00  0.00     0.338 C 
ATOM     28  O   UNL     1       0.840   3.732  -6.618  1.00  0.00    -0.246 OA
BRANCH  27  29
ATOM     29  C   UNL     1       2.251   2.076  -7.566  1.00  0.00     0.060 A 
ATOM     30  C   UNL     1       3.423   2.786  -7.849  1.00  0.00     0.016 A 
ATOM     31  C   UNL     1       1.963   0.904  -8.254  1.00  0.00     0.016 A 
ATOM     32  C   UNL     1       4.300   2.330  -8.840  1.00  0.00     0.010 A 
ATOM     33  C   UNL     1       2.858   0.437  -9.222  1.00  0.00     0.010 A 
ATOM     34  C   UNL     1       4.021   1.155  -9.553  1.00  0.00    -0.014 A 
BRANCH  34  35
ATOM     35  C   UNL     1       4.852   0.733 -10.721  1.00  0.00     0.031 A 
ATOM     36  C   UNL     1       4.215   0.640 -12.090  1.00  0.00     0.074 A 
ATOM     37  C   UNL     1       6.156   0.414 -10.586  1.00  0.00     0.049 A 
ATOM     38  N   UNL     1       4.732   0.231 -13.223  1.00  0.00    -0.248 NA
ATOM     39  C   UNL     1       2.797   1.024 -12.189  1.00  0.00     0.031 C 
ATOM     40  C   UNL     1       6.915   0.431  -9.336  1.00  0.00     0.029 A 
ATOM     41  N   UNL     1       7.078   0.010 -11.526  1.00  0.00    -0.354 N 
ATOM     42  C   UNL     1       3.695   0.273 -14.149  1.00  0.00     0.074 A 
ATOM     43  C   UNL     1       2.507   0.677 -13.433  1.00  0.00     0.031 C 
ATOM     44  C   UNL     1       8.191   0.091  -9.591  1.00  0.00     0.029 A 
ATOM     45  C   UNL     1       8.335  -0.210 -11.014  1.00  0.00     0.049 A 
ATOM     46  H   UNL     1       6.857  -0.110 -12.478  1.00  0.00     0.167 HD
ATOM     47  C   UNL     1       3.722   0.035 -15.482  1.00  0.00     0.031 A 
ATOM     48  C   UNL     1       9.474  -0.610 -11.617  1.00  0.00     0.031 A 
ATOM     49  C   UNL     1       4.904  -0.318 -16.220  1.00  0.00     0.049 A 
ATOM     50  C   UNL     1       9.481  -0.883 -13.100  1.00  0.00     0.074 A 
ATOM     51  C   UNL     1       5.041  -0.507 -17.584  1.00  0.00     0.029 A 
ATOM     52  N   UNL     1       6.152  -0.527 -15.658  1.00  0.00    -0.354 N 
ATOM     53  N   UNL     1       8.504  -0.774 -13.967  1.00  0.00    -0.248 NA
ATOM     54  C   UNL     1      10.756  -1.324 -13.688  1.00  0.00     0.031 C 
ATOM     55  C   UNL     1       6.360  -0.889 -17.841  1.00  0.00     0.029 A 
ATOM     56  C   UNL     1       7.059  -0.872 -16.646  1.00  0.00     0.049 A 
ATOM     57  H   UNL     1       6.362  -0.444 -14.700  1.00  0.00     0.167 HD
ATOM     58  C   UNL     1       9.054  -1.101 -15.203  1.00  0.00     0.074 A 
ATOM     59  C   UNL     1      10.452  -1.395 -14.977  1.00  0.00     0.031 C 
ATOM     60  C   UNL     1       8.452  -1.154 -16.416  1.00  0.00     0.031 A 
BRANCH  47  61
ATOM     61  C   UNL     1       2.423   0.153 -16.235  1.00  0.00    -0.014 A 
ATOM     62  C   UNL     1       1.785   1.392 -16.405  1.00  0.00     0.009 A 
ATOM     63  C   UNL     1       1.843  -0.991 -16.806  1.00  0.00     0.009 A 
ATOM     64  C   UNL     1       0.569   1.476 -17.086  1.00  0.00     0.001 A 
ATOM     65  C   UNL     1       0.648  -0.898 -17.521  1.00  0.00     0.001 A 
ATOM     66  C   UNL     1       0.005   0.332 -17.648  1.00  0.00     0.000 A 
ENDBRANCH  47  61
BRANCH  48  67
ATOM     67  C   UNL     1      10.725  -0.776 -10.826  1.00  0.00    -0.014 A 
ATOM     68  C   UNL     1      11.816   0.086 -11.027  1.00  0.00     0.009 A 
ATOM     69  C   UNL     1      10.851  -1.818  -9.894  1.00  0.00     0.009 A 
ATOM     70  C   UNL     1      13.015  -0.113 -10.336  1.00  0.00     0.001 A 
ATOM     71  C   UNL     1      12.040  -1.993  -9.180  1.00  0.00     0.001 A 
ATOM     72  C   UNL     1      13.124  -1.149  -9.411  1.00  0.00     0.000 A 
ENDBRANCH  48  67
BRANCH  60  73
ATOM     73  C   UNL     1       9.302  -1.500 -17.608  1.00  0.00    -0.014 A 
ATOM     74  C   UNL     1       9.793  -2.800 -17.805  1.00  0.00     0.009 A 
ATOM     75  C   UNL     1       9.559  -0.523 -18.584  1.00  0.00     0.009 A 
ATOM     76  C   UNL     1      10.548  -3.106 -18.940  1.00  0.00     0.001 A 
ATOM     77  C   UNL     1      10.286  -0.840 -19.733  1.00  0.00     0.001 A 
ATOM     78  C   UNL     1      10.787  -2.128 -19.906  1.00  0.00     0.000 A 
ENDBRANCH  60  73
ENDBRANCH  34  35
ENDBRANCH  27  29
ENDBRANCH  26  27
ENDBRANCH  25  26
ENDBRANCH  24  25
ENDBRANCH  23  24
ENDBRANCH   1  23
TORSDOF 18
