REMARK SMILES Cc1ccnc(C(=O)c2[nH]c3ccc(OC(F)(F)F)cc3c2CC(=O)OCCOCCOC(=O)c2ccc(-c3c4nc(c(-c5ccccc5)c5ccc([nH]5)c(-c5ccccc5)c5nc(c(-c6ccccc6)c6ccc3[nH]6)C=C5)C=C4)cc2)c1
REMARK SMILES IDX 28 1 27 2 26 3 24 4 25 5 23 6 22 7 9 8 10 9 11 10 21 12
REMARK SMILES IDX 12 13 20 14 13 15 14 16 7 17 8 18 6 19 1 20 2 21 3 22 83 23
REMARK SMILES IDX 4 24 5 25 15 26 16 27 17 28 18 29 19 30 29 31 30 32 31 33
REMARK SMILES IDX 32 34 33 35 34 36 35 37 36 38 82 39 37 40 81 41 38 42 39 43
REMARK SMILES IDX 40 44 75 45 41 46 80 47 74 48 76 49 42 50 79 51 73 52 72 53
REMARK SMILES IDX 43 55 65 56 50 57 64 58 51 59 54 60 63 61 77 62 52 63 53 64
REMARK SMILES IDX 62 66 78 67 55 68 44 69 45 70 49 71 46 72 48 73 47 74 66 75
REMARK SMILES IDX 67 76 71 77 68 78 70 79 69 80 56 81 57 82 61 83 58 84 60 85
REMARK SMILES IDX 59 86
REMARK H PARENT 10 11 76 54 54 65
REMARK Flexibility Score: inf
ROOT
ATOM      1  C   UNL     1       6.020  -4.730   0.302  1.00  0.00     0.202 C 
ENDROOT
BRANCH   1   2
ATOM      2  C   UNL     1       5.352  -5.535   1.423  1.00  0.00     0.261 C 
BRANCH   2   3
ATOM      3  O   UNL     1       3.913  -5.404   1.448  1.00  0.00    -0.463 OA
BRANCH   3   4
ATOM      4  C   UNL     1       3.389  -5.061   2.657  1.00  0.00     0.310 C 
ATOM      5  O   UNL     1       4.057  -4.948   3.683  1.00  0.00    -0.252 OA
BRANCH   4   6
ATOM      6  C   UNL     1       1.885  -4.910   2.704  1.00  0.00     0.161 C 
BRANCH   6   7
ATOM      7  C   UNL     1       1.105  -4.819   1.417  1.00  0.00     0.000 A 
ATOM      8  C   UNL     1       0.816  -3.667   0.676  1.00  0.00     0.093 A 
ATOM      9  N   UNL     1       0.085  -4.079  -0.420  1.00  0.00    -0.352 N 
ATOM     10  C   UNL     1      -0.353  -5.372  -0.248  1.00  0.00     0.046 A 
ATOM     11  H   UNL     1      -0.097  -3.525  -1.214  1.00  0.00     0.167 HD
ATOM     12  C   UNL     1       0.290  -5.868   0.880  1.00  0.00     0.008 A 
ATOM     13  C   UNL     1      -1.274  -6.131  -0.982  1.00  0.00     0.030 A 
ATOM     14  C   UNL     1      -0.016  -7.177   1.306  1.00  0.00     0.057 A 
ATOM     15  C   UNL     1      -1.597  -7.412  -0.506  1.00  0.00     0.049 A 
ATOM     16  C   UNL     1      -0.992  -7.928   0.638  1.00  0.00     0.130 A 
BRANCH   8  17
ATOM     17  C   UNL     1       1.211  -2.297   0.992  1.00  0.00     0.227 C 
ATOM     18  O   UNL     1       2.100  -2.059   1.808  1.00  0.00    -0.285 OA
BRANCH  17  19
ATOM     19  C   UNL     1       0.515  -1.118   0.391  1.00  0.00     0.113 A 
ATOM     20  C   UNL     1      -2.963   0.296  -0.106  1.00  0.00     0.044 C 
ATOM     21  C   UNL     1      -1.471   0.146  -0.070  1.00  0.00    -0.047 A 
ATOM     22  C   UNL     1      -0.654   1.254  -0.311  1.00  0.00     0.023 A 
ATOM     23  C   UNL     1      -0.873  -1.065   0.299  1.00  0.00     0.036 A 
ATOM     24  C   UNL     1       0.719   1.102  -0.218  1.00  0.00     0.112 A 
ATOM     25  N   UNL     1       1.319  -0.059   0.108  1.00  0.00    -0.253 NA
ENDBRANCH  17  19
ENDBRANCH   8  17
BRANCH  16  26
ATOM     26  O   UNL     1      -1.256  -9.133   1.227  1.00  0.00    -0.406 OA
BRANCH  26  27
ATOM     27  C   UNL     1      -2.420  -9.829   0.819  1.00  0.00     0.573 C 
ATOM     28  F   UNL     1      -3.518  -9.047   0.890  1.00  0.00    -0.132 F 
ATOM     29  F   UNL     1      -2.280 -10.298  -0.439  1.00  0.00    -0.132 F 
ATOM     30  F   UNL     1      -2.604 -10.884   1.644  1.00  0.00    -0.132 F 
ENDBRANCH  26  27
ENDBRANCH  16  26
ENDBRANCH   6   7
ENDBRANCH   4   6
ENDBRANCH   3   4
ENDBRANCH   2   3
ENDBRANCH   1   2
BRANCH   1  31
ATOM     31  O   UNL     1       5.922  -3.308   0.341  1.00  0.00    -0.374 OA
BRANCH  31  32
ATOM     32  C   UNL     1       4.620  -2.748   0.184  1.00  0.00     0.202 C 
BRANCH  32  33
ATOM     33  C   UNL     1       4.050  -2.696  -1.241  1.00  0.00     0.261 C 
BRANCH  33  34
ATOM     34  O   UNL     1       4.098  -3.960  -1.921  1.00  0.00    -0.460 OA
BRANCH  34  35
ATOM     35  C   UNL     1       5.005  -4.024  -2.925  1.00  0.00     0.338 C 
ATOM     36  O   UNL     1       5.676  -3.114  -3.390  1.00  0.00    -0.246 OA
BRANCH  35  37
ATOM     37  C   UNL     1       5.211  -5.428  -3.307  1.00  0.00     0.060 A 
ATOM     38  C   UNL     1       6.496  -5.963  -3.148  1.00  0.00     0.016 A 
ATOM     39  C   UNL     1       4.177  -6.195  -3.845  1.00  0.00     0.016 A 
ATOM     40  C   UNL     1       6.756  -7.272  -3.542  1.00  0.00     0.010 A 
ATOM     41  C   UNL     1       4.444  -7.504  -4.254  1.00  0.00     0.010 A 
ATOM     42  C   UNL     1       5.737  -8.040  -4.121  1.00  0.00    -0.014 A 
BRANCH  42  43
ATOM     43  C   UNL     1       6.049  -9.377  -4.670  1.00  0.00     0.031 A 
ATOM     44  C   UNL     1       6.267  -9.529  -6.148  1.00  0.00     0.074 A 
ATOM     45  C   UNL     1       6.143 -10.438  -3.848  1.00  0.00     0.049 A 
ATOM     46  N   UNL     1       6.507 -10.611  -6.842  1.00  0.00    -0.248 NA
ATOM     47  C   UNL     1       6.206  -8.297  -6.952  1.00  0.00     0.031 C 
ATOM     48  C   UNL     1       5.994 -10.394  -2.393  1.00  0.00     0.029 A 
ATOM     49  N   UNL     1       6.382 -11.759  -4.123  1.00  0.00    -0.354 N 
ATOM     50  C   UNL     1       6.615 -10.194  -8.162  1.00  0.00     0.074 A 
ATOM     51  C   UNL     1       6.393  -8.765  -8.178  1.00  0.00     0.031 C 
ATOM     52  C   UNL     1       6.142 -11.637  -1.903  1.00  0.00     0.029 A 
ATOM     53  C   UNL     1       6.354 -12.564  -3.011  1.00  0.00     0.049 A 
ATOM     54  H   UNL     1       6.557 -12.099  -5.031  1.00  0.00     0.167 HD
ATOM     55  C   UNL     1       6.876 -10.940  -9.262  1.00  0.00     0.031 A 
ATOM     56  C   UNL     1       6.460 -13.903  -2.906  1.00  0.00     0.031 A 
ATOM     57  C   UNL     1       7.081 -12.364  -9.235  1.00  0.00     0.049 A 
ATOM     58  C   UNL     1       6.658 -14.716  -4.158  1.00  0.00     0.074 A 
ATOM     59  C   UNL     1       7.379 -13.211 -10.288  1.00  0.00     0.029 A 
ATOM     60  N   UNL     1       6.994 -13.151  -8.097  1.00  0.00    -0.354 N 
ATOM     61  N   UNL     1       6.800 -14.308  -5.396  1.00  0.00    -0.248 NA
ATOM     62  C   UNL     1       6.708 -16.176  -3.996  1.00  0.00     0.031 C 
ATOM     63  C   UNL     1       7.403 -14.521  -9.797  1.00  0.00     0.029 A 
ATOM     64  C   UNL     1       7.188 -14.481  -8.429  1.00  0.00     0.049 A 
ATOM     65  H   UNL     1       6.821 -12.814  -7.189  1.00  0.00     0.167 HD
ATOM     66  C   UNL     1       6.979 -15.456  -6.157  1.00  0.00     0.074 A 
ATOM     67  C   UNL     1       6.951 -16.575  -5.237  1.00  0.00     0.031 C 
ATOM     68  C   UNL     1       7.148 -15.578  -7.496  1.00  0.00     0.031 A 
BRANCH  55  69
ATOM     69  C   UNL     1       6.911 -10.239 -10.591  1.00  0.00    -0.014 A 
ATOM     70  C   UNL     1       7.962  -9.377 -10.940  1.00  0.00     0.009 A 
ATOM     71  C   UNL     1       5.897 -10.487 -11.530  1.00  0.00     0.009 A 
ATOM     72  C   UNL     1       7.982  -8.758 -12.192  1.00  0.00     0.001 A 
ATOM     73  C   UNL     1       5.934  -9.888 -12.791  1.00  0.00     0.001 A 
ATOM     74  C   UNL     1       6.973  -9.019 -13.118  1.00  0.00     0.000 A 
ENDBRANCH  55  69
BRANCH  56  75
ATOM     75  C   UNL     1       6.348 -14.566  -1.580  1.00  0.00    -0.014 A 
ATOM     76  C   UNL     1       7.447 -15.229  -1.014  1.00  0.00     0.009 A 
ATOM     77  C   UNL     1       5.128 -14.565  -0.883  1.00  0.00     0.009 A 
ATOM     78  C   UNL     1       7.320 -15.901   0.204  1.00  0.00     0.001 A 
ATOM     79  C   UNL     1       5.013 -15.209   0.350  1.00  0.00     0.001 A 
ATOM     80  C   UNL     1       6.105 -15.887   0.887  1.00  0.00     0.000 A 
ENDBRANCH  56  75
BRANCH  68  81
ATOM     81  C   UNL     1       7.334 -16.966  -8.041  1.00  0.00    -0.014 A 
ATOM     82  C   UNL     1       6.267 -17.876  -8.093  1.00  0.00     0.009 A 
ATOM     83  C   UNL     1       8.584 -17.353  -8.549  1.00  0.00     0.009 A 
ATOM     84  C   UNL     1       6.457 -19.157  -8.613  1.00  0.00     0.001 A 
ATOM     85  C   UNL     1       8.763 -18.622  -9.100  1.00  0.00     0.001 A 
ATOM     86  C   UNL     1       7.702 -19.527  -9.122  1.00  0.00     0.000 A 
ENDBRANCH  68  81
ENDBRANCH  42  43
ENDBRANCH  35  37
ENDBRANCH  34  35
ENDBRANCH  33  34
ENDBRANCH  32  33
ENDBRANCH  31  32
ENDBRANCH   1  31
TORSDOF 19
