REMARK SMILES Cc1c(CC(=O)OCCOCCOC(=O)c2ccc(-c3c4nc(c(-c5ccccc5)c5ccc([nH]5)c(-c5ccccc5)c5nc(c(-c6ccccc6)c6ccc3[nH]6)C=C5)C=C4)cc2)c2ccccc2n1C(=O)c1ccc(Cl)cc1
REMARK SMILES IDX 9 1 8 2 7 3 5 4 6 5 4 6 3 7 1 8 2 9 70 10 64 11 69 12 65 13
REMARK SMILES IDX 68 14 66 15 67 16 71 17 72 18 73 19 74 20 79 21 75 22 78 23
REMARK SMILES IDX 76 24 77 25 10 26 11 27 12 28 13 29 14 30 15 31 16 32 17 33
REMARK SMILES IDX 63 34 18 35 62 36 19 37 20 38 21 39 56 40 22 41 61 42 55 43
REMARK SMILES IDX 57 44 23 45 60 46 54 47 53 48 24 50 46 51 31 52 45 53 32 54
REMARK SMILES IDX 35 55 44 56 58 57 33 58 34 59 43 61 59 62 36 63 25 64 26 65
REMARK SMILES IDX 30 66 27 67 29 68 28 69 47 70 48 71 52 72 49 73 51 74 50 75
REMARK SMILES IDX 37 76 38 77 42 78 39 79 41 80 40 81
REMARK H PARENT 57 49 35 60
REMARK Flexibility Score: inf
ROOT
ATOM      1  C   UNL     1       0.779  -0.470   6.341  1.00  0.00     0.202 C 
ENDROOT
BRANCH   1   2
ATOM      2  C   UNL     1       0.714  -1.388   5.114  1.00  0.00     0.261 C 
BRANCH   2   3
ATOM      3  O   UNL     1       0.349  -0.700   3.905  1.00  0.00    -0.463 OA
BRANCH   3   4
ATOM      4  C   UNL     1      -0.803  -1.129   3.328  1.00  0.00     0.310 C 
ATOM      5  O   UNL     1      -1.447  -2.101   3.721  1.00  0.00    -0.252 OA
BRANCH   4   6
ATOM      6  C   UNL     1      -1.286  -0.324   2.144  1.00  0.00     0.160 C 
BRANCH   6   7
ATOM      7  C   UNL     1      -0.563   0.940   1.762  1.00  0.00    -0.008 A 
ATOM      8  C   UNL     1       1.089  -0.014   0.010  1.00  0.00     0.065 C 
ATOM      9  C   UNL     1       0.443   1.071   0.815  1.00  0.00     0.028 A 
ATOM     10  N   UNL     1       0.742   2.432   0.638  1.00  0.00    -0.280 N 
ATOM     11  C   UNL     1      -0.875   2.257   2.216  1.00  0.00     0.004 A 
ATOM     12  C   UNL     1      -0.007   3.156   1.583  1.00  0.00     0.056 A 
ATOM     13  C   UNL     1      -1.839   2.759   3.124  1.00  0.00     0.010 A 
ATOM     14  C   UNL     1      -0.057   4.527   1.919  1.00  0.00     0.027 A 
ATOM     15  C   UNL     1      -1.854   4.110   3.474  1.00  0.00     0.001 A 
ATOM     16  C   UNL     1      -0.958   4.981   2.885  1.00  0.00     0.002 A 
BRANCH  10  17
ATOM     17  C   UNL     1       1.597   2.966  -0.372  1.00  0.00     0.262 C 
ATOM     18  O   UNL     1       2.075   2.206  -1.214  1.00  0.00    -0.268 OA
BRANCH  17  19
ATOM     19  C   UNL     1       1.929   4.388  -0.547  1.00  0.00     0.040 A 
ATOM     20  C   UNL     1       2.825   5.014   0.327  1.00  0.00     0.015 A 
ATOM     21  C   UNL     1       1.334   5.098  -1.596  1.00  0.00     0.015 A 
ATOM     22  C   UNL     1       3.054   6.386   0.201  1.00  0.00     0.021 A 
ATOM     23  C   UNL     1       1.579   6.466  -1.724  1.00  0.00     0.021 A 
ATOM     24  C   UNL     1       2.421   7.107  -0.814  1.00  0.00     0.041 A 
ATOM     25  Cl  UNL     1       2.667   8.806  -0.932  1.00  0.00    -0.084 Cl
ENDBRANCH  17  19
ENDBRANCH  10  17
ENDBRANCH   6   7
ENDBRANCH   4   6
ENDBRANCH   3   4
ENDBRANCH   2   3
ENDBRANCH   1   2
BRANCH   1  26
ATOM     26  O   UNL     1      -0.308   0.393   6.633  1.00  0.00    -0.374 OA
BRANCH  26  27
ATOM     27  C   UNL     1      -0.468   1.520   5.774  1.00  0.00     0.202 C 
BRANCH  27  28
ATOM     28  C   UNL     1       0.623   2.608   5.787  1.00  0.00     0.261 C 
BRANCH  28  29
ATOM     29  O   UNL     1       1.864   2.124   5.259  1.00  0.00    -0.460 OA
BRANCH  29  30
ATOM     30  C   UNL     1       2.972   2.614   5.896  1.00  0.00     0.338 C 
ATOM     31  O   UNL     1       3.094   3.658   6.471  1.00  0.00    -0.246 OA
BRANCH  30  32
ATOM     32  C   UNL     1       3.805   1.410   6.115  1.00  0.00     0.060 A 
ATOM     33  C   UNL     1       4.107   0.556   5.050  1.00  0.00     0.016 A 
ATOM     34  C   UNL     1       3.896   0.983   7.449  1.00  0.00     0.016 A 
ATOM     35  C   UNL     1       4.392  -0.774   5.327  1.00  0.00     0.010 A 
ATOM     36  C   UNL     1       4.142  -0.357   7.716  1.00  0.00     0.010 A 
ATOM     37  C   UNL     1       4.343  -1.241   6.652  1.00  0.00    -0.014 A 
BRANCH  37  38
ATOM     38  C   UNL     1       4.720  -2.632   6.900  1.00  0.00     0.031 A 
ATOM     39  C   UNL     1       6.182  -2.852   6.754  1.00  0.00     0.074 A 
ATOM     40  C   UNL     1       3.917  -3.611   7.361  1.00  0.00     0.049 A 
ATOM     41  N   UNL     1       6.801  -3.630   5.929  1.00  0.00    -0.248 NA
ATOM     42  C   UNL     1       7.064  -1.977   7.547  1.00  0.00     0.031 C 
ATOM     43  C   UNL     1       2.551  -3.497   7.864  1.00  0.00     0.029 A 
ATOM     44  N   UNL     1       4.208  -4.926   7.582  1.00  0.00    -0.354 N 
ATOM     45  C   UNL     1       8.155  -3.448   6.193  1.00  0.00     0.074 A 
ATOM     46  C   UNL     1       8.258  -2.309   7.066  1.00  0.00     0.031 C 
ATOM     47  C   UNL     1       2.209  -4.624   8.526  1.00  0.00     0.029 A 
ATOM     48  C   UNL     1       3.289  -5.582   8.394  1.00  0.00     0.049 A 
ATOM     49  H   UNL     1       4.999  -5.372   7.201  1.00  0.00     0.167 HD
ATOM     50  C   UNL     1       9.095  -4.370   5.856  1.00  0.00     0.031 A 
ATOM     51  C   UNL     1       3.439  -6.790   8.989  1.00  0.00     0.031 A 
ATOM     52  C   UNL     1       8.612  -5.297   4.871  1.00  0.00     0.049 A 
ATOM     53  C   UNL     1       4.524  -7.505   8.287  1.00  0.00     0.074 A 
ATOM     54  C   UNL     1       8.212  -5.201   3.555  1.00  0.00     0.029 A 
ATOM     55  N   UNL     1       8.156  -6.509   5.325  1.00  0.00    -0.354 N 
ATOM     56  N   UNL     1       4.437  -7.938   7.064  1.00  0.00    -0.248 NA
ATOM     57  C   UNL     1       5.872  -7.399   8.821  1.00  0.00     0.031 C 
ATOM     58  C   UNL     1       7.169  -6.159   3.412  1.00  0.00     0.029 A 
ATOM     59  C   UNL     1       7.014  -6.816   4.635  1.00  0.00     0.049 A 
ATOM     60  H   UNL     1       8.576  -7.061   6.024  1.00  0.00     0.167 HD
ATOM     61  C   UNL     1       5.705  -7.755   6.535  1.00  0.00     0.074 A 
ATOM     62  C   UNL     1       6.569  -7.536   7.691  1.00  0.00     0.031 C 
ATOM     63  C   UNL     1       5.883  -7.521   5.203  1.00  0.00     0.031 A 
BRANCH  50  64
ATOM     64  C   UNL     1      10.318  -4.640   6.695  1.00  0.00    -0.014 A 
ATOM     65  C   UNL     1      10.478  -4.170   8.014  1.00  0.00     0.009 A 
ATOM     66  C   UNL     1      11.241  -5.606   6.260  1.00  0.00     0.009 A 
ATOM     67  C   UNL     1      11.495  -4.629   8.854  1.00  0.00     0.001 A 
ATOM     68  C   UNL     1      12.233  -6.105   7.114  1.00  0.00     0.001 A 
ATOM     69  C   UNL     1      12.358  -5.617   8.411  1.00  0.00     0.000 A 
ENDBRANCH  50  64
BRANCH  51  70
ATOM     70  C   UNL     1       2.976  -7.203  10.334  1.00  0.00    -0.014 A 
ATOM     71  C   UNL     1       2.854  -6.250  11.362  1.00  0.00     0.009 A 
ATOM     72  C   UNL     1       2.943  -8.560  10.693  1.00  0.00     0.009 A 
ATOM     73  C   UNL     1       2.754  -6.635  12.703  1.00  0.00     0.001 A 
ATOM     74  C   UNL     1       2.847  -8.946  12.037  1.00  0.00     0.001 A 
ATOM     75  C   UNL     1       2.771  -7.983  13.042  1.00  0.00     0.000 A 
ENDBRANCH  51  70
BRANCH  63  76
ATOM     76  C   UNL     1       4.713  -7.745   4.273  1.00  0.00    -0.014 A 
ATOM     77  C   UNL     1       4.908  -8.574   3.157  1.00  0.00     0.009 A 
ATOM     78  C   UNL     1       3.515  -7.014   4.358  1.00  0.00     0.009 A 
ATOM     79  C   UNL     1       3.952  -8.651   2.143  1.00  0.00     0.001 A 
ATOM     80  C   UNL     1       2.545  -7.111   3.354  1.00  0.00     0.001 A 
ATOM     81  C   UNL     1       2.771  -7.918   2.240  1.00  0.00     0.000 A 
ENDBRANCH  63  76
ENDBRANCH  37  38
ENDBRANCH  30  32
ENDBRANCH  29  30
ENDBRANCH  28  29
ENDBRANCH  27  28
ENDBRANCH  26  27
ENDBRANCH   1  26
TORSDOF 17
