REMARK SMILES C[C@@H](C(=O)OCCOCCOC(=O)c1ccc(-c2c3nc(c(-c4ccccc4)c4ccc([nH]4)c(-c4ccccc4)c4nc(c(-c5ccccc5)c5ccc2[nH]5)C=C4)C=C3)cc1)N1C(=O)/C(=C/c2ccc(-c3ccc([N+](=O)[O-])cc3Cl)o2)SC1=S
REMARK SMILES IDX 7 1 6 2 5 3 3 4 4 5 2 6 1 7 62 8 63 9 83 10 64 11 65 12
REMARK SMILES IDX 82 13 84 14 66 15 67 16 68 17 81 18 69 19 70 20 71 21 72 22
REMARK SMILES IDX 79 23 73 24 78 25 80 26 74 27 75 28 76 29 77 30 8 31 9 32
REMARK SMILES IDX 10 33 11 34 12 35 13 36 14 37 15 38 61 39 16 40 60 41 17 42
REMARK SMILES IDX 18 43 19 44 54 45 20 46 59 47 53 48 55 49 21 50 58 51 52 52
REMARK SMILES IDX 51 53 22 55 44 56 29 57 43 58 30 59 33 60 42 61 56 62 31 63
REMARK SMILES IDX 32 64 41 66 57 67 34 68 23 69 24 70 28 71 25 72 27 73 26 74
REMARK SMILES IDX 45 75 46 76 50 77 47 78 49 79 48 80 35 81 36 82 40 83 37 84
REMARK SMILES IDX 39 85 38 86
REMARK H PARENT 55 54 33 65
REMARK Flexibility Score: inf
ROOT
ATOM      1  C   UNL     1       2.149   1.892  -4.001  1.00  0.00     0.202 C 
ENDROOT
BRANCH   1   2
ATOM      2  C   UNL     1       2.233   2.884  -2.837  1.00  0.00     0.261 C 
BRANCH   2   3
ATOM      3  O   UNL     1       1.935   2.283  -1.565  1.00  0.00    -0.462 OA
BRANCH   3   4
ATOM      4  C   UNL     1       0.666   2.495  -1.115  1.00  0.00     0.329 C 
ATOM      5  O   UNL     1      -0.168   3.173  -1.707  1.00  0.00    -0.250 OA
BRANCH   4   6
ATOM      6  C   UNL     1       0.409   1.848   0.257  1.00  0.00     0.199 C 
ATOM      7  C   UNL     1       1.224   0.577   0.514  1.00  0.00     0.044 C 
BRANCH   6   8
ATOM      8  N   UNL     1      -1.064   1.681   0.368  1.00  0.00    -0.279 N 
ATOM      9  C   UNL     1      -1.704   0.551  -0.116  1.00  0.00     0.267 C 
ATOM     10  C   UNL     1      -1.895   2.726   0.747  1.00  0.00     0.149 C 
ATOM     11  O   UNL     1      -1.172  -0.438  -0.604  1.00  0.00    -0.268 OA
ATOM     12  C   UNL     1      -3.182   0.705  -0.034  1.00  0.00     0.084 C 
ATOM     13  S   UNL     1      -3.575   2.303   0.453  1.00  0.00    -0.054 SA
ATOM     14  S   UNL     1      -1.475   4.204   1.406  1.00  0.00    -0.052 S 
ATOM     15  C   UNL     1      -4.024  -0.296  -0.327  1.00  0.00     0.068 C 
BRANCH  15  16
ATOM     16  C   UNL     1      -5.428  -0.101  -0.419  1.00  0.00     0.128 A 
ATOM     17  C   UNL     1      -6.134   0.488  -1.461  1.00  0.00     0.051 A 
ATOM     18  O   UNL     1      -6.340  -0.485   0.542  1.00  0.00    -0.457 OA
ATOM     19  C   UNL     1      -7.500   0.490  -1.113  1.00  0.00     0.051 A 
ATOM     20  C   UNL     1      -7.580  -0.090   0.133  1.00  0.00     0.136 A 
BRANCH  20  21
ATOM     21  C   UNL     1      -8.707  -0.351   1.020  1.00  0.00     0.036 A 
ATOM     22  C   UNL     1      -9.844  -0.978   0.475  1.00  0.00     0.020 A 
ATOM     23  C   UNL     1      -8.757   0.083   2.358  1.00  0.00     0.058 A 
ATOM     24  C   UNL     1     -11.009  -1.150   1.228  1.00  0.00     0.086 A 
ATOM     25  C   UNL     1      -9.922  -0.084   3.121  1.00  0.00     0.106 A 
ATOM     26  Cl  UNL     1      -7.439   0.909   3.117  1.00  0.00    -0.083 Cl
ATOM     27  C   UNL     1     -11.047  -0.689   2.547  1.00  0.00     0.270 A 
BRANCH  27  28
ATOM     28  N   UNL     1     -12.287  -0.812   3.325  1.00  0.00     0.062 N 
ATOM     29  O   UNL     1     -13.264  -1.333   2.769  1.00  0.00    -0.258 OA
ATOM     30  O   UNL     1     -12.284  -0.380   4.485  1.00  0.00    -0.258 OA
ENDBRANCH  27  28
ENDBRANCH  20  21
ENDBRANCH  15  16
ENDBRANCH   6   8
ENDBRANCH   4   6
ENDBRANCH   3   4
ENDBRANCH   2   3
ENDBRANCH   1   2
BRANCH   1  31
ATOM     31  O   UNL     1       0.877   1.298  -4.251  1.00  0.00    -0.374 OA
BRANCH  31  32
ATOM     32  C   UNL     1       0.502   0.186  -3.437  1.00  0.00     0.202 C 
BRANCH  32  33
ATOM     33  C   UNL     1       1.147  -1.161  -3.776  1.00  0.00     0.261 C 
BRANCH  33  34
ATOM     34  O   UNL     1       2.560  -1.158  -3.494  1.00  0.00    -0.460 OA
BRANCH  34  35
ATOM     35  C   UNL     1       3.356  -1.250  -4.583  1.00  0.00     0.338 C 
ATOM     36  O   UNL     1       3.009  -1.434  -5.743  1.00  0.00    -0.246 OA
BRANCH  35  37
ATOM     37  C   UNL     1       4.747  -0.912  -4.229  1.00  0.00     0.060 A 
ATOM     38  C   UNL     1       5.397   0.041  -5.024  1.00  0.00     0.016 A 
ATOM     39  C   UNL     1       5.431  -1.560  -3.198  1.00  0.00     0.016 A 
ATOM     40  C   UNL     1       6.752   0.303  -4.834  1.00  0.00     0.010 A 
ATOM     41  C   UNL     1       6.794  -1.301  -3.013  1.00  0.00     0.010 A 
ATOM     42  C   UNL     1       7.468  -0.400  -3.858  1.00  0.00    -0.014 A 
BRANCH  42  43
ATOM     43  C   UNL     1       8.948  -0.308  -3.838  1.00  0.00     0.031 A 
ATOM     44  C   UNL     1       9.755  -1.392  -4.501  1.00  0.00     0.074 A 
ATOM     45  C   UNL     1       9.568   0.748  -3.282  1.00  0.00     0.049 A 
ATOM     46  N   UNL     1      11.054  -1.515  -4.602  1.00  0.00    -0.248 NA
ATOM     47  C   UNL     1       8.994  -2.480  -5.138  1.00  0.00     0.031 C 
ATOM     48  C   UNL     1       8.902   1.886  -2.652  1.00  0.00     0.029 A 
ATOM     49  N   UNL     1      10.906   1.029  -3.162  1.00  0.00    -0.354 N 
ATOM     50  C   UNL     1      11.266  -2.692  -5.309  1.00  0.00     0.074 A 
ATOM     51  C   UNL     1       9.965  -3.262  -5.585  1.00  0.00     0.031 C 
ATOM     52  C   UNL     1       9.836   2.743  -2.205  1.00  0.00     0.029 A 
ATOM     53  C   UNL     1      11.162   2.199  -2.491  1.00  0.00     0.049 A 
ATOM     54  H   UNL     1      11.614   0.447  -3.522  1.00  0.00     0.167 HD
ATOM     55  C   UNL     1      12.438  -3.247  -5.700  1.00  0.00     0.031 A 
ATOM     56  C   UNL     1      12.334   2.758  -2.133  1.00  0.00     0.031 A 
ATOM     57  C   UNL     1      13.733  -2.692  -5.415  1.00  0.00     0.049 A 
ATOM     58  C   UNL     1      13.625   2.080  -2.509  1.00  0.00     0.074 A 
ATOM     59  C   UNL     1      14.978  -3.179  -5.775  1.00  0.00     0.029 A 
ATOM     60  N   UNL     1      13.951  -1.529  -4.694  1.00  0.00    -0.354 N 
ATOM     61  N   UNL     1      13.811   0.978  -3.193  1.00  0.00    -0.248 NA
ATOM     62  C   UNL     1      14.867   2.732  -2.068  1.00  0.00     0.031 C 
ATOM     63  C   UNL     1      15.951  -2.336  -5.227  1.00  0.00     0.029 A 
ATOM     64  C   UNL     1      15.310  -1.295  -4.575  1.00  0.00     0.049 A 
ATOM     65  H   UNL     1      13.243  -0.954  -4.322  1.00  0.00     0.167 HD
ATOM     66  C   UNL     1      15.189   0.817  -3.287  1.00  0.00     0.074 A 
ATOM     67  C   UNL     1      15.790   1.943  -2.602  1.00  0.00     0.031 C 
ATOM     68  C   UNL     1      15.893  -0.172  -3.889  1.00  0.00     0.031 A 
BRANCH  55  69
ATOM     69  C   UNL     1      12.367  -4.544  -6.455  1.00  0.00    -0.014 A 
ATOM     70  C   UNL     1      11.919  -4.589  -7.785  1.00  0.00     0.009 A 
ATOM     71  C   UNL     1      12.780  -5.734  -5.836  1.00  0.00     0.009 A 
ATOM     72  C   UNL     1      11.857  -5.806  -8.469  1.00  0.00     0.001 A 
ATOM     73  C   UNL     1      12.741  -6.944  -6.530  1.00  0.00     0.001 A 
ATOM     74  C   UNL     1      12.271  -6.981  -7.842  1.00  0.00     0.000 A 
ENDBRANCH  55  69
BRANCH  56  75
ATOM     75  C   UNL     1      12.346   4.021  -1.350  1.00  0.00    -0.014 A 
ATOM     76  C   UNL     1      12.789   5.220  -1.928  1.00  0.00     0.009 A 
ATOM     77  C   UNL     1      11.929   4.026  -0.010  1.00  0.00     0.009 A 
ATOM     78  C   UNL     1      12.835   6.394  -1.171  1.00  0.00     0.001 A 
ATOM     79  C   UNL     1      11.950   5.206   0.736  1.00  0.00     0.001 A 
ATOM     80  C   UNL     1      12.412   6.387   0.157  1.00  0.00     0.000 A 
ENDBRANCH  56  75
BRANCH  68  81
ATOM     81  C   UNL     1      17.392  -0.066  -3.862  1.00  0.00    -0.014 A 
ATOM     82  C   UNL     1      18.119  -0.306  -2.686  1.00  0.00     0.009 A 
ATOM     83  C   UNL     1      18.087   0.236  -5.044  1.00  0.00     0.009 A 
ATOM     84  C   UNL     1      19.513  -0.213  -2.688  1.00  0.00     0.001 A 
ATOM     85  C   UNL     1      19.481   0.300  -5.048  1.00  0.00     0.001 A 
ATOM     86  C   UNL     1      20.192   0.084  -3.869  1.00  0.00     0.000 A 
ENDBRANCH  68  81
ENDBRANCH  42  43
ENDBRANCH  35  37
ENDBRANCH  34  35
ENDBRANCH  33  34
ENDBRANCH  32  33
ENDBRANCH  31  32
ENDBRANCH   1  31
TORSDOF 18
