REMARK SMILES [NH3+]Cc1c(-c2ccccc2)c(C(=O)OCCOCCOC(=O)c2ccc(-c3c4nc(c(-c5ccccc5)c5ccc([nH]5)c(-c5ccccc5)c5nc(c(-c6ccccc6)c6ccc3[nH]6)C=C5)C=C4)cc2)c2ccccn12
REMARK SMILES IDX 17 1 16 2 15 3 14 4 12 5 13 6 11 7 3 8 4 9 76 10 71 11 75 12
REMARK SMILES IDX 72 13 74 14 73 15 2 16 1 17 5 21 6 22 10 23 7 24 9 25 8 26
REMARK SMILES IDX 18 27 19 28 20 29 21 30 22 31 23 32 24 33 70 34 25 35 69 36
REMARK SMILES IDX 26 37 27 38 28 39 63 40 29 41 68 42 62 43 64 44 30 45 67 46
REMARK SMILES IDX 61 47 60 48 31 50 53 51 38 52 52 53 39 54 42 55 51 56 65 57
REMARK SMILES IDX 40 58 41 59 50 61 66 62 43 63 32 64 33 65 37 66 34 67 36 68
REMARK SMILES IDX 35 69 54 70 55 71 59 72 56 73 58 74 57 75 44 76 45 77 49 78
REMARK SMILES IDX 46 79 48 80 47 81
REMARK H PARENT 1 18 1 19 1 20 64 49 42 60
REMARK Flexibility Score: inf
ROOT
ATOM      1  O   UNL     1       2.055   0.265   8.603  1.00  0.00    -0.374 OA
ENDROOT
BRANCH   1   2
ATOM      2  C   UNL     1       2.620   1.579   8.548  1.00  0.00     0.202 C 
BRANCH   2   3
ATOM      3  C   UNL     1       3.656   1.784   7.441  1.00  0.00     0.261 C 
BRANCH   3   4
ATOM      4  O   UNL     1       2.977   2.000   6.191  1.00  0.00    -0.460 OA
BRANCH   4   5
ATOM      5  C   UNL     1       3.347   1.180   5.168  1.00  0.00     0.341 C 
ATOM      6  O   UNL     1       4.343   0.466   5.184  1.00  0.00    -0.246 OA
BRANCH   5   7
ATOM      7  C   UNL     1       2.373   1.159   4.081  1.00  0.00     0.093 A 
ATOM      8  C   UNL     1       1.086   0.385   2.353  1.00  0.00     0.086 A 
ATOM      9  C   UNL     1       1.965  -0.002   3.354  1.00  0.00     0.024 A 
ATOM     10  N   UNL     1       0.871   1.747   2.498  1.00  0.00    -0.314 N 
ATOM     11  C   UNL     1       1.626   2.213   3.578  1.00  0.00     0.061 A 
ATOM     12  C   UNL     1       0.055   2.592   1.735  1.00  0.00     0.092 A 
ATOM     13  C   UNL     1       1.507   3.599   3.909  1.00  0.00     0.027 A 
ATOM     14  C   UNL     1      -0.036   3.895   2.042  1.00  0.00     0.018 A 
ATOM     15  C   UNL     1       0.710   4.401   3.178  1.00  0.00     0.004 A 
BRANCH   8  16
ATOM     16  C   UNL     1       0.427  -0.433   1.295  1.00  0.00     0.315 C 
BRANCH  16  17
ATOM     17  N   UNL     1       1.159  -0.305   0.042  1.00  0.00    -0.353 N 
ATOM     18  H   UNL     1       0.704  -0.866  -0.677  1.00  0.00     0.344 HD
ATOM     19  H   UNL     1       2.116  -0.632   0.173  1.00  0.00     0.344 HD
ATOM     20  H   UNL     1       1.171   0.674  -0.246  1.00  0.00     0.344 HD
ENDBRANCH  16  17
ENDBRANCH   8  16
BRANCH   9  21
ATOM     21  C   UNL     1       2.299  -1.384   3.647  1.00  0.00    -0.015 A 
ATOM     22  C   UNL     1       1.518  -2.094   4.570  1.00  0.00     0.009 A 
ATOM     23  C   UNL     1       3.432  -1.981   3.095  1.00  0.00     0.009 A 
ATOM     24  C   UNL     1       1.886  -3.381   4.960  1.00  0.00     0.001 A 
ATOM     25  C   UNL     1       3.792  -3.275   3.478  1.00  0.00     0.001 A 
ATOM     26  C   UNL     1       3.025  -3.970   4.416  1.00  0.00     0.000 A 
ENDBRANCH   9  21
ENDBRANCH   5   7
ENDBRANCH   4   5
ENDBRANCH   3   4
ENDBRANCH   2   3
ENDBRANCH   1   2
BRANCH   1  27
ATOM     27  C   UNL     1       1.078  -0.051   7.613  1.00  0.00     0.202 C 
BRANCH  27  28
ATOM     28  C   UNL     1      -0.367   0.297   7.985  1.00  0.00     0.261 C 
BRANCH  28  29
ATOM     29  O   UNL     1      -0.511   1.687   8.313  1.00  0.00    -0.460 OA
BRANCH  29  30
ATOM     30  C   UNL     1      -0.561   1.938   9.643  1.00  0.00     0.338 C 
ATOM     31  O   UNL     1      -0.632   1.127  10.551  1.00  0.00    -0.246 OA
BRANCH  30  32
ATOM     32  C   UNL     1      -0.356   3.379   9.883  1.00  0.00     0.060 A 
ATOM     33  C   UNL     1       0.551   3.737  10.886  1.00  0.00     0.016 A 
ATOM     34  C   UNL     1      -1.065   4.358   9.181  1.00  0.00     0.016 A 
ATOM     35  C   UNL     1       0.716   5.076  11.229  1.00  0.00     0.010 A 
ATOM     36  C   UNL     1      -0.905   5.702   9.531  1.00  0.00     0.010 A 
ATOM     37  C   UNL     1      -0.041   6.061  10.581  1.00  0.00    -0.014 A 
BRANCH  37  38
ATOM     38  C   UNL     1      -0.030   7.442  11.113  1.00  0.00     0.031 A 
ATOM     39  C   UNL     1      -1.116   7.863  12.063  1.00  0.00     0.074 A 
ATOM     40  C   UNL     1       0.959   8.293  10.793  1.00  0.00     0.049 A 
ATOM     41  N   UNL     1      -1.274   9.002  12.687  1.00  0.00    -0.248 NA
ATOM     42  C   UNL     1      -2.162   6.868  12.349  1.00  0.00     0.031 C 
ATOM     43  C   UNL     1       2.082   7.992   9.907  1.00  0.00     0.029 A 
ATOM     44  N   UNL     1       1.176   9.589  11.188  1.00  0.00    -0.354 N 
ATOM     45  C   UNL     1      -2.431   8.860  13.441  1.00  0.00     0.074 A 
ATOM     46  C   UNL     1      -2.955   7.538  13.172  1.00  0.00     0.031 C 
ATOM     47  C   UNL     1       2.874   9.076   9.827  1.00  0.00     0.029 A 
ATOM     48  C   UNL     1       2.303  10.148  10.640  1.00  0.00     0.049 A 
ATOM     49  H   UNL     1       0.580  10.071  11.805  1.00  0.00     0.167 HD
ATOM     50  C   UNL     1      -3.004   9.746  14.289  1.00  0.00     0.031 A 
ATOM     51  C   UNL     1       2.813  11.386  10.777  1.00  0.00     0.031 A 
ATOM     52  C   UNL     1      -2.496  11.065  14.547  1.00  0.00     0.049 A 
ATOM     53  C   UNL     1       2.124  12.375  11.678  1.00  0.00     0.074 A 
ATOM     54  C   UNL     1      -2.997  12.031  15.402  1.00  0.00     0.029 A 
ATOM     55  N   UNL     1      -1.373  11.607  13.942  1.00  0.00    -0.354 N 
ATOM     56  N   UNL     1       1.053  12.213  12.416  1.00  0.00    -0.248 NA
ATOM     57  C   UNL     1       2.725  13.713  11.773  1.00  0.00     0.031 C 
ATOM     58  C   UNL     1      -2.201  13.176  15.280  1.00  0.00     0.029 A 
ATOM     59  C   UNL     1      -1.178  12.904  14.386  1.00  0.00     0.049 A 
ATOM     60  H   UNL     1      -0.799  11.139  13.294  1.00  0.00     0.167 HD
ATOM     61  C   UNL     1       0.867  13.418  13.083  1.00  0.00     0.074 A 
ATOM     62  C   UNL     1       1.941  14.297  12.669  1.00  0.00     0.031 C 
ATOM     63  C   UNL     1      -0.105  13.764  13.962  1.00  0.00     0.031 A 
BRANCH  50  64
ATOM     64  C   UNL     1      -4.267   9.317  14.978  1.00  0.00    -0.014 A 
ATOM     65  C   UNL     1      -4.242   8.378  16.022  1.00  0.00     0.009 A 
ATOM     66  C   UNL     1      -5.495   9.873  14.591  1.00  0.00     0.009 A 
ATOM     67  C   UNL     1      -5.428   7.982  16.643  1.00  0.00     0.001 A 
ATOM     68  C   UNL     1      -6.677   9.491  15.229  1.00  0.00     0.001 A 
ATOM     69  C   UNL     1      -6.643   8.540  16.248  1.00  0.00     0.000 A 
ENDBRANCH  50  64
BRANCH  51  70
ATOM     70  C   UNL     1       4.044  11.766  10.039  1.00  0.00    -0.014 A 
ATOM     71  C   UNL     1       5.260  11.941  10.717  1.00  0.00     0.009 A 
ATOM     72  C   UNL     1       4.005  11.966   8.650  1.00  0.00     0.009 A 
ATOM     73  C   UNL     1       6.407  12.329  10.021  1.00  0.00     0.001 A 
ATOM     74  C   UNL     1       5.158  12.331   7.954  1.00  0.00     0.001 A 
ATOM     75  C   UNL     1       6.356  12.520   8.641  1.00  0.00     0.000 A 
ENDBRANCH  51  70
BRANCH  63  76
ATOM     76  C   UNL     1      -0.033  15.140  14.559  1.00  0.00    -0.014 A 
ATOM     77  C   UNL     1      -0.382  16.275  13.813  1.00  0.00     0.009 A 
ATOM     78  C   UNL     1       0.344  15.295  15.902  1.00  0.00     0.009 A 
ATOM     79  C   UNL     1      -0.326  17.544  14.393  1.00  0.00     0.001 A 
ATOM     80  C   UNL     1       0.376  16.562  16.486  1.00  0.00     0.001 A 
ATOM     81  C   UNL     1       0.048  17.686  15.729  1.00  0.00     0.000 A 
ENDBRANCH  63  76
ENDBRANCH  37  38
ENDBRANCH  30  32
ENDBRANCH  29  30
ENDBRANCH  28  29
ENDBRANCH  27  28
ENDBRANCH   1  27
TORSDOF 17
