REMARK SMILES NS(=O)(=O)c1ccc(-n2nc(C(F)F)cc2-c2ccc(C(=O)OCCOCCOC(=O)c3ccc(-c4c5nc(c(-c6ccccc6)c6ccc([nH]6)c(-c6ccccc6)c6nc(c(-c7ccccc7)c7ccc4[nH]7)C=C6)C=C5)cc3)cc2)cc1
REMARK SMILES IDX 25 1 24 2 23 3 21 4 22 5 20 6 17 7 18 8 81 9 19 10 80 11
REMARK SMILES IDX 16 12 9 13 10 14 11 15 15 16 8 17 5 18 6 19 83 20 7 21 82 22
REMARK SMILES IDX 2 23 3 24 4 25 1 26 12 29 13 30 14 31 26 32 27 33 28 34
REMARK SMILES IDX 29 35 30 36 31 37 32 38 33 39 79 40 34 41 78 42 35 43 36 44
REMARK SMILES IDX 37 45 72 46 38 47 77 48 71 49 73 50 39 51 76 52 70 53 69 54
REMARK SMILES IDX 40 56 62 57 47 58 61 59 48 60 51 61 60 62 74 63 49 64 50 65
REMARK SMILES IDX 59 67 75 68 52 69 41 70 42 71 46 72 43 73 45 74 44 75 63 76
REMARK SMILES IDX 64 77 68 78 65 79 67 80 66 81 53 82 54 83 58 84 55 85 57 86
REMARK SMILES IDX 56 87
REMARK H PARENT 1 27 1 28 73 55 51 66
REMARK Flexibility Score: inf
ROOT
ATOM      1  C   UNL     1       6.701  -5.889  -1.844  1.00  0.00     0.202 C 
ENDROOT
BRANCH   1   2
ATOM      2  C   UNL     1       6.843  -6.854  -0.666  1.00  0.00     0.261 C 
BRANCH   2   3
ATOM      3  O   UNL     1       5.818  -6.685   0.326  1.00  0.00    -0.460 OA
BRANCH   3   4
ATOM      4  C   UNL     1       6.257  -6.115   1.474  1.00  0.00     0.338 C 
ATOM      5  O   UNL     1       7.399  -5.774   1.734  1.00  0.00    -0.246 OA
BRANCH   4   6
ATOM      6  C   UNL     1       5.121  -5.784   2.357  1.00  0.00     0.060 A 
ATOM      7  C   UNL     1       3.190  -5.167   4.276  1.00  0.00     0.000 A 
ATOM      8  C   UNL     1       4.233  -4.268   4.015  1.00  0.00     0.011 A 
ATOM      9  C   UNL     1       3.086  -6.346   3.524  1.00  0.00     0.011 A 
ATOM     10  C   UNL     1       5.198  -4.578   3.064  1.00  0.00     0.016 A 
ATOM     11  C   UNL     1       4.044  -6.651   2.552  1.00  0.00     0.016 A 
BRANCH   7  12
ATOM     12  C   UNL     1       2.296  -4.920   5.403  1.00  0.00     0.075 A 
ATOM     13  N   UNL     1       1.569  -3.757   5.627  1.00  0.00    -0.233 N 
ATOM     14  N   UNL     1       1.139  -3.673   6.911  1.00  0.00    -0.166 NA
ATOM     15  C   UNL     1       1.401  -4.880   7.444  1.00  0.00     0.129 A 
ATOM     16  C   UNL     1       2.147  -5.677   6.547  1.00  0.00     0.060 A 
BRANCH  13  17
ATOM     17  C   UNL     1       1.250  -2.741   4.688  1.00  0.00     0.065 A 
ATOM     18  C   UNL     1       0.700  -0.752   2.821  1.00  0.00     0.082 A 
ATOM     19  C   UNL     1       0.670  -2.091   2.427  1.00  0.00     0.024 A 
ATOM     20  C   UNL     1       0.985  -0.399   4.145  1.00  0.00     0.024 A 
ATOM     21  C   UNL     1       0.960  -3.086   3.359  1.00  0.00     0.030 A 
ATOM     22  C   UNL     1       1.230  -1.400   5.091  1.00  0.00     0.030 A 
BRANCH  18  23
ATOM     23  S   UNL     1       0.401   0.517   1.627  1.00  0.00     0.238 S 
ATOM     24  O   UNL     1       1.138   1.698   1.996  1.00  0.00    -0.207 OA
ATOM     25  O   UNL     1      -1.013   0.530   1.320  1.00  0.00    -0.207 OA
BRANCH  23  26
ATOM     26  N   UNL     1       1.168  -0.061   0.242  1.00  0.00    -0.225 NA
ATOM     27  H   UNL     1       1.052   0.611  -0.517  1.00  0.00     0.137 HD
ATOM     28  H   UNL     1       0.755  -0.954  -0.028  1.00  0.00     0.137 HD
ENDBRANCH  23  26
ENDBRANCH  18  23
ENDBRANCH  13  17
BRANCH  15  29
ATOM     29  C   UNL     1       0.968  -5.278   8.824  1.00  0.00     0.393 C 
ATOM     30  F   UNL     1       1.259  -4.335   9.759  1.00  0.00    -0.203 F 
ATOM     31  F   UNL     1      -0.376  -5.489   8.882  1.00  0.00    -0.203 F 
ENDBRANCH  15  29
ENDBRANCH   7  12
ENDBRANCH   4   6
ENDBRANCH   3   4
ENDBRANCH   2   3
ENDBRANCH   1   2
BRANCH   1  32
ATOM     32  O   UNL     1       6.793  -4.486  -1.604  1.00  0.00    -0.374 OA
BRANCH  32  33
ATOM     33  C   UNL     1       5.784  -3.811  -0.862  1.00  0.00     0.202 C 
BRANCH  33  34
ATOM     34  C   UNL     1       4.409  -3.646  -1.489  1.00  0.00     0.261 C 
BRANCH  34  35
ATOM     35  O   UNL     1       3.823  -4.895  -1.818  1.00  0.00    -0.460 OA
BRANCH  35  36
ATOM     36  C   UNL     1       3.896  -5.205  -3.132  1.00  0.00     0.338 C 
ATOM     37  O   UNL     1       4.582  -4.670  -3.985  1.00  0.00    -0.246 OA
BRANCH  36  38
ATOM     38  C   UNL     1       2.855  -6.194  -3.425  1.00  0.00     0.060 A 
ATOM     39  C   UNL     1       2.689  -6.516  -4.774  1.00  0.00     0.016 A 
ATOM     40  C   UNL     1       1.853  -6.414  -2.470  1.00  0.00     0.016 A 
ATOM     41  C   UNL     1       1.413  -6.765  -5.216  1.00  0.00     0.010 A 
ATOM     42  C   UNL     1       0.579  -6.632  -2.917  1.00  0.00     0.010 A 
ATOM     43  C   UNL     1       0.367  -6.692  -4.291  1.00  0.00    -0.014 A 
BRANCH  43  44
ATOM     44  C   UNL     1      -0.987  -6.806  -4.773  1.00  0.00     0.031 A 
ATOM     45  C   UNL     1      -1.338  -8.218  -5.016  1.00  0.00     0.074 A 
ATOM     46  C   UNL     1      -1.826  -5.758  -4.848  1.00  0.00     0.049 A 
ATOM     47  N   UNL     1      -1.367  -8.828  -6.152  1.00  0.00    -0.248 NA
ATOM     48  C   UNL     1      -1.393  -9.111  -3.844  1.00  0.00     0.031 C 
ATOM     49  C   UNL     1      -1.642  -4.396  -4.337  1.00  0.00     0.029 A 
ATOM     50  N   UNL     1      -3.095  -5.728  -5.324  1.00  0.00    -0.354 N 
ATOM     51  C   UNL     1      -1.692 -10.140  -5.837  1.00  0.00     0.074 A 
ATOM     52  C   UNL     1      -1.400 -10.303  -4.438  1.00  0.00     0.031 C 
ATOM     53  C   UNL     1      -2.841  -3.763  -4.313  1.00  0.00     0.029 A 
ATOM     54  C   UNL     1      -3.837  -4.620  -4.934  1.00  0.00     0.049 A 
ATOM     55  H   UNL     1      -3.462  -6.436  -5.901  1.00  0.00     0.167 HD
ATOM     56  C   UNL     1      -2.531 -10.857  -6.632  1.00  0.00     0.031 A 
ATOM     57  C   UNL     1      -5.182  -4.481  -5.062  1.00  0.00     0.031 A 
ATOM     58  C   UNL     1      -2.676 -10.241  -7.927  1.00  0.00     0.049 A 
ATOM     59  C   UNL     1      -5.630  -5.483  -6.060  1.00  0.00     0.074 A 
ATOM     60  C   UNL     1      -1.829  -9.932  -8.970  1.00  0.00     0.029 A 
ATOM     61  N   UNL     1      -3.801  -9.469  -8.097  1.00  0.00    -0.354 N 
ATOM     62  N   UNL     1      -5.301  -5.441  -7.319  1.00  0.00    -0.248 NA
ATOM     63  C   UNL     1      -6.056  -6.785  -5.570  1.00  0.00     0.031 C 
ATOM     64  C   UNL     1      -2.307  -8.691  -9.484  1.00  0.00     0.029 A 
ATOM     65  C   UNL     1      -3.462  -8.335  -8.783  1.00  0.00     0.049 A 
ATOM     66  H   UNL     1      -4.704  -9.695  -7.777  1.00  0.00     0.167 HD
ATOM     67  C   UNL     1      -5.054  -6.762  -7.665  1.00  0.00     0.074 A 
ATOM     68  C   UNL     1      -5.633  -7.552  -6.579  1.00  0.00     0.031 C 
ATOM     69  C   UNL     1      -4.150  -7.069  -8.642  1.00  0.00     0.031 A 
BRANCH  56  70
ATOM     70  C   UNL     1      -3.591 -11.777  -6.066  1.00  0.00    -0.014 A 
ATOM     71  C   UNL     1      -4.418 -12.467  -6.966  1.00  0.00     0.009 A 
ATOM     72  C   UNL     1      -3.998 -11.773  -4.715  1.00  0.00     0.009 A 
ATOM     73  C   UNL     1      -5.621 -13.049  -6.547  1.00  0.00     0.001 A 
ATOM     74  C   UNL     1      -5.175 -12.388  -4.286  1.00  0.00     0.001 A 
ATOM     75  C   UNL     1      -6.002 -13.002  -5.210  1.00  0.00     0.000 A 
ENDBRANCH  56  70
BRANCH  57  76
ATOM     76  C   UNL     1      -6.145  -3.827  -4.143  1.00  0.00    -0.014 A 
ATOM     77  C   UNL     1      -7.457  -3.540  -4.562  1.00  0.00     0.009 A 
ATOM     78  C   UNL     1      -5.876  -3.761  -2.764  1.00  0.00     0.009 A 
ATOM     79  C   UNL     1      -8.466  -3.242  -3.634  1.00  0.00     0.001 A 
ATOM     80  C   UNL     1      -6.883  -3.462  -1.837  1.00  0.00     0.001 A 
ATOM     81  C   UNL     1      -8.181  -3.218  -2.271  1.00  0.00     0.000 A 
ENDBRANCH  57  76
BRANCH  69  82
ATOM     82  C   UNL     1      -3.660  -5.949  -9.527  1.00  0.00    -0.014 A 
ATOM     83  C   UNL     1      -2.868  -4.880  -9.070  1.00  0.00     0.009 A 
ATOM     84  C   UNL     1      -3.872  -6.082 -10.907  1.00  0.00     0.009 A 
ATOM     85  C   UNL     1      -2.312  -3.969  -9.977  1.00  0.00     0.001 A 
ATOM     86  C   UNL     1      -3.300  -5.185 -11.811  1.00  0.00     0.001 A 
ATOM     87  C   UNL     1      -2.522  -4.129 -11.346  1.00  0.00     0.000 A 
ENDBRANCH  69  82
ENDBRANCH  43  44
ENDBRANCH  36  38
ENDBRANCH  35  36
ENDBRANCH  34  35
ENDBRANCH  33  34
ENDBRANCH  32  33
ENDBRANCH   1  32
TORSDOF 19
