REMARK SMILES CC[C@H](C)CN(CC)C(=O)Nc1ccc(C(=O)OCCOCCOC(=O)c2ccc(-c3c4nc(c(-c5ccccc5)c5ccc([nH]5)c(-c5ccccc5)c5nc(c(-c6ccccc6)c6ccc3[nH]6)C=C5)C=C4)cc2)cc1Cl
REMARK SMILES IDX 19 1 18 2 16 3 17 4 15 5 12 6 13 7 76 8 14 9 75 10 77 11
REMARK SMILES IDX 11 12 9 13 10 14 6 16 5 17 3 18 4 19 2 20 1 21 7 22 8 23
REMARK SMILES IDX 20 24 21 25 22 26 23 27 24 28 25 29 26 30 27 31 28 32 74 33
REMARK SMILES IDX 29 34 73 35 30 36 31 37 32 38 67 39 33 40 72 41 66 42 68 43
REMARK SMILES IDX 34 44 71 45 65 46 64 47 35 49 57 50 42 51 56 52 43 53 46 54
REMARK SMILES IDX 55 55 69 56 44 57 45 58 54 60 70 61 47 62 36 63 37 64 41 65
REMARK SMILES IDX 38 66 40 67 39 68 58 69 59 70 63 71 60 72 62 73 61 74 48 75
REMARK SMILES IDX 49 76 53 77 50 78 52 79 51 80
REMARK H PARENT 11 15 68 48 46 59
REMARK Flexibility Score: inf
ROOT
ATOM      1  C   UNL     1       5.705  -2.801  10.212  1.00  0.00     0.261 C 
ENDROOT
BRANCH   1   2
ATOM      2  O   UNL     1       4.666  -2.834   9.224  1.00  0.00    -0.460 OA
BRANCH   2   3
ATOM      3  C   UNL     1       5.093  -2.953   7.946  1.00  0.00     0.338 C 
ATOM      4  O   UNL     1       6.244  -2.854   7.550  1.00  0.00    -0.246 OA
BRANCH   3   5
ATOM      5  C   UNL     1       3.964  -3.298   7.046  1.00  0.00     0.061 A 
ATOM      6  C   UNL     1       1.950  -3.571   5.158  1.00  0.00     0.061 A 
ATOM      7  C   UNL     1       3.273  -3.812   4.782  1.00  0.00     0.028 A 
ATOM      8  C   UNL     1       1.616  -3.427   6.511  1.00  0.00     0.065 A 
ATOM      9  C   UNL     1       4.282  -3.651   5.727  1.00  0.00     0.018 A 
ATOM     10  C   UNL     1       2.625  -3.271   7.460  1.00  0.00     0.038 A 
ATOM     11  Cl  UNL     1      -0.028  -3.477   7.043  1.00  0.00    -0.082 Cl
BRANCH   6  12
ATOM     12  N   UNL     1       1.037  -3.359   4.128  1.00  0.00    -0.306 N 
ATOM     13  C   UNL     1       0.312  -2.260   3.785  1.00  0.00     0.321 C 
ATOM     14  O   UNL     1      -0.581  -2.463   2.953  1.00  0.00    -0.248 OA
ATOM     15  H   UNL     1       0.891  -4.140   3.547  1.00  0.00     0.171 HD
BRANCH  13  16
ATOM     16  N   UNL     1       0.646  -0.976   4.188  1.00  0.00    -0.325 N 
BRANCH  16  17
ATOM     17  C   UNL     1      -0.038   0.123   3.482  1.00  0.00     0.124 C 
BRANCH  17  18
ATOM     18  C   UNL     1       0.792   0.658   2.282  1.00  0.00     0.005 C 
ATOM     19  C   UNL     1       0.850  -0.353   1.133  1.00  0.00     0.009 C 
BRANCH  18  20
ATOM     20  C   UNL     1       0.314   2.069   1.865  1.00  0.00     0.002 C 
ATOM     21  C   UNL     1      -0.452   2.168   0.555  1.00  0.00     0.004 C 
ENDBRANCH  18  20
ENDBRANCH  17  18
ENDBRANCH  16  17
BRANCH  16  22
ATOM     22  C   UNL     1       1.699  -0.519   5.110  1.00  0.00     0.118 C 
ATOM     23  C   UNL     1       1.156  -0.060   6.458  1.00  0.00     0.027 C 
ENDBRANCH  16  22
ENDBRANCH  13  16
ENDBRANCH   6  12
ENDBRANCH   3   5
ENDBRANCH   2   3
ENDBRANCH   1   2
BRANCH   1  24
ATOM     24  C   UNL     1       5.568  -3.980  11.178  1.00  0.00     0.202 C 
BRANCH  24  25
ATOM     25  O   UNL     1       5.723  -5.292  10.636  1.00  0.00    -0.374 OA
BRANCH  25  26
ATOM     26  C   UNL     1       4.691  -5.808   9.800  1.00  0.00     0.202 C 
BRANCH  26  27
ATOM     27  C   UNL     1       3.388  -6.276  10.463  1.00  0.00     0.261 C 
BRANCH  27  28
ATOM     28  O   UNL     1       2.802  -5.298  11.335  1.00  0.00    -0.460 OA
BRANCH  28  29
ATOM     29  C   UNL     1       2.951  -5.585  12.652  1.00  0.00     0.338 C 
ATOM     30  O   UNL     1       3.445  -6.588  13.139  1.00  0.00    -0.246 OA
BRANCH  29  31
ATOM     31  C   UNL     1       2.574  -4.426  13.481  1.00  0.00     0.060 A 
ATOM     32  C   UNL     1       3.514  -3.990  14.422  1.00  0.00     0.016 A 
ATOM     33  C   UNL     1       1.306  -3.845  13.419  1.00  0.00     0.016 A 
ATOM     34  C   UNL     1       3.167  -3.014  15.350  1.00  0.00     0.010 A 
ATOM     35  C   UNL     1       0.957  -2.865  14.358  1.00  0.00     0.010 A 
ATOM     36  C   UNL     1       1.872  -2.479  15.353  1.00  0.00    -0.014 A 
BRANCH  36  37
ATOM     37  C   UNL     1       1.467  -1.622  16.492  1.00  0.00     0.031 A 
ATOM     38  C   UNL     1       0.696  -2.225  17.634  1.00  0.00     0.074 A 
ATOM     39  C   UNL     1       1.855  -0.336  16.548  1.00  0.00     0.049 A 
ATOM     40  N   UNL     1       0.358  -1.688  18.779  1.00  0.00    -0.248 NA
ATOM     41  C   UNL     1       0.247  -3.615  17.463  1.00  0.00     0.031 C 
ATOM     42  C   UNL     1       2.614   0.364  15.513  1.00  0.00     0.029 A 
ATOM     43  N   UNL     1       1.671   0.605  17.529  1.00  0.00    -0.354 N 
ATOM     44  C   UNL     1      -0.341  -2.673  19.465  1.00  0.00     0.074 A 
ATOM     45  C   UNL     1      -0.410  -3.827  18.594  1.00  0.00     0.031 C 
ATOM     46  C   UNL     1       2.837   1.626  15.918  1.00  0.00     0.029 A 
ATOM     47  C   UNL     1       2.230   1.823  17.232  1.00  0.00     0.049 A 
ATOM     48  H   UNL     1       1.184   0.425  18.366  1.00  0.00     0.167 HD
ATOM     49  C   UNL     1      -0.871  -2.627  20.711  1.00  0.00     0.031 A 
ATOM     50  C   UNL     1       2.254   2.966  17.942  1.00  0.00     0.031 A 
ATOM     51  C   UNL     1      -0.816  -1.479  21.576  1.00  0.00     0.049 A 
ATOM     52  C   UNL     1       1.642   3.002  19.314  1.00  0.00     0.074 A 
ATOM     53  C   UNL     1      -1.291  -1.348  22.869  1.00  0.00     0.029 A 
ATOM     54  N   UNL     1      -0.262  -0.257  21.228  1.00  0.00    -0.354 N 
ATOM     55  N   UNL     1       1.042   2.042  19.977  1.00  0.00    -0.248 NA
ATOM     56  C   UNL     1       1.732   4.274  20.045  1.00  0.00     0.031 C 
ATOM     57  C   UNL     1      -1.072  -0.029  23.285  1.00  0.00     0.029 A 
ATOM     58  C   UNL     1      -0.409   0.643  22.270  1.00  0.00     0.049 A 
ATOM     59  H   UNL     1       0.172  -0.058  20.367  1.00  0.00     0.167 HD
ATOM     60  C   UNL     1       0.703   2.587  21.209  1.00  0.00     0.074 A 
ATOM     61  C   UNL     1       1.181   3.955  21.208  1.00  0.00     0.031 C 
ATOM     62  C   UNL     1       0.056   2.006  22.250  1.00  0.00     0.031 A 
BRANCH  49  63
ATOM     63  C   UNL     1      -1.589  -3.856  21.197  1.00  0.00    -0.014 A 
ATOM     64  C   UNL     1      -0.889  -5.023  21.541  1.00  0.00     0.009 A 
ATOM     65  C   UNL     1      -2.986  -3.837  21.327  1.00  0.00     0.009 A 
ATOM     66  C   UNL     1      -1.579  -6.160  21.969  1.00  0.00     0.001 A 
ATOM     67  C   UNL     1      -3.670  -4.966  21.780  1.00  0.00     0.001 A 
ATOM     68  C   UNL     1      -2.968  -6.130  22.090  1.00  0.00     0.000 A 
ENDBRANCH  49  63
BRANCH  50  69
ATOM     69  C   UNL     1       2.892   4.176  17.362  1.00  0.00    -0.014 A 
ATOM     70  C   UNL     1       4.119   4.648  17.851  1.00  0.00     0.009 A 
ATOM     71  C   UNL     1       2.272   4.860  16.305  1.00  0.00     0.009 A 
ATOM     72  C   UNL     1       4.702   5.793  17.305  1.00  0.00     0.001 A 
ATOM     73  C   UNL     1       2.870   5.990  15.744  1.00  0.00     0.001 A 
ATOM     74  C   UNL     1       4.081   6.460  16.249  1.00  0.00     0.000 A 
ENDBRANCH  50  69
BRANCH  62  75
ATOM     75  C   UNL     1      -0.153   2.846  23.479  1.00  0.00    -0.014 A 
ATOM     76  C   UNL     1      -1.080   3.900  23.493  1.00  0.00     0.009 A 
ATOM     77  C   UNL     1       0.575   2.565  24.646  1.00  0.00     0.009 A 
ATOM     78  C   UNL     1      -1.243   4.683  24.639  1.00  0.00     0.001 A 
ATOM     79  C   UNL     1       0.389   3.331  25.799  1.00  0.00     0.001 A 
ATOM     80  C   UNL     1      -0.510   4.396  25.790  1.00  0.00     0.000 A 
ENDBRANCH  62  75
ENDBRANCH  36  37
ENDBRANCH  29  31
ENDBRANCH  28  29
ENDBRANCH  27  28
ENDBRANCH  26  27
ENDBRANCH  25  26
ENDBRANCH  24  25
ENDBRANCH   1  24
TORSDOF 20
