REMARK SMILES CC(C)CCc1cc2c(cc1Cl)C=C(C(=O)OCCOCCOC(=O)c1ccc(-c3c4nc(c(-c5ccccc5)c5ccc([nH]5)c(-c5ccccc5)c5nc(c(-c6ccccc6)c6ccc3[nH]6)C=C5)C=C4)cc1)[C@@H](C(F)(F)F)O2
REMARK SMILES IDX 19 1 18 2 17 3 15 4 16 5 14 6 6 7 7 8 11 9 8 10 10 11 12 12
REMARK SMILES IDX 9 13 79 14 13 15 74 16 5 17 4 18 2 19 1 20 3 21 75 22 76 23
REMARK SMILES IDX 77 24 78 25 20 26 21 27 22 28 23 29 24 30 25 31 26 32 27 33
REMARK SMILES IDX 73 34 28 35 72 36 29 37 30 38 31 39 66 40 32 41 71 42 65 43
REMARK SMILES IDX 67 44 33 45 70 46 64 47 63 48 34 50 56 51 41 52 55 53 42 54
REMARK SMILES IDX 45 55 54 56 68 57 43 58 44 59 53 61 69 62 46 63 35 64 36 65
REMARK SMILES IDX 40 66 37 67 39 68 38 69 57 70 58 71 62 72 59 73 61 74 60 75
REMARK SMILES IDX 47 76 48 77 52 78 49 79 51 80 50 81
REMARK H PARENT 67 49 45 60
REMARK Flexibility Score: inf
ROOT
ATOM      1  C   UNL     1       1.738 -10.507   5.084  1.00  0.00     0.202 C 
ENDROOT
BRANCH   1   2
ATOM      2  C   UNL     1       2.759  -9.823   4.170  1.00  0.00     0.261 C 
BRANCH   2   3
ATOM      3  O   UNL     1       2.422  -8.450   3.931  1.00  0.00    -0.460 OA
BRANCH   3   4
ATOM      4  C   UNL     1       1.993  -8.191   2.673  1.00  0.00     0.338 C 
ATOM      5  O   UNL     1       2.010  -8.955   1.721  1.00  0.00    -0.246 OA
BRANCH   4   6
ATOM      6  C   UNL     1       1.357  -6.862   2.636  1.00  0.00     0.087 C 
ATOM      7  C   UNL     1      -1.220  -2.813   1.210  1.00  0.00    -0.026 A 
ATOM      8  C   UNL     1      -0.320  -3.087   2.253  1.00  0.00     0.052 A 
ATOM      9  C   UNL     1      -1.751  -3.910   0.503  1.00  0.00     0.045 A 
ATOM     10  C   UNL     1       0.168  -4.377   2.466  1.00  0.00     0.128 A 
ATOM     11  C   UNL     1      -1.312  -5.212   0.760  1.00  0.00     0.032 A 
ATOM     12  Cl  UNL     1      -2.946  -3.711  -0.731  1.00  0.00    -0.084 Cl
ATOM     13  C   UNL     1      -0.312  -5.438   1.704  1.00  0.00     0.019 A 
ATOM     14  O   UNL     1       1.124  -4.512   3.433  1.00  0.00    -0.475 OA
ATOM     15  C   UNL     1       0.272  -6.755   1.858  1.00  0.00     0.027 C 
ATOM     16  C   UNL     1       1.929  -5.724   3.436  1.00  0.00     0.316 C 
BRANCH   7  17
ATOM     17  C   UNL     1      -1.588  -1.398   0.804  1.00  0.00     0.037 C 
BRANCH  17  18
ATOM     18  C   UNL     1      -0.944  -0.216   1.547  1.00  0.00     0.008 C 
BRANCH  18  19
ATOM     19  C   UNL     1       0.579  -0.026   1.366  1.00  0.00    -0.017 C 
ATOM     20  C   UNL     1       0.977   0.310  -0.070  1.00  0.00     0.007 C 
ATOM     21  C   UNL     1       1.066   1.069   2.320  1.00  0.00     0.007 C 
ENDBRANCH  18  19
ENDBRANCH  17  18
ENDBRANCH   7  17
BRANCH  16  22
ATOM     22  C   UNL     1       3.368  -5.389   3.014  1.00  0.00     0.430 C 
ATOM     23  F   UNL     1       3.839  -4.307   3.680  1.00  0.00    -0.167 F 
ATOM     24  F   UNL     1       4.215  -6.410   3.290  1.00  0.00    -0.167 F 
ATOM     25  F   UNL     1       3.467  -5.128   1.692  1.00  0.00    -0.167 F 
ENDBRANCH  16  22
ENDBRANCH   4   6
ENDBRANCH   3   4
ENDBRANCH   2   3
ENDBRANCH   1   2
BRANCH   1  26
ATOM     26  O   UNL     1       0.369 -10.479   4.690  1.00  0.00    -0.374 OA
BRANCH  26  27
ATOM     27  C   UNL     1      -0.370  -9.271   4.862  1.00  0.00     0.202 C 
BRANCH  27  28
ATOM     28  C   UNL     1      -0.735  -8.830   6.286  1.00  0.00     0.261 C 
BRANCH  28  29
ATOM     29  O   UNL     1       0.417  -8.499   7.080  1.00  0.00    -0.460 OA
BRANCH  29  30
ATOM     30  C   UNL     1       0.698  -9.379   8.072  1.00  0.00     0.338 C 
ATOM     31  O   UNL     1       0.073 -10.384   8.373  1.00  0.00    -0.246 OA
BRANCH  30  32
ATOM     32  C   UNL     1       2.022  -9.061   8.636  1.00  0.00     0.060 A 
ATOM     33  C   UNL     1       2.294  -7.802   9.172  1.00  0.00     0.016 A 
ATOM     34  C   UNL     1       2.993 -10.071   8.657  1.00  0.00     0.016 A 
ATOM     35  C   UNL     1       3.542  -7.564   9.751  1.00  0.00     0.010 A 
ATOM     36  C   UNL     1       4.239  -9.830   9.236  1.00  0.00     0.010 A 
ATOM     37  C   UNL     1       4.516  -8.580   9.804  1.00  0.00    -0.014 A 
BRANCH  37  38
ATOM     38  C   UNL     1       5.768  -8.369  10.570  1.00  0.00     0.031 A 
ATOM     39  C   UNL     1       7.087  -8.181   9.884  1.00  0.00     0.074 A 
ATOM     40  C   UNL     1       5.699  -8.358  11.915  1.00  0.00     0.049 A 
ATOM     41  N   UNL     1       8.249  -7.894  10.414  1.00  0.00    -0.248 NA
ATOM     42  C   UNL     1       7.112  -8.336   8.422  1.00  0.00     0.031 C 
ATOM     43  C   UNL     1       4.475  -8.564  12.691  1.00  0.00     0.029 A 
ATOM     44  N   UNL     1       6.667  -8.151  12.866  1.00  0.00    -0.354 N 
ATOM     45  C   UNL     1       9.141  -7.815   9.353  1.00  0.00     0.074 A 
ATOM     46  C   UNL     1       8.397  -8.134   8.153  1.00  0.00     0.031 C 
ATOM     47  C   UNL     1       4.756  -8.428  13.995  1.00  0.00     0.029 A 
ATOM     48  C   UNL     1       6.184  -8.166  14.152  1.00  0.00     0.049 A 
ATOM     49  H   UNL     1       7.616  -8.005  12.647  1.00  0.00     0.167 HD
ATOM     50  C   UNL     1      10.454  -7.484   9.382  1.00  0.00     0.031 A 
ATOM     51  C   UNL     1       6.812  -7.982  15.330  1.00  0.00     0.031 A 
ATOM     52  C   UNL     1      11.189  -7.189  10.586  1.00  0.00     0.049 A 
ATOM     53  C   UNL     1       8.281  -7.663  15.336  1.00  0.00     0.074 A 
ATOM     54  C   UNL     1      12.514  -6.804  10.706  1.00  0.00     0.029 A 
ATOM     55  N   UNL     1      10.676  -7.258  11.873  1.00  0.00    -0.354 N 
ATOM     56  N   UNL     1       9.092  -7.502  14.319  1.00  0.00    -0.248 NA
ATOM     57  C   UNL     1       8.920  -7.482  16.648  1.00  0.00     0.031 C 
ATOM     58  C   UNL     1      12.824  -6.723  12.064  1.00  0.00     0.029 A 
ATOM     59  C   UNL     1      11.670  -6.962  12.792  1.00  0.00     0.049 A 
ATOM     60  H   UNL     1       9.745  -7.484  12.099  1.00  0.00     0.167 HD
ATOM     61  C   UNL     1      10.328  -7.176  14.863  1.00  0.00     0.074 A 
ATOM     62  C   UNL     1      10.155  -7.143  16.301  1.00  0.00     0.031 C 
ATOM     63  C   UNL     1      11.497  -6.929  14.224  1.00  0.00     0.031 A 
BRANCH  50  64
ATOM     64  C   UNL     1      11.201  -7.407   8.077  1.00  0.00    -0.014 A 
ATOM     65  C   UNL     1      12.267  -8.287   7.825  1.00  0.00     0.009 A 
ATOM     66  C   UNL     1      10.941  -6.380   7.156  1.00  0.00     0.009 A 
ATOM     67  C   UNL     1      13.071  -8.126   6.695  1.00  0.00     0.001 A 
ATOM     68  C   UNL     1      11.726  -6.241   6.009  1.00  0.00     0.001 A 
ATOM     69  C   UNL     1      12.799  -7.104   5.787  1.00  0.00     0.000 A 
ENDBRANCH  50  64
BRANCH  51  70
ATOM     70  C   UNL     1       6.026  -8.052  16.592  1.00  0.00    -0.014 A 
ATOM     71  C   UNL     1       5.439  -9.261  17.002  1.00  0.00     0.009 A 
ATOM     72  C   UNL     1       5.803  -6.900  17.360  1.00  0.00     0.009 A 
ATOM     73  C   UNL     1       4.620  -9.308  18.132  1.00  0.00     0.001 A 
ATOM     74  C   UNL     1       5.013  -6.957  18.511  1.00  0.00     0.001 A 
ATOM     75  C   UNL     1       4.412  -8.157  18.888  1.00  0.00     0.000 A 
ENDBRANCH  51  70
BRANCH  63  76
ATOM     76  C   UNL     1      12.705  -6.582  15.055  1.00  0.00    -0.014 A 
ATOM     77  C   UNL     1      13.291  -5.310  14.935  1.00  0.00     0.009 A 
ATOM     78  C   UNL     1      13.338  -7.544  15.857  1.00  0.00     0.009 A 
ATOM     79  C   UNL     1      14.496  -5.018  15.575  1.00  0.00     0.001 A 
ATOM     80  C   UNL     1      14.525  -7.237  16.527  1.00  0.00     0.001 A 
ATOM     81  C   UNL     1      15.110  -5.980  16.373  1.00  0.00     0.000 A 
ENDBRANCH  63  76
ENDBRANCH  37  38
ENDBRANCH  30  32
ENDBRANCH  29  30
ENDBRANCH  28  29
ENDBRANCH  27  28
ENDBRANCH  26  27
ENDBRANCH   1  26
TORSDOF 18
