REMARK SMILES O=C(OCCOCCOC(=O)[C@@]12CN(CC3CC3)C(=O)[C@@H]1CN(c1nc3ccccc3o1)C2)c1ccc(-c2c3nc(c(-c4ccccc4)c4ccc([nH]4)c(-c4ccccc4)c4nc(c(-c5ccccc5)c5ccc2[nH]5)C=C4)C=C3)cc1
REMARK SMILES IDX 6 1 5 2 4 3 3 4 2 5 1 6 34 7 35 8 81 9 36 10 80 11 37 12
REMARK SMILES IDX 38 13 39 14 74 15 40 16 79 17 73 18 75 19 41 20 78 21 72 22
REMARK SMILES IDX 71 23 42 25 64 26 49 27 63 28 50 29 53 30 62 31 76 32 51 33
REMARK SMILES IDX 52 34 61 36 77 37 54 38 43 39 44 40 48 41 45 42 47 43 46 44
REMARK SMILES IDX 65 45 66 46 70 47 67 48 69 49 68 50 55 51 56 52 60 53 57 54
REMARK SMILES IDX 59 55 58 56 7 57 8 58 9 59 10 60 11 61 12 62 13 63 21 64
REMARK SMILES IDX 33 65 14 66 19 67 22 68 23 69 20 70 15 71 16 72 17 73 18 74
REMARK SMILES IDX 24 75 25 76 32 77 26 78 31 79 27 80 30 81 28 82 29 83
REMARK H PARENT 75 24 53 35
REMARK Flexibility Score: inf
ROOT
ATOM      1  O   UNL     1       4.429   0.565  -1.673  1.00  0.00    -0.374 OA
ENDROOT
BRANCH   1   2
ATOM      2  C   UNL     1       4.781  -0.538  -0.806  1.00  0.00     0.202 C 
BRANCH   2   3
ATOM      3  C   UNL     1       3.970  -1.003   0.406  1.00  0.00     0.261 C 
BRANCH   3   4
ATOM      4  O   UNL     1       2.576  -0.710   0.312  1.00  0.00    -0.460 OA
BRANCH   4   5
ATOM      5  C   UNL     1       1.951   0.234   1.060  1.00  0.00     0.338 C 
ATOM      6  O   UNL     1       0.733   0.212   1.191  1.00  0.00    -0.246 OA
BRANCH   5   7
ATOM      7  C   UNL     1       2.737   1.325   1.698  1.00  0.00     0.060 A 
ATOM      8  C   UNL     1       3.927   1.806   1.159  1.00  0.00     0.016 A 
ATOM      9  C   UNL     1       2.242   1.933   2.852  1.00  0.00     0.016 A 
ATOM     10  C   UNL     1       4.699   2.744   1.792  1.00  0.00     0.010 A 
ATOM     11  C   UNL     1       2.965   2.966   3.457  1.00  0.00     0.010 A 
ATOM     12  C   UNL     1       4.210   3.346   2.937  1.00  0.00    -0.014 A 
BRANCH  12  13
ATOM     13  C   UNL     1       5.128   4.273   3.606  1.00  0.00     0.031 A 
ATOM     14  C   UNL     1       5.795   3.805   4.856  1.00  0.00     0.074 A 
ATOM     15  C   UNL     1       5.494   5.401   2.969  1.00  0.00     0.049 A 
ATOM     16  N   UNL     1       6.636   4.436   5.625  1.00  0.00    -0.248 NA
ATOM     17  C   UNL     1       5.487   2.430   5.293  1.00  0.00     0.031 C 
ATOM     18  C   UNL     1       5.018   5.822   1.644  1.00  0.00     0.029 A 
ATOM     19  N   UNL     1       6.394   6.365   3.318  1.00  0.00    -0.354 N 
ATOM     20  C   UNL     1       6.909   3.562   6.667  1.00  0.00     0.074 A 
ATOM     21  C   UNL     1       6.158   2.352   6.429  1.00  0.00     0.031 C 
ATOM     22  C   UNL     1       5.667   6.938   1.279  1.00  0.00     0.029 A 
ATOM     23  C   UNL     1       6.527   7.356   2.376  1.00  0.00     0.049 A 
ATOM     24  H   UNL     1       6.899   6.353   4.164  1.00  0.00     0.167 HD
ATOM     25  C   UNL     1       7.705   3.775   7.737  1.00  0.00     0.031 A 
ATOM     26  C   UNL     1       7.242   8.492   2.427  1.00  0.00     0.031 A 
ATOM     27  C   UNL     1       8.432   4.997   7.932  1.00  0.00     0.049 A 
ATOM     28  C   UNL     1       8.032   8.751   3.679  1.00  0.00     0.074 A 
ATOM     29  C   UNL     1       9.216   5.380   9.002  1.00  0.00     0.029 A 
ATOM     30  N   UNL     1       8.460   6.040   7.013  1.00  0.00    -0.354 N 
ATOM     31  N   UNL     1       8.209   7.969   4.719  1.00  0.00    -0.248 NA
ATOM     32  C   UNL     1       8.707  10.049   3.772  1.00  0.00     0.031 C 
ATOM     33  C   UNL     1       9.675   6.679   8.752  1.00  0.00     0.029 A 
ATOM     34  C   UNL     1       9.234   7.076   7.497  1.00  0.00     0.049 A 
ATOM     35  H   UNL     1       7.997   6.039   6.144  1.00  0.00     0.167 HD
ATOM     36  C   UNL     1       9.038   8.668   5.583  1.00  0.00     0.074 A 
ATOM     37  C   UNL     1       9.340   9.930   4.931  1.00  0.00     0.031 C 
ATOM     38  C   UNL     1       9.509   8.309   6.803  1.00  0.00     0.031 A 
BRANCH  25  39
ATOM     39  C   UNL     1       7.711   2.712   8.798  1.00  0.00    -0.014 A 
ATOM     40  C   UNL     1       8.310   1.458   8.596  1.00  0.00     0.009 A 
ATOM     41  C   UNL     1       7.037   2.955  10.005  1.00  0.00     0.009 A 
ATOM     42  C   UNL     1       8.191   0.455   9.563  1.00  0.00     0.001 A 
ATOM     43  C   UNL     1       6.946   1.962  10.981  1.00  0.00     0.001 A 
ATOM     44  C   UNL     1       7.511   0.709  10.754  1.00  0.00     0.000 A 
ENDBRANCH  25  39
BRANCH  26  45
ATOM     45  C   UNL     1       7.192   9.474   1.312  1.00  0.00    -0.014 A 
ATOM     46  C   UNL     1       8.341   9.781   0.567  1.00  0.00     0.009 A 
ATOM     47  C   UNL     1       5.989  10.127   0.991  1.00  0.00     0.009 A 
ATOM     48  C   UNL     1       8.291  10.737  -0.452  1.00  0.00     0.001 A 
ATOM     49  C   UNL     1       5.934  11.057  -0.050  1.00  0.00     0.001 A 
ATOM     50  C   UNL     1       7.089  11.370  -0.763  1.00  0.00     0.000 A 
ENDBRANCH  26  45
BRANCH  38  51
ATOM     51  C   UNL     1      10.447   9.273   7.467  1.00  0.00    -0.014 A 
ATOM     52  C   UNL     1       9.992  10.485   8.007  1.00  0.00     0.009 A 
ATOM     53  C   UNL     1      11.804   8.934   7.584  1.00  0.00     0.009 A 
ATOM     54  C   UNL     1      10.891  11.360   8.617  1.00  0.00     0.001 A 
ATOM     55  C   UNL     1      12.692   9.794   8.226  1.00  0.00     0.001 A 
ATOM     56  C   UNL     1      12.237  11.011   8.731  1.00  0.00     0.000 A 
ENDBRANCH  38  51
ENDBRANCH  12  13
ENDBRANCH   5   7
ENDBRANCH   4   5
ENDBRANCH   3   4
ENDBRANCH   2   3
ENDBRANCH   1   2
BRANCH   1  57
ATOM     57  C   UNL     1       3.087   0.934  -2.010  1.00  0.00     0.202 C 
BRANCH  57  58
ATOM     58  C   UNL     1       3.030   1.488  -3.452  1.00  0.00     0.261 C 
BRANCH  58  59
ATOM     59  O   UNL     1       3.001   0.437  -4.448  1.00  0.00    -0.463 OA
BRANCH  59  60
ATOM     60  C   UNL     1       4.179   0.037  -5.016  1.00  0.00     0.316 C 
ATOM     61  O   UNL     1       4.665   0.615  -5.977  1.00  0.00    -0.251 OA
BRANCH  60  62
ATOM     62  C   UNL     1       4.800  -1.173  -4.326  1.00  0.00     0.116 C 
ATOM     63  C   UNL     1       3.647  -1.822  -3.549  1.00  0.00     0.141 C 
ATOM     64  C   UNL     1       5.246  -2.411  -5.142  1.00  0.00     0.119 C 
ATOM     65  C   UNL     1       6.143  -0.645  -3.743  1.00  0.00     0.142 C 
ATOM     66  N   UNL     1       3.973  -3.176  -3.317  1.00  0.00    -0.341 N 
ATOM     67  C   UNL     1       4.868  -3.611  -4.265  1.00  0.00     0.228 C 
ATOM     68  C   UNL     1       6.759  -2.374  -5.258  1.00  0.00     0.136 C 
ATOM     69  N   UNL     1       7.182  -1.597  -4.109  1.00  0.00    -0.324 N 
ATOM     70  O   UNL     1       5.251  -4.762  -4.413  1.00  0.00    -0.274 OA
BRANCH  66  71
ATOM     71  C   UNL     1       3.220  -3.969  -2.358  1.00  0.00     0.123 C 
BRANCH  71  72
ATOM     72  C   UNL     1       1.964  -4.571  -2.921  1.00  0.00     0.008 C 
ATOM     73  C   UNL     1       1.651  -4.732  -4.393  1.00  0.00     0.006 C 
ATOM     74  C   UNL     1       2.079  -5.920  -3.586  1.00  0.00     0.006 C 
ENDBRANCH  71  72
ENDBRANCH  66  71
BRANCH  69  75
ATOM     75  C   UNL     1       8.480  -1.229  -4.025  1.00  0.00     0.298 A 
ATOM     76  N   UNL     1       9.370  -1.220  -4.993  1.00  0.00    -0.193 NA
ATOM     77  O   UNL     1       8.952  -0.790  -2.810  1.00  0.00    -0.423 OA
ATOM     78  C   UNL     1      10.493  -0.706  -4.408  1.00  0.00     0.111 A 
ATOM     79  C   UNL     1      10.264  -0.481  -3.061  1.00  0.00     0.156 A 
ATOM     80  C   UNL     1      11.745  -0.398  -4.954  1.00  0.00     0.032 A 
ATOM     81  C   UNL     1      11.229  -0.010  -2.174  1.00  0.00     0.049 A 
ATOM     82  C   UNL     1      12.736   0.102  -4.098  1.00  0.00     0.003 A 
ATOM     83  C   UNL     1      12.485   0.277  -2.732  1.00  0.00     0.004 A 
ENDBRANCH  69  75
ENDBRANCH  60  62
ENDBRANCH  59  60
ENDBRANCH  58  59
ENDBRANCH  57  58
ENDBRANCH   1  57
TORSDOF 17
