REMARK SMILES Cc1ccccc1-c1c(Cl)ccc2c1C=C(C(=O)OCCOCCOC(=O)c1ccc(-c3c4nc(c(-c5ccccc5)c5ccc([nH]5)c(-c5ccccc5)c5nc(c(-c6ccccc6)c6ccc3[nH]6)C=C5)C=C4)cc1)[C@@H](C(F)(F)F)O2
REMARK SMILES IDX 23 1 22 2 21 3 20 4 19 5 17 6 18 7 16 8 8 9 9 10 14 11 10 12
REMARK SMILES IDX 11 13 13 14 15 15 12 16 81 17 76 18 7 19 1 20 2 21 3 22 4 23
REMARK SMILES IDX 6 24 5 25 77 26 78 27 79 28 80 29 24 30 25 31 26 32 27 33
REMARK SMILES IDX 28 34 29 35 75 36 30 37 74 38 31 39 32 40 33 41 68 42 34 43
REMARK SMILES IDX 73 44 67 45 69 46 35 47 72 48 66 49 65 50 36 52 58 53 43 54
REMARK SMILES IDX 57 55 44 56 47 57 56 58 70 59 45 60 46 61 55 63 71 64 48 65
REMARK SMILES IDX 37 66 38 67 42 68 39 69 41 70 40 71 59 72 60 73 64 74 61 75
REMARK SMILES IDX 63 76 62 77 49 78 50 79 54 80 51 81 53 82 52 83
REMARK H PARENT 69 51 47 62
REMARK Flexibility Score: inf
ROOT
ATOM      1  C   UNL     1       7.471   2.409  -4.874  1.00  0.00     0.202 C 
ENDROOT
BRANCH   1   2
ATOM      2  O   UNL     1       6.918   1.948  -3.654  1.00  0.00    -0.374 OA
BRANCH   2   3
ATOM      3  C   UNL     1       6.627   0.554  -3.590  1.00  0.00     0.202 C 
BRANCH   3   4
ATOM      4  C   UNL     1       5.535   0.402  -2.557  1.00  0.00     0.261 C 
BRANCH   4   5
ATOM      5  O   UNL     1       4.287   0.935  -3.028  1.00  0.00    -0.460 OA
BRANCH   5   6
ATOM      6  C   UNL     1       4.073   2.211  -2.632  1.00  0.00     0.338 C 
ATOM      7  O   UNL     1       4.784   2.888  -1.902  1.00  0.00    -0.246 OA
BRANCH   6   8
ATOM      8  C   UNL     1       2.820   2.761  -3.191  1.00  0.00     0.087 C 
ATOM      9  C   UNL     1       0.447   2.720  -0.397  1.00  0.00     0.012 A 
ATOM     10  C   UNL     1       0.283   3.602   0.707  1.00  0.00     0.049 A 
ATOM     11  C   UNL     1       1.235   3.195  -1.489  1.00  0.00     0.027 A 
ATOM     12  Cl  UNL     1      -0.575   3.145   2.146  1.00  0.00    -0.084 Cl
ATOM     13  C   UNL     1       0.830   4.892   0.716  1.00  0.00     0.025 A 
ATOM     14  C   UNL     1       1.748   4.517  -1.466  1.00  0.00     0.128 A 
ATOM     15  C   UNL     1       1.723   2.300  -2.568  1.00  0.00     0.028 C 
ATOM     16  C   UNL     1       1.550   5.352  -0.373  1.00  0.00     0.049 A 
ATOM     17  O   UNL     1       2.515   5.079  -2.457  1.00  0.00    -0.475 OA
ATOM     18  C   UNL     1       2.945   4.216  -3.523  1.00  0.00     0.316 C 
BRANCH   9  19
ATOM     19  C   UNL     1      -0.256   1.397  -0.411  1.00  0.00    -0.013 A 
ATOM     20  C   UNL     1       1.852  -0.097  -0.332  1.00  0.00     0.045 C 
ATOM     21  C   UNL     1       0.370   0.127  -0.408  1.00  0.00    -0.043 A 
ATOM     22  C   UNL     1      -0.410  -1.048  -0.437  1.00  0.00     0.004 A 
ATOM     23  C   UNL     1      -1.797  -0.995  -0.403  1.00  0.00     0.000 A 
ATOM     24  C   UNL     1      -1.671   1.411  -0.395  1.00  0.00     0.009 A 
ATOM     25  C   UNL     1      -2.429   0.237  -0.364  1.00  0.00     0.001 A 
ENDBRANCH   9  19
BRANCH  18  26
ATOM     26  C   UNL     1       2.198   4.514  -4.826  1.00  0.00     0.430 C 
ATOM     27  F   UNL     1       2.464   5.763  -5.275  1.00  0.00    -0.167 F 
ATOM     28  F   UNL     1       2.578   3.659  -5.811  1.00  0.00    -0.167 F 
ATOM     29  F   UNL     1       0.856   4.404  -4.697  1.00  0.00    -0.167 F 
ENDBRANCH  18  26
ENDBRANCH   6   8
ENDBRANCH   5   6
ENDBRANCH   4   5
ENDBRANCH   3   4
ENDBRANCH   2   3
ENDBRANCH   1   2
BRANCH   1  30
ATOM     30  C   UNL     1       8.806   1.747  -5.240  1.00  0.00     0.261 C 
BRANCH  30  31
ATOM     31  O   UNL     1       9.816   2.112  -4.279  1.00  0.00    -0.460 OA
BRANCH  31  32
ATOM     32  C   UNL     1      10.140   1.147  -3.380  1.00  0.00     0.338 C 
ATOM     33  O   UNL     1      10.434  -0.011  -3.655  1.00  0.00    -0.246 OA
BRANCH  32  34
ATOM     34  C   UNL     1       9.793   1.607  -2.011  1.00  0.00     0.060 A 
ATOM     35  C   UNL     1       9.806   0.690  -0.944  1.00  0.00     0.016 A 
ATOM     36  C   UNL     1       9.124   2.822  -1.882  1.00  0.00     0.016 A 
ATOM     37  C   UNL     1       9.010   0.924   0.181  1.00  0.00     0.010 A 
ATOM     38  C   UNL     1       8.239   2.976  -0.843  1.00  0.00     0.010 A 
ATOM     39  C   UNL     1       8.164   2.027   0.183  1.00  0.00    -0.014 A 
BRANCH  39  40
ATOM     40  C   UNL     1       7.115   2.301   1.156  1.00  0.00     0.031 A 
ATOM     41  C   UNL     1       7.195   3.535   1.968  1.00  0.00     0.074 A 
ATOM     42  C   UNL     1       5.961   1.599   1.116  1.00  0.00     0.049 A 
ATOM     43  N   UNL     1       6.416   3.797   2.956  1.00  0.00    -0.248 NA
ATOM     44  C   UNL     1       8.187   4.584   1.748  1.00  0.00     0.031 C 
ATOM     45  C   UNL     1       4.665   1.989   1.650  1.00  0.00     0.029 A 
ATOM     46  N   UNL     1       5.774   0.280   0.724  1.00  0.00    -0.354 N 
ATOM     47  C   UNL     1       6.526   5.140   3.225  1.00  0.00     0.074 A 
ATOM     48  C   UNL     1       7.720   5.558   2.534  1.00  0.00     0.031 C 
ATOM     49  C   UNL     1       3.928   0.890   1.857  1.00  0.00     0.029 A 
ATOM     50  C   UNL     1       4.742  -0.256   1.494  1.00  0.00     0.049 A 
ATOM     51  H   UNL     1       6.281  -0.194   0.026  1.00  0.00     0.167 HD
ATOM     52  C   UNL     1       5.495   5.756   3.868  1.00  0.00     0.031 A 
ATOM     53  C   UNL     1       4.897  -1.418   2.175  1.00  0.00     0.031 A 
ATOM     54  C   UNL     1       4.465   4.782   4.266  1.00  0.00     0.049 A 
ATOM     55  C   UNL     1       4.671  -1.076   3.615  1.00  0.00     0.074 A 
ATOM     56  C   UNL     1       3.188   4.518   3.800  1.00  0.00     0.029 A 
ATOM     57  N   UNL     1       4.823   3.684   5.056  1.00  0.00    -0.354 N 
ATOM     58  N   UNL     1       4.997   0.089   4.120  1.00  0.00    -0.248 NA
ATOM     59  C   UNL     1       3.825  -1.876   4.494  1.00  0.00     0.031 C 
ATOM     60  C   UNL     1       2.824   3.213   4.236  1.00  0.00     0.029 A 
ATOM     61  C   UNL     1       3.866   2.689   4.989  1.00  0.00     0.049 A 
ATOM     62  H   UNL     1       5.648   3.628   5.590  1.00  0.00     0.167 HD
ATOM     63  C   UNL     1       4.235   0.285   5.235  1.00  0.00     0.074 A 
ATOM     64  C   UNL     1       3.594  -1.001   5.487  1.00  0.00     0.031 C 
ATOM     65  C   UNL     1       3.963   1.490   5.811  1.00  0.00     0.031 A 
BRANCH  52  66
ATOM     66  C   UNL     1       5.287   7.260   3.893  1.00  0.00    -0.014 A 
ATOM     67  C   UNL     1       4.022   7.787   4.215  1.00  0.00     0.009 A 
ATOM     68  C   UNL     1       6.270   8.215   3.573  1.00  0.00     0.009 A 
ATOM     69  C   UNL     1       3.745   9.164   4.164  1.00  0.00     0.001 A 
ATOM     70  C   UNL     1       6.000   9.591   3.502  1.00  0.00     0.001 A 
ATOM     71  C   UNL     1       4.733  10.066   3.794  1.00  0.00     0.000 A 
ENDBRANCH  52  66
BRANCH  53  72
ATOM     72  C   UNL     1       5.859  -2.336   1.496  1.00  0.00    -0.014 A 
ATOM     73  C   UNL     1       5.403  -2.915   0.284  1.00  0.00     0.009 A 
ATOM     74  C   UNL     1       7.245  -2.221   1.681  1.00  0.00     0.009 A 
ATOM     75  C   UNL     1       6.285  -3.202  -0.766  1.00  0.00     0.001 A 
ATOM     76  C   UNL     1       8.127  -2.529   0.628  1.00  0.00     0.001 A 
ATOM     77  C   UNL     1       7.646  -2.969  -0.606  1.00  0.00     0.000 A 
ENDBRANCH  53  72
BRANCH  65  78
ATOM     78  C   UNL     1       3.665   1.606   7.275  1.00  0.00    -0.014 A 
ATOM     79  C   UNL     1       4.033   0.613   8.193  1.00  0.00     0.009 A 
ATOM     80  C   UNL     1       3.212   2.836   7.792  1.00  0.00     0.009 A 
ATOM     81  C   UNL     1       3.927   0.828   9.566  1.00  0.00     0.001 A 
ATOM     82  C   UNL     1       3.155   3.072   9.163  1.00  0.00     0.001 A 
ATOM     83  C   UNL     1       3.506   2.062  10.050  1.00  0.00     0.000 A 
ENDBRANCH  65  78
ENDBRANCH  39  40
ENDBRANCH  32  34
ENDBRANCH  31  32
ENDBRANCH  30  31
ENDBRANCH   1  30
TORSDOF 16
