REMARK SMILES Cc1cc(C(=O)N[C@H]2C=C[C@H](C(=O)OCCOCCOC(=O)c3ccc(-c4c5nc(c(-c6ccccc6)c6ccc([nH]6)c(-c6ccccc6)c6nc(c(-c7ccccc7)c7ccc4[nH]7)C=C6)C=C5)cc3)C2)ccc1F
REMARK SMILES IDX 17 1 16 2 15 3 14 4 12 5 13 6 11 7 8 8 9 9 71 10 10 11 7 12
REMARK SMILES IDX 5 13 6 14 4 16 1 17 2 18 3 19 74 20 73 21 75 22 72 23 18 24
REMARK SMILES IDX 19 25 20 26 21 27 22 28 23 29 24 30 70 31 25 32 69 33 26 34
REMARK SMILES IDX 27 35 28 36 63 37 29 38 68 39 62 40 64 41 30 42 67 43 61 44
REMARK SMILES IDX 60 45 31 47 53 48 38 49 52 50 39 51 42 52 51 53 65 54 40 55
REMARK SMILES IDX 41 56 50 58 66 59 43 60 32 61 33 62 37 63 34 64 36 65 35 66
REMARK SMILES IDX 54 67 55 68 59 69 56 70 58 71 57 72 44 73 45 74 49 75 46 76
REMARK SMILES IDX 48 77 47 78
REMARK H PARENT 7 15 64 46 42 57
REMARK Flexibility Score: inf
ROOT
ATOM      1  O   UNL     1       2.757   3.923   2.482  1.00  0.00    -0.374 OA
ENDROOT
BRANCH   1   2
ATOM      2  C   UNL     1       3.174   5.004   1.657  1.00  0.00     0.202 C 
BRANCH   2   3
ATOM      3  C   UNL     1       2.201   5.516   0.590  1.00  0.00     0.261 C 
BRANCH   3   4
ATOM      4  O   UNL     1       0.872   5.723   1.094  1.00  0.00    -0.463 OA
BRANCH   4   5
ATOM      5  C   UNL     1      -0.050   4.871   0.569  1.00  0.00     0.312 C 
ATOM      6  O   UNL     1       0.175   4.110  -0.366  1.00  0.00    -0.252 OA
BRANCH   5   7
ATOM      7  C   UNL     1      -1.378   4.909   1.332  1.00  0.00     0.124 C 
ATOM      8  C   UNL     1      -2.649   3.409  -0.034  1.00  0.00     0.106 C 
ATOM      9  C   UNL     1      -3.228   4.787  -0.117  1.00  0.00    -0.006 C 
ATOM     10  C   UNL     1      -1.962   3.485   1.334  1.00  0.00     0.048 C 
ATOM     11  C   UNL     1      -2.468   5.638   0.594  1.00  0.00    -0.014 C 
BRANCH   8  12
ATOM     12  N   UNL     1      -3.600   2.352  -0.174  1.00  0.00    -0.346 N 
ATOM     13  C   UNL     1      -3.381   1.004  -0.367  1.00  0.00     0.251 C 
ATOM     14  O   UNL     1      -4.372   0.289  -0.530  1.00  0.00    -0.269 OA
ATOM     15  H   UNL     1      -4.545   2.625  -0.126  1.00  0.00     0.164 HD
BRANCH  13  16
ATOM     16  C   UNL     1      -2.027   0.348  -0.315  1.00  0.00     0.040 A 
ATOM     17  C   UNL     1       1.720   1.005  -0.692  1.00  0.00     0.047 C 
ATOM     18  C   UNL     1       0.421   0.282  -0.482  1.00  0.00    -0.015 A 
ATOM     19  C   UNL     1      -0.807   0.945  -0.664  1.00  0.00     0.020 A 
ATOM     20  C   UNL     1       0.411  -1.032  -0.024  1.00  0.00     0.126 A 
ATOM     21  C   UNL     1      -0.787  -1.681   0.246  1.00  0.00     0.040 A 
ATOM     22  F   UNL     1       1.565  -1.689   0.157  1.00  0.00    -0.207 F 
ATOM     23  C   UNL     1      -1.997  -0.991   0.112  1.00  0.00     0.017 A 
ENDBRANCH  13  16
ENDBRANCH   8  12
ENDBRANCH   5   7
ENDBRANCH   4   5
ENDBRANCH   3   4
ENDBRANCH   2   3
ENDBRANCH   1   2
BRANCH   1  24
ATOM     24  C   UNL     1       1.712   4.137   3.429  1.00  0.00     0.202 C 
BRANCH  24  25
ATOM     25  C   UNL     1       1.873   5.239   4.487  1.00  0.00     0.261 C 
BRANCH  25  26
ATOM     26  O   UNL     1       1.972   6.560   3.924  1.00  0.00    -0.460 OA
BRANCH  26  27
ATOM     27  C   UNL     1       3.123   7.215   4.212  1.00  0.00     0.338 C 
ATOM     28  O   UNL     1       4.040   6.827   4.924  1.00  0.00    -0.246 OA
BRANCH  27  29
ATOM     29  C   UNL     1       3.242   8.423   3.381  1.00  0.00     0.060 A 
ATOM     30  C   UNL     1       4.339   8.516   2.514  1.00  0.00     0.016 A 
ATOM     31  C   UNL     1       2.358   9.491   3.529  1.00  0.00     0.016 A 
ATOM     32  C   UNL     1       4.577   9.696   1.814  1.00  0.00     0.010 A 
ATOM     33  C   UNL     1       2.606  10.681   2.836  1.00  0.00     0.010 A 
ATOM     34  C   UNL     1       3.735  10.798   2.004  1.00  0.00    -0.014 A 
BRANCH  34  35
ATOM     35  C   UNL     1       4.123  12.117   1.451  1.00  0.00     0.031 A 
ATOM     36  C   UNL     1       4.797  13.115   2.350  1.00  0.00     0.074 A 
ATOM     37  C   UNL     1       3.905  12.410   0.157  1.00  0.00     0.049 A 
ATOM     38  N   UNL     1       5.205  14.329   2.083  1.00  0.00    -0.248 NA
ATOM     39  C   UNL     1       5.044  12.686   3.737  1.00  0.00     0.031 C 
ATOM     40  C   UNL     1       3.310  11.508  -0.827  1.00  0.00     0.029 A 
ATOM     41  N   UNL     1       4.163  13.558  -0.548  1.00  0.00    -0.354 N 
ATOM     42  C   UNL     1       5.743  14.814   3.269  1.00  0.00     0.074 A 
ATOM     43  C   UNL     1       5.588  13.774   4.262  1.00  0.00     0.031 C 
ATOM     44  C   UNL     1       3.251  12.137  -2.014  1.00  0.00     0.029 A 
ATOM     45  C   UNL     1       3.770  13.495  -1.861  1.00  0.00     0.049 A 
ATOM     46  H   UNL     1       4.590  14.350  -0.150  1.00  0.00     0.167 HD
ATOM     47  C   UNL     1       6.315  16.018   3.509  1.00  0.00     0.031 A 
ATOM     48  C   UNL     1       3.810  14.434  -2.826  1.00  0.00     0.031 A 
ATOM     49  C   UNL     1       6.460  17.056   2.524  1.00  0.00     0.049 A 
ATOM     50  C   UNL     1       4.372  15.793  -2.510  1.00  0.00     0.074 A 
ATOM     51  C   UNL     1       7.052  18.299   2.661  1.00  0.00     0.029 A 
ATOM     52  N   UNL     1       5.997  16.974   1.220  1.00  0.00    -0.354 N 
ATOM     53  N   UNL     1       4.906  16.230  -1.394  1.00  0.00    -0.248 NA
ATOM     54  C   UNL     1       4.340  16.789  -3.591  1.00  0.00     0.031 C 
ATOM     55  C   UNL     1       6.892  18.994   1.458  1.00  0.00     0.029 A 
ATOM     56  C   UNL     1       6.256  18.159   0.552  1.00  0.00     0.049 A 
ATOM     57  H   UNL     1       5.550  16.190   0.827  1.00  0.00     0.167 HD
ATOM     58  C   UNL     1       5.301  17.538  -1.649  1.00  0.00     0.074 A 
ATOM     59  C   UNL     1       4.954  17.819  -3.027  1.00  0.00     0.031 C 
ATOM     60  C   UNL     1       5.902  18.424  -0.818  1.00  0.00     0.031 A 
BRANCH  47  61
ATOM     61  C   UNL     1       6.784  16.291   4.912  1.00  0.00    -0.014 A 
ATOM     62  C   UNL     1       7.910  15.647   5.449  1.00  0.00     0.009 A 
ATOM     63  C   UNL     1       6.095  17.225   5.701  1.00  0.00     0.009 A 
ATOM     64  C   UNL     1       8.312  15.905   6.761  1.00  0.00     0.001 A 
ATOM     65  C   UNL     1       6.516  17.502   7.003  1.00  0.00     0.001 A 
ATOM     66  C   UNL     1       7.617  16.834   7.536  1.00  0.00     0.000 A 
ENDBRANCH  47  61
BRANCH  48  67
ATOM     67  C   UNL     1       3.295  14.128  -4.186  1.00  0.00    -0.014 A 
ATOM     68  C   UNL     1       4.174  14.021  -5.274  1.00  0.00     0.009 A 
ATOM     69  C   UNL     1       1.919  13.958  -4.406  1.00  0.00     0.009 A 
ATOM     70  C   UNL     1       3.684  13.773  -6.558  1.00  0.00     0.001 A 
ATOM     71  C   UNL     1       1.434  13.682  -5.686  1.00  0.00     0.001 A 
ATOM     72  C   UNL     1       2.316  13.599  -6.762  1.00  0.00     0.000 A 
ENDBRANCH  48  67
BRANCH  60  73
ATOM     73  C   UNL     1       6.260  19.769  -1.388  1.00  0.00    -0.014 A 
ATOM     74  C   UNL     1       5.276  20.729  -1.670  1.00  0.00     0.009 A 
ATOM     75  C   UNL     1       7.608  20.093  -1.607  1.00  0.00     0.009 A 
ATOM     76  C   UNL     1       5.634  21.974  -2.192  1.00  0.00     0.001 A 
ATOM     77  C   UNL     1       7.965  21.348  -2.101  1.00  0.00     0.001 A 
ATOM     78  C   UNL     1       6.977  22.284  -2.401  1.00  0.00     0.000 A 
ENDBRANCH  60  73
ENDBRANCH  34  35
ENDBRANCH  27  29
ENDBRANCH  26  27
ENDBRANCH  25  26
ENDBRANCH  24  25
ENDBRANCH   1  24
TORSDOF 16
