REMARK SMILES O=C(C[C@H]1CC[C@@H](C(=O)OCCOCCOC(=O)c2ccc(-c3c4nc(c(-c5ccccc5)c5ccc([nH]5)c(-c5ccccc5)c5nc(c(-c6ccccc6)c6ccc3[nH]6)C=C5)C=C4)cc2)C1)c1ccc(Cl)cc1
REMARK SMILES IDX 12 1 11 2 10 3 8 4 9 5 7 6 4 7 5 8 67 9 6 10 3 11 2 12 1 13
REMARK SMILES IDX 68 14 69 15 74 16 70 17 73 18 71 19 72 20 13 21 14 22 15 23
REMARK SMILES IDX 16 24 17 25 18 26 19 27 20 28 66 29 21 30 65 31 22 32 23 33
REMARK SMILES IDX 24 34 59 35 25 36 64 37 58 38 60 39 26 40 63 41 57 42 56 43
REMARK SMILES IDX 27 45 49 46 34 47 48 48 35 49 38 50 47 51 61 52 36 53 37 54
REMARK SMILES IDX 46 56 62 57 39 58 28 59 29 60 33 61 30 62 32 63 31 64 50 65
REMARK SMILES IDX 51 66 55 67 52 68 54 69 53 70 40 71 41 72 45 73 42 74 44 75
REMARK SMILES IDX 43 76
REMARK H PARENT 60 44 38 55
REMARK Flexibility Score: inf
ROOT
ATOM      1  C   UNL     1       4.295  -3.451   6.193  1.00  0.00     0.202 C 
ENDROOT
BRANCH   1   2
ATOM      2  C   UNL     1       3.918  -2.038   5.735  1.00  0.00     0.261 C 
BRANCH   2   3
ATOM      3  O   UNL     1       4.226  -1.833   4.349  1.00  0.00    -0.463 OA
BRANCH   3   4
ATOM      4  C   UNL     1       5.189  -0.904   4.086  1.00  0.00     0.309 C 
ATOM      5  O   UNL     1       5.750  -0.209   4.920  1.00  0.00    -0.252 OA
BRANCH   4   6
ATOM      6  C   UNL     1       5.566  -0.940   2.610  1.00  0.00     0.099 C 
ATOM      7  C   UNL     1       3.969   0.503   1.507  1.00  0.00    -0.003 C 
ATOM      8  C   UNL     1       5.323   1.240   1.516  1.00  0.00     0.005 C 
ATOM      9  C   UNL     1       4.370  -0.963   1.671  1.00  0.00     0.019 C 
ATOM     10  C   UNL     1       6.340   0.302   2.171  1.00  0.00     0.015 C 
BRANCH   7  11
ATOM     11  C   UNL     1       3.018   1.085   2.567  1.00  0.00     0.084 C 
BRANCH  11  12
ATOM     12  C   UNL     1       1.944   0.231   3.230  1.00  0.00     0.163 C 
ATOM     13  O   UNL     1       1.782   0.317   4.451  1.00  0.00    -0.294 OA
BRANCH  12  14
ATOM     14  C   UNL     1       1.026  -0.675   2.471  1.00  0.00     0.018 A 
ATOM     15  C   UNL     1       1.013  -0.798   1.079  1.00  0.00     0.013 A 
ATOM     16  C   UNL     1       0.144  -1.469   3.223  1.00  0.00     0.013 A 
ATOM     17  C   UNL     1       0.198  -1.752   0.455  1.00  0.00     0.021 A 
ATOM     18  C   UNL     1      -0.694  -2.392   2.595  1.00  0.00     0.021 A 
ATOM     19  C   UNL     1      -0.649  -2.550   1.217  1.00  0.00     0.041 A 
ATOM     20  Cl  UNL     1      -1.642  -3.731   0.461  1.00  0.00    -0.084 Cl
ENDBRANCH  12  14
ENDBRANCH  11  12
ENDBRANCH   7  11
ENDBRANCH   4   6
ENDBRANCH   3   4
ENDBRANCH   2   3
ENDBRANCH   1   2
BRANCH   1  21
ATOM     21  O   UNL     1       5.657  -3.845   6.035  1.00  0.00    -0.374 OA
BRANCH  21  22
ATOM     22  C   UNL     1       6.106  -4.176   4.722  1.00  0.00     0.202 C 
BRANCH  22  23
ATOM     23  C   UNL     1       5.668  -5.528   4.147  1.00  0.00     0.261 C 
BRANCH  23  24
ATOM     24  O   UNL     1       4.244  -5.629   3.974  1.00  0.00    -0.460 OA
BRANCH  24  25
ATOM     25  C   UNL     1       3.641  -6.514   4.799  1.00  0.00     0.338 C 
ATOM     26  O   UNL     1       4.178  -7.253   5.618  1.00  0.00    -0.246 OA
BRANCH  25  27
ATOM     27  C   UNL     1       2.177  -6.404   4.703  1.00  0.00     0.060 A 
ATOM     28  C   UNL     1       1.464  -6.167   5.886  1.00  0.00     0.016 A 
ATOM     29  C   UNL     1       1.506  -6.663   3.508  1.00  0.00     0.016 A 
ATOM     30  C   UNL     1       0.073  -6.251   5.893  1.00  0.00     0.010 A 
ATOM     31  C   UNL     1       0.110  -6.753   3.518  1.00  0.00     0.010 A 
ATOM     32  C   UNL     1      -0.608  -6.590   4.719  1.00  0.00    -0.014 A 
BRANCH  32  33
ATOM     33  C   UNL     1      -2.051  -6.928   4.761  1.00  0.00     0.031 A 
ATOM     34  C   UNL     1      -2.464  -8.372   4.763  1.00  0.00     0.074 A 
ATOM     35  C   UNL     1      -2.989  -5.965   4.783  1.00  0.00     0.049 A 
ATOM     36  N   UNL     1      -3.663  -8.888   4.690  1.00  0.00    -0.248 NA
ATOM     37  C   UNL     1      -1.383  -9.364   4.884  1.00  0.00     0.031 C 
ATOM     38  C   UNL     1      -2.725  -4.535   4.891  1.00  0.00     0.029 A 
ATOM     39  N   UNL     1      -4.354  -6.049   4.675  1.00  0.00    -0.354 N 
ATOM     40  C   UNL     1      -3.485 -10.263   4.772  1.00  0.00     0.074 A 
ATOM     41  C   UNL     1      -2.061 -10.503   4.857  1.00  0.00     0.031 C 
ATOM     42  C   UNL     1      -3.881  -3.864   4.743  1.00  0.00     0.029 A 
ATOM     43  C   UNL     1      -4.962  -4.825   4.543  1.00  0.00     0.049 A 
ATOM     44  H   UNL     1      -4.847  -6.901   4.691  1.00  0.00     0.167 HD
ATOM     45  C   UNL     1      -4.426 -11.236   4.793  1.00  0.00     0.031 A 
ATOM     46  C   UNL     1      -6.242  -4.515   4.263  1.00  0.00     0.031 A 
ATOM     47  C   UNL     1      -5.840 -10.997   4.687  1.00  0.00     0.049 A 
ATOM     48  C   UNL     1      -7.254  -5.617   4.134  1.00  0.00     0.074 A 
ATOM     49  C   UNL     1      -6.875 -11.915   4.723  1.00  0.00     0.029 A 
ATOM     50  N   UNL     1      -6.415  -9.749   4.510  1.00  0.00    -0.354 N 
ATOM     51  N   UNL     1      -7.081  -6.911   4.249  1.00  0.00    -0.248 NA
ATOM     52  C   UNL     1      -8.643  -5.216   3.866  1.00  0.00     0.031 C 
ATOM     53  C   UNL     1      -8.074 -11.226   4.512  1.00  0.00     0.029 A 
ATOM     54  C   UNL     1      -7.789  -9.875   4.399  1.00  0.00     0.049 A 
ATOM     55  H   UNL     1      -5.920  -8.899   4.469  1.00  0.00     0.167 HD
ATOM     56  C   UNL     1      -8.343  -7.475   4.119  1.00  0.00     0.074 A 
ATOM     57  C   UNL     1      -9.271  -6.384   3.904  1.00  0.00     0.031 C 
ATOM     58  C   UNL     1      -8.701  -8.780   4.192  1.00  0.00     0.031 A 
BRANCH  45  59
ATOM     59  C   UNL     1      -3.946 -12.653   4.914  1.00  0.00    -0.014 A 
ATOM     60  C   UNL     1      -3.439 -13.146   6.127  1.00  0.00     0.009 A 
ATOM     61  C   UNL     1      -4.031 -13.515   3.810  1.00  0.00     0.009 A 
ATOM     62  C   UNL     1      -2.997 -14.467   6.222  1.00  0.00     0.001 A 
ATOM     63  C   UNL     1      -3.611 -14.842   3.915  1.00  0.00     0.001 A 
ATOM     64  C   UNL     1      -3.087 -15.314   5.118  1.00  0.00     0.000 A 
ENDBRANCH  45  59
BRANCH  46  65
ATOM     65  C   UNL     1      -6.633  -3.096   4.072  1.00  0.00    -0.014 A 
ATOM     66  C   UNL     1      -7.390  -2.424   5.042  1.00  0.00     0.009 A 
ATOM     67  C   UNL     1      -6.253  -2.409   2.907  1.00  0.00     0.009 A 
ATOM     68  C   UNL     1      -7.779  -1.097   4.839  1.00  0.00     0.001 A 
ATOM     69  C   UNL     1      -6.625  -1.077   2.717  1.00  0.00     0.001 A 
ATOM     70  C   UNL     1      -7.394  -0.425   3.679  1.00  0.00     0.000 A 
ENDBRANCH  46  65
BRANCH  58  71
ATOM     71  C   UNL     1     -10.164  -9.101   4.092  1.00  0.00    -0.014 A 
ATOM     72  C   UNL     1     -10.840  -9.055   2.864  1.00  0.00     0.009 A 
ATOM     73  C   UNL     1     -10.860  -9.512   5.240  1.00  0.00     0.009 A 
ATOM     74  C   UNL     1     -12.193  -9.395   2.793  1.00  0.00     0.001 A 
ATOM     75  C   UNL     1     -12.205  -9.875   5.161  1.00  0.00     0.001 A 
ATOM     76  C   UNL     1     -12.871  -9.810   3.939  1.00  0.00     0.000 A 
ENDBRANCH  58  71
ENDBRANCH  32  33
ENDBRANCH  25  27
ENDBRANCH  24  25
ENDBRANCH  23  24
ENDBRANCH  22  23
ENDBRANCH  21  22
ENDBRANCH   1  21
TORSDOF 17
