REMARK SMILES O=C(OCCOCCOC(=O)[C@H](c1c[nH]c2ccc(Cl)cc12)[NH+]1CCN(c2cccc(Cl)c2)CC1)c1ccc(-c2c3nc(c(-c4ccccc4)c4ccc([nH]4)c(-c4ccccc4)c4nc(c(-c5ccccc5)c5ccc2[nH]5)C=C4)C=C3)cc1
REMARK SMILES IDX 6 1 5 2 4 3 3 4 2 5 1 6 36 7 37 8 83 9 38 10 82 11 39 12
REMARK SMILES IDX 40 13 41 14 76 15 42 16 81 17 75 18 77 19 43 20 80 21 74 22
REMARK SMILES IDX 73 23 44 25 66 26 51 27 65 28 52 29 55 30 64 31 78 32 53 33
REMARK SMILES IDX 54 34 63 36 79 37 56 38 45 39 46 40 50 41 47 42 49 43 48 44
REMARK SMILES IDX 67 45 68 46 72 47 69 48 71 49 70 50 57 51 58 52 62 53 59 54
REMARK SMILES IDX 61 55 60 56 7 57 8 58 9 59 10 60 11 61 12 62 23 63 24 64
REMARK SMILES IDX 35 65 25 67 34 68 26 69 27 70 28 71 33 72 29 73 31 74 30 75
REMARK SMILES IDX 32 76 13 77 14 78 22 79 15 80 16 81 21 82 17 84 19 85 18 86
REMARK SMILES IDX 20 87
REMARK H PARENT 77 24 55 35 23 66 15 83
REMARK Flexibility Score: inf
ROOT
ATOM      1  O   UNL     1       4.885  -3.403  -0.924  1.00  0.00    -0.374 OA
ENDROOT
BRANCH   1   2
ATOM      2  C   UNL     1       5.549  -2.156  -0.738  1.00  0.00     0.202 C 
BRANCH   2   3
ATOM      3  C   UNL     1       5.961  -1.946   0.718  1.00  0.00     0.261 C 
BRANCH   3   4
ATOM      4  O   UNL     1       6.739  -3.054   1.189  1.00  0.00    -0.460 OA
BRANCH   4   5
ATOM      5  C   UNL     1       6.245  -4.282   1.481  1.00  0.00     0.338 C 
ATOM      6  O   UNL     1       6.992  -5.257   1.423  1.00  0.00    -0.246 OA
BRANCH   5   7
ATOM      7  C   UNL     1       4.858  -4.492   2.000  1.00  0.00     0.060 A 
ATOM      8  C   UNL     1       3.701  -3.861   1.529  1.00  0.00     0.016 A 
ATOM      9  C   UNL     1       4.718  -5.475   2.993  1.00  0.00     0.016 A 
ATOM     10  C   UNL     1       2.451  -4.167   2.028  1.00  0.00     0.010 A 
ATOM     11  C   UNL     1       3.462  -5.784   3.517  1.00  0.00     0.010 A 
ATOM     12  C   UNL     1       2.334  -5.107   3.042  1.00  0.00    -0.014 A 
BRANCH  12  13
ATOM     13  C   UNL     1       1.040  -5.157   3.729  1.00  0.00     0.031 A 
ATOM     14  C   UNL     1       0.915  -4.372   4.995  1.00  0.00     0.074 A 
ATOM     15  C   UNL     1      -0.015  -5.717   3.117  1.00  0.00     0.049 A 
ATOM     16  N   UNL     1      -0.105  -4.248   5.796  1.00  0.00    -0.248 NA
ATOM     17  C   UNL     1       2.103  -3.599   5.406  1.00  0.00     0.031 C 
ATOM     18  C   UNL     1       0.006  -6.329   1.784  1.00  0.00     0.029 A 
ATOM     19  N   UNL     1      -1.318  -5.814   3.511  1.00  0.00    -0.354 N 
ATOM     20  C   UNL     1       0.334  -3.429   6.828  1.00  0.00     0.074 A 
ATOM     21  C   UNL     1       1.705  -3.074   6.551  1.00  0.00     0.031 C 
ATOM     22  C   UNL     1      -1.240  -6.714   1.463  1.00  0.00     0.029 A 
ATOM     23  C   UNL     1      -2.121  -6.443   2.592  1.00  0.00     0.049 A 
ATOM     24  H   UNL     1      -1.650  -5.467   4.371  1.00  0.00     0.167 HD
ATOM     25  C   UNL     1      -0.355  -3.032   7.921  1.00  0.00     0.031 A 
ATOM     26  C   UNL     1      -3.418  -6.783   2.688  1.00  0.00     0.031 A 
ATOM     27  C   UNL     1      -1.717  -3.420   8.157  1.00  0.00     0.049 A 
ATOM     28  C   UNL     1      -4.129  -6.430   3.966  1.00  0.00     0.074 A 
ATOM     29  C   UNL     1      -2.518  -3.162   9.251  1.00  0.00     0.029 A 
ATOM     30  N   UNL     1      -2.478  -4.160   7.259  1.00  0.00    -0.354 N 
ATOM     31  N   UNL     1      -3.688  -5.744   4.996  1.00  0.00    -0.248 NA
ATOM     32  C   UNL     1      -5.509  -6.907   4.104  1.00  0.00     0.031 C 
ATOM     33  C   UNL     1      -3.748  -3.796   9.037  1.00  0.00     0.029 A 
ATOM     34  C   UNL     1      -3.737  -4.386   7.780  1.00  0.00     0.049 A 
ATOM     35  H   UNL     1      -2.166  -4.476   6.380  1.00  0.00     0.167 HD
ATOM     36  C   UNL     1      -4.744  -5.680   5.893  1.00  0.00     0.074 A 
ATOM     37  C   UNL     1      -5.850  -6.388   5.274  1.00  0.00     0.031 C 
ATOM     38  C   UNL     1      -4.803  -5.093   7.115  1.00  0.00     0.031 A 
BRANCH  25  39
ATOM     39  C   UNL     1       0.409  -2.259   8.958  1.00  0.00    -0.014 A 
ATOM     40  C   UNL     1       0.850  -0.944   8.738  1.00  0.00     0.009 A 
ATOM     41  C   UNL     1       0.761  -2.899  10.157  1.00  0.00     0.009 A 
ATOM     42  C   UNL     1       1.672  -0.308   9.674  1.00  0.00     0.001 A 
ATOM     43  C   UNL     1       1.555  -2.250  11.104  1.00  0.00     0.001 A 
ATOM     44  C   UNL     1       2.023  -0.962  10.855  1.00  0.00     0.000 A 
ENDBRANCH  25  39
BRANCH  26  45
ATOM     45  C   UNL     1      -4.092  -7.530   1.593  1.00  0.00    -0.014 A 
ATOM     46  C   UNL     1      -5.160  -6.964   0.882  1.00  0.00     0.009 A 
ATOM     47  C   UNL     1      -3.675  -8.829   1.257  1.00  0.00     0.009 A 
ATOM     48  C   UNL     1      -5.811  -7.690  -0.120  1.00  0.00     0.001 A 
ATOM     49  C   UNL     1      -4.305  -9.541   0.234  1.00  0.00     0.001 A 
ATOM     50  C   UNL     1      -5.380  -8.975  -0.446  1.00  0.00     0.000 A 
ENDBRANCH  26  45
BRANCH  38  51
ATOM     51  C   UNL     1      -6.127  -5.145   7.819  1.00  0.00    -0.014 A 
ATOM     52  C   UNL     1      -6.619  -6.336   8.373  1.00  0.00     0.009 A 
ATOM     53  C   UNL     1      -6.869  -3.962   7.963  1.00  0.00     0.009 A 
ATOM     54  C   UNL     1      -7.852  -6.347   9.025  1.00  0.00     0.001 A 
ATOM     55  C   UNL     1      -8.083  -3.970   8.647  1.00  0.00     0.001 A 
ATOM     56  C   UNL     1      -8.579  -5.165   9.166  1.00  0.00     0.000 A 
ENDBRANCH  38  51
ENDBRANCH  12  13
ENDBRANCH   5   7
ENDBRANCH   4   5
ENDBRANCH   3   4
ENDBRANCH   2   3
ENDBRANCH   1   2
BRANCH   1  57
ATOM     57  C   UNL     1       5.581  -4.428  -1.624  1.00  0.00     0.202 C 
BRANCH  57  58
ATOM     58  C   UNL     1       4.907  -4.632  -2.973  1.00  0.00     0.261 C 
BRANCH  58  59
ATOM     59  O   UNL     1       5.009  -3.408  -3.710  1.00  0.00    -0.459 OA
BRANCH  59  60
ATOM     60  C   UNL     1       4.037  -2.472  -3.451  1.00  0.00     0.370 C 
ATOM     61  O   UNL     1       2.995  -2.686  -2.836  1.00  0.00    -0.245 OA
BRANCH  60  62
ATOM     62  C   UNL     1       4.447  -1.146  -4.105  1.00  0.00     0.328 C 
BRANCH  62  63
ATOM     63  N   UNL     1       3.957  -1.008  -5.512  1.00  0.00    -0.316 N 
ATOM     64  C   UNL     1       3.583  -2.284  -6.194  1.00  0.00     0.284 C 
ATOM     65  C   UNL     1       2.879  -0.039  -5.758  1.00  0.00     0.284 C 
ATOM     66  H   UNL     1       4.811  -0.634  -5.926  1.00  0.00     0.349 HD
ATOM     67  C   UNL     1       2.149  -2.849  -5.917  1.00  0.00     0.178 C 
ATOM     68  C   UNL     1       1.478  -0.520  -5.354  1.00  0.00     0.178 C 
ATOM     69  N   UNL     1       1.145  -1.784  -6.023  1.00  0.00    -0.360 N 
BRANCH  69  70
ATOM     70  C   UNL     1      -0.211  -2.087  -5.910  1.00  0.00     0.038 A 
ATOM     71  C   UNL     1      -1.083  -1.509  -6.844  1.00  0.00     0.026 A 
ATOM     72  C   UNL     1      -0.758  -2.818  -4.849  1.00  0.00     0.046 A 
ATOM     73  C   UNL     1      -2.464  -1.652  -6.736  1.00  0.00     0.004 A 
ATOM     74  C   UNL     1      -2.145  -2.957  -4.737  1.00  0.00     0.043 A 
ATOM     75  C   UNL     1      -2.999  -2.378  -5.676  1.00  0.00     0.020 A 
ATOM     76  Cl  UNL     1      -2.819  -3.819  -3.407  1.00  0.00    -0.084 Cl
ENDBRANCH  69  70
ENDBRANCH  62  63
BRANCH  62  77
ATOM     77  C   UNL     1       4.178   0.053  -3.183  1.00  0.00     0.046 A 
ATOM     78  C   UNL     1       2.991   0.361  -2.531  1.00  0.00     0.094 A 
ATOM     79  C   UNL     1       5.132   1.018  -2.675  1.00  0.00     0.011 A 
ATOM     80  N   UNL     1       3.113   1.567  -1.906  1.00  0.00    -0.361 N 
ATOM     81  C   UNL     1       4.424   1.963  -1.923  1.00  0.00     0.046 A 
ATOM     82  C   UNL     1       6.535   1.165  -2.747  1.00  0.00     0.031 A 
ATOM     83  H   UNL     1       2.372   2.075  -1.504  1.00  0.00     0.166 HD
ATOM     84  C   UNL     1       5.016   3.070  -1.306  1.00  0.00     0.028 A 
ATOM     85  C   UNL     1       7.149   2.233  -2.073  1.00  0.00     0.041 A 
ATOM     86  C   UNL     1       6.402   3.183  -1.382  1.00  0.00     0.022 A 
ATOM     87  Cl  UNL     1       8.867   2.357  -2.070  1.00  0.00    -0.084 Cl
ENDBRANCH  62  77
ENDBRANCH  60  62
ENDBRANCH  59  60
ENDBRANCH  58  59
ENDBRANCH  57  58
ENDBRANCH   1  57
TORSDOF 17
