REMARK SMILES Cc1ccc(S(=O)(=O)n2cc(C(=O)C(=O)N[C@@H](Cc3c[nH]c4ccccc34)C(=O)OCCOCCOC(=O)c3ccc(-c4c5nc(c(-c6ccccc6)c6ccc([nH]6)c(-c6ccccc6)c6nc(c(-c7ccccc7)c7ccc4[nH]7)C=C6)C=C5)cc3)c3ccccc32)cc1
REMARK SMILES IDX 31 1 30 2 28 3 29 4 17 5 16 6 14 7 15 8 12 10 13 11 11 12
REMARK SMILES IDX 9 13 10 14 92 15 87 16 91 17 88 18 90 19 89 20 6 21 7 22
REMARK SMILES IDX 8 23 5 24 1 25 2 26 3 27 94 28 4 29 93 30 18 31 19 32 20 33
REMARK SMILES IDX 27 34 21 35 22 36 26 37 23 39 25 40 24 41 32 42 33 43 34 44
REMARK SMILES IDX 35 45 36 46 37 47 38 48 39 49 40 50 86 51 41 52 85 53 42 54
REMARK SMILES IDX 43 55 44 56 79 57 45 58 84 59 78 60 80 61 46 62 83 63 77 64
REMARK SMILES IDX 76 65 47 67 69 68 54 69 68 70 55 71 58 72 67 73 81 74 56 75
REMARK SMILES IDX 57 76 66 78 82 79 59 80 48 81 49 82 53 83 50 84 52 85 51 86
REMARK SMILES IDX 70 87 71 88 75 89 72 90 74 91 73 92 60 93 61 94 65 95 62 96
REMARK SMILES IDX 64 97 63 98
REMARK H PARENT 16 9 21 38 80 66 58 77
REMARK Flexibility Score: inf
ROOT
ATOM      1  C   UNL     1     -11.563   3.056  -2.066  1.00  0.00     0.261 C 
ENDROOT
BRANCH   1   2
ATOM      2  O   UNL     1     -11.095   2.900  -0.732  1.00  0.00    -0.462 OA
BRANCH   2   3
ATOM      3  C   UNL     1     -11.000   1.623  -0.237  1.00  0.00     0.329 C 
ATOM      4  O   UNL     1     -11.751   0.708  -0.470  1.00  0.00    -0.250 OA
BRANCH   3   5
ATOM      5  C   UNL     1      -9.843   1.599   0.774  1.00  0.00     0.197 C 
BRANCH   5   6
ATOM      6  N   UNL     1      -8.858   2.632   0.369  1.00  0.00    -0.335 N 
ATOM      7  C   UNL     1      -7.737   2.520  -0.416  1.00  0.00     0.293 C 
ATOM      8  O   UNL     1      -7.088   3.496  -0.768  1.00  0.00    -0.265 OA
ATOM      9  H   UNL     1      -9.035   3.536   0.717  1.00  0.00     0.164 HD
BRANCH   7  10
ATOM     10  C   UNL     1      -7.352   1.145  -0.912  1.00  0.00     0.252 C 
ATOM     11  O   UNL     1      -8.147   0.622  -1.691  1.00  0.00    -0.283 OA
BRANCH  10  12
ATOM     12  C   UNL     1      -6.230   0.410  -0.351  1.00  0.00     0.054 A 
ATOM     13  N   UNL     1      -4.342  -0.293   0.644  1.00  0.00    -0.240 N 
ATOM     14  C   UNL     1      -4.981   0.827   0.118  1.00  0.00     0.117 A 
ATOM     15  C   UNL     1      -5.311  -1.310   0.748  1.00  0.00     0.065 A 
ATOM     16  C   UNL     1      -6.251  -1.005  -0.228  1.00  0.00     0.012 A 
ATOM     17  C   UNL     1      -5.244  -2.591   1.324  1.00  0.00     0.028 A 
ATOM     18  C   UNL     1      -7.015  -2.044  -0.794  1.00  0.00     0.011 A 
ATOM     19  C   UNL     1      -5.944  -3.618   0.690  1.00  0.00     0.002 A 
ATOM     20  C   UNL     1      -6.785  -3.357  -0.385  1.00  0.00     0.001 A 
BRANCH  13  21
ATOM     21  S   UNL     1      -2.838  -0.972   0.088  1.00  0.00     0.268 S 
ATOM     22  O   UNL     1      -3.143  -1.383  -1.272  1.00  0.00    -0.201 OA
ATOM     23  O   UNL     1      -2.559  -1.951   1.133  1.00  0.00    -0.201 OA
BRANCH  21  24
ATOM     24  C   UNL     1      -1.291  -0.163  -0.028  1.00  0.00     0.088 A 
ATOM     25  C   UNL     1       2.923   0.743  -0.040  1.00  0.00     0.044 C 
ATOM     26  C   UNL     1       1.446   0.484  -0.100  1.00  0.00    -0.051 A 
ATOM     27  C   UNL     1       1.052  -0.826  -0.323  1.00  0.00     0.005 A 
ATOM     28  C   UNL     1       0.458   1.473   0.117  1.00  0.00     0.005 A 
ATOM     29  C   UNL     1      -0.292  -1.131  -0.303  1.00  0.00     0.022 A 
ATOM     30  C   UNL     1      -0.926   1.157   0.160  1.00  0.00     0.022 A 
ENDBRANCH  21  24
ENDBRANCH  13  21
ENDBRANCH  10  12
ENDBRANCH   7  10
ENDBRANCH   5   6
BRANCH   5  31
ATOM     31  C   UNL     1     -10.386   1.865   2.199  1.00  0.00     0.074 C 
BRANCH  31  32
ATOM     32  C   UNL     1     -11.227   3.113   2.315  1.00  0.00    -0.020 A 
ATOM     33  C   UNL     1     -12.603   3.139   2.425  1.00  0.00     0.087 A 
ATOM     34  C   UNL     1     -10.800   4.481   2.222  1.00  0.00     0.003 A 
ATOM     35  N   UNL     1     -13.024   4.434   2.300  1.00  0.00    -0.361 N 
ATOM     36  C   UNL     1     -11.947   5.269   2.124  1.00  0.00     0.046 A 
ATOM     37  C   UNL     1      -9.545   5.120   2.124  1.00  0.00     0.010 A 
ATOM     38  H   UNL     1     -13.964   4.726   2.331  1.00  0.00     0.166 HD
ATOM     39  C   UNL     1     -11.899   6.646   1.874  1.00  0.00     0.026 A 
ATOM     40  C   UNL     1      -9.480   6.484   1.824  1.00  0.00     0.001 A 
ATOM     41  C   UNL     1     -10.643   7.233   1.693  1.00  0.00     0.002 A 
ENDBRANCH  31  32
ENDBRANCH   5  31
ENDBRANCH   3   5
ENDBRANCH   2   3
ENDBRANCH   1   2
BRANCH   1  42
ATOM     42  C   UNL     1     -10.395   3.353  -2.957  1.00  0.00     0.202 C 
BRANCH  42  43
ATOM     43  O   UNL     1      -9.936   2.110  -3.464  1.00  0.00    -0.374 OA
BRANCH  43  44
ATOM     44  C   UNL     1      -8.752   2.199  -4.245  1.00  0.00     0.202 C 
BRANCH  44  45
ATOM     45  C   UNL     1      -8.854   3.174  -5.427  1.00  0.00     0.261 C 
BRANCH  45  46
ATOM     46  O   UNL     1      -9.886   2.729  -6.329  1.00  0.00    -0.460 OA
BRANCH  46  47
ATOM     47  C   UNL     1     -10.993   3.515  -6.392  1.00  0.00     0.338 C 
ATOM     48  O   UNL     1     -10.998   4.729  -6.515  1.00  0.00    -0.246 OA
BRANCH  47  49
ATOM     49  C   UNL     1     -12.186   2.723  -5.977  1.00  0.00     0.060 A 
ATOM     50  C   UNL     1     -13.402   3.384  -5.726  1.00  0.00     0.016 A 
ATOM     51  C   UNL     1     -11.993   1.423  -5.514  1.00  0.00     0.016 A 
ATOM     52  C   UNL     1     -14.344   2.810  -4.864  1.00  0.00     0.010 A 
ATOM     53  C   UNL     1     -12.873   0.914  -4.587  1.00  0.00     0.010 A 
ATOM     54  C   UNL     1     -14.026   1.623  -4.217  1.00  0.00    -0.014 A 
BRANCH  54  55
ATOM     55  C   UNL     1     -14.762   1.023  -3.104  1.00  0.00     0.031 A 
ATOM     56  C   UNL     1     -15.322  -0.329  -3.317  1.00  0.00     0.074 A 
ATOM     57  C   UNL     1     -14.674   1.533  -1.849  1.00  0.00     0.049 A 
ATOM     58  N   UNL     1     -15.983  -0.972  -2.426  1.00  0.00    -0.248 NA
ATOM     59  C   UNL     1     -15.188  -1.088  -4.562  1.00  0.00     0.031 C 
ATOM     60  C   UNL     1     -14.943   0.876  -0.570  1.00  0.00     0.029 A 
ATOM     61  N   UNL     1     -14.388   2.842  -1.445  1.00  0.00    -0.354 N 
ATOM     62  C   UNL     1     -16.026  -2.288  -2.804  1.00  0.00     0.074 A 
ATOM     63  C   UNL     1     -15.629  -2.293  -4.187  1.00  0.00     0.031 C 
ATOM     64  C   UNL     1     -15.194   1.808   0.365  1.00  0.00     0.029 A 
ATOM     65  C   UNL     1     -15.171   3.093  -0.311  1.00  0.00     0.049 A 
ATOM     66  H   UNL     1     -13.759   3.466  -1.875  1.00  0.00     0.167 HD
ATOM     67  C   UNL     1     -16.272  -3.212  -1.836  1.00  0.00     0.031 A 
ATOM     68  C   UNL     1     -16.136   4.046  -0.328  1.00  0.00     0.031 A 
ATOM     69  C   UNL     1     -16.732  -2.553  -0.599  1.00  0.00     0.049 A 
ATOM     70  C   UNL     1     -17.427   3.331  -0.063  1.00  0.00     0.074 A 
ATOM     71  C   UNL     1     -16.195  -2.380   0.665  1.00  0.00     0.029 A 
ATOM     72  N   UNL     1     -17.792  -1.639  -0.692  1.00  0.00    -0.354 N 
ATOM     73  N   UNL     1     -17.660   2.106  -0.474  1.00  0.00    -0.248 NA
ATOM     74  C   UNL     1     -18.381   3.800   0.936  1.00  0.00     0.031 C 
ATOM     75  C   UNL     1     -16.863  -1.263   1.269  1.00  0.00     0.029 A 
ATOM     76  C   UNL     1     -17.823  -0.776   0.388  1.00  0.00     0.049 A 
ATOM     77  H   UNL     1     -18.436  -1.615  -1.437  1.00  0.00     0.167 HD
ATOM     78  C   UNL     1     -18.610   1.560   0.345  1.00  0.00     0.074 A 
ATOM     79  C   UNL     1     -19.081   2.676   1.160  1.00  0.00     0.031 C 
ATOM     80  C   UNL     1     -18.878   0.231   0.505  1.00  0.00     0.031 A 
BRANCH  67  81
ATOM     81  C   UNL     1     -15.940  -4.683  -1.972  1.00  0.00    -0.014 A 
ATOM     82  C   UNL     1     -16.201  -5.564  -0.909  1.00  0.00     0.009 A 
ATOM     83  C   UNL     1     -15.296  -5.256  -3.089  1.00  0.00     0.009 A 
ATOM     84  C   UNL     1     -15.869  -6.930  -0.974  1.00  0.00     0.001 A 
ATOM     85  C   UNL     1     -14.990  -6.622  -3.176  1.00  0.00     0.001 A 
ATOM     86  C   UNL     1     -15.278  -7.463  -2.115  1.00  0.00     0.000 A 
ENDBRANCH  67  81
BRANCH  68  87
ATOM     87  C   UNL     1     -15.759   5.212  -1.186  1.00  0.00    -0.014 A 
ATOM     88  C   UNL     1     -14.685   5.997  -0.698  1.00  0.00     0.009 A 
ATOM     89  C   UNL     1     -15.995   5.243  -2.567  1.00  0.00     0.009 A 
ATOM     90  C   UNL     1     -13.758   6.601  -1.558  1.00  0.00     0.001 A 
ATOM     91  C   UNL     1     -15.085   5.892  -3.428  1.00  0.00     0.001 A 
ATOM     92  C   UNL     1     -13.938   6.512  -2.930  1.00  0.00     0.000 A 
ENDBRANCH  68  87
BRANCH  80  93
ATOM     93  C   UNL     1     -20.285  -0.227   0.784  1.00  0.00    -0.014 A 
ATOM     94  C   UNL     1     -21.399   0.621   0.680  1.00  0.00     0.009 A 
ATOM     95  C   UNL     1     -20.543  -1.604   0.939  1.00  0.00     0.009 A 
ATOM     96  C   UNL     1     -22.701   0.128   0.758  1.00  0.00     0.001 A 
ATOM     97  C   UNL     1     -21.842  -2.108   0.954  1.00  0.00     0.001 A 
ATOM     98  C   UNL     1     -22.921  -1.239   0.874  1.00  0.00     0.000 A 
ENDBRANCH  80  93
ENDBRANCH  54  55
ENDBRANCH  47  49
ENDBRANCH  46  47
ENDBRANCH  45  46
ENDBRANCH  44  45
ENDBRANCH  43  44
ENDBRANCH  42  43
ENDBRANCH   1  42
TORSDOF 21
