REMARK SMILES O=C(OCCOCCOC(=O)[C@H]1[C@H]2CC[C@H](CC2)[C@@H]1C(=O)Nc1sc2c(c1C(=O)N1CCCCC1)CCCC2)c1ccc(-c2c3nc(c(-c4ccccc4)c4ccc([nH]4)c(-c4ccccc4)c4nc(c(-c5ccccc5)c5ccc2[nH]5)C=C4)C=C3)cc1
REMARK SMILES IDX 7 1 6 2 5 3 4 4 3 5 2 6 1 7 40 8 41 9 87 10 42 11 86 12
REMARK SMILES IDX 43 13 44 14 45 15 80 16 46 17 85 18 79 19 81 20 47 21 84 22
REMARK SMILES IDX 78 23 77 24 48 26 70 27 55 28 69 29 56 30 59 31 68 32 82 33
REMARK SMILES IDX 57 34 58 35 67 37 83 38 60 39 49 40 50 41 54 42 51 43 53 44
REMARK SMILES IDX 52 45 71 46 72 47 76 48 73 49 75 50 74 51 61 52 62 53 66 54
REMARK SMILES IDX 63 55 65 56 64 57 8 58 9 59 10 60 11 61 12 62 13 63 19 64
REMARK SMILES IDX 18 65 14 66 16 67 17 68 15 69 20 70 21 71 22 72 23 74 24 75
REMARK SMILES IDX 27 76 25 77 26 78 39 79 36 80 38 81 37 82 28 83 29 84 30 85
REMARK SMILES IDX 31 86 35 87 32 88 34 89 33 90
REMARK H PARENT 81 25 59 36 22 73
REMARK Flexibility Score: inf
ROOT
ATOM      1  C   UNL     1       2.207   1.722   0.131  1.00  0.00     0.202 C 
ENDROOT
BRANCH   1   2
ATOM      2  O   UNL     1       3.490   1.107   0.054  1.00  0.00    -0.374 OA
BRANCH   2   3
ATOM      3  C   UNL     1       3.965   0.798  -1.258  1.00  0.00     0.202 C 
BRANCH   3   4
ATOM      4  C   UNL     1       3.863  -0.699  -1.553  1.00  0.00     0.261 C 
BRANCH   4   5
ATOM      5  O   UNL     1       2.562  -1.202  -1.204  1.00  0.00    -0.460 OA
BRANCH   5   6
ATOM      6  C   UNL     1       2.113  -1.517   0.036  1.00  0.00     0.338 C 
ATOM      7  O   UNL     1       0.900  -1.653   0.199  1.00  0.00    -0.246 OA
BRANCH   6   8
ATOM      8  C   UNL     1       3.002  -1.788   1.215  1.00  0.00     0.060 A 
ATOM      9  C   UNL     1       4.259  -1.224   1.446  1.00  0.00     0.016 A 
ATOM     10  C   UNL     1       2.474  -2.631   2.212  1.00  0.00     0.016 A 
ATOM     11  C   UNL     1       4.978  -1.490   2.600  1.00  0.00     0.010 A 
ATOM     12  C   UNL     1       3.187  -2.902   3.384  1.00  0.00     0.010 A 
ATOM     13  C   UNL     1       4.450  -2.335   3.569  1.00  0.00    -0.014 A 
BRANCH  13  14
ATOM     14  C   UNL     1       5.334  -2.697   4.686  1.00  0.00     0.031 A 
ATOM     15  C   UNL     1       6.074  -3.994   4.599  1.00  0.00     0.074 A 
ATOM     16  C   UNL     1       5.603  -1.785   5.636  1.00  0.00     0.049 A 
ATOM     17  N   UNL     1       6.940  -4.509   5.428  1.00  0.00    -0.248 NA
ATOM     18  C   UNL     1       5.824  -4.812   3.398  1.00  0.00     0.031 C 
ATOM     19  C   UNL     1       5.030  -0.437   5.697  1.00  0.00     0.029 A 
ATOM     20  N   UNL     1       6.463  -1.832   6.699  1.00  0.00    -0.354 N 
ATOM     21  C   UNL     1       7.332  -5.711   4.855  1.00  0.00     0.074 A 
ATOM     22  C   UNL     1       6.602  -5.860   3.617  1.00  0.00     0.031 C 
ATOM     23  C   UNL     1       5.578   0.224   6.731  1.00  0.00     0.029 A 
ATOM     24  C   UNL     1       6.489  -0.672   7.434  1.00  0.00     0.049 A 
ATOM     25  H   UNL     1       7.011  -2.620   6.915  1.00  0.00     0.167 HD
ATOM     26  C   UNL     1       8.223  -6.609   5.330  1.00  0.00     0.031 A 
ATOM     27  C   UNL     1       7.159  -0.388   8.565  1.00  0.00     0.031 A 
ATOM     28  C   UNL     1       8.911  -6.446   6.579  1.00  0.00     0.049 A 
ATOM     29  C   UNL     1       8.048  -1.459   9.138  1.00  0.00     0.074 A 
ATOM     30  C   UNL     1       9.747  -7.329   7.235  1.00  0.00     0.029 A 
ATOM     31  N   UNL     1       8.834  -5.301   7.362  1.00  0.00    -0.354 N 
ATOM     32  N   UNL     1       8.342  -2.639   8.643  1.00  0.00    -0.248 NA
ATOM     33  C   UNL     1       8.687  -1.168  10.426  1.00  0.00     0.031 C 
ATOM     34  C   UNL     1      10.144  -6.731   8.437  1.00  0.00     0.029 A 
ATOM     35  C   UNL     1       9.600  -5.457   8.502  1.00  0.00     0.049 A 
ATOM     36  H   UNL     1       8.311  -4.497   7.139  1.00  0.00     0.167 HD
ATOM     37  C   UNL     1       9.207  -3.229   9.553  1.00  0.00     0.074 A 
ATOM     38  C   UNL     1       9.415  -2.260  10.613  1.00  0.00     0.031 C 
ATOM     39  C   UNL     1       9.773  -4.461   9.529  1.00  0.00     0.031 A 
BRANCH  26  40
ATOM     40  C   UNL     1       8.418  -7.859   4.522  1.00  0.00    -0.014 A 
ATOM     41  C   UNL     1       9.119  -7.844   3.305  1.00  0.00     0.009 A 
ATOM     42  C   UNL     1       7.845  -9.062   4.961  1.00  0.00     0.009 A 
ATOM     43  C   UNL     1       9.207  -9.001   2.526  1.00  0.00     0.001 A 
ATOM     44  C   UNL     1       7.955 -10.222   4.192  1.00  0.00     0.001 A 
ATOM     45  C   UNL     1       8.626 -10.188   2.970  1.00  0.00     0.000 A 
ENDBRANCH  26  40
BRANCH  27  46
ATOM     46  C   UNL     1       6.958   0.912   9.263  1.00  0.00    -0.014 A 
ATOM     47  C   UNL     1       8.012   1.821   9.436  1.00  0.00     0.009 A 
ATOM     48  C   UNL     1       5.698   1.236   9.796  1.00  0.00     0.009 A 
ATOM     49  C   UNL     1       7.817   3.006  10.153  1.00  0.00     0.001 A 
ATOM     50  C   UNL     1       5.497   2.435  10.482  1.00  0.00     0.001 A 
ATOM     51  C   UNL     1       6.560   3.314  10.672  1.00  0.00     0.000 A 
ENDBRANCH  27  46
BRANCH  39  52
ATOM     52  C   UNL     1      10.684  -4.801  10.671  1.00  0.00    -0.014 A 
ATOM     53  C   UNL     1      10.173  -5.078  11.948  1.00  0.00     0.009 A 
ATOM     54  C   UNL     1      12.067  -4.879  10.453  1.00  0.00     0.009 A 
ATOM     55  C   UNL     1      11.038  -5.391  12.997  1.00  0.00     0.001 A 
ATOM     56  C   UNL     1      12.926  -5.222  11.495  1.00  0.00     0.001 A 
ATOM     57  C   UNL     1      12.412  -5.467  12.768  1.00  0.00     0.000 A 
ENDBRANCH  39  52
ENDBRANCH  13  14
ENDBRANCH   6   8
ENDBRANCH   5   6
ENDBRANCH   4   5
ENDBRANCH   3   4
ENDBRANCH   2   3
ENDBRANCH   1   2
BRANCH   1  58
ATOM     58  C   UNL     1       2.363   3.187   0.524  1.00  0.00     0.261 C 
BRANCH  58  59
ATOM     59  O   UNL     1       3.059   3.891  -0.519  1.00  0.00    -0.463 OA
BRANCH  59  60
ATOM     60  C   UNL     1       4.413   3.808  -0.447  1.00  0.00     0.310 C 
ATOM     61  O   UNL     1       5.039   3.313   0.499  1.00  0.00    -0.252 OA
BRANCH  60  62
ATOM     62  C   UNL     1       5.061   4.492  -1.636  1.00  0.00     0.115 C 
ATOM     63  C   UNL     1       5.242   5.972  -1.214  1.00  0.00     0.004 C 
ATOM     64  C   UNL     1       6.443   3.872  -1.999  1.00  0.00     0.096 C 
ATOM     65  C   UNL     1       6.107   6.075   0.069  1.00  0.00     0.005 C 
ATOM     66  C   UNL     1       6.013   6.681  -2.326  1.00  0.00     0.005 C 
ATOM     67  C   UNL     1       7.574   4.856  -1.597  1.00  0.00     0.002 C 
ATOM     68  C   UNL     1       7.384   5.215  -0.093  1.00  0.00     0.005 C 
ATOM     69  C   UNL     1       7.471   6.219  -2.276  1.00  0.00     0.005 C 
BRANCH  64  70
ATOM     70  C   UNL     1       6.455   3.033  -3.321  1.00  0.00     0.229 C 
ATOM     71  O   UNL     1       6.461   1.792  -3.183  1.00  0.00    -0.274 OA
ATOM     72  N   UNL     1       6.311   3.424  -4.618  1.00  0.00    -0.317 N 
ATOM     73  H   UNL     1       6.204   2.678  -5.251  1.00  0.00     0.170 HD
BRANCH  72  74
ATOM     74  C   UNL     1       6.289   4.662  -5.204  1.00  0.00     0.108 A 
ATOM     75  S   UNL     1       7.811   5.389  -5.495  1.00  0.00    -0.122 S 
ATOM     76  C   UNL     1       5.335   5.278  -6.025  1.00  0.00     0.078 A 
ATOM     77  C   UNL     1       7.009   6.881  -5.670  1.00  0.00     0.011 A 
ATOM     78  C   UNL     1       5.712   6.688  -6.116  1.00  0.00    -0.019 A 
ATOM     79  C   UNL     1       7.619   8.199  -5.308  1.00  0.00     0.047 C 
ATOM     80  C   UNL     1       4.850   7.869  -6.444  1.00  0.00     0.037 C 
ATOM     81  C   UNL     1       6.493   9.202  -5.003  1.00  0.00     0.006 C 
ATOM     82  C   UNL     1       5.488   9.237  -6.150  1.00  0.00     0.005 C 
BRANCH  76  83
ATOM     83  C   UNL     1       4.077   4.593  -6.375  1.00  0.00     0.257 C 
ATOM     84  O   UNL     1       3.800   3.517  -5.828  1.00  0.00    -0.269 OA
ATOM     85  N   UNL     1       3.169   5.163  -7.269  1.00  0.00    -0.339 N 
ATOM     86  C   UNL     1       1.775   4.752  -7.158  1.00  0.00     0.120 C 
ATOM     87  C   UNL     1       3.502   5.798  -8.545  1.00  0.00     0.120 C 
ATOM     88  C   UNL     1       0.878   5.977  -7.272  1.00  0.00     0.022 C 
ATOM     89  C   UNL     1       2.572   6.984  -8.855  1.00  0.00     0.022 C 
ATOM     90  C   UNL     1       1.094   6.677  -8.612  1.00  0.00     0.004 C 
ENDBRANCH  76  83
ENDBRANCH  72  74
ENDBRANCH  64  70
ENDBRANCH  60  62
ENDBRANCH  59  60
ENDBRANCH  58  59
ENDBRANCH   1  58
TORSDOF 17
