REMARK SMILES Cc1c(N)cccc1SCc1cc(C(=O)OCCOCCOC(=O)c2ccc(-c3c4nc(c(-c5ccccc5)c5ccc([nH]5)c(-c5ccccc5)c5nc(c(-c6ccccc6)c6ccc3[nH]6)C=C5)C=C4)cc2)no1
REMARK SMILES IDX 18 1 17 2 16 3 14 4 15 5 13 6 11 7 12 8 74 9 73 10 10 11
REMARK SMILES IDX 9 12 8 13 1 14 2 15 3 16 5 17 7 18 6 19 4 20 19 23 20 24
REMARK SMILES IDX 21 25 22 26 23 27 24 28 25 29 26 30 72 31 27 32 71 33 28 34
REMARK SMILES IDX 29 35 30 36 65 37 31 38 70 39 64 40 66 41 32 42 69 43 63 44
REMARK SMILES IDX 62 45 33 47 55 48 40 49 54 50 41 51 44 52 53 53 67 54 42 55
REMARK SMILES IDX 43 56 52 58 68 59 45 60 34 61 35 62 39 63 36 64 38 65 37 66
REMARK SMILES IDX 56 67 57 68 61 69 58 70 60 71 59 72 46 73 47 74 51 75 48 76
REMARK SMILES IDX 50 77 49 78
REMARK H PARENT 4 21 4 22 66 46 44 57
REMARK Flexibility Score: inf
ROOT
ATOM      1  C   UNL     1       3.440  -1.080   4.526  1.00  0.00     0.202 C 
ENDROOT
BRANCH   1   2
ATOM      2  C   UNL     1       2.160  -0.554   5.181  1.00  0.00     0.261 C 
BRANCH   2   3
ATOM      3  O   UNL     1       1.581   0.465   4.348  1.00  0.00    -0.458 OA
BRANCH   3   4
ATOM      4  C   UNL     1       1.841   1.758   4.706  1.00  0.00     0.360 C 
ATOM      5  O   UNL     1       2.318   2.097   5.782  1.00  0.00    -0.244 OA
BRANCH   4   6
ATOM      6  C   UNL     1       1.580   2.673   3.596  1.00  0.00     0.191 A 
ATOM      7  C   UNL     1       1.056   3.517   1.609  1.00  0.00     0.147 A 
ATOM      8  C   UNL     1       0.817   2.433   2.419  1.00  0.00     0.085 A 
ATOM      9  O   UNL     1       1.844   4.394   2.295  1.00  0.00    -0.360 OA
ATOM     10  N   UNL     1       2.163   3.880   3.530  1.00  0.00    -0.072 NA
BRANCH   7  11
ATOM     11  C   UNL     1       0.777   3.925   0.212  1.00  0.00     0.153 C 
BRANCH  11  12
ATOM     12  S   UNL     1      -0.645   3.190  -0.647  1.00  0.00    -0.118 SA
BRANCH  12  13
ATOM     13  C   UNL     1      -0.503   1.413  -0.446  1.00  0.00     0.013 A 
ATOM     14  C   UNL     1       1.982   1.177  -1.002  1.00  0.00     0.048 C 
ATOM     15  C   UNL     1       0.658   0.614  -0.556  1.00  0.00    -0.015 A 
ATOM     16  C   UNL     1       0.575  -0.761  -0.224  1.00  0.00     0.035 A 
ATOM     17  C   UNL     1      -0.672  -1.345   0.028  1.00  0.00     0.026 A 
ATOM     18  C   UNL     1      -1.737   0.793  -0.170  1.00  0.00     0.015 A 
ATOM     19  C   UNL     1      -1.826  -0.577   0.048  1.00  0.00     0.003 A 
BRANCH  16  20
ATOM     20  N   UNL     1       1.689  -1.592  -0.245  1.00  0.00    -0.398 N 
ATOM     21  H   UNL     1       2.582  -1.215  -0.420  1.00  0.00     0.156 HD
ATOM     22  H   UNL     1       1.586  -2.558  -0.086  1.00  0.00     0.156 HD
ENDBRANCH  16  20
ENDBRANCH  12  13
ENDBRANCH  11  12
ENDBRANCH   7  11
ENDBRANCH   4   6
ENDBRANCH   3   4
ENDBRANCH   2   3
ENDBRANCH   1   2
BRANCH   1  23
ATOM     23  O   UNL     1       4.516  -0.150   4.657  1.00  0.00    -0.374 OA
BRANCH  23  24
ATOM     24  C   UNL     1       4.788   0.641   3.498  1.00  0.00     0.202 C 
BRANCH  24  25
ATOM     25  C   UNL     1       5.879   0.025   2.619  1.00  0.00     0.261 C 
BRANCH  25  26
ATOM     26  O   UNL     1       5.347  -1.089   1.878  1.00  0.00    -0.460 OA
BRANCH  26  27
ATOM     27  C   UNL     1       5.636  -2.314   2.381  1.00  0.00     0.338 C 
ATOM     28  O   UNL     1       6.360  -2.580   3.323  1.00  0.00    -0.246 OA
BRANCH  27  29
ATOM     29  C   UNL     1       4.800  -3.322   1.696  1.00  0.00     0.060 A 
ATOM     30  C   UNL     1       4.274  -4.370   2.462  1.00  0.00     0.016 A 
ATOM     31  C   UNL     1       4.551  -3.258   0.322  1.00  0.00     0.016 A 
ATOM     32  C   UNL     1       3.517  -5.370   1.853  1.00  0.00     0.010 A 
ATOM     33  C   UNL     1       3.790  -4.257  -0.287  1.00  0.00     0.010 A 
ATOM     34  C   UNL     1       3.292  -5.331   0.471  1.00  0.00    -0.014 A 
BRANCH  34  35
ATOM     35  C   UNL     1       2.691  -6.491  -0.225  1.00  0.00     0.031 A 
ATOM     36  C   UNL     1       3.605  -7.444  -0.944  1.00  0.00     0.074 A 
ATOM     37  C   UNL     1       1.362  -6.691  -0.235  1.00  0.00     0.049 A 
ATOM     38  N   UNL     1       3.307  -8.457  -1.714  1.00  0.00    -0.248 NA
ATOM     39  C   UNL     1       5.050  -7.216  -0.774  1.00  0.00     0.031 C 
ATOM     40  C   UNL     1       0.371  -5.872   0.462  1.00  0.00     0.029 A 
ATOM     41  N   UNL     1       0.618  -7.653  -0.872  1.00  0.00    -0.354 N 
ATOM     42  C   UNL     1       4.524  -8.973  -2.139  1.00  0.00     0.074 A 
ATOM     43  C   UNL     1       5.564  -8.156  -1.554  1.00  0.00     0.031 C 
ATOM     44  C   UNL     1      -0.856  -6.362   0.204  1.00  0.00     0.029 A 
ATOM     45  C   UNL     1      -0.736  -7.505  -0.699  1.00  0.00     0.049 A 
ATOM     46  H   UNL     1       1.018  -8.380  -1.402  1.00  0.00     0.167 HD
ATOM     47  C   UNL     1       4.759 -10.034  -2.944  1.00  0.00     0.031 A 
ATOM     48  C   UNL     1      -1.760  -8.201  -1.229  1.00  0.00     0.031 A 
ATOM     49  C   UNL     1       3.733 -10.852  -3.526  1.00  0.00     0.049 A 
ATOM     50  C   UNL     1      -1.477  -9.344  -2.167  1.00  0.00     0.074 A 
ATOM     51  C   UNL     1       3.873 -11.951  -4.355  1.00  0.00     0.029 A 
ATOM     52  N   UNL     1       2.376 -10.660  -3.335  1.00  0.00    -0.354 N 
ATOM     53  N   UNL     1      -0.322  -9.819  -2.564  1.00  0.00    -0.248 NA
ATOM     54  C   UNL     1      -2.641 -10.044  -2.732  1.00  0.00     0.031 C 
ATOM     55  C   UNL     1       2.593 -12.407  -4.690  1.00  0.00     0.029 A 
ATOM     56  C   UNL     1       1.663 -11.612  -4.040  1.00  0.00     0.049 A 
ATOM     57  H   UNL     1       1.977  -9.950  -2.780  1.00  0.00     0.167 HD
ATOM     58  C   UNL     1      -0.619 -10.888  -3.401  1.00  0.00     0.074 A 
ATOM     59  C   UNL     1      -2.062 -10.993  -3.454  1.00  0.00     0.031 C 
ATOM     60  C   UNL     1       0.229 -11.710  -4.065  1.00  0.00     0.031 A 
BRANCH  47  61
ATOM     61  C   UNL     1       6.191 -10.343  -3.264  1.00  0.00    -0.014 A 
ATOM     62  C   UNL     1       7.026 -10.963  -2.323  1.00  0.00     0.009 A 
ATOM     63  C   UNL     1       6.706 -10.015  -4.527  1.00  0.00     0.009 A 
ATOM     64  C   UNL     1       8.362 -11.223  -2.632  1.00  0.00     0.001 A 
ATOM     65  C   UNL     1       8.037 -10.295  -4.840  1.00  0.00     0.001 A 
ATOM     66  C   UNL     1       8.865 -10.891  -3.890  1.00  0.00     0.000 A 
ENDBRANCH  47  61
BRANCH  48  67
ATOM     67  C   UNL     1      -3.160  -7.827  -0.906  1.00  0.00    -0.014 A 
ATOM     68  C   UNL     1      -3.934  -8.632  -0.058  1.00  0.00     0.009 A 
ATOM     69  C   UNL     1      -3.734  -6.673  -1.463  1.00  0.00     0.009 A 
ATOM     70  C   UNL     1      -5.264  -8.299   0.211  1.00  0.00     0.001 A 
ATOM     71  C   UNL     1      -5.057  -6.333  -1.176  1.00  0.00     0.001 A 
ATOM     72  C   UNL     1      -5.823  -7.150  -0.345  1.00  0.00     0.000 A 
ENDBRANCH  48  67
BRANCH  60  73
ATOM     73  C   UNL     1      -0.374 -12.825  -4.867  1.00  0.00    -0.014 A 
ATOM     74  C   UNL     1      -0.921 -12.591  -6.136  1.00  0.00     0.009 A 
ATOM     75  C   UNL     1      -0.322 -14.138  -4.374  1.00  0.00     0.009 A 
ATOM     76  C   UNL     1      -1.420 -13.653  -6.893  1.00  0.00     0.001 A 
ATOM     77  C   UNL     1      -0.806 -15.199  -5.139  1.00  0.00     0.001 A 
ATOM     78  C   UNL     1      -1.357 -14.956  -6.396  1.00  0.00     0.000 A 
ENDBRANCH  60  73
ENDBRANCH  34  35
ENDBRANCH  27  29
ENDBRANCH  26  27
ENDBRANCH  25  26
ENDBRANCH  24  25
ENDBRANCH  23  24
ENDBRANCH   1  23
TORSDOF 18
