REMARK SMILES Cn1cccc1/C=C1/SC(=S)N([C@@H](CCC(N)=O)C(=O)OCCOCCOC(=O)c2ccc(-c3c4nc(c(-c5ccccc5)c5ccc([nH]5)c(-c5ccccc5)c5nc(c(-c6ccccc6)c6ccc3[nH]6)C=C5)C=C4)cc2)C1=O
REMARK SMILES IDX 23 1 22 2 21 3 19 4 20 5 13 6 12 7 7 8 8 9 9 10 78 11 10 12
REMARK SMILES IDX 79 13 11 14 6 15 1 16 2 17 3 18 4 19 5 20 14 21 15 22 16 23
REMARK SMILES IDX 17 24 18 25 24 28 25 29 26 30 27 31 28 32 29 33 30 34 31 35
REMARK SMILES IDX 77 36 32 37 76 38 33 39 34 40 35 41 70 42 36 43 75 44 69 45
REMARK SMILES IDX 71 46 37 47 74 48 68 49 67 50 38 52 60 53 45 54 59 55 46 56
REMARK SMILES IDX 49 57 58 58 72 59 47 60 48 61 57 63 73 64 50 65 39 66 40 67
REMARK SMILES IDX 44 68 41 69 43 70 42 71 61 72 62 73 66 74 63 75 65 76 64 77
REMARK SMILES IDX 51 78 52 79 56 80 53 81 55 82 54 83
REMARK H PARENT 17 26 17 27 71 51 49 62
REMARK Flexibility Score: inf
ROOT
ATOM      1  C   UNL     1      -1.107  -1.556   6.702  1.00  0.00     0.202 C 
ENDROOT
BRANCH   1   2
ATOM      2  C   UNL     1      -0.053  -0.546   6.255  1.00  0.00     0.261 C 
BRANCH   2   3
ATOM      3  O   UNL     1       0.771  -1.063   5.205  1.00  0.00    -0.462 OA
BRANCH   3   4
ATOM      4  C   UNL     1       2.099  -1.032   5.437  1.00  0.00     0.329 C 
ATOM      5  O   UNL     1       2.623  -0.593   6.459  1.00  0.00    -0.250 OA
BRANCH   4   6
ATOM      6  C   UNL     1       2.948  -1.499   4.255  1.00  0.00     0.202 C 
BRANCH   6   7
ATOM      7  N   UNL     1       2.396  -2.362   3.172  1.00  0.00    -0.278 N 
ATOM      8  C   UNL     1       0.742  -2.473  -0.077  1.00  0.00     0.047 C 
ATOM      9  C   UNL     1       1.292  -2.768   1.114  1.00  0.00     0.082 C 
ATOM     10  S   UNL     1       2.064  -4.269   1.443  1.00  0.00    -0.054 SA
ATOM     11  C   UNL     1       1.429  -1.889   2.310  1.00  0.00     0.267 C 
ATOM     12  C   UNL     1       2.801  -3.663   2.926  1.00  0.00     0.149 C 
ATOM     13  O   UNL     1       0.753  -0.890   2.499  1.00  0.00    -0.268 OA
ATOM     14  S   UNL     1       3.849  -4.620   3.805  1.00  0.00    -0.052 S 
BRANCH   8  15
ATOM     15  C   UNL     1       0.147  -1.221  -0.372  1.00  0.00     0.042 A 
ATOM     16  C   UNL     1       2.304   0.108  -0.572  1.00  0.00     0.149 C 
ATOM     17  N   UNL     1       0.873  -0.050  -0.456  1.00  0.00    -0.351 N 
ATOM     18  C   UNL     1       0.008   1.016  -0.508  1.00  0.00     0.086 A 
ATOM     19  C   UNL     1      -1.262   0.521  -0.680  1.00  0.00     0.020 A 
ATOM     20  C   UNL     1      -1.162  -0.890  -0.663  1.00  0.00     0.028 A 
ENDBRANCH   8  15
ENDBRANCH   6   7
BRANCH   6  21
ATOM     21  C   UNL     1       3.809  -0.307   3.767  1.00  0.00     0.047 C 
BRANCH  21  22
ATOM     22  C   UNL     1       3.147   0.807   2.955  1.00  0.00     0.102 C 
BRANCH  22  23
ATOM     23  C   UNL     1       2.054   1.637   3.602  1.00  0.00     0.217 C 
ATOM     24  N   UNL     1       2.380   2.276   4.754  1.00  0.00    -0.370 N 
ATOM     25  O   UNL     1       0.959   1.843   3.094  1.00  0.00    -0.275 OA
ATOM     26  H   UNL     1       3.257   2.120   5.173  1.00  0.00     0.159 HD
ATOM     27  H   UNL     1       1.739   2.897   5.171  1.00  0.00     0.159 HD
ENDBRANCH  22  23
ENDBRANCH  21  22
ENDBRANCH   6  21
ENDBRANCH   4   6
ENDBRANCH   3   4
ENDBRANCH   2   3
ENDBRANCH   1   2
BRANCH   1  28
ATOM     28  O   UNL     1      -0.661  -2.865   7.039  1.00  0.00    -0.374 OA
BRANCH  28  29
ATOM     29  C   UNL     1      -0.095  -3.676   6.010  1.00  0.00     0.202 C 
BRANCH  29  30
ATOM     30  C   UNL     1      -0.959  -4.045   4.792  1.00  0.00     0.261 C 
BRANCH  30  31
ATOM     31  O   UNL     1      -1.465  -2.922   4.048  1.00  0.00    -0.460 OA
BRANCH  31  32
ATOM     32  C   UNL     1      -2.818  -2.795   4.055  1.00  0.00     0.338 C 
ATOM     33  O   UNL     1      -3.625  -3.516   4.617  1.00  0.00    -0.246 OA
BRANCH  32  34
ATOM     34  C   UNL     1      -3.237  -1.578   3.340  1.00  0.00     0.060 A 
ATOM     35  C   UNL     1      -3.655  -0.454   4.063  1.00  0.00     0.016 A 
ATOM     36  C   UNL     1      -3.375  -1.613   1.956  1.00  0.00     0.016 A 
ATOM     37  C   UNL     1      -4.192   0.650   3.395  1.00  0.00     0.010 A 
ATOM     38  C   UNL     1      -3.917  -0.507   1.294  1.00  0.00     0.010 A 
ATOM     39  C   UNL     1      -4.330   0.635   2.001  1.00  0.00    -0.014 A 
BRANCH  39  40
ATOM     40  C   UNL     1      -4.944   1.777   1.273  1.00  0.00     0.031 A 
ATOM     41  C   UNL     1      -6.270   1.602   0.581  1.00  0.00     0.074 A 
ATOM     42  C   UNL     1      -4.303   2.959   1.191  1.00  0.00     0.049 A 
ATOM     43  N   UNL     1      -6.925   2.440  -0.184  1.00  0.00    -0.248 NA
ATOM     44  C   UNL     1      -6.940   0.304   0.760  1.00  0.00     0.031 C 
ATOM     45  C   UNL     1      -3.012   3.268   1.806  1.00  0.00     0.029 A 
ATOM     46  N   UNL     1      -4.650   4.119   0.539  1.00  0.00    -0.354 N 
ATOM     47  C   UNL     1      -8.068   1.764  -0.594  1.00  0.00     0.074 A 
ATOM     48  C   UNL     1      -8.001   0.436  -0.023  1.00  0.00     0.031 C 
ATOM     49  C   UNL     1      -2.682   4.537   1.513  1.00  0.00     0.029 A 
ATOM     50  C   UNL     1      -3.705   5.113   0.645  1.00  0.00     0.049 A 
ATOM     51  H   UNL     1      -5.493   4.228   0.044  1.00  0.00     0.167 HD
ATOM     52  C   UNL     1      -9.086   2.208  -1.370  1.00  0.00     0.031 A 
ATOM     53  C   UNL     1      -3.652   6.335   0.081  1.00  0.00     0.031 A 
ATOM     54  C   UNL     1      -9.159   3.529  -1.939  1.00  0.00     0.049 A 
ATOM     55  C   UNL     1      -4.764   6.782  -0.832  1.00  0.00     0.074 A 
ATOM     56  C   UNL     1     -10.177   4.086  -2.694  1.00  0.00     0.029 A 
ATOM     57  N   UNL     1      -8.171   4.494  -1.826  1.00  0.00    -0.354 N 
ATOM     58  N   UNL     1      -5.867   6.154  -1.163  1.00  0.00    -0.248 NA
ATOM     59  C   UNL     1      -4.619   8.107  -1.456  1.00  0.00     0.031 C 
ATOM     60  C   UNL     1      -9.774   5.362  -3.097  1.00  0.00     0.029 A 
ATOM     61  C   UNL     1      -8.535   5.626  -2.536  1.00  0.00     0.049 A 
ATOM     62  H   UNL     1      -7.335   4.390  -1.317  1.00  0.00     0.167 HD
ATOM     63  C   UNL     1      -6.552   7.012  -2.016  1.00  0.00     0.074 A 
ATOM     64  C   UNL     1      -5.755   8.215  -2.131  1.00  0.00     0.031 C 
ATOM     65  C   UNL     1      -7.733   6.816  -2.651  1.00  0.00     0.031 A 
BRANCH  52  66
ATOM     66  C   UNL     1     -10.201   1.245  -1.675  1.00  0.00    -0.014 A 
ATOM     67  C   UNL     1     -11.105   0.833  -0.683  1.00  0.00     0.009 A 
ATOM     68  C   UNL     1     -10.377   0.778  -2.987  1.00  0.00     0.009 A 
ATOM     69  C   UNL     1     -12.138  -0.055  -0.992  1.00  0.00     0.001 A 
ATOM     70  C   UNL     1     -11.429  -0.084  -3.300  1.00  0.00     0.001 A 
ATOM     71  C   UNL     1     -12.303  -0.508  -2.301  1.00  0.00     0.000 A 
ENDBRANCH  52  66
BRANCH  53  72
ATOM     72  C   UNL     1      -2.483   7.223   0.328  1.00  0.00    -0.014 A 
ATOM     73  C   UNL     1      -2.631   8.416   1.051  1.00  0.00     0.009 A 
ATOM     74  C   UNL     1      -1.217   6.893  -0.181  1.00  0.00     0.009 A 
ATOM     75  C   UNL     1      -1.542   9.272   1.236  1.00  0.00     0.001 A 
ATOM     76  C   UNL     1      -0.123   7.734   0.034  1.00  0.00     0.001 A 
ATOM     77  C   UNL     1      -0.288   8.928   0.733  1.00  0.00     0.000 A 
ENDBRANCH  53  72
BRANCH  65  78
ATOM     78  C   UNL     1      -8.248   7.931  -3.519  1.00  0.00    -0.014 A 
ATOM     79  C   UNL     1      -7.645   8.232  -4.750  1.00  0.00     0.009 A 
ATOM     80  C   UNL     1      -9.388   8.652  -3.128  1.00  0.00     0.009 A 
ATOM     81  C   UNL     1      -8.157   9.249  -5.559  1.00  0.00     0.001 A 
ATOM     82  C   UNL     1      -9.916   9.647  -3.953  1.00  0.00     0.001 A 
ATOM     83  C   UNL     1      -9.296   9.950  -5.164  1.00  0.00     0.000 A 
ENDBRANCH  65  78
ENDBRANCH  39  40
ENDBRANCH  32  34
ENDBRANCH  31  32
ENDBRANCH  30  31
ENDBRANCH  29  30
ENDBRANCH  28  29
ENDBRANCH   1  28
TORSDOF 19
