REMARK SMILES O=C(OCCOCCOC(=O)C1CCN(C2=[NH+]C(Cl)=[NH+]C3=[NH+]C=N[C@@H]32)CC1)c1ccc(-c2c3nc(c(-c4ccccc4)c4ccc([nH]4)c(-c4ccccc4)c4nc(c(-c5ccccc5)c5ccc2[nH]5)C=C4)C=C3)cc1
REMARK SMILES IDX 5 1 4 2 3 3 2 4 1 5 28 6 29 7 75 8 30 9 74 10 31 11 32 12
REMARK SMILES IDX 33 13 68 14 34 15 73 16 67 17 69 18 35 19 72 20 66 21 65 22
REMARK SMILES IDX 36 24 58 25 43 26 57 27 44 28 47 29 56 30 70 31 45 32 46 33
REMARK SMILES IDX 55 35 71 36 48 37 37 38 38 39 42 40 39 41 41 42 40 43 59 44
REMARK SMILES IDX 60 45 64 46 61 47 63 48 62 49 49 50 50 51 54 52 51 53 53 54
REMARK SMILES IDX 52 55 6 56 7 57 8 58 9 59 10 60 11 61 12 62 13 63 27 64
REMARK SMILES IDX 14 65 26 66 15 67 16 68 17 69 25 70 18 71 21 73 24 74 19 75
REMARK SMILES IDX 20 76 22 77 23 78
REMARK H PARENT 69 23 47 34 17 72 20 79 22 80
REMARK Flexibility Score: inf
ROOT
ATOM      1  C   UNL     1       4.992  -0.596  -0.302  1.00  0.00     0.202 C 
ENDROOT
BRANCH   1   2
ATOM      2  C   UNL     1       4.655  -0.225   1.146  1.00  0.00     0.261 C 
BRANCH   2   3
ATOM      3  O   UNL     1       3.305  -0.535   1.505  1.00  0.00    -0.460 OA
BRANCH   3   4
ATOM      4  C   UNL     1       2.186   0.090   1.091  1.00  0.00     0.338 C 
ATOM      5  O   UNL     1       1.130  -0.540   1.068  1.00  0.00    -0.246 OA
BRANCH   4   6
ATOM      6  C   UNL     1       2.153   1.544   0.752  1.00  0.00     0.060 A 
ATOM      7  C   UNL     1       3.258   2.372   0.548  1.00  0.00     0.016 A 
ATOM      8  C   UNL     1       0.870   2.111   0.683  1.00  0.00     0.016 A 
ATOM      9  C   UNL     1       3.117   3.743   0.590  1.00  0.00     0.010 A 
ATOM     10  C   UNL     1       0.711   3.482   0.643  1.00  0.00     0.010 A 
ATOM     11  C   UNL     1       1.844   4.282   0.719  1.00  0.00    -0.014 A 
BRANCH  11  12
ATOM     12  C   UNL     1       1.748   5.714   0.903  1.00  0.00     0.031 A 
ATOM     13  C   UNL     1       2.236   6.524  -0.239  1.00  0.00     0.074 A 
ATOM     14  C   UNL     1       1.193   6.233   2.012  1.00  0.00     0.049 A 
ATOM     15  N   UNL     1       3.200   7.384  -0.251  1.00  0.00    -0.248 NA
ATOM     16  C   UNL     1       1.654   6.247  -1.561  1.00  0.00     0.031 C 
ATOM     17  C   UNL     1       0.465   5.527   3.072  1.00  0.00     0.029 A 
ATOM     18  N   UNL     1       1.044   7.538   2.355  1.00  0.00    -0.354 N 
ATOM     19  C   UNL     1       3.238   7.891  -1.547  1.00  0.00     0.074 A 
ATOM     20  C   UNL     1       2.370   7.057  -2.340  1.00  0.00     0.031 C 
ATOM     21  C   UNL     1      -0.270   6.420   3.769  1.00  0.00     0.029 A 
ATOM     22  C   UNL     1       0.050   7.756   3.296  1.00  0.00     0.049 A 
ATOM     23  H   UNL     1       1.591   8.261   1.971  1.00  0.00     0.167 HD
ATOM     24  C   UNL     1       3.793   9.100  -1.829  1.00  0.00     0.031 A 
ATOM     25  C   UNL     1      -0.532   8.944   3.585  1.00  0.00     0.031 A 
ATOM     26  C   UNL     1       4.660   9.557  -0.777  1.00  0.00     0.049 A 
ATOM     27  C   UNL     1       0.357  10.017   3.081  1.00  0.00     0.074 A 
ATOM     28  C   UNL     1       5.827   9.094  -0.207  1.00  0.00     0.029 A 
ATOM     29  N   UNL     1       4.150  10.484   0.099  1.00  0.00    -0.354 N 
ATOM     30  N   UNL     1       1.526  10.277   3.592  1.00  0.00    -0.248 NA
ATOM     31  C   UNL     1       0.150  10.503   1.725  1.00  0.00     0.031 C 
ATOM     32  C   UNL     1       5.707   9.405   1.178  1.00  0.00     0.029 A 
ATOM     33  C   UNL     1       4.504  10.089   1.362  1.00  0.00     0.049 A 
ATOM     34  H   UNL     1       3.627  11.284  -0.136  1.00  0.00     0.167 HD
ATOM     35  C   UNL     1       2.337  10.552   2.500  1.00  0.00     0.074 A 
ATOM     36  C   UNL     1       1.414  10.784   1.391  1.00  0.00     0.031 C 
ATOM     37  C   UNL     1       3.676  10.282   2.531  1.00  0.00     0.031 A 
BRANCH  24  38
ATOM     38  C   UNL     1       3.220  10.042  -2.856  1.00  0.00    -0.014 A 
ATOM     39  C   UNL     1       3.892  11.248  -3.120  1.00  0.00     0.009 A 
ATOM     40  C   UNL     1       1.905   9.927  -3.346  1.00  0.00     0.009 A 
ATOM     41  C   UNL     1       3.251  12.308  -3.773  1.00  0.00     0.001 A 
ATOM     42  C   UNL     1       1.277  10.967  -4.035  1.00  0.00     0.001 A 
ATOM     43  C   UNL     1       1.941  12.169  -4.221  1.00  0.00     0.000 A 
ENDBRANCH  24  38
BRANCH  25  44
ATOM     44  C   UNL     1      -1.937   9.189   3.974  1.00  0.00    -0.014 A 
ATOM     45  C   UNL     1      -2.319  10.409   4.551  1.00  0.00     0.009 A 
ATOM     46  C   UNL     1      -2.957   8.319   3.545  1.00  0.00     0.009 A 
ATOM     47  C   UNL     1      -3.672  10.757   4.662  1.00  0.00     0.001 A 
ATOM     48  C   UNL     1      -4.306   8.663   3.660  1.00  0.00     0.001 A 
ATOM     49  C   UNL     1      -4.663   9.890   4.206  1.00  0.00     0.000 A 
ENDBRANCH  25  44
BRANCH  37  50
ATOM     50  C   UNL     1       4.285   9.886   3.854  1.00  0.00    -0.014 A 
ATOM     51  C   UNL     1       3.894   8.735   4.561  1.00  0.00     0.009 A 
ATOM     52  C   UNL     1       5.394  10.608   4.318  1.00  0.00     0.009 A 
ATOM     53  C   UNL     1       4.575   8.339   5.717  1.00  0.00     0.001 A 
ATOM     54  C   UNL     1       6.087  10.200   5.460  1.00  0.00     0.001 A 
ATOM     55  C   UNL     1       5.674   9.069   6.162  1.00  0.00     0.000 A 
ENDBRANCH  37  50
ENDBRANCH  11  12
ENDBRANCH   4   6
ENDBRANCH   3   4
ENDBRANCH   2   3
ENDBRANCH   1   2
BRANCH   1  56
ATOM     56  O   UNL     1       4.328   0.020  -1.399  1.00  0.00    -0.374 OA
BRANCH  56  57
ATOM     57  C   UNL     1       3.060  -0.440  -1.878  1.00  0.00     0.202 C 
BRANCH  57  58
ATOM     58  C   UNL     1       2.815  -1.887  -2.329  1.00  0.00     0.261 C 
BRANCH  58  59
ATOM     59  O   UNL     1       3.165  -2.853  -1.336  1.00  0.00    -0.463 OA
BRANCH  59  60
ATOM     60  C   UNL     1       4.371  -3.442  -1.567  1.00  0.00     0.309 C 
ATOM     61  O   UNL     1       5.039  -3.278  -2.568  1.00  0.00    -0.252 OA
BRANCH  60  62
ATOM     62  C   UNL     1       4.819  -4.226  -0.342  1.00  0.00     0.108 C 
ATOM     63  C   UNL     1       6.340  -4.119  -0.163  1.00  0.00     0.070 C 
ATOM     64  C   UNL     1       4.396  -5.677  -0.490  1.00  0.00     0.070 C 
ATOM     65  C   UNL     1       7.102  -4.839  -1.268  1.00  0.00     0.277 C 
ATOM     66  C   UNL     1       5.117  -6.314  -1.675  1.00  0.00     0.277 C 
ATOM     67  N   UNL     1       6.558  -6.176  -1.491  1.00  0.00    -0.230 N 
ATOM     68  C   UNL     1       7.394  -7.236  -1.768  1.00  0.00     0.383 C 
ATOM     69  N   UNL     1       7.147  -8.069  -2.739  1.00  0.00    -0.155 N 
ATOM     70  C   UNL     1       8.618  -7.446  -0.901  1.00  0.00     0.523 C 
ATOM     71  C   UNL     1       8.024  -9.105  -2.948  1.00  0.00     0.414 C 
ATOM     72  H   UNL     1       6.352  -7.958  -3.309  1.00  0.00     0.367 HD
ATOM     73  C   UNL     1       8.822  -8.909  -0.910  1.00  0.00     0.389 C 
ATOM     74  N   UNL     1       8.361  -7.202   0.538  1.00  0.00     0.003 NA
ATOM     75  Cl  UNL     1       7.970  -9.814  -4.503  1.00  0.00     0.028 Cl
ATOM     76  N   UNL     1       8.865  -9.576  -2.085  1.00  0.00    -0.155 N 
ATOM     77  N   UNL     1       8.809  -9.439   0.260  1.00  0.00    -0.169 N 
ATOM     78  C   UNL     1       8.519  -8.375   1.079  1.00  0.00     0.532 C 
ATOM     79  H   UNL     1       9.468 -10.334  -2.264  1.00  0.00     0.367 HD
ATOM     80  H   UNL     1       8.967 -10.378   0.508  1.00  0.00     0.365 HD
ENDBRANCH  60  62
ENDBRANCH  59  60
ENDBRANCH  58  59
ENDBRANCH  57  58
ENDBRANCH  56  57
ENDBRANCH   1  56
TORSDOF 14
