REMARK SMILES C=Cc1cc(Cl)cc2c1O[C@H](C(F)(F)F)C(C(=O)OCCOCCOC(=O)c1ccc(-c3c4nc(c(-c5ccccc5)c5ccc([nH]5)c(-c5ccccc5)c5nc(c(-c6ccccc6)c6ccc3[nH]6)C=C5)C=C4)cc1)=C2
REMARK SMILES IDX 23 1 22 2 21 3 20 4 19 5 17 6 18 7 16 8 3 9 4 10 9 11 5 12
REMARK SMILES IDX 8 13 10 14 6 15 7 16 76 17 11 18 2 19 1 20 12 21 13 22 14 23
REMARK SMILES IDX 15 24 24 25 25 26 26 27 27 28 28 29 29 30 75 31 30 32 74 33
REMARK SMILES IDX 31 34 32 35 33 36 68 37 34 38 73 39 67 40 69 41 35 42 72 43
REMARK SMILES IDX 66 44 65 45 36 47 58 48 43 49 57 50 44 51 47 52 56 53 70 54
REMARK SMILES IDX 45 55 46 56 55 58 71 59 48 60 37 61 38 62 42 63 39 64 41 65
REMARK SMILES IDX 40 66 59 67 60 68 64 69 61 70 63 71 62 72 49 73 50 74 54 75
REMARK SMILES IDX 51 76 53 77 52 78
REMARK H PARENT 69 46 47 57
REMARK Flexibility Score: inf
ROOT
ATOM      1  C   UNL     1      -5.493   3.868   4.768  1.00  0.00     0.202 C 
ENDROOT
BRANCH   1   2
ATOM      2  O   UNL     1      -6.154   3.735   6.024  1.00  0.00    -0.374 OA
BRANCH   2   3
ATOM      3  C   UNL     1      -5.365   3.637   7.206  1.00  0.00     0.202 C 
BRANCH   3   4
ATOM      4  C   UNL     1      -4.638   2.316   7.473  1.00  0.00     0.261 C 
BRANCH   4   5
ATOM      5  O   UNL     1      -3.775   1.941   6.389  1.00  0.00    -0.460 OA
BRANCH   5   6
ATOM      6  C   UNL     1      -4.192   0.855   5.696  1.00  0.00     0.338 C 
ATOM      7  O   UNL     1      -5.143   0.137   5.962  1.00  0.00    -0.246 OA
BRANCH   6   8
ATOM      8  C   UNL     1      -3.396   0.709   4.463  1.00  0.00     0.087 C 
ATOM      9  C   UNL     1      -1.212  -0.206   1.010  1.00  0.00     0.018 A 
ATOM     10  C   UNL     1      -1.904  -0.730  -0.094  1.00  0.00     0.032 A 
ATOM     11  C   UNL     1      -1.945   0.188   2.148  1.00  0.00     0.135 A 
ATOM     12  C   UNL     1      -3.294  -0.815  -0.082  1.00  0.00     0.042 A 
ATOM     13  C   UNL     1      -3.340   0.065   2.162  1.00  0.00     0.019 A 
ATOM     14  O   UNL     1      -1.245   0.706   3.207  1.00  0.00    -0.475 OA
ATOM     15  Cl  UNL     1      -4.126  -1.455  -1.446  1.00  0.00    -0.084 Cl
ATOM     16  C   UNL     1      -4.016  -0.416   1.037  1.00  0.00     0.032 A 
ATOM     17  C   UNL     1      -4.086   0.362   3.370  1.00  0.00     0.027 C 
ATOM     18  C   UNL     1      -1.908   0.908   4.485  1.00  0.00     0.316 C 
BRANCH   9  19
ATOM     19  C   UNL     1       0.262  -0.168   1.016  1.00  0.00     0.004 C 
ATOM     20  C   UNL     1       1.021   0.104  -0.054  1.00  0.00     0.009 C 
ENDBRANCH   9  19
BRANCH  18  21
ATOM     21  C   UNL     1      -1.209   0.032   5.535  1.00  0.00     0.430 C 
ATOM     22  F   UNL     1       0.136   0.189   5.487  1.00  0.00    -0.167 F 
ATOM     23  F   UNL     1      -1.590   0.354   6.793  1.00  0.00    -0.167 F 
ATOM     24  F   UNL     1      -1.472  -1.282   5.354  1.00  0.00    -0.167 F 
ENDBRANCH  18  21
ENDBRANCH   6   8
ENDBRANCH   5   6
ENDBRANCH   4   5
ENDBRANCH   3   4
ENDBRANCH   2   3
ENDBRANCH   1   2
BRANCH   1  25
ATOM     25  C   UNL     1      -4.789   5.194   4.448  1.00  0.00     0.261 C 
BRANCH  25  26
ATOM     26  O   UNL     1      -3.699   5.482   5.338  1.00  0.00    -0.460 OA
BRANCH  26  27
ATOM     27  C   UNL     1      -3.928   6.497   6.207  1.00  0.00     0.338 C 
ATOM     28  O   UNL     1      -4.933   7.188   6.293  1.00  0.00    -0.246 OA
BRANCH  27  29
ATOM     29  C   UNL     1      -2.843   6.543   7.204  1.00  0.00     0.060 A 
ATOM     30  C   UNL     1      -1.509   6.658   6.813  1.00  0.00     0.016 A 
ATOM     31  C   UNL     1      -3.190   6.517   8.561  1.00  0.00     0.016 A 
ATOM     32  C   UNL     1      -0.521   6.778   7.793  1.00  0.00     0.010 A 
ATOM     33  C   UNL     1      -2.202   6.640   9.537  1.00  0.00     0.010 A 
ATOM     34  C   UNL     1      -0.861   6.793   9.159  1.00  0.00    -0.014 A 
BRANCH  34  35
ATOM     35  C   UNL     1       0.171   7.109  10.178  1.00  0.00     0.031 A 
ATOM     36  C   UNL     1       0.711   6.061  11.102  1.00  0.00     0.074 A 
ATOM     37  C   UNL     1       0.613   8.378  10.264  1.00  0.00     0.049 A 
ATOM     38  N   UNL     1       1.680   6.165  11.976  1.00  0.00    -0.248 NA
ATOM     39  C   UNL     1       0.088   4.731  11.047  1.00  0.00     0.031 C 
ATOM     40  C   UNL     1       0.132   9.489   9.441  1.00  0.00     0.029 A 
ATOM     41  N   UNL     1       1.571   8.947  11.065  1.00  0.00    -0.354 N 
ATOM     42  C   UNL     1       1.800   4.912  12.560  1.00  0.00     0.074 A 
ATOM     43  C   UNL     1       0.769   4.077  11.981  1.00  0.00     0.031 C 
ATOM     44  C   UNL     1       0.827  10.593   9.746  1.00  0.00     0.029 A 
ATOM     45  C   UNL     1       1.775  10.282  10.813  1.00  0.00     0.049 A 
ATOM     46  H   UNL     1       2.065   8.446  11.754  1.00  0.00     0.167 HD
ATOM     47  C   UNL     1       2.704   4.496  13.479  1.00  0.00     0.031 A 
ATOM     48  C   UNL     1       2.633  11.161  11.367  1.00  0.00     0.031 A 
ATOM     49  C   UNL     1       3.711   5.343  14.068  1.00  0.00     0.049 A 
ATOM     50  C   UNL     1       3.595  10.684  12.419  1.00  0.00     0.074 A 
ATOM     51  C   UNL     1       4.693   4.998  14.980  1.00  0.00     0.029 A 
ATOM     52  N   UNL     1       3.858   6.700  13.818  1.00  0.00    -0.354 N 
ATOM     53  N   UNL     1       3.756   9.474  12.897  1.00  0.00    -0.248 NA
ATOM     54  C   UNL     1       4.504  11.684  12.995  1.00  0.00     0.031 C 
ATOM     55  C   UNL     1       5.380   6.157  15.343  1.00  0.00     0.029 A 
ATOM     56  C   UNL     1       4.890   7.211  14.589  1.00  0.00     0.049 A 
ATOM     57  H   UNL     1       3.311   7.221  13.188  1.00  0.00     0.167 HD
ATOM     58  C   UNL     1       4.799   9.561  13.811  1.00  0.00     0.074 A 
ATOM     59  C   UNL     1       5.246  10.939  13.805  1.00  0.00     0.031 C 
ATOM     60  C   UNL     1       5.333   8.584  14.583  1.00  0.00     0.031 A 
BRANCH  47  61
ATOM     61  C   UNL     1       2.671   3.054  13.910  1.00  0.00    -0.014 A 
ATOM     62  C   UNL     1       2.378   2.725  15.244  1.00  0.00     0.009 A 
ATOM     63  C   UNL     1       3.055   2.029  13.030  1.00  0.00     0.009 A 
ATOM     64  C   UNL     1       2.492   1.408  15.693  1.00  0.00     0.001 A 
ATOM     65  C   UNL     1       3.136   0.707  13.474  1.00  0.00     0.001 A 
ATOM     66  C   UNL     1       2.868   0.400  14.807  1.00  0.00     0.000 A 
ENDBRANCH  47  61
BRANCH  48  67
ATOM     67  C   UNL     1       2.638  12.570  10.889  1.00  0.00    -0.014 A 
ATOM     68  C   UNL     1       1.526  13.402  11.105  1.00  0.00     0.009 A 
ATOM     69  C   UNL     1       3.724  13.073  10.158  1.00  0.00     0.009 A 
ATOM     70  C   UNL     1       1.486  14.691  10.570  1.00  0.00     0.001 A 
ATOM     71  C   UNL     1       3.697  14.377   9.655  1.00  0.00     0.001 A 
ATOM     72  C   UNL     1       2.574  15.179   9.850  1.00  0.00     0.000 A 
ENDBRANCH  48  67
BRANCH  60  73
ATOM     73  C   UNL     1       6.478   8.941  15.494  1.00  0.00    -0.014 A 
ATOM     74  C   UNL     1       7.744   8.369  15.280  1.00  0.00     0.009 A 
ATOM     75  C   UNL     1       6.282   9.740  16.631  1.00  0.00     0.009 A 
ATOM     76  C   UNL     1       8.778   8.565  16.197  1.00  0.00     0.001 A 
ATOM     77  C   UNL     1       7.330   9.966  17.527  1.00  0.00     0.001 A 
ATOM     78  C   UNL     1       8.572   9.366  17.317  1.00  0.00     0.000 A 
ENDBRANCH  60  73
ENDBRANCH  34  35
ENDBRANCH  27  29
ENDBRANCH  26  27
ENDBRANCH  25  26
ENDBRANCH   1  25
TORSDOF 16
