REMARK SMILES COc1ccc(OC)c(C[NH2+][C@@H](C(=O)OCCOCCOC(=O)c2ccc(-c3c4nc(c(-c5ccccc5)c5ccc([nH]5)c(-c5ccccc5)c5nc(c(-c6ccccc6)c6ccc3[nH]6)C=C5)C=C4)cc2)C(C)C)c1
REMARK SMILES IDX 17 1 16 2 15 3 13 4 14 5 12 6 11 7 10 10 9 11 3 12 4 13
REMARK SMILES IDX 75 14 5 15 6 16 2 17 1 18 7 19 8 20 72 21 73 22 74 23 18 24
REMARK SMILES IDX 19 25 20 26 21 27 22 28 23 29 24 30 25 31 71 32 26 33 70 34
REMARK SMILES IDX 27 35 28 36 29 37 64 38 30 39 69 40 63 41 65 42 31 43 68 44
REMARK SMILES IDX 62 45 61 46 32 48 54 49 39 50 53 51 40 52 43 53 52 54 66 55
REMARK SMILES IDX 41 56 42 57 51 59 67 60 44 61 33 62 34 63 38 64 35 65 37 66
REMARK SMILES IDX 36 67 55 68 56 69 60 70 57 71 59 72 58 73 45 74 46 75 50 76
REMARK SMILES IDX 47 77 49 78 48 79
REMARK H PARENT 11 8 11 9 65 47 43 58
REMARK Flexibility Score: inf
ROOT
ATOM      1  C   UNL     1       7.817   0.988   0.742  1.00  0.00     0.202 C 
ENDROOT
BRANCH   1   2
ATOM      2  C   UNL     1       7.944   1.225   2.244  1.00  0.00     0.261 C 
BRANCH   2   3
ATOM      3  O   UNL     1       6.874   2.078   2.674  1.00  0.00    -0.459 OA
BRANCH   3   4
ATOM      4  C   UNL     1       7.248   3.159   3.401  1.00  0.00     0.365 C 
ATOM      5  O   UNL     1       8.329   3.236   3.978  1.00  0.00    -0.245 OA
BRANCH   4   6
ATOM      6  C   UNL     1       6.182   4.284   3.446  1.00  0.00     0.296 C 
BRANCH   6   7
ATOM      7  N   UNL     1       4.922   4.010   2.670  1.00  0.00    -0.330 N 
ATOM      8  H   UNL     1       4.375   4.871   2.646  1.00  0.00     0.347 HD
ATOM      9  H   UNL     1       5.226   3.688   1.751  1.00  0.00     0.347 HD
BRANCH   7  10
ATOM     10  C   UNL     1       4.066   2.947   3.202  1.00  0.00     0.302 C 
BRANCH  10  11
ATOM     11  C   UNL     1       2.589   3.179   2.881  1.00  0.00     0.052 A 
ATOM     12  C   UNL     1       0.671   2.569   1.435  1.00  0.00     0.119 A 
ATOM     13  C   UNL     1      -0.111   3.513   2.077  1.00  0.00     0.050 A 
ATOM     14  C   UNL     1       2.005   2.405   1.833  1.00  0.00     0.059 A 
ATOM     15  C   UNL     1       0.435   4.292   3.090  1.00  0.00     0.051 A 
ATOM     16  C   UNL     1       1.772   4.148   3.495  1.00  0.00     0.127 A 
BRANCH  12  17
ATOM     17  O   UNL     1       0.049   1.976   0.374  1.00  0.00    -0.497 OA
ATOM     18  C   UNL     1       0.282   0.597   0.153  1.00  0.00     0.278 C 
ENDBRANCH  12  17
BRANCH  16  19
ATOM     19  O   UNL     1       2.102   5.117   4.399  1.00  0.00    -0.496 OA
ATOM     20  C   UNL     1       3.066   4.864   5.398  1.00  0.00     0.278 C 
ENDBRANCH  16  19
ENDBRANCH  10  11
ENDBRANCH   7  10
ENDBRANCH   6   7
BRANCH   6  21
ATOM     21  C   UNL     1       6.740   5.662   2.937  1.00  0.00     0.053 C 
ATOM     22  C   UNL     1       5.883   6.829   3.460  1.00  0.00     0.014 C 
ATOM     23  C   UNL     1       8.200   5.965   3.301  1.00  0.00     0.014 C 
ENDBRANCH   6  21
ENDBRANCH   4   6
ENDBRANCH   3   4
ENDBRANCH   2   3
ENDBRANCH   1   2
BRANCH   1  24
ATOM     24  O   UNL     1       7.952   2.127  -0.110  1.00  0.00    -0.374 OA
BRANCH  24  25
ATOM     25  C   UNL     1       6.891   3.083  -0.127  1.00  0.00     0.202 C 
BRANCH  25  26
ATOM     26  C   UNL     1       5.603   2.718  -0.877  1.00  0.00     0.261 C 
BRANCH  26  27
ATOM     27  O   UNL     1       4.986   1.511  -0.406  1.00  0.00    -0.460 OA
BRANCH  27  28
ATOM     28  C   UNL     1       5.258   0.402  -1.137  1.00  0.00     0.338 C 
ATOM     29  O   UNL     1       5.907   0.330  -2.170  1.00  0.00    -0.246 OA
BRANCH  28  30
ATOM     30  C   UNL     1       4.776  -0.787  -0.405  1.00  0.00     0.060 A 
ATOM     31  C   UNL     1       5.582  -1.924  -0.314  1.00  0.00     0.016 A 
ATOM     32  C   UNL     1       3.509  -0.788   0.168  1.00  0.00     0.016 A 
ATOM     33  C   UNL     1       5.080  -3.084   0.279  1.00  0.00     0.010 A 
ATOM     34  C   UNL     1       3.009  -1.933   0.781  1.00  0.00     0.010 A 
ATOM     35  C   UNL     1       3.770  -3.107   0.778  1.00  0.00    -0.014 A 
BRANCH  35  36
ATOM     36  C   UNL     1       3.116  -4.384   1.142  1.00  0.00     0.031 A 
ATOM     37  C   UNL     1       2.117  -4.986   0.189  1.00  0.00     0.074 A 
ATOM     38  C   UNL     1       3.382  -4.979   2.316  1.00  0.00     0.049 A 
ATOM     39  N   UNL     1       1.442  -6.102   0.291  1.00  0.00    -0.248 NA
ATOM     40  C   UNL     1       1.823  -4.218  -1.034  1.00  0.00     0.031 C 
ATOM     41  C   UNL     1       4.298  -4.472   3.336  1.00  0.00     0.029 A 
ATOM     42  N   UNL     1       2.891  -6.143   2.849  1.00  0.00    -0.354 N 
ATOM     43  C   UNL     1       0.651  -6.169  -0.850  1.00  0.00     0.074 A 
ATOM     44  C   UNL     1       0.880  -4.956  -1.600  1.00  0.00     0.031 C 
ATOM     45  C   UNL     1       4.310  -5.327   4.372  1.00  0.00     0.029 A 
ATOM     46  C   UNL     1       3.391  -6.429   4.094  1.00  0.00     0.049 A 
ATOM     47  H   UNL     1       2.241  -6.718   2.383  1.00  0.00     0.167 HD
ATOM     48  C   UNL     1      -0.177  -7.163  -1.249  1.00  0.00     0.031 A 
ATOM     49  C   UNL     1       3.135  -7.466   4.914  1.00  0.00     0.031 A 
ATOM     50  C   UNL     1      -0.414  -8.363  -0.492  1.00  0.00     0.049 A 
ATOM     51  C   UNL     1       2.189  -8.546   4.463  1.00  0.00     0.074 A 
ATOM     52  C   UNL     1      -1.189  -9.458  -0.832  1.00  0.00     0.029 A 
ATOM     53  N   UNL     1       0.114  -8.618   0.764  1.00  0.00    -0.354 N 
ATOM     54  N   UNL     1       1.522  -8.646   3.338  1.00  0.00    -0.248 NA
ATOM     55  C   UNL     1       1.980  -9.669   5.387  1.00  0.00     0.031 C 
ATOM     56  C   UNL     1      -1.182 -10.347   0.248  1.00  0.00     0.029 A 
ATOM     57  C   UNL     1      -0.344  -9.839   1.228  1.00  0.00     0.049 A 
ATOM     58  H   UNL     1       0.724  -8.020   1.253  1.00  0.00     0.167 HD
ATOM     59  C   UNL     1       0.845  -9.858   3.404  1.00  0.00     0.074 A 
ATOM     60  C   UNL     1       1.194 -10.463   4.673  1.00  0.00     0.031 C 
ATOM     61  C   UNL     1       0.013 -10.425   2.495  1.00  0.00     0.031 A 
BRANCH  48  62
ATOM     62  C   UNL     1      -0.895  -6.990  -2.561  1.00  0.00    -0.014 A 
ATOM     63  C   UNL     1      -0.198  -7.004  -3.781  1.00  0.00     0.009 A 
ATOM     64  C   UNL     1      -2.292  -6.855  -2.583  1.00  0.00     0.009 A 
ATOM     65  C   UNL     1      -0.881  -6.851  -4.990  1.00  0.00     0.001 A 
ATOM     66  C   UNL     1      -2.975  -6.735  -3.794  1.00  0.00     0.001 A 
ATOM     67  C   UNL     1      -2.269  -6.724  -4.996  1.00  0.00     0.000 A 
ENDBRANCH  48  62
BRANCH  49  68
ATOM     68  C   UNL     1       3.808  -7.548   6.237  1.00  0.00    -0.014 A 
ATOM     69  C   UNL     1       4.783  -8.528   6.482  1.00  0.00     0.009 A 
ATOM     70  C   UNL     1       3.476  -6.650   7.263  1.00  0.00     0.009 A 
ATOM     71  C   UNL     1       5.388  -8.626   7.737  1.00  0.00     0.001 A 
ATOM     72  C   UNL     1       4.106  -6.731   8.507  1.00  0.00     0.001 A 
ATOM     73  C   UNL     1       5.054  -7.724   8.746  1.00  0.00     0.000 A 
ENDBRANCH  49  68
BRANCH  61  74
ATOM     74  C   UNL     1      -0.544 -11.784   2.819  1.00  0.00    -0.014 A 
ATOM     75  C   UNL     1      -1.500 -11.965   3.830  1.00  0.00     0.009 A 
ATOM     76  C   UNL     1      -0.131 -12.897   2.068  1.00  0.00     0.009 A 
ATOM     77  C   UNL     1      -2.001 -13.239   4.108  1.00  0.00     0.001 A 
ATOM     78  C   UNL     1      -0.658 -14.163   2.325  1.00  0.00     0.001 A 
ATOM     79  C   UNL     1      -1.584 -14.335   3.352  1.00  0.00     0.000 A 
ENDBRANCH  61  74
ENDBRANCH  35  36
ENDBRANCH  28  30
ENDBRANCH  27  28
ENDBRANCH  26  27
ENDBRANCH  25  26
ENDBRANCH  24  25
ENDBRANCH   1  24
TORSDOF 20
