REMARK SMILES O=C1[NH+]=C(S)N(c2cccc(Br)c2)C(=O)/C1=C/c1ccc(-c2ccc(C(=O)OCCOCCOC(=O)c3ccc(-c4c5nc(c(-c6ccccc6)c6ccc([nH]6)c(-c6ccccc6)c6nc(c(-c7ccccc7)c7ccc4[nH]7)C=C6)C=C5)cc3)cc2)o1
REMARK SMILES IDX 30 1 29 2 28 3 26 4 27 5 25 6 22 7 23 8 86 9 24 10 85 11
REMARK SMILES IDX 21 12 18 13 19 14 87 15 20 16 17 17 1 18 2 19 3 20 16 21
REMARK SMILES IDX 4 22 14 24 6 25 15 26 5 27 7 29 8 30 13 31 9 32 11 33 10 34
REMARK SMILES IDX 12 35 31 36 32 37 33 38 34 39 35 40 36 41 37 42 38 43 84 44
REMARK SMILES IDX 39 45 83 46 40 47 41 48 42 49 77 50 43 51 82 52 76 53 78 54
REMARK SMILES IDX 44 55 81 56 75 57 74 58 45 60 67 61 52 62 66 63 53 64 56 65
REMARK SMILES IDX 65 66 79 67 54 68 55 69 64 71 80 72 57 73 46 74 47 75 51 76
REMARK SMILES IDX 48 77 50 78 49 79 68 80 69 81 73 82 70 83 72 84 71 85 58 86
REMARK SMILES IDX 59 87 63 88 60 89 62 90 61 91
REMARK H PARENT 3 23 5 28 78 59 56 70
REMARK Flexibility Score: inf
ROOT
ATOM      1  C   UNL     1      -7.773  -6.028   4.959  1.00  0.00     0.202 C 
ENDROOT
BRANCH   1   2
ATOM      2  C   UNL     1      -8.039  -4.964   3.890  1.00  0.00     0.261 C 
BRANCH   2   3
ATOM      3  O   UNL     1      -6.903  -4.751   3.042  1.00  0.00    -0.460 OA
BRANCH   3   4
ATOM      4  C   UNL     1      -6.235  -3.596   3.285  1.00  0.00     0.338 C 
ATOM      5  O   UNL     1      -6.564  -2.712   4.059  1.00  0.00    -0.246 OA
BRANCH   4   6
ATOM      6  C   UNL     1      -4.938  -3.588   2.570  1.00  0.00     0.060 A 
ATOM      7  C   UNL     1      -2.530  -3.241   1.185  1.00  0.00     0.017 A 
ATOM      8  C   UNL     1      -2.671  -2.729   2.479  1.00  0.00     0.013 A 
ATOM      9  C   UNL     1      -3.563  -4.021   0.638  1.00  0.00     0.013 A 
ATOM     10  C   UNL     1      -3.876  -2.890   3.163  1.00  0.00     0.016 A 
ATOM     11  C   UNL     1      -4.763  -4.204   1.329  1.00  0.00     0.016 A 
BRANCH   7  12
ATOM     12  C   UNL     1      -1.436  -2.802   0.338  1.00  0.00     0.134 A 
ATOM     13  C   UNL     1       0.679  -2.313  -0.109  1.00  0.00     0.128 A 
ATOM     14  C   UNL     1      -0.092  -1.911  -1.194  1.00  0.00     0.051 A 
ATOM     15  O   UNL     1      -0.165  -2.882   0.824  1.00  0.00    -0.457 OA
ATOM     16  C   UNL     1      -1.435  -2.220  -0.908  1.00  0.00     0.051 A 
BRANCH  13  17
ATOM     17  C   UNL     1       2.089  -2.233   0.039  1.00  0.00     0.071 C 
ATOM     18  O   UNL     1       0.992   0.458   0.286  1.00  0.00    -0.241 OA
ATOM     19  C   UNL     1       2.193   0.272   0.135  1.00  0.00     0.347 C 
ATOM     20  N   UNL     1       3.046   1.325   0.035  1.00  0.00    -0.200 N 
ATOM     21  C   UNL     1       2.794  -1.081   0.063  1.00  0.00     0.158 C 
ATOM     22  C   UNL     1       4.320   1.177  -0.001  1.00  0.00     0.323 C 
ATOM     23  H   UNL     1       2.673   2.235  -0.012  1.00  0.00     0.316 HD
ATOM     24  C   UNL     1       4.274  -1.221   0.026  1.00  0.00     0.354 C 
ATOM     25  N   UNL     1       4.991  -0.031   0.027  1.00  0.00    -0.151 N 
ATOM     26  O   UNL     1       4.790  -2.339  -0.005  1.00  0.00    -0.240 OA
BRANCH  22  27
ATOM     27  S   UNL     1       5.203   2.682  -0.189  1.00  0.00    -0.055 SA
ATOM     28  H   UNL     1       4.329   3.724  -0.187  1.00  0.00     0.116 HD
ENDBRANCH  22  27
BRANCH  25  29
ATOM     29  C   UNL     1       6.421  -0.119   0.023  1.00  0.00     0.138 A 
ATOM     30  C   UNL     1       7.083  -0.808  -1.005  1.00  0.00     0.052 A 
ATOM     31  C   UNL     1       7.176   0.467   1.049  1.00  0.00     0.068 A 
ATOM     32  C   UNL     1       8.478  -0.874  -1.029  1.00  0.00     0.006 A 
ATOM     33  C   UNL     1       8.568   0.386   1.022  1.00  0.00     0.022 A 
ATOM     34  C   UNL     1       9.223  -0.274  -0.016  1.00  0.00     0.016 A 
ATOM     35  Br  UNL     1       9.576   1.176   2.413  1.00  0.00    -0.051 Br
ENDBRANCH  25  29
ENDBRANCH  13  17
ENDBRANCH   7  12
ENDBRANCH   4   6
ENDBRANCH   3   4
ENDBRANCH   2   3
ENDBRANCH   1   2
BRANCH   1  36
ATOM     36  O   UNL     1      -6.698  -5.814   5.869  1.00  0.00    -0.374 OA
BRANCH  36  37
ATOM     37  C   UNL     1      -5.365  -6.018   5.405  1.00  0.00     0.202 C 
BRANCH  37  38
ATOM     38  C   UNL     1      -4.885  -7.458   5.180  1.00  0.00     0.261 C 
BRANCH  38  39
ATOM     39  O   UNL     1      -5.615  -8.140   4.147  1.00  0.00    -0.460 OA
BRANCH  39  40
ATOM     40  C   UNL     1      -6.483  -9.080   4.595  1.00  0.00     0.338 C 
ATOM     41  O   UNL     1      -6.685  -9.422   5.747  1.00  0.00    -0.246 OA
BRANCH  40  42
ATOM     42  C   UNL     1      -7.316  -9.543   3.471  1.00  0.00     0.060 A 
ATOM     43  C   UNL     1      -8.709  -9.435   3.588  1.00  0.00     0.016 A 
ATOM     44  C   UNL     1      -6.736 -10.143   2.355  1.00  0.00     0.016 A 
ATOM     45  C   UNL     1      -9.534  -9.969   2.601  1.00  0.00     0.010 A 
ATOM     46  C   UNL     1      -7.564 -10.686   1.373  1.00  0.00     0.010 A 
ATOM     47  C   UNL     1      -8.964 -10.632   1.509  1.00  0.00    -0.014 A 
BRANCH  47  48
ATOM     48  C   UNL     1      -9.804 -11.424   0.582  1.00  0.00     0.031 A 
ATOM     49  C   UNL     1      -9.819 -12.919   0.726  1.00  0.00     0.074 A 
ATOM     50  C   UNL     1     -10.509 -10.829  -0.395  1.00  0.00     0.049 A 
ATOM     51  N   UNL     1     -10.357 -13.824  -0.049  1.00  0.00    -0.248 NA
ATOM     52  C   UNL     1      -9.120 -13.465   1.901  1.00  0.00     0.031 C 
ATOM     53  C   UNL     1     -10.630  -9.387  -0.596  1.00  0.00     0.029 A 
ATOM     54  N   UNL     1     -11.246 -11.378  -1.413  1.00  0.00    -0.354 N 
ATOM     55  C   UNL     1     -10.038 -15.047   0.527  1.00  0.00     0.074 A 
ATOM     56  C   UNL     1      -9.237 -14.768   1.699  1.00  0.00     0.031 C 
ATOM     57  C   UNL     1     -11.394  -9.164  -1.679  1.00  0.00     0.029 A 
ATOM     58  C   UNL     1     -11.769 -10.445  -2.273  1.00  0.00     0.049 A 
ATOM     59  H   UNL     1     -11.387 -12.347  -1.516  1.00  0.00     0.167 HD
ATOM     60  C   UNL     1     -10.379 -16.291   0.115  1.00  0.00     0.031 A 
ATOM     61  C   UNL     1     -12.446 -10.612  -3.425  1.00  0.00     0.031 A 
ATOM     62  C   UNL     1     -11.157 -16.561  -1.065  1.00  0.00     0.049 A 
ATOM     63  C   UNL     1     -12.719 -12.005  -3.927  1.00  0.00     0.074 A 
ATOM     64  C   UNL     1     -11.571 -17.782  -1.565  1.00  0.00     0.029 A 
ATOM     65  N   UNL     1     -11.626 -15.589  -1.936  1.00  0.00    -0.354 N 
ATOM     66  N   UNL     1     -12.425 -13.157  -3.373  1.00  0.00    -0.248 NA
ATOM     67  C   UNL     1     -13.418 -12.121  -5.216  1.00  0.00     0.031 C 
ATOM     68  C   UNL     1     -12.229 -17.554  -2.777  1.00  0.00     0.029 A 
ATOM     69  C   UNL     1     -12.295 -16.186  -2.990  1.00  0.00     0.049 A 
ATOM     70  H   UNL     1     -11.501 -14.619  -1.822  1.00  0.00     0.167 HD
ATOM     71  C   UNL     1     -12.944 -14.131  -4.219  1.00  0.00     0.074 A 
ATOM     72  C   UNL     1     -13.565 -13.434  -5.327  1.00  0.00     0.031 C 
ATOM     73  C   UNL     1     -12.920 -15.479  -4.080  1.00  0.00     0.031 A 
BRANCH  60  74
ATOM     74  C   UNL     1      -9.855 -17.450   0.920  1.00  0.00    -0.014 A 
ATOM     75  C   UNL     1     -10.287 -17.690   2.235  1.00  0.00     0.009 A 
ATOM     76  C   UNL     1      -8.903 -18.312   0.354  1.00  0.00     0.009 A 
ATOM     77  C   UNL     1      -9.733 -18.732   2.983  1.00  0.00     0.001 A 
ATOM     78  C   UNL     1      -8.380 -19.376   1.090  1.00  0.00     0.001 A 
ATOM     79  C   UNL     1      -8.782 -19.575   2.409  1.00  0.00     0.000 A 
ENDBRANCH  60  74
BRANCH  61  80
ATOM     80  C   UNL     1     -12.920  -9.425  -4.185  1.00  0.00    -0.014 A 
ATOM     81  C   UNL     1     -14.291  -9.140  -4.263  1.00  0.00     0.009 A 
ATOM     82  C   UNL     1     -12.011  -8.570  -4.829  1.00  0.00     0.009 A 
ATOM     83  C   UNL     1     -14.745  -8.034  -4.985  1.00  0.00     0.001 A 
ATOM     84  C   UNL     1     -12.466  -7.448  -5.526  1.00  0.00     0.001 A 
ATOM     85  C   UNL     1     -13.832  -7.186  -5.610  1.00  0.00     0.000 A 
ENDBRANCH  61  80
BRANCH  73  86
ATOM     86  C   UNL     1     -13.642 -16.303  -5.111  1.00  0.00    -0.014 A 
ATOM     87  C   UNL     1     -13.136 -16.475  -6.408  1.00  0.00     0.009 A 
ATOM     88  C   UNL     1     -14.810 -16.992  -4.741  1.00  0.00     0.009 A 
ATOM     89  C   UNL     1     -13.794 -17.307  -7.317  1.00  0.00     0.001 A 
ATOM     90  C   UNL     1     -15.447 -17.847  -5.641  1.00  0.00     0.001 A 
ATOM     91  C   UNL     1     -14.942 -17.999  -6.930  1.00  0.00     0.000 A 
ENDBRANCH  73  86
ENDBRANCH  47  48
ENDBRANCH  40  42
ENDBRANCH  39  40
ENDBRANCH  38  39
ENDBRANCH  37  38
ENDBRANCH  36  37
ENDBRANCH   1  36
TORSDOF 18
