REMARK SMILES Cc1ccc2c(c1)O[C@@H](C(=O)OCCOCCOC(=O)c1ccc(-c3c4nc(c(-c5ccccc5)c5ccc([nH]5)c(-c5ccccc5)c5nc(c(-c6ccccc6)c6ccc3[nH]6)C=C5)C=C4)cc1)CC2=O
REMARK SMILES IDX 16 1 15 2 14 3 13 4 12 5 10 6 11 7 9 8 1 9 2 10 3 11 7 12
REMARK SMILES IDX 4 13 6 14 5 15 8 16 70 17 69 18 71 19 17 20 18 21 19 22
REMARK SMILES IDX 20 23 21 24 22 25 68 26 23 27 67 28 24 29 25 30 26 31 61 32
REMARK SMILES IDX 27 33 66 34 60 35 62 36 28 37 65 38 59 39 58 40 29 42 51 43
REMARK SMILES IDX 36 44 50 45 37 46 40 47 49 48 63 49 38 50 39 51 48 53 64 54
REMARK SMILES IDX 41 55 30 56 31 57 35 58 32 59 34 60 33 61 52 62 53 63 57 64
REMARK SMILES IDX 54 65 56 66 55 67 42 68 43 69 47 70 44 71 46 72 45 73
REMARK H PARENT 62 41 40 52
REMARK Flexibility Score: inf
ROOT
ATOM      1  C   UNL     1      -4.053  -2.617   6.693  1.00  0.00     0.202 C 
ENDROOT
BRANCH   1   2
ATOM      2  O   UNL     1      -5.159  -2.370   5.828  1.00  0.00    -0.374 OA
BRANCH   2   3
ATOM      3  C   UNL     1      -4.955  -2.520   4.427  1.00  0.00     0.202 C 
BRANCH   3   4
ATOM      4  C   UNL     1      -4.176  -1.413   3.712  1.00  0.00     0.261 C 
BRANCH   4   5
ATOM      5  O   UNL     1      -2.816  -1.318   4.171  1.00  0.00    -0.460 OA
BRANCH   5   6
ATOM      6  C   UNL     1      -2.496  -0.189   4.864  1.00  0.00     0.347 C 
ATOM      7  O   UNL     1      -3.275   0.725   5.106  1.00  0.00    -0.248 OA
BRANCH   6   8
ATOM      8  C   UNL     1      -1.019  -0.161   5.290  1.00  0.00     0.290 C 
ATOM      9  C   UNL     1       1.106  -0.081  -0.363  1.00  0.00     0.044 C 
ATOM     10  C   UNL     1       0.746  -0.704   0.953  1.00  0.00    -0.047 A 
ATOM     11  C   UNL     1       0.772  -2.097   1.112  1.00  0.00     0.004 A 
ATOM     12  C   UNL     1       0.439   0.108   2.051  1.00  0.00     0.050 A 
ATOM     13  C   UNL     1       0.478  -2.673   2.350  1.00  0.00     0.016 A 
ATOM     14  C   UNL     1       0.127  -0.465   3.280  1.00  0.00     0.131 A 
ATOM     15  C   UNL     1       0.159  -1.850   3.431  1.00  0.00     0.060 A 
ATOM     16  O   UNL     1      -0.179   0.405   4.289  1.00  0.00    -0.477 OA
ATOM     17  C   UNL     1      -0.125  -2.425   4.758  1.00  0.00     0.170 C 
ATOM     18  C   UNL     1      -0.449  -1.453   5.857  1.00  0.00     0.138 C 
ATOM     19  O   UNL     1      -0.035  -3.632   4.959  1.00  0.00    -0.294 OA
ENDBRANCH   6   8
ENDBRANCH   5   6
ENDBRANCH   4   5
ENDBRANCH   3   4
ENDBRANCH   2   3
ENDBRANCH   1   2
BRANCH   1  20
ATOM     20  C   UNL     1      -3.619  -4.076   6.890  1.00  0.00     0.261 C 
BRANCH  20  21
ATOM     21  O   UNL     1      -3.057  -4.644   5.695  1.00  0.00    -0.460 OA
BRANCH  21  22
ATOM     22  C   UNL     1      -3.793  -5.617   5.108  1.00  0.00     0.338 C 
ATOM     23  O   UNL     1      -4.856  -6.079   5.497  1.00  0.00    -0.246 OA
BRANCH  22  24
ATOM     24  C   UNL     1      -3.237  -5.909   3.773  1.00  0.00     0.060 A 
ATOM     25  C   UNL     1      -1.912  -6.313   3.608  1.00  0.00     0.016 A 
ATOM     26  C   UNL     1      -4.091  -5.805   2.667  1.00  0.00     0.016 A 
ATOM     27  C   UNL     1      -1.451  -6.643   2.330  1.00  0.00     0.010 A 
ATOM     28  C   UNL     1      -3.627  -6.125   1.392  1.00  0.00     0.010 A 
ATOM     29  C   UNL     1      -2.308  -6.567   1.217  1.00  0.00    -0.014 A 
BRANCH  29  30
ATOM     30  C   UNL     1      -1.870  -7.068  -0.109  1.00  0.00     0.031 A 
ATOM     31  C   UNL     1      -1.540  -6.129  -1.231  1.00  0.00     0.074 A 
ATOM     32  C   UNL     1      -1.806  -8.399  -0.303  1.00  0.00     0.049 A 
ATOM     33  N   UNL     1      -1.127  -6.415  -2.440  1.00  0.00    -0.248 NA
ATOM     34  C   UNL     1      -1.692  -4.690  -0.970  1.00  0.00     0.031 C 
ATOM     35  C   UNL     1      -2.126  -9.406   0.709  1.00  0.00     0.029 A 
ATOM     36  N   UNL     1      -1.453  -9.135  -1.408  1.00  0.00    -0.354 N 
ATOM     37  C   UNL     1      -0.951  -5.196  -3.079  1.00  0.00     0.074 A 
ATOM     38  C   UNL     1      -1.346  -4.167  -2.141  1.00  0.00     0.031 C 
ATOM     39  C   UNL     1      -1.935 -10.627   0.187  1.00  0.00     0.029 A 
ATOM     40  C   UNL     1      -1.521 -10.493  -1.208  1.00  0.00     0.049 A 
ATOM     41  H   UNL     1      -1.178  -8.728  -2.261  1.00  0.00     0.167 HD
ATOM     42  C   UNL     1      -0.484  -4.965  -4.329  1.00  0.00     0.031 A 
ATOM     43  C   UNL     1      -1.288 -11.521  -2.049  1.00  0.00     0.031 A 
ATOM     44  C   UNL     1      -0.112  -5.999  -5.262  1.00  0.00     0.049 A 
ATOM     45  C   UNL     1      -0.828 -11.235  -3.451  1.00  0.00     0.074 A 
ATOM     46  C   UNL     1       0.405  -5.850  -6.538  1.00  0.00     0.029 A 
ATOM     47  N   UNL     1      -0.226  -7.362  -5.034  1.00  0.00    -0.354 N 
ATOM     48  N   UNL     1      -0.590 -10.076  -4.016  1.00  0.00    -0.248 NA
ATOM     49  C   UNL     1      -0.589 -12.390  -4.330  1.00  0.00     0.031 C 
ATOM     50  C   UNL     1       0.529  -7.116  -7.110  1.00  0.00     0.029 A 
ATOM     51  C   UNL     1       0.175  -8.061  -6.161  1.00  0.00     0.049 A 
ATOM     52  H   UNL     1      -0.543  -7.771  -4.197  1.00  0.00     0.167 HD
ATOM     53  C   UNL     1      -0.158 -10.361  -5.305  1.00  0.00     0.074 A 
ATOM     54  C   UNL     1      -0.145 -11.802  -5.435  1.00  0.00     0.031 C 
ATOM     55  C   UNL     1       0.192  -9.497  -6.289  1.00  0.00     0.031 A 
BRANCH  42  56
ATOM     56  C   UNL     1      -0.317  -3.540  -4.782  1.00  0.00    -0.014 A 
ATOM     57  C   UNL     1      -1.084  -3.050  -5.852  1.00  0.00     0.009 A 
ATOM     58  C   UNL     1       0.709  -2.737  -4.259  1.00  0.00     0.009 A 
ATOM     59  C   UNL     1      -0.806  -1.801  -6.411  1.00  0.00     0.001 A 
ATOM     60  C   UNL     1       0.964  -1.475  -4.800  1.00  0.00     0.001 A 
ATOM     61  C   UNL     1       0.218  -1.015  -5.884  1.00  0.00     0.000 A 
ENDBRANCH  42  56
BRANCH  43  62
ATOM     62  C   UNL     1      -1.477 -12.914  -1.560  1.00  0.00    -0.014 A 
ATOM     63  C   UNL     1      -2.757 -13.374  -1.202  1.00  0.00     0.009 A 
ATOM     64  C   UNL     1      -0.380 -13.770  -1.383  1.00  0.00     0.009 A 
ATOM     65  C   UNL     1      -2.928 -14.643  -0.646  1.00  0.00     0.001 A 
ATOM     66  C   UNL     1      -0.560 -15.054  -0.862  1.00  0.00     0.001 A 
ATOM     67  C   UNL     1      -1.830 -15.484  -0.481  1.00  0.00     0.000 A 
ENDBRANCH  43  62
BRANCH  55  68
ATOM     68  C   UNL     1       0.631 -10.058  -7.615  1.00  0.00    -0.014 A 
ATOM     69  C   UNL     1       1.953  -9.862  -8.051  1.00  0.00     0.009 A 
ATOM     70  C   UNL     1      -0.295 -10.633  -8.498  1.00  0.00     0.009 A 
ATOM     71  C   UNL     1       2.328 -10.193  -9.355  1.00  0.00     0.001 A 
ATOM     72  C   UNL     1       0.092 -10.995  -9.791  1.00  0.00     0.001 A 
ATOM     73  C   UNL     1       1.397 -10.759 -10.223  1.00  0.00     0.000 A 
ENDBRANCH  55  68
ENDBRANCH  29  30
ENDBRANCH  22  24
ENDBRANCH  21  22
ENDBRANCH  20  21
ENDBRANCH   1  20
TORSDOF 14
