REMARK SMILES O=C(OCCOCCOC(=O)[C@H](c1ccc(O)cc1)[NH+]1CC[NH+](Cc2cccc(Cl)c2)CC1)c1ccc(-c2c3nc(c(-c4ccccc4)c4ccc([nH]4)c(-c4ccccc4)c4nc(c(-c5ccccc5)c5ccc2[nH]5)C=C4)C=C3)cc1
REMARK SMILES IDX 7 1 6 2 5 3 4 4 3 5 2 6 1 7 34 8 35 9 81 10 36 11 80 12
REMARK SMILES IDX 37 13 38 14 39 15 74 16 40 17 79 18 73 19 75 20 41 21 78 22
REMARK SMILES IDX 72 23 71 24 42 26 64 27 49 28 63 29 50 30 53 31 62 32 76 33
REMARK SMILES IDX 51 34 52 35 61 37 77 38 54 39 43 40 44 41 48 42 45 43 47 44
REMARK SMILES IDX 46 45 65 46 66 47 70 48 67 49 69 50 68 51 55 52 56 53 60 54
REMARK SMILES IDX 57 55 59 56 58 57 8 58 9 59 10 60 11 61 12 62 20 63 21 64
REMARK SMILES IDX 33 65 22 67 32 68 23 69 24 71 25 72 26 73 31 74 27 75 29 76
REMARK SMILES IDX 28 77 30 78 13 79 14 80 19 81 15 82 18 83 16 84 17 85
REMARK H PARENT 75 25 53 36 20 66 23 70 17 86
REMARK Flexibility Score: inf
ROOT
ATOM      1  C   UNL     1       5.912  -3.109   3.941  1.00  0.00     0.202 C 
ENDROOT
BRANCH   1   2
ATOM      2  O   UNL     1       5.567  -1.933   3.221  1.00  0.00    -0.374 OA
BRANCH   2   3
ATOM      3  C   UNL     1       6.466  -1.497   2.205  1.00  0.00     0.202 C 
BRANCH   3   4
ATOM      4  C   UNL     1       7.446  -0.450   2.733  1.00  0.00     0.261 C 
BRANCH   4   5
ATOM      5  O   UNL     1       8.119  -0.923   3.909  1.00  0.00    -0.460 OA
BRANCH   5   6
ATOM      6  C   UNL     1       7.657  -0.908   5.182  1.00  0.00     0.338 C 
ATOM      7  O   UNL     1       8.273  -1.557   6.029  1.00  0.00    -0.246 OA
BRANCH   6   8
ATOM      8  C   UNL     1       6.445  -0.157   5.644  1.00  0.00     0.060 A 
ATOM      9  C   UNL     1       5.320   0.156   4.871  1.00  0.00     0.016 A 
ATOM     10  C   UNL     1       6.405   0.167   7.011  1.00  0.00     0.016 A 
ATOM     11  C   UNL     1       4.169   0.681   5.418  1.00  0.00     0.010 A 
ATOM     12  C   UNL     1       5.290   0.796   7.560  1.00  0.00     0.010 A 
ATOM     13  C   UNL     1       4.181   1.054   6.749  1.00  0.00    -0.014 A 
BRANCH  13  14
ATOM     14  C   UNL     1       3.153   2.010   7.147  1.00  0.00     0.031 A 
ATOM     15  C   UNL     1       3.510   3.452   7.003  1.00  0.00     0.074 A 
ATOM     16  C   UNL     1       1.926   1.586   7.473  1.00  0.00     0.049 A 
ATOM     17  N   UNL     1       2.896   4.506   7.453  1.00  0.00    -0.248 NA
ATOM     18  C   UNL     1       4.737   3.745   6.236  1.00  0.00     0.031 C 
ATOM     19  C   UNL     1       1.462   0.199   7.403  1.00  0.00     0.029 A 
ATOM     20  N   UNL     1       0.847   2.287   7.924  1.00  0.00    -0.354 N 
ATOM     21  C   UNL     1       3.700   5.577   7.088  1.00  0.00     0.074 A 
ATOM     22  C   UNL     1       4.822   5.058   6.348  1.00  0.00     0.031 C 
ATOM     23  C   UNL     1       0.192   0.147   7.837  1.00  0.00     0.029 A 
ATOM     24  C   UNL     1      -0.198   1.477   8.290  1.00  0.00     0.049 A 
ATOM     25  H   UNL     1       0.821   3.269   7.981  1.00  0.00     0.167 HD
ATOM     26  C   UNL     1       3.520   6.878   7.403  1.00  0.00     0.031 A 
ATOM     27  C   UNL     1      -1.299   1.792   8.993  1.00  0.00     0.031 A 
ATOM     28  C   UNL     1       2.396   7.313   8.180  1.00  0.00     0.049 A 
ATOM     29  C   UNL     1      -1.434   3.221   9.444  1.00  0.00     0.074 A 
ATOM     30  C   UNL     1       2.103   8.569   8.668  1.00  0.00     0.029 A 
ATOM     31  N   UNL     1       1.370   6.464   8.587  1.00  0.00    -0.354 N 
ATOM     32  N   UNL     1      -0.626   4.234   9.218  1.00  0.00    -0.248 NA
ATOM     33  C   UNL     1      -2.606   3.554  10.258  1.00  0.00     0.031 C 
ATOM     34  C   UNL     1       0.925   8.464   9.418  1.00  0.00     0.029 A 
ATOM     35  C   UNL     1       0.448   7.160   9.337  1.00  0.00     0.049 A 
ATOM     36  H   UNL     1       1.313   5.505   8.371  1.00  0.00     0.167 HD
ATOM     37  C   UNL     1      -1.200   5.332   9.839  1.00  0.00     0.074 A 
ATOM     38  C   UNL     1      -2.430   4.855  10.450  1.00  0.00     0.031 C 
ATOM     39  C   UNL     1      -0.765   6.616   9.902  1.00  0.00     0.031 A 
BRANCH  26  40
ATOM     40  C   UNL     1       4.634   7.817   7.036  1.00  0.00    -0.014 A 
ATOM     41  C   UNL     1       4.944   8.128   5.701  1.00  0.00     0.009 A 
ATOM     42  C   UNL     1       5.471   8.304   8.053  1.00  0.00     0.009 A 
ATOM     43  C   UNL     1       6.102   8.848   5.392  1.00  0.00     0.001 A 
ATOM     44  C   UNL     1       6.609   9.051   7.743  1.00  0.00     0.001 A 
ATOM     45  C   UNL     1       6.934   9.306   6.412  1.00  0.00     0.000 A 
ENDBRANCH  26  40
BRANCH  27  46
ATOM     46  C   UNL     1      -2.262   0.726   9.374  1.00  0.00    -0.014 A 
ATOM     47  C   UNL     1      -3.552   0.686   8.829  1.00  0.00     0.009 A 
ATOM     48  C   UNL     1      -1.869  -0.304  10.249  1.00  0.00     0.009 A 
ATOM     49  C   UNL     1      -4.426  -0.357   9.153  1.00  0.00     0.001 A 
ATOM     50  C   UNL     1      -2.733  -1.359  10.549  1.00  0.00     0.001 A 
ATOM     51  C   UNL     1      -4.014  -1.382  10.004  1.00  0.00     0.000 A 
ENDBRANCH  27  46
BRANCH  39  52
ATOM     52  C   UNL     1      -1.657   7.598  10.598  1.00  0.00    -0.014 A 
ATOM     53  C   UNL     1      -1.729   7.653  11.996  1.00  0.00     0.009 A 
ATOM     54  C   UNL     1      -2.338   8.555   9.830  1.00  0.00     0.009 A 
ATOM     55  C   UNL     1      -2.482   8.651  12.614  1.00  0.00     0.001 A 
ATOM     56  C   UNL     1      -3.064   9.567  10.452  1.00  0.00     0.001 A 
ATOM     57  C   UNL     1      -3.138   9.612  11.843  1.00  0.00     0.000 A 
ENDBRANCH  39  52
ENDBRANCH  13  14
ENDBRANCH   6   8
ENDBRANCH   5   6
ENDBRANCH   4   5
ENDBRANCH   3   4
ENDBRANCH   2   3
ENDBRANCH   1   2
BRANCH   1  58
ATOM     58  C   UNL     1       4.993  -4.211   3.484  1.00  0.00     0.261 C 
BRANCH  58  59
ATOM     59  O   UNL     1       5.186  -4.363   2.076  1.00  0.00    -0.459 OA
BRANCH  59  60
ATOM     60  C   UNL     1       4.387  -3.589   1.271  1.00  0.00     0.369 C 
ATOM     61  O   UNL     1       3.566  -2.764   1.644  1.00  0.00    -0.245 OA
BRANCH  60  62
ATOM     62  C   UNL     1       4.586  -4.057  -0.163  1.00  0.00     0.326 C 
BRANCH  62  63
ATOM     63  N   UNL     1       3.891  -5.357  -0.381  1.00  0.00    -0.310 N 
ATOM     64  C   UNL     1       4.579  -6.527   0.215  1.00  0.00     0.325 C 
ATOM     65  C   UNL     1       2.480  -5.375   0.023  1.00  0.00     0.325 C 
ATOM     66  H   UNL     1       3.930  -5.444  -1.397  1.00  0.00     0.349 HD
ATOM     67  C   UNL     1       4.125  -7.092   1.607  1.00  0.00     0.324 C 
ATOM     68  C   UNL     1       2.155  -5.640   1.516  1.00  0.00     0.324 C 
ATOM     69  N   UNL     1       2.760  -6.841   2.096  1.00  0.00    -0.322 N 
ATOM     70  H   UNL     1       2.890  -6.648   3.089  1.00  0.00     0.348 HD
BRANCH  69  71
ATOM     71  C   UNL     1       1.861  -8.010   2.093  1.00  0.00     0.299 C 
BRANCH  71  72
ATOM     72  C   UNL     1       1.363  -8.376   0.712  1.00  0.00     0.008 A 
ATOM     73  C   UNL     1       2.207  -9.069  -0.164  1.00  0.00     0.009 A 
ATOM     74  C   UNL     1       0.188  -7.785   0.214  1.00  0.00     0.030 A 
ATOM     75  C   UNL     1       1.982  -9.019  -1.538  1.00  0.00     0.002 A 
ATOM     76  C   UNL     1      -0.024  -7.727  -1.163  1.00  0.00     0.041 A 
ATOM     77  C   UNL     1       0.886  -8.316  -2.039  1.00  0.00     0.020 A 
ATOM     78  Cl  UNL     1      -1.310  -6.765  -1.781  1.00  0.00    -0.084 Cl
ENDBRANCH  71  72
ENDBRANCH  69  71
ENDBRANCH  62  63
BRANCH  62  79
ATOM     79  C   UNL     1       4.280  -2.962  -1.203  1.00  0.00     0.021 A 
ATOM     80  C   UNL     1       3.016  -2.358  -1.338  1.00  0.00     0.014 A 
ATOM     81  C   UNL     1       5.311  -2.478  -2.032  1.00  0.00     0.014 A 
ATOM     82  C   UNL     1       2.763  -1.381  -2.305  1.00  0.00     0.046 A 
ATOM     83  C   UNL     1       5.072  -1.469  -2.975  1.00  0.00     0.046 A 
ATOM     84  C   UNL     1       3.795  -0.946  -3.120  1.00  0.00     0.115 A 
BRANCH  84  85
ATOM     85  O   UNL     1       3.591   0.008  -4.072  1.00  0.00    -0.508 OA
ATOM     86  H   UNL     1       2.738   0.377  -4.190  1.00  0.00     0.293 HD
ENDBRANCH  84  85
ENDBRANCH  62  79
ENDBRANCH  60  62
ENDBRANCH  59  60
ENDBRANCH  58  59
ENDBRANCH   1  58
TORSDOF 19
