REMARK SMILES C[C@H]([C@H](C)C(=O)OCCOCCOC(=O)c1ccc(-c2c3nc(c(-c4ccccc4)c4ccc([nH]4)c(-c4ccccc4)c4nc(c(-c5ccccc5)c5ccc2[nH]5)C=C4)C=C3)cc1)[C@H](O)c1cncn1C1CC1
REMARK SMILES IDX 9 1 8 2 7 3 5 4 6 5 3 6 4 7 2 8 1 9 64 10 66 11 67 12 70 13
REMARK SMILES IDX 68 14 69 15 71 16 72 17 73 18 65 19 10 21 11 22 12 23 13 24
REMARK SMILES IDX 14 25 15 26 16 27 17 28 63 29 18 30 62 31 19 32 20 33 21 34
REMARK SMILES IDX 56 35 22 36 61 37 55 38 57 39 23 40 60 41 54 42 53 43 24 45
REMARK SMILES IDX 46 46 31 47 45 48 32 49 35 50 44 51 58 52 33 53 34 54 43 56
REMARK SMILES IDX 59 57 36 58 25 59 26 60 30 61 27 62 29 63 28 64 47 65 48 66
REMARK SMILES IDX 52 67 49 68 51 69 50 70 37 71 38 72 42 73 39 74 41 75 40 76
REMARK H PARENT 65 20 57 44 35 55
REMARK Flexibility Score: inf
ROOT
ATOM      1  C   UNL     1      -5.739  -1.175   2.500  1.00  0.00     0.202 C 
ENDROOT
BRANCH   1   2
ATOM      2  C   UNL     1      -4.359  -0.801   3.070  1.00  0.00     0.261 C 
BRANCH   2   3
ATOM      3  O   UNL     1      -3.140  -1.296   2.475  1.00  0.00    -0.463 OA
BRANCH   3   4
ATOM      4  C   UNL     1      -3.107  -2.466   1.803  1.00  0.00     0.309 C 
ATOM      5  O   UNL     1      -4.063  -3.172   1.516  1.00  0.00    -0.252 OA
BRANCH   4   6
ATOM      6  C   UNL     1      -1.717  -2.803   1.339  1.00  0.00     0.102 C 
ATOM      7  C   UNL     1      -1.265  -1.698   0.366  1.00  0.00     0.020 C 
BRANCH   6   8
ATOM      8  C   UNL     1      -0.691  -3.225   2.429  1.00  0.00     0.035 C 
ATOM      9  C   UNL     1       0.425  -2.171   2.627  1.00  0.00     0.012 C 
BRANCH   8  10
ATOM     10  C   UNL     1      -1.116  -3.723   3.849  1.00  0.00     0.166 C 
BRANCH  10  11
ATOM     11  C   UNL     1      -2.528  -3.955   4.247  1.00  0.00     0.067 A 
ATOM     12  C   UNL     1      -3.472  -4.839   3.738  1.00  0.00     0.137 A 
ATOM     13  N   UNL     1      -3.190  -3.389   5.328  1.00  0.00    -0.329 N 
ATOM     14  N   UNL     1      -4.674  -4.744   4.385  1.00  0.00    -0.245 NA
ATOM     15  C   UNL     1      -4.478  -3.855   5.325  1.00  0.00     0.199 A 
BRANCH  13  16
ATOM     16  C   UNL     1      -2.752  -2.490   6.383  1.00  0.00     0.088 C 
ATOM     17  C   UNL     1      -1.378  -2.580   7.018  1.00  0.00     0.027 C 
ATOM     18  C   UNL     1      -1.748  -1.369   6.225  1.00  0.00     0.027 C 
ENDBRANCH  13  16
ENDBRANCH  10  11
BRANCH  10  19
ATOM     19  O   UNL     1      -0.446  -4.964   4.100  1.00  0.00    -0.387 OA
ATOM     20  H   UNL     1      -0.793  -5.645   3.503  1.00  0.00     0.211 HD
ENDBRANCH  10  19
ENDBRANCH   8  10
ENDBRANCH   6   8
ENDBRANCH   4   6
ENDBRANCH   3   4
ENDBRANCH   2   3
ENDBRANCH   1   2
BRANCH   1  21
ATOM     21  O   UNL     1      -6.156  -0.475   1.331  1.00  0.00    -0.374 OA
BRANCH  21  22
ATOM     22  C   UNL     1      -5.382  -0.627   0.149  1.00  0.00     0.202 C 
BRANCH  22  23
ATOM     23  C   UNL     1      -4.977   0.745  -0.391  1.00  0.00     0.261 C 
BRANCH  23  24
ATOM     24  O   UNL     1      -4.448   1.569   0.663  1.00  0.00    -0.460 OA
BRANCH  24  25
ATOM     25  C   UNL     1      -5.398   2.266   1.340  1.00  0.00     0.338 C 
ATOM     26  O   UNL     1      -6.583   2.364   1.077  1.00  0.00    -0.246 OA
BRANCH  25  27
ATOM     27  C   UNL     1      -4.808   2.879   2.544  1.00  0.00     0.060 A 
ATOM     28  C   UNL     1      -5.531   2.815   3.743  1.00  0.00     0.016 A 
ATOM     29  C   UNL     1      -3.608   3.589   2.471  1.00  0.00     0.016 A 
ATOM     30  C   UNL     1      -5.095   3.534   4.854  1.00  0.00     0.010 A 
ATOM     31  C   UNL     1      -3.176   4.314   3.581  1.00  0.00     0.010 A 
ATOM     32  C   UNL     1      -3.947   4.331   4.757  1.00  0.00    -0.014 A 
BRANCH  32  33
ATOM     33  C   UNL     1      -3.658   5.334   5.806  1.00  0.00     0.031 A 
ATOM     34  C   UNL     1      -4.076   6.760   5.571  1.00  0.00     0.074 A 
ATOM     35  C   UNL     1      -3.057   4.980   6.954  1.00  0.00     0.049 A 
ATOM     36  N   UNL     1      -3.902   7.811   6.330  1.00  0.00    -0.248 NA
ATOM     37  C   UNL     1      -4.786   7.039   4.310  1.00  0.00     0.031 C 
ATOM     38  C   UNL     1      -2.655   3.622   7.316  1.00  0.00     0.029 A 
ATOM     39  N   UNL     1      -2.683   5.744   8.029  1.00  0.00    -0.354 N 
ATOM     40  C   UNL     1      -4.467   8.874   5.635  1.00  0.00     0.074 A 
ATOM     41  C   UNL     1      -4.967   8.349   4.384  1.00  0.00     0.031 C 
ATOM     42  C   UNL     1      -2.095   3.647   8.538  1.00  0.00     0.029 A 
ATOM     43  C   UNL     1      -2.066   5.026   9.024  1.00  0.00     0.049 A 
ATOM     44  H   UNL     1      -2.841   6.714   8.083  1.00  0.00     0.167 HD
ATOM     45  C   UNL     1      -4.564  10.172   6.008  1.00  0.00     0.031 A 
ATOM     46  C   UNL     1      -1.528   5.441  10.186  1.00  0.00     0.031 A 
ATOM     47  C   UNL     1      -4.060  10.693   7.250  1.00  0.00     0.049 A 
ATOM     48  C   UNL     1      -1.577   6.903  10.540  1.00  0.00     0.074 A 
ATOM     49  C   UNL     1      -4.124  11.989   7.729  1.00  0.00     0.029 A 
ATOM     50  N   UNL     1      -3.391   9.943   8.204  1.00  0.00    -0.354 N 
ATOM     51  N   UNL     1      -2.126   7.896   9.883  1.00  0.00    -0.248 NA
ATOM     52  C   UNL     1      -0.933   7.298  11.801  1.00  0.00     0.031 C 
ATOM     53  C   UNL     1      -3.441  12.036   8.948  1.00  0.00     0.029 A 
ATOM     54  C   UNL     1      -3.009  10.755   9.258  1.00  0.00     0.049 A 
ATOM     55  H   UNL     1      -3.214   8.976   8.142  1.00  0.00     0.167 HD
ATOM     56  C   UNL     1      -1.922   9.027  10.665  1.00  0.00     0.074 A 
ATOM     57  C   UNL     1      -1.209   8.595  11.849  1.00  0.00     0.031 C 
ATOM     58  C   UNL     1      -2.297  10.308  10.427  1.00  0.00     0.031 A 
BRANCH  45  59
ATOM     59  C   UNL     1      -5.206  11.127   5.042  1.00  0.00    -0.014 A 
ATOM     60  C   UNL     1      -6.589  11.108   4.801  1.00  0.00     0.009 A 
ATOM     61  C   UNL     1      -4.417  12.092   4.395  1.00  0.00     0.009 A 
ATOM     62  C   UNL     1      -7.163  12.018   3.909  1.00  0.00     0.001 A 
ATOM     63  C   UNL     1      -4.998  13.017   3.526  1.00  0.00     0.001 A 
ATOM     64  C   UNL     1      -6.369  12.975   3.279  1.00  0.00     0.000 A 
ENDBRANCH  45  59
BRANCH  46  65
ATOM     65  C   UNL     1      -0.894   4.459  11.104  1.00  0.00    -0.014 A 
ATOM     66  C   UNL     1      -1.490   4.146  12.335  1.00  0.00     0.009 A 
ATOM     67  C   UNL     1       0.316   3.836  10.758  1.00  0.00     0.009 A 
ATOM     68  C   UNL     1      -0.877   3.245  13.209  1.00  0.00     0.001 A 
ATOM     69  C   UNL     1       0.911   2.914  11.621  1.00  0.00     0.001 A 
ATOM     70  C   UNL     1       0.319   2.626  12.849  1.00  0.00     0.000 A 
ENDBRANCH  46  65
BRANCH  58  71
ATOM     71  C   UNL     1      -1.980  11.329  11.484  1.00  0.00    -0.014 A 
ATOM     72  C   UNL     1      -0.666  11.770  11.704  1.00  0.00     0.009 A 
ATOM     73  C   UNL     1      -3.023  11.894  12.236  1.00  0.00     0.009 A 
ATOM     74  C   UNL     1      -0.401  12.733  12.680  1.00  0.00     0.001 A 
ATOM     75  C   UNL     1      -2.758  12.878  13.188  1.00  0.00     0.001 A 
ATOM     76  C   UNL     1      -1.446  13.290  13.417  1.00  0.00     0.000 A 
ENDBRANCH  58  71
ENDBRANCH  32  33
ENDBRANCH  25  27
ENDBRANCH  24  25
ENDBRANCH  23  24
ENDBRANCH  22  23
ENDBRANCH  21  22
ENDBRANCH   1  21
TORSDOF 19
