REMARK SMILES O=C(/C=C/c1ccc(Br)cc1-n1ccnc1)OCCOCCOC(=O)c1ccc(-c2c3nc(c(-c4ccccc4)c4ccc([nH]4)c(-c4ccccc4)c4nc(c(-c5ccccc5)c5ccc2[nH]5)C=C4)C=C3)cc1
REMARK SMILES IDX 20 1 19 2 18 3 17 4 2 5 1 6 3 7 4 8 5 9 6 10 11 11 7 12
REMARK SMILES IDX 10 13 8 14 9 15 12 16 13 17 16 18 14 19 15 20 21 21 22 22
REMARK SMILES IDX 23 23 24 24 25 25 26 26 27 27 73 28 28 29 72 30 29 31 30 32
REMARK SMILES IDX 31 33 66 34 32 35 71 36 65 37 67 38 33 39 70 40 64 41 63 42
REMARK SMILES IDX 34 44 56 45 41 46 55 47 42 48 45 49 54 50 68 51 43 52 44 53
REMARK SMILES IDX 53 55 69 56 46 57 35 58 36 59 40 60 37 61 39 62 38 63 57 64
REMARK SMILES IDX 58 65 62 66 59 67 61 68 60 69 47 70 48 71 52 72 49 73 51 74
REMARK SMILES IDX 50 75
REMARK H PARENT 67 43 45 54
REMARK Flexibility Score: inf
ROOT
ATOM      1  O   UNL     1       4.013   0.329   1.196  1.00  0.00    -0.374 OA
ENDROOT
BRANCH   1   2
ATOM      2  C   UNL     1       4.185   1.222   0.095  1.00  0.00     0.202 C 
BRANCH   2   3
ATOM      3  C   UNL     1       4.271   0.512  -1.253  1.00  0.00     0.261 C 
BRANCH   3   4
ATOM      4  O   UNL     1       3.131  -0.313  -1.545  1.00  0.00    -0.460 OA
BRANCH   4   5
ATOM      5  C   UNL     1       2.793  -1.499  -1.000  1.00  0.00     0.330 C 
ATOM      6  O   UNL     1       1.684  -1.977  -1.243  1.00  0.00    -0.247 OA
BRANCH   5   7
ATOM      7  C   UNL     1       3.641  -2.229  -0.034  1.00  0.00     0.094 C 
ATOM      8  C   UNL     1       4.964  -2.208   0.193  1.00  0.00     0.018 C 
BRANCH   8   9
ATOM      9  C   UNL     1       5.612  -2.974   1.273  1.00  0.00    -0.001 A 
ATOM     10  C   UNL     1       5.294  -4.333   1.421  1.00  0.00     0.011 A 
ATOM     11  C   UNL     1       6.594  -2.438   2.129  1.00  0.00     0.055 A 
ATOM     12  C   UNL     1       5.955  -5.133   2.359  1.00  0.00     0.016 A 
ATOM     13  C   UNL     1       7.264  -3.236   3.070  1.00  0.00     0.043 A 
ATOM     14  C   UNL     1       6.950  -4.585   3.163  1.00  0.00     0.020 A 
ATOM     15  Br  UNL     1       7.896  -5.685   4.372  1.00  0.00    -0.051 Br
BRANCH  11  16
ATOM     16  N   UNL     1       6.932  -1.071   2.128  1.00  0.00    -0.306 N 
ATOM     17  C   UNL     1       6.601  -0.175   3.112  1.00  0.00     0.113 A 
ATOM     18  C   UNL     1       7.957  -0.496   1.415  1.00  0.00     0.204 A 
ATOM     19  C   UNL     1       7.399   0.924   2.898  1.00  0.00     0.131 A 
ATOM     20  N   UNL     1       8.233   0.722   1.831  1.00  0.00    -0.245 NA
ENDBRANCH  11  16
ENDBRANCH   8   9
ENDBRANCH   5   7
ENDBRANCH   4   5
ENDBRANCH   3   4
ENDBRANCH   2   3
ENDBRANCH   1   2
BRANCH   1  21
ATOM     21  C   UNL     1       2.680   0.249   1.722  1.00  0.00     0.202 C 
BRANCH  21  22
ATOM     22  C   UNL     1       2.518   1.101   2.969  1.00  0.00     0.261 C 
BRANCH  22  23
ATOM     23  O   UNL     1       2.775   2.443   2.592  1.00  0.00    -0.460 OA
BRANCH  23  24
ATOM     24  C   UNL     1       4.052   2.849   2.736  1.00  0.00     0.338 C 
ATOM     25  O   UNL     1       4.919   2.331   3.429  1.00  0.00    -0.246 OA
BRANCH  24  26
ATOM     26  C   UNL     1       4.192   4.138   2.050  1.00  0.00     0.060 A 
ATOM     27  C   UNL     1       5.278   4.920   2.442  1.00  0.00     0.016 A 
ATOM     28  C   UNL     1       3.042   4.683   1.467  1.00  0.00     0.016 A 
ATOM     29  C   UNL     1       5.053   6.264   2.613  1.00  0.00     0.010 A 
ATOM     30  C   UNL     1       2.789   6.000   1.717  1.00  0.00     0.010 A 
ATOM     31  C   UNL     1       3.762   6.744   2.379  1.00  0.00    -0.014 A 
BRANCH  31  32
ATOM     32  C   UNL     1       3.407   8.041   2.894  1.00  0.00     0.031 A 
ATOM     33  C   UNL     1       3.510   9.130   1.917  1.00  0.00     0.074 A 
ATOM     34  C   UNL     1       2.852   8.208   4.106  1.00  0.00     0.049 A 
ATOM     35  N   UNL     1       4.410  10.052   1.863  1.00  0.00    -0.248 NA
ATOM     36  C   UNL     1       2.588   9.097   0.773  1.00  0.00     0.031 C 
ATOM     37  C   UNL     1       2.323   7.187   5.013  1.00  0.00     0.029 A 
ATOM     38  N   UNL     1       2.530   9.376   4.717  1.00  0.00    -0.354 N 
ATOM     39  C   UNL     1       4.059  10.823   0.766  1.00  0.00     0.074 A 
ATOM     40  C   UNL     1       3.101  10.058   0.011  1.00  0.00     0.031 C 
ATOM     41  C   UNL     1       1.554   7.794   5.948  1.00  0.00     0.029 A 
ATOM     42  C   UNL     1       1.639   9.236   5.766  1.00  0.00     0.049 A 
ATOM     43  H   UNL     1       2.897  10.246   4.439  1.00  0.00     0.167 HD
ATOM     44  C   UNL     1       4.342  12.149   0.701  1.00  0.00     0.031 A 
ATOM     45  C   UNL     1       0.961  10.242   6.365  1.00  0.00     0.031 A 
ATOM     46  C   UNL     1       5.289  12.556   1.706  1.00  0.00     0.049 A 
ATOM     47  C   UNL     1       1.623  11.522   6.005  1.00  0.00     0.074 A 
ATOM     48  C   UNL     1       6.578  12.191   2.037  1.00  0.00     0.029 A 
ATOM     49  N   UNL     1       4.790  13.227   2.798  1.00  0.00    -0.354 N 
ATOM     50  N   UNL     1       2.797  11.882   6.439  1.00  0.00    -0.248 NA
ATOM     51  C   UNL     1       1.152  12.246   4.833  1.00  0.00     0.031 C 
ATOM     52  C   UNL     1       6.640  12.278   3.459  1.00  0.00     0.029 A 
ATOM     53  C   UNL     1       5.394  12.711   3.916  1.00  0.00     0.049 A 
ATOM     54  H   UNL     1       4.121  13.948   2.781  1.00  0.00     0.167 HD
ATOM     55  C   UNL     1       3.382  12.559   5.378  1.00  0.00     0.074 A 
ATOM     56  C   UNL     1       2.280  12.865   4.473  1.00  0.00     0.031 C 
ATOM     57  C   UNL     1       4.737  12.549   5.197  1.00  0.00     0.031 A 
BRANCH  44  58
ATOM     58  C   UNL     1       3.452  13.129  -0.013  1.00  0.00    -0.014 A 
ATOM     59  C   UNL     1       3.905  14.443  -0.195  1.00  0.00     0.009 A 
ATOM     60  C   UNL     1       2.094  12.879  -0.302  1.00  0.00     0.009 A 
ATOM     61  C   UNL     1       3.034  15.456  -0.613  1.00  0.00     0.001 A 
ATOM     62  C   UNL     1       1.236  13.873  -0.772  1.00  0.00     0.001 A 
ATOM     63  C   UNL     1       1.703  15.170  -0.904  1.00  0.00     0.000 A 
ENDBRANCH  44  58
BRANCH  45  64
ATOM     64  C   UNL     1      -0.363  10.194   7.018  1.00  0.00    -0.014 A 
ATOM     65  C   UNL     1      -0.776  11.228   7.871  1.00  0.00     0.009 A 
ATOM     66  C   UNL     1      -1.325   9.248   6.620  1.00  0.00     0.009 A 
ATOM     67  C   UNL     1      -2.110  11.326   8.286  1.00  0.00     0.001 A 
ATOM     68  C   UNL     1      -2.655   9.340   7.042  1.00  0.00     0.001 A 
ATOM     69  C   UNL     1      -3.050  10.389   7.864  1.00  0.00     0.000 A 
ENDBRANCH  45  64
BRANCH  57  70
ATOM     70  C   UNL     1       5.591  12.040   6.332  1.00  0.00    -0.014 A 
ATOM     71  C   UNL     1       5.480  10.733   6.839  1.00  0.00     0.009 A 
ATOM     72  C   UNL     1       6.630  12.851   6.811  1.00  0.00     0.009 A 
ATOM     73  C   UNL     1       6.356  10.267   7.824  1.00  0.00     0.001 A 
ATOM     74  C   UNL     1       7.520  12.378   7.779  1.00  0.00     0.001 A 
ATOM     75  C   UNL     1       7.378  11.090   8.291  1.00  0.00     0.000 A 
ENDBRANCH  57  70
ENDBRANCH  31  32
ENDBRANCH  24  26
ENDBRANCH  23  24
ENDBRANCH  22  23
ENDBRANCH  21  22
ENDBRANCH   1  21
TORSDOF 16
