REMARK SMILES C[C@@H]([C@H]1CC=CS1)n1nccc1NC(=O)CC1(CC(=O)OCCOCCOC(=O)c2ccc(-c3c4nc(c(-c5ccccc5)c5ccc([nH]5)c(-c5ccccc5)c5nc(c(-c6ccccc6)c6ccc3[nH]6)C=C5)C=C4)cc2)CCCCC1
REMARK SMILES IDX 22 1 21 2 19 3 20 4 18 5 17 6 78 7 82 8 79 9 81 10 80 11
REMARK SMILES IDX 16 12 14 13 13 14 15 16 12 17 8 18 9 19 10 20 11 21 2 22
REMARK SMILES IDX 1 23 3 24 4 25 7 26 5 27 6 28 23 29 24 30 25 31 26 32 27 33
REMARK SMILES IDX 28 34 29 35 30 36 31 37 77 38 32 39 76 40 33 41 34 42 35 43
REMARK SMILES IDX 70 44 36 45 75 46 69 47 71 48 37 49 74 50 68 51 67 52 38 54
REMARK SMILES IDX 60 55 45 56 59 57 46 58 49 59 58 60 72 61 47 62 48 63 57 65
REMARK SMILES IDX 73 66 50 67 39 68 40 69 44 70 41 71 43 72 42 73 61 74 62 75
REMARK SMILES IDX 66 76 63 77 65 78 64 79 51 80 52 81 56 82 53 83 55 84 54 85
REMARK H PARENT 13 15 71 53 49 64
REMARK Flexibility Score: inf
ROOT
ATOM      1  C   UNL     1       2.421   9.210  -0.235  1.00  0.00     0.261 C 
ENDROOT
BRANCH   1   2
ATOM      2  O   UNL     1       2.834   7.897  -0.675  1.00  0.00    -0.463 OA
BRANCH   2   3
ATOM      3  C   UNL     1       2.008   6.878  -0.353  1.00  0.00     0.306 C 
ATOM      4  O   UNL     1       0.950   6.998   0.253  1.00  0.00    -0.252 OA
BRANCH   3   5
ATOM      5  C   UNL     1       2.529   5.510  -0.744  1.00  0.00     0.130 C 
BRANCH   5   6
ATOM      6  C   UNL     1       3.525   5.243  -1.914  1.00  0.00    -0.010 C 
ATOM      7  C   UNL     1       3.936   3.745  -1.822  1.00  0.00     0.008 C 
ATOM      8  C   UNL     1       4.842   6.067  -1.834  1.00  0.00     0.008 C 
ATOM      9  C   UNL     1       4.825   3.377  -0.637  1.00  0.00     0.001 C 
ATOM     10  C   UNL     1       5.694   5.740  -0.611  1.00  0.00     0.001 C 
ATOM     11  C   UNL     1       6.061   4.261  -0.582  1.00  0.00     0.000 C 
BRANCH   6  12
ATOM     12  C   UNL     1       2.911   5.520  -3.321  1.00  0.00     0.108 C 
BRANCH  12  13
ATOM     13  C   UNL     1       1.563   4.918  -3.659  1.00  0.00     0.226 C 
ATOM     14  N   UNL     1       1.361   3.557  -4.047  1.00  0.00    -0.311 N 
ATOM     15  H   UNL     1       0.424   3.264  -4.125  1.00  0.00     0.171 HD
ATOM     16  O   UNL     1       0.524   5.555  -3.561  1.00  0.00    -0.275 OA
BRANCH  14  17
ATOM     17  C   UNL     1       2.320   2.603  -4.326  1.00  0.00     0.131 A 
ATOM     18  N   UNL     1       2.231   1.242  -4.087  1.00  0.00    -0.246 N 
ATOM     19  N   UNL     1       3.390   0.605  -4.349  1.00  0.00    -0.179 NA
ATOM     20  C   UNL     1       4.186   1.544  -4.848  1.00  0.00     0.137 A 
ATOM     21  C   UNL     1       3.538   2.785  -4.944  1.00  0.00     0.068 A 
BRANCH  18  22
ATOM     22  C   UNL     1       1.020   0.450  -3.857  1.00  0.00     0.120 C 
ATOM     23  C   UNL     1       0.718  -0.319  -5.148  1.00  0.00     0.034 C 
BRANCH  22  24
ATOM     24  C   UNL     1       0.962  -0.382  -2.539  1.00  0.00     0.079 C 
ATOM     25  C   UNL     1      -0.059  -1.546  -2.548  1.00  0.00     0.045 C 
ATOM     26  S   UNL     1       2.499  -1.149  -1.874  1.00  0.00    -0.128 SA
ATOM     27  C   UNL     1       0.385  -2.578  -1.558  1.00  0.00    -0.019 C 
ATOM     28  C   UNL     1       1.654  -2.476  -1.160  1.00  0.00     0.037 C 
ENDBRANCH  22  24
ENDBRANCH  18  22
ENDBRANCH  14  17
ENDBRANCH  12  13
ENDBRANCH   6  12
ENDBRANCH   5   6
ENDBRANCH   3   5
ENDBRANCH   2   3
ENDBRANCH   1   2
BRANCH   1  29
ATOM     29  C   UNL     1       1.974  10.081  -1.408  1.00  0.00     0.202 C 
BRANCH  29  30
ATOM     30  O   UNL     1       0.718   9.735  -1.986  1.00  0.00    -0.374 OA
BRANCH  30  31
ATOM     31  C   UNL     1       0.683   8.632  -2.881  1.00  0.00     0.202 C 
BRANCH  31  32
ATOM     32  C   UNL     1       1.194   8.909  -4.290  1.00  0.00     0.261 C 
BRANCH  32  33
ATOM     33  O   UNL     1       2.623   8.949  -4.339  1.00  0.00    -0.460 OA
BRANCH  33  34
ATOM     34  C   UNL     1       3.154  10.181  -4.494  1.00  0.00     0.338 C 
ATOM     35  O   UNL     1       2.588  11.253  -4.329  1.00  0.00    -0.246 OA
BRANCH  34  36
ATOM     36  C   UNL     1       4.492  10.047  -5.082  1.00  0.00     0.060 A 
ATOM     37  C   UNL     1       5.051  11.208  -5.614  1.00  0.00     0.016 A 
ATOM     38  C   UNL     1       5.081   8.788  -5.291  1.00  0.00     0.016 A 
ATOM     39  C   UNL     1       6.098  11.090  -6.502  1.00  0.00     0.010 A 
ATOM     40  C   UNL     1       6.129   8.670  -6.183  1.00  0.00     0.010 A 
ATOM     41  C   UNL     1       6.585   9.817  -6.828  1.00  0.00    -0.014 A 
BRANCH  41  42
ATOM     42  C   UNL     1       7.747   9.764  -7.698  1.00  0.00     0.031 A 
ATOM     43  C   UNL     1       8.937  10.335  -7.024  1.00  0.00     0.074 A 
ATOM     44  C   UNL     1       7.749   9.223  -8.932  1.00  0.00     0.049 A 
ATOM     45  N   UNL     1       9.517  11.454  -7.296  1.00  0.00    -0.248 NA
ATOM     46  C   UNL     1       9.392   9.711  -5.768  1.00  0.00     0.031 C 
ATOM     47  C   UNL     1       6.688   8.425  -9.552  1.00  0.00     0.029 A 
ATOM     48  N   UNL     1       8.743   9.186  -9.867  1.00  0.00    -0.354 N 
ATOM     49  C   UNL     1      10.571  11.550  -6.395  1.00  0.00     0.074 A 
ATOM     50  C   UNL     1      10.315  10.583  -5.362  1.00  0.00     0.031 C 
ATOM     51  C   UNL     1       7.186   7.785 -10.636  1.00  0.00     0.029 A 
ATOM     52  C   UNL     1       8.550   8.234 -10.864  1.00  0.00     0.049 A 
ATOM     53  H   UNL     1       9.527   9.780  -9.838  1.00  0.00     0.167 HD
ATOM     54  C   UNL     1      11.736  12.137  -6.781  1.00  0.00     0.031 A 
ATOM     55  C   UNL     1       9.465   7.811 -11.773  1.00  0.00     0.031 A 
ATOM     56  C   UNL     1      11.530  12.962  -7.944  1.00  0.00     0.049 A 
ATOM     57  C   UNL     1      10.513   8.849 -11.867  1.00  0.00     0.074 A 
ATOM     58  C   UNL     1      10.909  14.156  -8.235  1.00  0.00     0.029 A 
ATOM     59  N   UNL     1      11.680  12.278  -9.121  1.00  0.00    -0.354 N 
ATOM     60  N   UNL     1      10.307  10.024 -12.385  1.00  0.00    -0.248 NA
ATOM     61  C   UNL     1      11.718   8.719 -11.059  1.00  0.00     0.031 C 
ATOM     62  C   UNL     1      10.530  14.075  -9.609  1.00  0.00     0.029 A 
ATOM     63  C   UNL     1      10.982  12.866 -10.135  1.00  0.00     0.049 A 
ATOM     64  H   UNL     1      12.225  11.464  -9.223  1.00  0.00     0.167 HD
ATOM     65  C   UNL     1      11.083  10.873 -11.619  1.00  0.00     0.074 A 
ATOM     66  C   UNL     1      12.049  10.008 -10.950  1.00  0.00     0.031 C 
ATOM     67  C   UNL     1      10.661  12.141 -11.347  1.00  0.00     0.031 A 
BRANCH  54  68
ATOM     68  C   UNL     1      13.083  11.473  -6.538  1.00  0.00    -0.014 A 
ATOM     69  C   UNL     1      14.224  12.063  -7.114  1.00  0.00     0.009 A 
ATOM     70  C   UNL     1      13.235  10.154  -6.066  1.00  0.00     0.009 A 
ATOM     71  C   UNL     1      15.415  11.344  -7.280  1.00  0.00     0.001 A 
ATOM     72  C   UNL     1      14.430   9.444  -6.202  1.00  0.00     0.001 A 
ATOM     73  C   UNL     1      15.514  10.031  -6.833  1.00  0.00     0.000 A 
ENDBRANCH  54  68
BRANCH  55  74
ATOM     74  C   UNL     1       9.648   6.475 -12.388  1.00  0.00    -0.014 A 
ATOM     75  C   UNL     1      10.510   6.301 -13.487  1.00  0.00     0.009 A 
ATOM     76  C   UNL     1       9.215   5.319 -11.716  1.00  0.00     0.009 A 
ATOM     77  C   UNL     1      10.964   5.027 -13.858  1.00  0.00     0.001 A 
ATOM     78  C   UNL     1       9.664   4.047 -12.089  1.00  0.00     0.001 A 
ATOM     79  C   UNL     1      10.555   3.902 -13.148  1.00  0.00     0.000 A 
ENDBRANCH  55  74
BRANCH  67  80
ATOM     80  C   UNL     1       9.677  12.772 -12.289  1.00  0.00    -0.014 A 
ATOM     81  C   UNL     1       8.373  12.302 -12.507  1.00  0.00     0.009 A 
ATOM     82  C   UNL     1      10.077  13.963 -12.915  1.00  0.00     0.009 A 
ATOM     83  C   UNL     1       7.502  13.003 -13.348  1.00  0.00     0.001 A 
ATOM     84  C   UNL     1       9.201  14.673 -13.732  1.00  0.00     0.001 A 
ATOM     85  C   UNL     1       7.914  14.190 -13.953  1.00  0.00     0.000 A 
ENDBRANCH  67  80
ENDBRANCH  41  42
ENDBRANCH  34  36
ENDBRANCH  33  34
ENDBRANCH  32  33
ENDBRANCH  31  32
ENDBRANCH  30  31
ENDBRANCH  29  30
ENDBRANCH   1  29
TORSDOF 20
