REMARK SMILES C[C@@H]1[C@@H](C(=O)OCCOCCOC(=O)c2ccc(-c3c4nc(c(-c5ccccc5)c5ccc([nH]5)c(-c5ccccc5)c5nc(c(-c6ccccc6)c6ccc3[nH]6)C=C5)C=C4)cc2)CCN1C(=O)C[NH2+]C1CCCC1
REMARK SMILES IDX 8 1 7 2 6 3 4 4 5 5 3 6 1 7 2 8 65 9 63 10 64 11 66 12 67 13
REMARK SMILES IDX 68 14 69 15 70 18 71 19 74 20 72 21 73 22 9 23 10 24 11 25
REMARK SMILES IDX 12 26 13 27 14 28 15 29 16 30 62 31 17 32 61 33 18 34 19 35
REMARK SMILES IDX 20 36 55 37 21 38 60 39 54 40 56 41 22 42 59 43 53 44 52 45
REMARK SMILES IDX 23 47 45 48 30 49 44 50 31 51 34 52 43 53 57 54 32 55 33 56
REMARK SMILES IDX 42 58 58 59 35 60 24 61 25 62 29 63 26 64 28 65 27 66 46 67
REMARK SMILES IDX 47 68 51 69 48 70 50 71 49 72 36 73 37 74 41 75 38 76 40 77
REMARK SMILES IDX 39 78
REMARK H PARENT 69 16 69 17 56 46 34 57
REMARK Flexibility Score: inf
ROOT
ATOM      1  C   UNL     1      -1.479   2.423  -4.504  1.00  0.00     0.202 C 
ENDROOT
BRANCH   1   2
ATOM      2  C   UNL     1      -2.191   1.386  -3.632  1.00  0.00     0.261 C 
BRANCH   2   3
ATOM      3  O   UNL     1      -1.766   1.445  -2.262  1.00  0.00    -0.463 OA
BRANCH   3   4
ATOM      4  C   UNL     1      -0.975   0.400  -1.880  1.00  0.00     0.311 C 
ATOM      5  O   UNL     1      -0.724  -0.568  -2.584  1.00  0.00    -0.252 OA
BRANCH   4   6
ATOM      6  C   UNL     1      -0.418   0.637  -0.481  1.00  0.00     0.123 C 
ATOM      7  C   UNL     1       1.667   0.066   0.888  1.00  0.00     0.032 C 
ATOM      8  C   UNL     1       0.710  -0.370  -0.220  1.00  0.00     0.096 C 
ATOM      9  N   UNL     1      -0.031  -1.574   0.165  1.00  0.00    -0.334 N 
ATOM     10  C   UNL     1      -1.451   0.282   0.583  1.00  0.00     0.039 C 
ATOM     11  C   UNL     1      -1.362  -1.239   0.653  1.00  0.00     0.121 C 
BRANCH   9  12
ATOM     12  C   UNL     1       0.256  -2.879  -0.192  1.00  0.00     0.277 C 
ATOM     13  O   UNL     1      -0.554  -3.787   0.021  1.00  0.00    -0.268 OA
BRANCH  12  14
ATOM     14  C   UNL     1       1.625  -3.205  -0.810  1.00  0.00     0.362 C 
BRANCH  14  15
ATOM     15  N   UNL     1       1.807  -2.567  -2.122  1.00  0.00    -0.336 N 
ATOM     16  H   UNL     1       1.827  -1.555  -1.993  1.00  0.00     0.346 HD
ATOM     17  H   UNL     1       1.030  -2.855  -2.716  1.00  0.00     0.346 HD
BRANCH  15  18
ATOM     18  C   UNL     1       3.038  -2.977  -2.777  1.00  0.00     0.182 C 
ATOM     19  C   UNL     1       2.980  -4.345  -3.452  1.00  0.00     0.065 C 
ATOM     20  C   UNL     1       3.384  -2.066  -3.956  1.00  0.00     0.065 C 
ATOM     21  C   UNL     1       4.200  -4.332  -4.367  1.00  0.00     0.006 C 
ATOM     22  C   UNL     1       4.413  -2.866  -4.753  1.00  0.00     0.006 C 
ENDBRANCH  15  18
ENDBRANCH  14  15
ENDBRANCH  12  14
ENDBRANCH   9  12
ENDBRANCH   4   6
ENDBRANCH   3   4
ENDBRANCH   2   3
ENDBRANCH   1   2
BRANCH   1  23
ATOM     23  O   UNL     1      -0.056   2.383  -4.546  1.00  0.00    -0.374 OA
BRANCH  23  24
ATOM     24  C   UNL     1       0.669   2.896  -3.429  1.00  0.00     0.202 C 
BRANCH  24  25
ATOM     25  C   UNL     1       0.657   4.414  -3.214  1.00  0.00     0.261 C 
BRANCH  25  26
ATOM     26  O   UNL     1      -0.650   4.906  -2.863  1.00  0.00    -0.460 OA
BRANCH  26  27
ATOM     27  C   UNL     1      -1.192   5.760  -3.763  1.00  0.00     0.338 C 
ATOM     28  O   UNL     1      -0.666   6.207  -4.773  1.00  0.00    -0.246 OA
BRANCH  27  29
ATOM     29  C   UNL     1      -2.623   5.961  -3.475  1.00  0.00     0.060 A 
ATOM     30  C   UNL     1      -3.536   5.668  -4.497  1.00  0.00     0.016 A 
ATOM     31  C   UNL     1      -3.057   6.516  -2.270  1.00  0.00     0.016 A 
ATOM     32  C   UNL     1      -4.884   5.977  -4.337  1.00  0.00     0.010 A 
ATOM     33  C   UNL     1      -4.409   6.838  -2.116  1.00  0.00     0.010 A 
ATOM     34  C   UNL     1      -5.320   6.605  -3.163  1.00  0.00    -0.014 A 
BRANCH  34  35
ATOM     35  C   UNL     1      -6.692   7.159  -3.105  1.00  0.00     0.031 A 
ATOM     36  C   UNL     1      -6.903   8.616  -3.416  1.00  0.00     0.074 A 
ATOM     37  C   UNL     1      -7.743   6.370  -2.821  1.00  0.00     0.049 A 
ATOM     38  N   UNL     1      -8.012   9.309  -3.423  1.00  0.00    -0.248 NA
ATOM     39  C   UNL     1      -5.703   9.392  -3.768  1.00  0.00     0.031 C 
ATOM     40  C   UNL     1      -7.676   4.936  -2.550  1.00  0.00     0.029 A 
ATOM     41  N   UNL     1      -9.077   6.674  -2.715  1.00  0.00    -0.354 N 
ATOM     42  C   UNL     1      -7.645  10.602  -3.776  1.00  0.00     0.074 A 
ATOM     43  C   UNL     1      -6.208  10.604  -3.948  1.00  0.00     0.031 C 
ATOM     44  C   UNL     1      -8.918   4.483  -2.302  1.00  0.00     0.029 A 
ATOM     45  C   UNL     1      -9.858   5.599  -2.372  1.00  0.00     0.049 A 
ATOM     46  H   UNL     1      -9.438   7.576  -2.871  1.00  0.00     0.167 HD
ATOM     47  C   UNL     1      -8.432  11.690  -3.948  1.00  0.00     0.031 A 
ATOM     48  C   UNL     1     -11.180   5.529  -2.125  1.00  0.00     0.031 A 
ATOM     49  C   UNL     1      -9.858  11.697  -3.764  1.00  0.00     0.049 A 
ATOM     50  C   UNL     1     -12.023   6.771  -2.245  1.00  0.00     0.074 A 
ATOM     51  C   UNL     1     -10.744  12.748  -3.923  1.00  0.00     0.029 A 
ATOM     52  N   UNL     1     -10.605  10.598  -3.371  1.00  0.00    -0.354 N 
ATOM     53  N   UNL     1     -11.666   7.981  -2.600  1.00  0.00    -0.248 NA
ATOM     54  C   UNL     1     -13.453   6.631  -1.934  1.00  0.00     0.031 C 
ATOM     55  C   UNL     1     -12.023  12.296  -3.579  1.00  0.00     0.029 A 
ATOM     56  C   UNL     1     -11.939  10.952  -3.256  1.00  0.00     0.049 A 
ATOM     57  H   UNL     1     -10.242   9.699  -3.199  1.00  0.00     0.167 HD
ATOM     58  C   UNL     1     -12.830   8.740  -2.582  1.00  0.00     0.074 A 
ATOM     59  C   UNL     1     -13.905   7.851  -2.192  1.00  0.00     0.031 C 
ATOM     60  C   UNL     1     -12.995  10.055  -2.865  1.00  0.00     0.031 A 
BRANCH  47  61
ATOM     61  C   UNL     1      -7.755  12.977  -4.324  1.00  0.00    -0.014 A 
ATOM     62  C   UNL     1      -7.245  13.180  -5.616  1.00  0.00     0.009 A 
ATOM     63  C   UNL     1      -7.651  14.010  -3.380  1.00  0.00     0.009 A 
ATOM     64  C   UNL     1      -6.615  14.383  -5.945  1.00  0.00     0.001 A 
ATOM     65  C   UNL     1      -7.043  15.220  -3.720  1.00  0.00     0.001 A 
ATOM     66  C   UNL     1      -6.519  15.402  -4.998  1.00  0.00     0.000 A 
ENDBRANCH  47  61
BRANCH  48  67
ATOM     67  C   UNL     1     -11.794   4.239  -1.720  1.00  0.00    -0.014 A 
ATOM     68  C   UNL     1     -12.651   3.549  -2.591  1.00  0.00     0.009 A 
ATOM     69  C   UNL     1     -11.539   3.701  -0.449  1.00  0.00     0.009 A 
ATOM     70  C   UNL     1     -13.258   2.357  -2.187  1.00  0.00     0.001 A 
ATOM     71  C   UNL     1     -12.127   2.496  -0.058  1.00  0.00     0.001 A 
ATOM     72  C   UNL     1     -12.992   1.830  -0.923  1.00  0.00     0.000 A 
ENDBRANCH  48  67
BRANCH  60  73
ATOM     73  C   UNL     1     -14.392  10.604  -2.796  1.00  0.00    -0.014 A 
ATOM     74  C   UNL     1     -15.024  10.834  -1.565  1.00  0.00     0.009 A 
ATOM     75  C   UNL     1     -15.067  10.935  -3.981  1.00  0.00     0.009 A 
ATOM     76  C   UNL     1     -16.318  11.356  -1.523  1.00  0.00     0.001 A 
ATOM     77  C   UNL     1     -16.350  11.482  -3.936  1.00  0.00     0.001 A 
ATOM     78  C   UNL     1     -16.978  11.684  -2.708  1.00  0.00     0.000 A 
ENDBRANCH  60  73
ENDBRANCH  34  35
ENDBRANCH  27  29
ENDBRANCH  26  27
ENDBRANCH  25  26
ENDBRANCH  24  25
ENDBRANCH  23  24
ENDBRANCH   1  23
TORSDOF 18
