REMARK SMILES Cc1ccccc1C(=O)Nc1ccc(OCC(=O)OCCOCCOC(=O)c2ccc(-c3c4nc(c(-c5ccccc5)c5ccc([nH]5)c(-c5ccccc5)c5nc(c(-c6ccccc6)c6ccc3[nH]6)C=C5)C=C4)cc2)c(-c2nc3ccccc3s2)c1
REMARK SMILES IDX 21 1 20 2 19 3 17 4 18 5 16 6 15 7 14 8 11 9 12 10 86 11
REMARK SMILES IDX 13 12 76 13 10 14 8 15 9 16 7 18 1 19 2 20 3 21 4 22 6 23
REMARK SMILES IDX 5 24 77 25 78 26 85 27 79 28 84 29 80 30 83 31 81 32 82 33
REMARK SMILES IDX 22 34 23 35 24 36 25 37 26 38 27 39 28 40 29 41 75 42 30 43
REMARK SMILES IDX 74 44 31 45 32 46 33 47 68 48 34 49 73 50 67 51 69 52 35 53
REMARK SMILES IDX 72 54 66 55 65 56 36 58 58 59 43 60 57 61 44 62 47 63 56 64
REMARK SMILES IDX 70 65 45 66 46 67 55 69 71 70 48 71 37 72 38 73 42 74 39 75
REMARK SMILES IDX 41 76 40 77 59 78 60 79 64 80 61 81 63 82 62 83 49 84 50 85
REMARK SMILES IDX 54 86 51 87 53 88 52 89
REMARK H PARENT 10 17 69 57 47 68
REMARK Flexibility Score: inf
ROOT
ATOM      1  C   UNL     1       3.165  -3.402   1.260  1.00  0.00     0.202 C 
ENDROOT
BRANCH   1   2
ATOM      2  C   UNL     1       4.389  -3.791   0.477  1.00  0.00     0.261 C 
BRANCH   2   3
ATOM      3  O   UNL     1       5.082  -2.657  -0.037  1.00  0.00    -0.461 OA
BRANCH   3   4
ATOM      4  C   UNL     1       5.995  -3.103  -0.955  1.00  0.00     0.344 C 
ATOM      5  O   UNL     1       6.245  -4.260  -1.177  1.00  0.00    -0.248 OA
BRANCH   4   6
ATOM      6  C   UNL     1       6.732  -1.964  -1.655  1.00  0.00     0.352 C 
BRANCH   6   7
ATOM      7  O   UNL     1       6.233  -0.743  -2.158  1.00  0.00    -0.481 OA
BRANCH   7   8
ATOM      8  C   UNL     1       5.158  -0.108  -1.601  1.00  0.00     0.130 A 
ATOM      9  C   UNL     1       3.300   1.938  -0.931  1.00  0.00     0.042 A 
ATOM     10  C   UNL     1       4.489   1.769  -0.210  1.00  0.00     0.030 A 
ATOM     11  C   UNL     1       3.013   1.024  -1.946  1.00  0.00     0.041 A 
ATOM     12  C   UNL     1       5.401   0.747  -0.521  1.00  0.00     0.049 A 
ATOM     13  C   UNL     1       3.938  -0.009  -2.313  1.00  0.00     0.055 A 
BRANCH   9  14
ATOM     14  N   UNL     1       2.564   3.118  -0.677  1.00  0.00    -0.322 N 
ATOM     15  C   UNL     1       1.241   3.492  -0.814  1.00  0.00     0.255 C 
ATOM     16  O   UNL     1       0.961   4.684  -0.948  1.00  0.00    -0.269 OA
ATOM     17  H   UNL     1       3.126   3.843  -0.320  1.00  0.00     0.170 HD
BRANCH  15  18
ATOM     18  C   UNL     1       0.125   2.537  -0.614  1.00  0.00     0.043 A 
ATOM     19  C   UNL     1       0.887   1.979   1.741  1.00  0.00     0.045 C 
ATOM     20  C   UNL     1       0.054   1.707   0.509  1.00  0.00    -0.038 A 
ATOM     21  C   UNL     1      -0.958   0.730   0.563  1.00  0.00     0.004 A 
ATOM     22  C   UNL     1      -1.992   0.709  -0.363  1.00  0.00     0.000 A 
ATOM     23  C   UNL     1      -1.014   2.639  -1.427  1.00  0.00     0.014 A 
ATOM     24  C   UNL     1      -2.075   1.736  -1.290  1.00  0.00     0.001 A 
ENDBRANCH  15  18
ENDBRANCH   9  14
BRANCH  13  25
ATOM     25  C   UNL     1       3.493  -0.960  -3.370  1.00  0.00     0.128 A 
ATOM     26  N   UNL     1       2.478  -0.720  -4.179  1.00  0.00    -0.236 NA
ATOM     27  S   UNL     1       4.076  -2.577  -3.475  1.00  0.00    -0.114 S 
ATOM     28  C   UNL     1       2.020  -1.898  -4.752  1.00  0.00     0.082 A 
ATOM     29  C   UNL     1       2.739  -3.044  -4.423  1.00  0.00     0.055 A 
ATOM     30  C   UNL     1       0.884  -2.031  -5.571  1.00  0.00     0.030 A 
ATOM     31  C   UNL     1       2.345  -4.327  -4.838  1.00  0.00     0.021 A 
ATOM     32  C   UNL     1       0.473  -3.303  -5.987  1.00  0.00     0.002 A 
ATOM     33  C   UNL     1       1.189  -4.437  -5.614  1.00  0.00     0.002 A 
ENDBRANCH  13  25
ENDBRANCH   7   8
ENDBRANCH   6   7
ENDBRANCH   4   6
ENDBRANCH   3   4
ENDBRANCH   2   3
ENDBRANCH   1   2
BRANCH   1  34
ATOM     34  O   UNL     1       2.144  -3.164   0.312  1.00  0.00    -0.374 OA
BRANCH  34  35
ATOM     35  C   UNL     1       1.969  -1.816  -0.009  1.00  0.00     0.202 C 
BRANCH  35  36
ATOM     36  C   UNL     1       1.834  -0.996   1.241  1.00  0.00     0.261 C 
BRANCH  36  37
ATOM     37  O   UNL     1       0.789  -1.275   2.234  1.00  0.00    -0.460 OA
BRANCH  37  38
ATOM     38  C   UNL     1      -0.105  -2.224   2.603  1.00  0.00     0.338 C 
ATOM     39  O   UNL     1      -0.742  -2.099   3.644  1.00  0.00    -0.246 OA
BRANCH  38  40
ATOM     40  C   UNL     1      -0.313  -3.449   1.819  1.00  0.00     0.060 A 
ATOM     41  C   UNL     1      -0.094  -4.694   2.424  1.00  0.00     0.016 A 
ATOM     42  C   UNL     1      -0.607  -3.378   0.471  1.00  0.00     0.016 A 
ATOM     43  C   UNL     1       0.188  -5.807   1.628  1.00  0.00     0.010 A 
ATOM     44  C   UNL     1      -0.239  -4.459  -0.320  1.00  0.00     0.010 A 
ATOM     45  C   UNL     1       0.268  -5.641   0.243  1.00  0.00    -0.014 A 
BRANCH  45  46
ATOM     46  C   UNL     1       1.069  -6.528  -0.623  1.00  0.00     0.031 A 
ATOM     47  C   UNL     1       0.466  -7.186  -1.775  1.00  0.00     0.074 A 
ATOM     48  C   UNL     1       2.381  -6.774  -0.404  1.00  0.00     0.049 A 
ATOM     49  N   UNL     1       0.567  -8.458  -1.975  1.00  0.00    -0.248 NA
ATOM     50  C   UNL     1      -0.328  -6.488  -2.775  1.00  0.00     0.031 C 
ATOM     51  C   UNL     1       3.413  -7.388  -1.229  1.00  0.00     0.029 A 
ATOM     52  N   UNL     1       3.066  -6.465   0.734  1.00  0.00    -0.354 N 
ATOM     53  C   UNL     1       0.179  -8.645  -3.275  1.00  0.00     0.074 A 
ATOM     54  C   UNL     1      -0.589  -7.475  -3.631  1.00  0.00     0.031 C 
ATOM     55  C   UNL     1       4.550  -7.529  -0.509  1.00  0.00     0.029 A 
ATOM     56  C   UNL     1       4.315  -7.038   0.845  1.00  0.00     0.049 A 
ATOM     57  H   UNL     1       2.695  -5.873   1.428  1.00  0.00     0.167 HD
ATOM     58  C   UNL     1       0.807  -9.557  -4.066  1.00  0.00     0.031 A 
ATOM     59  C   UNL     1       4.670  -7.602   2.034  1.00  0.00     0.031 A 
ATOM     60  C   UNL     1       2.016 -10.098  -3.422  1.00  0.00     0.049 A 
ATOM     61  C   UNL     1       4.397  -9.073   1.877  1.00  0.00     0.074 A 
ATOM     62  C   UNL     1       3.369  -9.932  -3.686  1.00  0.00     0.029 A 
ATOM     63  N   UNL     1       1.949 -10.660  -2.143  1.00  0.00    -0.354 N 
ATOM     64  N   UNL     1       3.627  -9.517   0.920  1.00  0.00    -0.248 NA
ATOM     65  C   UNL     1       5.041 -10.153   2.619  1.00  0.00     0.031 C 
ATOM     66  C   UNL     1       4.106 -10.368  -2.548  1.00  0.00     0.029 A 
ATOM     67  C   UNL     1       3.208 -10.813  -1.590  1.00  0.00     0.049 A 
ATOM     68  H   UNL     1       1.111 -10.915  -1.693  1.00  0.00     0.167 HD
ATOM     69  C   UNL     1       3.829 -10.844   0.765  1.00  0.00     0.074 A 
ATOM     70  C   UNL     1       4.639 -11.227   1.911  1.00  0.00     0.031 C 
ATOM     71  C   UNL     1       3.389 -11.522  -0.327  1.00  0.00     0.031 A 
BRANCH  58  72
ATOM     72  C   UNL     1       0.504  -9.628  -5.548  1.00  0.00    -0.014 A 
ATOM     73  C   UNL     1       1.458 -10.102  -6.459  1.00  0.00     0.009 A 
ATOM     74  C   UNL     1      -0.741  -9.256  -6.100  1.00  0.00     0.009 A 
ATOM     75  C   UNL     1       1.218 -10.112  -7.841  1.00  0.00     0.001 A 
ATOM     76  C   UNL     1      -0.967  -9.202  -7.480  1.00  0.00     0.001 A 
ATOM     77  C   UNL     1       0.018  -9.633  -8.354  1.00  0.00     0.000 A 
ENDBRANCH  58  72
BRANCH  59  78
ATOM     78  C   UNL     1       4.413  -6.698   3.206  1.00  0.00    -0.014 A 
ATOM     79  C   UNL     1       5.327  -5.632   3.386  1.00  0.00     0.009 A 
ATOM     80  C   UNL     1       3.162  -6.578   3.831  1.00  0.00     0.009 A 
ATOM     81  C   UNL     1       4.958  -4.440   4.032  1.00  0.00     0.001 A 
ATOM     82  C   UNL     1       2.801  -5.386   4.495  1.00  0.00     0.001 A 
ATOM     83  C   UNL     1       3.680  -4.305   4.559  1.00  0.00     0.000 A 
ENDBRANCH  59  78
BRANCH  71  84
ATOM     84  C   UNL     1       3.129 -12.988  -0.298  1.00  0.00    -0.014 A 
ATOM     85  C   UNL     1       2.784 -13.653   0.885  1.00  0.00     0.009 A 
ATOM     86  C   UNL     1       2.974 -13.675  -1.516  1.00  0.00     0.009 A 
ATOM     87  C   UNL     1       2.321 -14.966   0.852  1.00  0.00     0.001 A 
ATOM     88  C   UNL     1       2.459 -14.965  -1.555  1.00  0.00     0.001 A 
ATOM     89  C   UNL     1       2.142 -15.613  -0.368  1.00  0.00     0.000 A 
ENDBRANCH  71  84
ENDBRANCH  45  46
ENDBRANCH  38  40
ENDBRANCH  37  38
ENDBRANCH  36  37
ENDBRANCH  35  36
ENDBRANCH  34  35
ENDBRANCH   1  34
TORSDOF 19
