REMARK SMILES CC(C)[C@H](CNc1ncnc2c1CCCCC2)C(=O)OCCOCCOC(=O)c1ccc(-c2c3nc(c(-c4ccccc4)c4ccc([nH]4)c(-c4ccccc4)c4nc(c(-c5ccccc5)c5ccc2[nH]5)C=C4)C=C3)cc1
REMARK SMILES IDX 21 1 20 2 18 3 19 4 4 5 2 6 1 7 3 8 5 9 6 10 7 12 8 13 12 14
REMARK SMILES IDX 9 15 11 16 10 17 13 18 14 19 15 20 17 22 16 23 22 25 23 26
REMARK SMILES IDX 24 27 25 28 26 29 27 30 28 31 29 32 30 33 76 34 31 35 75 36
REMARK SMILES IDX 32 37 33 38 34 39 69 40 35 41 74 42 68 43 70 44 36 45 73 46
REMARK SMILES IDX 67 47 66 48 37 50 59 51 44 52 58 53 45 54 48 55 57 56 71 57
REMARK SMILES IDX 46 58 47 59 56 61 72 62 49 63 38 64 39 65 43 66 40 67 42 68
REMARK SMILES IDX 41 69 60 70 61 71 65 72 62 73 64 74 63 75 50 76 51 77 55 78
REMARK SMILES IDX 52 79 54 80 53 81
REMARK H PARENT 6 11 70 49 48 60
REMARK Flexibility Score: 90.00
ROOT
ATOM      1  C   UNL     1      -2.460   4.524   0.660  1.00  0.00     0.261 C 
ENDROOT
BRANCH   1   2
ATOM      2  O   UNL     1      -1.631   3.358   0.814  1.00  0.00    -0.463 OA
BRANCH   2   3
ATOM      3  C   UNL     1      -2.116   2.214   0.262  1.00  0.00     0.311 C 
ATOM      4  O   UNL     1      -3.189   2.123  -0.323  1.00  0.00    -0.252 OA
BRANCH   3   5
ATOM      5  C   UNL     1      -1.200   1.014   0.472  1.00  0.00     0.121 C 
BRANCH   5   6
ATOM      6  C   UNL     1      -1.682   0.134   1.652  1.00  0.00    -0.001 C 
ATOM      7  C   UNL     1      -2.071   0.932   2.901  1.00  0.00     0.008 C 
ATOM      8  C   UNL     1      -2.865  -0.747   1.224  1.00  0.00     0.008 C 
ENDBRANCH   5   6
BRANCH   5   9
ATOM      9  C   UNL     1       0.303   1.374   0.383  1.00  0.00     0.130 C 
BRANCH   9  10
ATOM     10  N   UNL     1       1.112   1.086   1.560  1.00  0.00    -0.369 N 
ATOM     11  H   UNL     1       1.036   1.663   2.354  1.00  0.00     0.162 HD
BRANCH  10  12
ATOM     12  C   UNL     1       1.984   0.015   1.576  1.00  0.00     0.132 A 
ATOM     13  N   UNL     1       1.738  -0.830   2.590  1.00  0.00    -0.219 NA
ATOM     14  C   UNL     1       3.019  -0.195   0.665  1.00  0.00     0.016 A 
ATOM     15  C   UNL     1       2.483  -1.936   2.652  1.00  0.00     0.224 A 
ATOM     16  C   UNL     1       3.727  -1.386   0.824  1.00  0.00     0.049 A 
ATOM     17  N   UNL     1       3.460  -2.270   1.808  1.00  0.00    -0.241 NA
BRANCH  14  18
ATOM     18  C   UNL     1       3.435   0.809  -0.378  1.00  0.00     0.041 C 
BRANCH  18  19
ATOM     19  C   UNL     1       4.839   1.379  -0.149  1.00  0.00     0.005 C 
BRANCH  19  20
ATOM     20  C   UNL     1       5.975   0.474  -0.622  1.00  0.00     0.001 CG0
ATOM     21  G   UNL     1       6.089  -0.854   0.122  1.00  0.00     0.000 G0
ENDBRANCH  19  20
ENDBRANCH  18  19
ENDBRANCH  14  18
BRANCH  16  22
ATOM     22  C   UNL     1       4.878  -1.762  -0.073  1.00  0.00     0.057 C 
BRANCH  22  23
ATOM     23  C   UNL     1       6.089  -0.854   0.122  1.00  0.00     0.006 CG0
ATOM     24  G   UNL     1       5.975   0.474  -0.622  1.00  0.00     0.000 G0
ENDBRANCH  22  23
ENDBRANCH  16  22
ENDBRANCH  10  12
ENDBRANCH   9  10
ENDBRANCH   5   9
ENDBRANCH   3   5
ENDBRANCH   2   3
ENDBRANCH   1   2
BRANCH   1  25
ATOM     25  C   UNL     1      -1.878   5.548  -0.319  1.00  0.00     0.202 C 
BRANCH  25  26
ATOM     26  O   UNL     1      -1.739   5.137  -1.676  1.00  0.00    -0.374 OA
BRANCH  26  27
ATOM     27  C   UNL     1      -0.647   4.283  -2.010  1.00  0.00     0.202 C 
BRANCH  27  28
ATOM     28  C   UNL     1       0.758   4.895  -1.929  1.00  0.00     0.261 C 
BRANCH  28  29
ATOM     29  O   UNL     1       1.159   5.147  -0.567  1.00  0.00    -0.460 OA
BRANCH  29  30
ATOM     30  C   UNL     1       1.530   6.423  -0.310  1.00  0.00     0.338 C 
ATOM     31  O   UNL     1       1.645   7.340  -1.113  1.00  0.00    -0.246 OA
BRANCH  30  32
ATOM     32  C   UNL     1       1.620   6.645   1.142  1.00  0.00     0.060 A 
ATOM     33  C   UNL     1       0.726   7.557   1.716  1.00  0.00     0.016 A 
ATOM     34  C   UNL     1       2.635   6.066   1.907  1.00  0.00     0.016 A 
ATOM     35  C   UNL     1       0.869   7.925   3.052  1.00  0.00     0.010 A 
ATOM     36  C   UNL     1       2.784   6.447   3.246  1.00  0.00     0.010 A 
ATOM     37  C   UNL     1       1.923   7.403   3.814  1.00  0.00    -0.014 A 
BRANCH  37  38
ATOM     38  C   UNL     1       2.195   7.987   5.150  1.00  0.00     0.031 A 
ATOM     39  C   UNL     1       3.209   9.091   5.274  1.00  0.00     0.074 A 
ATOM     40  C   UNL     1       1.481   7.608   6.224  1.00  0.00     0.049 A 
ATOM     41  N   UNL     1       3.523   9.811   6.321  1.00  0.00    -0.248 NA
ATOM     42  C   UNL     1       3.957   9.439   4.055  1.00  0.00     0.031 C 
ATOM     43  C   UNL     1       0.430   6.593   6.224  1.00  0.00     0.029 A 
ATOM     44  N   UNL     1       1.519   8.057   7.521  1.00  0.00    -0.354 N 
ATOM     45  C   UNL     1       4.487  10.710   5.883  1.00  0.00     0.074 A 
ATOM     46  C   UNL     1       4.740  10.416   4.489  1.00  0.00     0.031 C 
ATOM     47  C   UNL     1      -0.096   6.512   7.459  1.00  0.00     0.029 A 
ATOM     48  C   UNL     1       0.597   7.451   8.339  1.00  0.00     0.049 A 
ATOM     49  H   UNL     1       2.147   8.747   7.835  1.00  0.00     0.167 HD
ATOM     50  C   UNL     1       5.093  11.706   6.571  1.00  0.00     0.031 A 
ATOM     51  C   UNL     1       0.339   7.636   9.649  1.00  0.00     0.031 A 
ATOM     52  C   UNL     1       4.868  11.986   7.963  1.00  0.00     0.049 A 
ATOM     53  C   UNL     1       1.122   8.659  10.425  1.00  0.00     0.074 A 
ATOM     54  C   UNL     1       5.441  12.973   8.746  1.00  0.00     0.029 A 
ATOM     55  N   UNL     1       4.010  11.271   8.781  1.00  0.00    -0.354 N 
ATOM     56  N   UNL     1       2.014   9.517   9.994  1.00  0.00    -0.248 NA
ATOM     57  C   UNL     1       0.863   8.738  11.872  1.00  0.00     0.031 C 
ATOM     58  C   UNL     1       4.969  12.820  10.053  1.00  0.00     0.029 A 
ATOM     59  C   UNL     1       4.064  11.771  10.070  1.00  0.00     0.049 A 
ATOM     60  H   UNL     1       3.445  10.519   8.489  1.00  0.00     0.167 HD
ATOM     61  C   UNL     1       2.408  10.249  11.107  1.00  0.00     0.074 A 
ATOM     62  C   UNL     1       1.652   9.742  12.233  1.00  0.00     0.031 C 
ATOM     63  C   UNL     1       3.314  11.253  11.185  1.00  0.00     0.031 A 
BRANCH  50  64
ATOM     64  C   UNL     1       6.077  12.560   5.824  1.00  0.00    -0.014 A 
ATOM     65  C   UNL     1       5.640  13.510   4.888  1.00  0.00     0.009 A 
ATOM     66  C   UNL     1       7.450  12.444   6.088  1.00  0.00     0.009 A 
ATOM     67  C   UNL     1       6.562  14.309   4.209  1.00  0.00     0.001 A 
ATOM     68  C   UNL     1       8.368  13.261   5.425  1.00  0.00     0.001 A 
ATOM     69  C   UNL     1       7.924  14.186   4.482  1.00  0.00     0.000 A 
ENDBRANCH  50  64
BRANCH  51  70
ATOM     70  C   UNL     1      -0.721   6.834  10.311  1.00  0.00    -0.014 A 
ATOM     71  C   UNL     1      -1.929   7.434  10.699  1.00  0.00     0.009 A 
ATOM     72  C   UNL     1      -0.536   5.463  10.552  1.00  0.00     0.009 A 
ATOM     73  C   UNL     1      -2.925   6.679  11.321  1.00  0.00     0.001 A 
ATOM     74  C   UNL     1      -1.543   4.707  11.154  1.00  0.00     0.001 A 
ATOM     75  C   UNL     1      -2.735   5.316  11.542  1.00  0.00     0.000 A 
ENDBRANCH  51  70
BRANCH  63  76
ATOM     76  C   UNL     1       3.549  11.884  12.527  1.00  0.00    -0.014 A 
ATOM     77  C   UNL     1       4.317  11.233  13.504  1.00  0.00     0.009 A 
ATOM     78  C   UNL     1       3.086  13.186  12.779  1.00  0.00     0.009 A 
ATOM     79  C   UNL     1       4.609  11.871  14.712  1.00  0.00     0.001 A 
ATOM     80  C   UNL     1       3.400  13.829  13.977  1.00  0.00     0.001 A 
ATOM     81  C   UNL     1       4.159  13.171  14.943  1.00  0.00     0.000 A 
ENDBRANCH  63  76
ENDBRANCH  37  38
ENDBRANCH  30  32
ENDBRANCH  29  30
ENDBRANCH  28  29
ENDBRANCH  27  28
ENDBRANCH  26  27
ENDBRANCH  25  26
ENDBRANCH   1  25
TORSDOF 18
