REMARK SMILES Cc1cnn(C2(C(=O)OCCOCCOC(=O)c3ccc(-c4c5nc(c(-c6ccccc6)c6ccc([nH]6)c(-c6ccccc6)c6nc(c(-c7ccccc7)c7ccc4[nH]7)C=C6)C=C5)cc3)CCN(C(=O)c3cc4ccccc4[nH]3)CC2)c1
REMARK SMILES IDX 13 1 12 2 11 3 10 4 9 5 7 6 8 7 6 8 66 9 81 10 67 11 80 12
REMARK SMILES IDX 68 13 69 14 70 15 5 16 1 17 2 18 3 19 82 20 4 21 71 22 72 23
REMARK SMILES IDX 79 24 73 25 78 26 74 28 77 29 75 30 76 31 14 32 15 33 16 34
REMARK SMILES IDX 17 35 18 36 19 37 65 38 20 39 64 40 21 41 22 42 23 43 58 44
REMARK SMILES IDX 24 45 63 46 57 47 59 48 25 49 62 50 56 51 55 52 26 54 48 55
REMARK SMILES IDX 33 56 47 57 34 58 37 59 46 60 60 61 35 62 36 63 45 65 61 66
REMARK SMILES IDX 38 67 27 68 28 69 32 70 29 71 31 72 30 73 49 74 50 75 54 76
REMARK SMILES IDX 51 77 53 78 52 79 39 80 40 81 44 82 41 83 43 84 42 85
REMARK H PARENT 79 27 59 53 37 64
REMARK Flexibility Score: inf
ROOT
ATOM      1  C   UNL     1      -2.556   4.648   3.624  1.00  0.00     0.202 C 
ENDROOT
BRANCH   1   2
ATOM      2  O   UNL     1      -2.494   5.391   4.838  1.00  0.00    -0.374 OA
BRANCH   2   3
ATOM      3  C   UNL     1      -1.587   6.498   4.906  1.00  0.00     0.202 C 
BRANCH   3   4
ATOM      4  C   UNL     1      -0.098   6.143   4.848  1.00  0.00     0.261 C 
BRANCH   4   5
ATOM      5  O   UNL     1       0.232   5.846   3.480  1.00  0.00    -0.461 OA
BRANCH   5   6
ATOM      6  C   UNL     1       0.960   4.723   3.213  1.00  0.00     0.334 C 
ATOM      7  O   UNL     1       1.609   4.119   4.059  1.00  0.00    -0.249 OA
BRANCH   6   8
ATOM      8  C   UNL     1       0.896   4.360   1.699  1.00  0.00     0.163 C 
ATOM      9  C   UNL     1       0.227   5.525   0.921  1.00  0.00     0.064 C 
ATOM     10  C   UNL     1       2.378   4.222   1.285  1.00  0.00     0.064 C 
ATOM     11  C   UNL     1       0.538   5.595  -0.556  1.00  0.00     0.123 C 
ATOM     12  C   UNL     1       2.622   4.285  -0.211  1.00  0.00     0.123 C 
ATOM     13  N   UNL     1       1.953   5.427  -0.824  1.00  0.00    -0.337 N 
ATOM     14  C   UNL     1       2.531   6.178  -1.849  1.00  0.00     0.270 C 
ATOM     15  O   UNL     1       2.111   7.277  -2.191  1.00  0.00    -0.267 OA
BRANCH   8  16
ATOM     16  N   UNL     1       0.195   3.067   1.523  1.00  0.00    -0.255 N 
ATOM     17  C   UNL     1       0.427  -0.364   0.353  1.00  0.00     0.048 C 
ATOM     18  C   UNL     1       0.108   0.935   0.986  1.00  0.00    -0.013 A 
ATOM     19  C   UNL     1      -0.397   1.178   2.276  1.00  0.00     0.138 A 
ATOM     20  C   UNL     1       0.263   2.201   0.457  1.00  0.00     0.113 A 
ATOM     21  N   UNL     1      -0.436   2.480   2.562  1.00  0.00    -0.180 NA
ENDBRANCH   8  16
BRANCH  14  22
ATOM     22  C   UNL     1       3.611   5.511  -2.525  1.00  0.00     0.105 A 
ATOM     23  C   UNL     1       3.517   4.472  -3.432  1.00  0.00     0.042 A 
ATOM     24  N   UNL     1       4.946   5.734  -2.294  1.00  0.00    -0.351 N 
ATOM     25  C   UNL     1       4.823   3.981  -3.670  1.00  0.00     0.000 A 
ATOM     26  C   UNL     1       5.697   4.755  -2.907  1.00  0.00     0.046 A 
ATOM     27  H   UNL     1       5.311   6.482  -1.769  1.00  0.00     0.167 HD
ATOM     28  C   UNL     1       5.337   2.922  -4.439  1.00  0.00     0.010 A 
ATOM     29  C   UNL     1       7.070   4.496  -2.847  1.00  0.00     0.026 A 
ATOM     30  C   UNL     1       6.710   2.668  -4.412  1.00  0.00     0.001 A 
ATOM     31  C   UNL     1       7.560   3.437  -3.618  1.00  0.00     0.002 A 
ENDBRANCH  14  22
ENDBRANCH   6   8
ENDBRANCH   5   6
ENDBRANCH   4   5
ENDBRANCH   3   4
ENDBRANCH   2   3
ENDBRANCH   1   2
BRANCH   1  32
ATOM     32  C   UNL     1      -3.466   5.197   2.536  1.00  0.00     0.261 C 
BRANCH  32  33
ATOM     33  O   UNL     1      -3.033   6.477   2.093  1.00  0.00    -0.460 OA
BRANCH  33  34
ATOM     34  C   UNL     1      -3.663   7.518   2.686  1.00  0.00     0.338 C 
ATOM     35  O   UNL     1      -4.396   7.491   3.651  1.00  0.00    -0.246 OA
BRANCH  34  36
ATOM     36  C   UNL     1      -3.466   8.701   1.835  1.00  0.00     0.060 A 
ATOM     37  C   UNL     1      -4.275   9.798   2.131  1.00  0.00     0.016 A 
ATOM     38  C   UNL     1      -2.769   8.594   0.622  1.00  0.00     0.016 A 
ATOM     39  C   UNL     1      -4.600  10.653   1.105  1.00  0.00     0.010 A 
ATOM     40  C   UNL     1      -3.102   9.442  -0.405  1.00  0.00     0.010 A 
ATOM     41  C   UNL     1      -4.091  10.390  -0.172  1.00  0.00    -0.014 A 
BRANCH  41  42
ATOM     42  C   UNL     1      -4.560  11.212  -1.260  1.00  0.00     0.031 A 
ATOM     43  C   UNL     1      -3.999  12.576  -1.208  1.00  0.00     0.074 A 
ATOM     44  C   UNL     1      -5.355  10.744  -2.239  1.00  0.00     0.049 A 
ATOM     45  N   UNL     1      -4.631  13.665  -0.932  1.00  0.00    -0.248 NA
ATOM     46  C   UNL     1      -2.535  12.717  -1.273  1.00  0.00     0.031 C 
ATOM     47  C   UNL     1      -5.748   9.364  -2.528  1.00  0.00     0.029 A 
ATOM     48  N   UNL     1      -5.903  11.433  -3.270  1.00  0.00    -0.354 N 
ATOM     49  C   UNL     1      -3.673  14.667  -0.979  1.00  0.00     0.074 A 
ATOM     50  C   UNL     1      -2.390  14.011  -0.990  1.00  0.00     0.031 C 
ATOM     51  C   UNL     1      -6.238   9.300  -3.790  1.00  0.00     0.029 A 
ATOM     52  C   UNL     1      -6.310  10.646  -4.337  1.00  0.00     0.049 A 
ATOM     53  H   UNL     1      -6.004  12.413  -3.262  1.00  0.00     0.167 HD
ATOM     54  C   UNL     1      -4.009  15.945  -1.292  1.00  0.00     0.031 A 
ATOM     55  C   UNL     1      -6.591  11.087  -5.590  1.00  0.00     0.031 A 
ATOM     56  C   UNL     1      -5.421  16.182  -1.142  1.00  0.00     0.049 A 
ATOM     57  C   UNL     1      -6.843  12.550  -5.499  1.00  0.00     0.074 A 
ATOM     58  C   UNL     1      -6.302  16.082  -0.082  1.00  0.00     0.029 A 
ATOM     59  N   UNL     1      -6.194  16.153  -2.280  1.00  0.00    -0.354 N 
ATOM     60  N   UNL     1      -7.879  13.055  -4.891  1.00  0.00    -0.248 NA
ATOM     61  C   UNL     1      -5.700  13.445  -5.631  1.00  0.00     0.031 C 
ATOM     62  C   UNL     1      -7.477  15.496  -0.638  1.00  0.00     0.029 A 
ATOM     63  C   UNL     1      -7.283  15.360  -2.014  1.00  0.00     0.049 A 
ATOM     64  H   UNL     1      -6.002  16.615  -3.128  1.00  0.00     0.167 HD
ATOM     65  C   UNL     1      -7.377  14.135  -4.177  1.00  0.00     0.074 A 
ATOM     66  C   UNL     1      -6.045  14.376  -4.735  1.00  0.00     0.031 C 
ATOM     67  C   UNL     1      -7.948  14.541  -3.004  1.00  0.00     0.031 A 
BRANCH  54  68
ATOM     68  C   UNL     1      -3.118  16.817  -2.131  1.00  0.00    -0.014 A 
ATOM     69  C   UNL     1      -3.465  18.163  -2.323  1.00  0.00     0.009 A 
ATOM     70  C   UNL     1      -2.099  16.298  -2.957  1.00  0.00     0.009 A 
ATOM     71  C   UNL     1      -2.852  18.930  -3.321  1.00  0.00     0.001 A 
ATOM     72  C   UNL     1      -1.456  17.070  -3.922  1.00  0.00     0.001 A 
ATOM     73  C   UNL     1      -1.851  18.383  -4.121  1.00  0.00     0.000 A 
ENDBRANCH  54  68
BRANCH  55  74
ATOM     74  C   UNL     1      -6.313  10.409  -6.880  1.00  0.00    -0.014 A 
ATOM     75  C   UNL     1      -6.862  10.883  -8.084  1.00  0.00     0.009 A 
ATOM     76  C   UNL     1      -5.286   9.450  -6.971  1.00  0.00     0.009 A 
ATOM     77  C   UNL     1      -6.379  10.438  -9.325  1.00  0.00     0.001 A 
ATOM     78  C   UNL     1      -4.806   9.004  -8.208  1.00  0.00     0.001 A 
ATOM     79  C   UNL     1      -5.343   9.508  -9.386  1.00  0.00     0.000 A 
ENDBRANCH  55  74
BRANCH  67  80
ATOM     80  C   UNL     1      -9.253  13.903  -2.583  1.00  0.00    -0.014 A 
ATOM     81  C   UNL     1      -9.404  12.522  -2.359  1.00  0.00     0.009 A 
ATOM     82  C   UNL     1     -10.318  14.747  -2.236  1.00  0.00     0.009 A 
ATOM     83  C   UNL     1     -10.593  12.004  -1.831  1.00  0.00     0.001 A 
ATOM     84  C   UNL     1     -11.496  14.234  -1.688  1.00  0.00     0.001 A 
ATOM     85  C   UNL     1     -11.636  12.862  -1.491  1.00  0.00     0.000 A 
ENDBRANCH  67  80
ENDBRANCH  41  42
ENDBRANCH  34  36
ENDBRANCH  33  34
ENDBRANCH  32  33
ENDBRANCH   1  32
TORSDOF 16
