REMARK SMILES CC1(C)Cc2c(-c3ccccc3)c(-c3ccc(Cl)cc3)c(CC(=O)OCCOCCOC(=O)c3ccc(-c4c5nc(c(-c6ccccc6)c6ccc([nH]6)c(-c6ccccc6)c6nc(c(-c7ccccc7)c7ccc4[nH]7)C=C6)C=C5)cc3)n2C1
REMARK SMILES IDX 28 1 27 2 26 3 25 4 23 5 24 6 22 7 21 8 1 9 2 10 3 11 4 12
REMARK SMILES IDX 83 13 5 14 82 15 6 16 13 17 7 18 8 19 12 20 9 21 11 22 10 23
REMARK SMILES IDX 14 24 15 25 20 26 16 27 19 28 17 29 18 30 29 31 30 32 31 33
REMARK SMILES IDX 32 34 33 35 34 36 35 37 81 38 36 39 80 40 37 41 38 42 39 43
REMARK SMILES IDX 74 44 40 45 79 46 73 47 75 48 41 49 78 50 72 51 71 52 42 54
REMARK SMILES IDX 64 55 49 56 63 57 50 58 53 59 62 60 76 61 51 62 52 63 61 65
REMARK SMILES IDX 77 66 54 67 43 68 44 69 48 70 45 71 47 72 46 73 65 74 66 75
REMARK SMILES IDX 70 76 67 77 69 78 68 79 55 80 56 81 60 82 57 83 59 84 58 85
REMARK H PARENT 75 53 53 64
REMARK Flexibility Score: inf
ROOT
ATOM      1  O   UNL     1      -1.779   5.786   6.762  1.00  0.00    -0.374 OA
ENDROOT
BRANCH   1   2
ATOM      2  C   UNL     1      -2.620   5.572   5.642  1.00  0.00     0.202 C 
BRANCH   2   3
ATOM      3  C   UNL     1      -1.911   5.573   4.280  1.00  0.00     0.261 C 
BRANCH   3   4
ATOM      4  O   UNL     1      -0.725   4.742   4.256  1.00  0.00    -0.463 OA
BRANCH   4   5
ATOM      5  C   UNL     1       0.432   5.326   3.862  1.00  0.00     0.311 C 
ATOM      6  O   UNL     1       0.480   6.448   3.362  1.00  0.00    -0.252 OA
BRANCH   5   7
ATOM      7  C   UNL     1       1.712   4.549   4.152  1.00  0.00     0.177 C 
BRANCH   7   8
ATOM      8  C   UNL     1       1.672   3.062   4.421  1.00  0.00     0.037 A 
ATOM      9  C   UNL     1       1.112   0.391   0.302  1.00  0.00     0.013 C 
ATOM     10  C   UNL     1       0.580   0.730   1.699  1.00  0.00    -0.012 C 
ATOM     11  C   UNL     1      -0.924   0.419   1.756  1.00  0.00     0.013 C 
ATOM     12  C   UNL     1       1.322  -0.111   2.778  1.00  0.00     0.063 C 
ATOM     13  C   UNL     1       0.855   2.222   2.080  1.00  0.00     0.129 C 
ATOM     14  C   UNL     1       1.568   0.872   3.855  1.00  0.00     0.027 A 
ATOM     15  N   UNL     1       1.286   2.150   3.474  1.00  0.00    -0.346 N 
ATOM     16  C   UNL     1       2.071   0.893   5.125  1.00  0.00     0.011 A 
ATOM     17  C   UNL     1       2.195   2.291   5.482  1.00  0.00     0.011 A 
BRANCH  16  18
ATOM     18  C   UNL     1       2.491  -0.293   5.856  1.00  0.00    -0.016 A 
ATOM     19  C   UNL     1       3.313  -1.264   5.269  1.00  0.00     0.009 A 
ATOM     20  C   UNL     1       2.093  -0.454   7.186  1.00  0.00     0.009 A 
ATOM     21  C   UNL     1       3.708  -2.389   5.995  1.00  0.00     0.001 A 
ATOM     22  C   UNL     1       2.526  -1.554   7.923  1.00  0.00     0.001 A 
ATOM     23  C   UNL     1       3.316  -2.531   7.322  1.00  0.00     0.000 A 
ENDBRANCH  16  18
BRANCH  17  24
ATOM     24  C   UNL     1       2.924   2.757   6.670  1.00  0.00    -0.016 A 
ATOM     25  C   UNL     1       4.290   2.465   6.799  1.00  0.00     0.010 A 
ATOM     26  C   UNL     1       2.254   3.218   7.804  1.00  0.00     0.010 A 
ATOM     27  C   UNL     1       4.941   2.596   8.036  1.00  0.00     0.021 A 
ATOM     28  C   UNL     1       2.892   3.352   9.041  1.00  0.00     0.021 A 
ATOM     29  C   UNL     1       4.234   3.026   9.155  1.00  0.00     0.041 A 
ATOM     30  Cl  UNL     1       5.001   3.108  10.692  1.00  0.00    -0.084 Cl
ENDBRANCH  17  24
ENDBRANCH   7   8
ENDBRANCH   5   7
ENDBRANCH   4   5
ENDBRANCH   3   4
ENDBRANCH   2   3
ENDBRANCH   1   2
BRANCH   1  31
ATOM     31  C   UNL     1      -0.895   4.741   7.147  1.00  0.00     0.202 C 
BRANCH  31  32
ATOM     32  C   UNL     1      -1.160   3.304   6.691  1.00  0.00     0.261 C 
BRANCH  32  33
ATOM     33  O   UNL     1      -2.502   2.878   6.888  1.00  0.00    -0.460 OA
BRANCH  33  34
ATOM     34  C   UNL     1      -2.642   2.244   8.064  1.00  0.00     0.338 C 
ATOM     35  O   UNL     1      -2.866   2.790   9.125  1.00  0.00    -0.246 OA
BRANCH  34  36
ATOM     36  C   UNL     1      -2.514   0.786   7.869  1.00  0.00     0.060 A 
ATOM     37  C   UNL     1      -3.172  -0.022   8.792  1.00  0.00     0.016 A 
ATOM     38  C   UNL     1      -1.718   0.226   6.850  1.00  0.00     0.016 A 
ATOM     39  C   UNL     1      -3.029  -1.392   8.701  1.00  0.00     0.010 A 
ATOM     40  C   UNL     1      -1.537  -1.141   6.787  1.00  0.00     0.010 A 
ATOM     41  C   UNL     1      -2.205  -1.938   7.709  1.00  0.00    -0.014 A 
BRANCH  41  42
ATOM     42  C   UNL     1      -2.235  -3.372   7.534  1.00  0.00     0.031 A 
ATOM     43  C   UNL     1      -3.429  -3.889   6.840  1.00  0.00     0.074 A 
ATOM     44  C   UNL     1      -1.258  -4.213   7.900  1.00  0.00     0.049 A 
ATOM     45  N   UNL     1      -4.365  -4.597   7.373  1.00  0.00    -0.248 NA
ATOM     46  C   UNL     1      -3.657  -3.520   5.438  1.00  0.00     0.031 C 
ATOM     47  C   UNL     1       0.075  -3.885   8.375  1.00  0.00     0.029 A 
ATOM     48  N   UNL     1      -1.250  -5.570   7.829  1.00  0.00    -0.354 N 
ATOM     49  C   UNL     1      -5.233  -4.912   6.342  1.00  0.00     0.074 A 
ATOM     50  C   UNL     1      -4.821  -4.128   5.202  1.00  0.00     0.031 C 
ATOM     51  C   UNL     1       0.846  -4.995   8.332  1.00  0.00     0.029 A 
ATOM     52  C   UNL     1       0.006  -6.126   7.981  1.00  0.00     0.049 A 
ATOM     53  H   UNL     1      -2.062  -6.106   7.682  1.00  0.00     0.167 HD
ATOM     54  C   UNL     1      -6.100  -5.953   6.446  1.00  0.00     0.031 A 
ATOM     55  C   UNL     1       0.334  -7.424   7.799  1.00  0.00     0.031 A 
ATOM     56  C   UNL     1      -6.266  -6.398   7.805  1.00  0.00     0.049 A 
ATOM     57  C   UNL     1      -0.890  -8.229   8.008  1.00  0.00     0.074 A 
ATOM     58  C   UNL     1      -6.670  -5.794   8.981  1.00  0.00     0.029 A 
ATOM     59  N   UNL     1      -5.635  -7.560   8.181  1.00  0.00    -0.354 N 
ATOM     60  N   UNL     1      -1.469  -8.354   9.168  1.00  0.00    -0.248 NA
ATOM     61  C   UNL     1      -1.713  -8.588   6.864  1.00  0.00     0.031 C 
ATOM     62  C   UNL     1      -5.858  -6.377   9.999  1.00  0.00     0.029 A 
ATOM     63  C   UNL     1      -5.029  -7.321   9.390  1.00  0.00     0.049 A 
ATOM     64  H   UNL     1      -5.621  -8.405   7.678  1.00  0.00     0.167 HD
ATOM     65  C   UNL     1      -2.827  -8.361   8.885  1.00  0.00     0.074 A 
ATOM     66  C   UNL     1      -2.909  -8.652   7.457  1.00  0.00     0.031 C 
ATOM     67  C   UNL     1      -3.735  -7.847   9.769  1.00  0.00     0.031 A 
BRANCH  54  68
ATOM     68  C   UNL     1      -6.510  -6.784   5.265  1.00  0.00    -0.014 A 
ATOM     69  C   UNL     1      -7.546  -7.719   5.413  1.00  0.00     0.009 A 
ATOM     70  C   UNL     1      -5.743  -6.858   4.086  1.00  0.00     0.009 A 
ATOM     71  C   UNL     1      -7.779  -8.699   4.441  1.00  0.00     0.001 A 
ATOM     72  C   UNL     1      -6.001  -7.805   3.094  1.00  0.00     0.001 A 
ATOM     73  C   UNL     1      -7.008  -8.741   3.283  1.00  0.00     0.000 A 
ENDBRANCH  54  68
BRANCH  55  74
ATOM     74  C   UNL     1       1.587  -7.963   7.243  1.00  0.00    -0.014 A 
ATOM     75  C   UNL     1       1.929  -9.311   7.410  1.00  0.00     0.009 A 
ATOM     76  C   UNL     1       2.332  -7.202   6.321  1.00  0.00     0.009 A 
ATOM     77  C   UNL     1       2.960  -9.885   6.656  1.00  0.00     0.001 A 
ATOM     78  C   UNL     1       3.363  -7.773   5.572  1.00  0.00     0.001 A 
ATOM     79  C   UNL     1       3.667  -9.120   5.730  1.00  0.00     0.000 A 
ENDBRANCH  55  74
BRANCH  67  80
ATOM     80  C   UNL     1      -3.249  -7.513  11.162  1.00  0.00    -0.014 A 
ATOM     81  C   UNL     1      -2.227  -6.578  11.405  1.00  0.00     0.009 A 
ATOM     82  C   UNL     1      -3.933  -8.043  12.266  1.00  0.00     0.009 A 
ATOM     83  C   UNL     1      -1.871  -6.218  12.709  1.00  0.00     0.001 A 
ATOM     84  C   UNL     1      -3.594  -7.666  13.569  1.00  0.00     0.001 A 
ATOM     85  C   UNL     1      -2.558  -6.760  13.791  1.00  0.00     0.000 A 
ENDBRANCH  67  80
ENDBRANCH  41  42
ENDBRANCH  34  36
ENDBRANCH  33  34
ENDBRANCH  32  33
ENDBRANCH  31  32
ENDBRANCH   1  31
TORSDOF 17
