REMARK SMILES C[NH2+][C@@]1(C(=O)OCCOCCOC(=O)c2ccc(-c3c4nc(c(-c5ccccc5)c5ccc([nH]5)c(-c5ccccc5)c5nc(c(-c6ccccc6)c6ccc3[nH]6)C=C5)C=C4)cc2)CC[C@H](n2ccc(C)n2)C1
REMARK SMILES IDX 10 1 9 2 8 3 7 4 6 5 4 6 5 7 3 8 63 9 72 10 64 11 65 12 2 13
REMARK SMILES IDX 1 14 66 17 67 18 71 19 68 20 69 21 70 22 11 23 12 24 13 25
REMARK SMILES IDX 14 26 15 27 16 28 62 29 17 30 61 31 18 32 19 33 20 34 55 35
REMARK SMILES IDX 21 36 60 37 54 38 56 39 22 40 59 41 53 42 52 43 23 45 45 46
REMARK SMILES IDX 30 47 44 48 31 49 34 50 43 51 57 52 32 53 33 54 42 56 58 57
REMARK SMILES IDX 35 58 24 59 25 60 29 61 26 62 28 63 27 64 46 65 47 66 51 67
REMARK SMILES IDX 48 68 50 69 49 70 36 71 37 72 41 73 38 74 40 75 39 76
REMARK H PARENT 2 15 2 16 56 44 34 55
REMARK Flexibility Score: inf
ROOT
ATOM      1  C   UNL     1      -0.674  -0.965   4.315  1.00  0.00     0.202 C 
ENDROOT
BRANCH   1   2
ATOM      2  O   UNL     1      -0.857   0.060   5.288  1.00  0.00    -0.374 OA
BRANCH   2   3
ATOM      3  C   UNL     1      -2.095   0.763   5.267  1.00  0.00     0.202 C 
BRANCH   3   4
ATOM      4  C   UNL     1      -2.298   1.827   4.181  1.00  0.00     0.261 C 
BRANCH   4   5
ATOM      5  O   UNL     1      -2.073   1.365   2.838  1.00  0.00    -0.459 OA
BRANCH   5   6
ATOM      6  C   UNL     1      -0.907   1.786   2.272  1.00  0.00     0.368 C 
ATOM      7  O   UNL     1      -0.059   2.457   2.858  1.00  0.00    -0.245 OA
BRANCH   6   8
ATOM      8  C   UNL     1      -0.750   1.368   0.765  1.00  0.00     0.196 C 
ATOM      9  C   UNL     1      -1.656   2.274  -0.083  1.00  0.00     0.083 C 
ATOM     10  C   UNL     1      -1.276  -0.046   0.466  1.00  0.00     0.108 C 
ATOM     11  C   UNL     1      -3.023   1.595  -0.036  1.00  0.00     0.034 C 
ATOM     12  C   UNL     1      -2.687   0.107  -0.139  1.00  0.00     0.114 C 
BRANCH   8  13
ATOM     13  N   UNL     1       0.667   1.657   0.403  1.00  0.00    -0.334 N 
ATOM     14  C   UNL     1       1.447   0.573  -0.165  1.00  0.00     0.331 C 
ATOM     15  H   UNL     1       0.660   2.417  -0.276  1.00  0.00     0.347 HD
ATOM     16  H   UNL     1       1.124   1.868   1.290  1.00  0.00     0.347 HD
ENDBRANCH   8  13
BRANCH  12  17
ATOM     17  N   UNL     1      -3.637  -0.837   0.417  1.00  0.00    -0.269 N 
ATOM     18  C   UNL     1      -4.973  -0.678   0.638  1.00  0.00     0.109 A 
ATOM     19  N   UNL     1      -3.214  -2.095   0.653  1.00  0.00    -0.178 NA
ATOM     20  C   UNL     1      -5.435  -1.901   1.066  1.00  0.00     0.045 A 
ATOM     21  C   UNL     1      -4.302  -2.744   1.072  1.00  0.00     0.059 A 
ATOM     22  C   UNL     1      -4.190  -4.167   1.472  1.00  0.00     0.069 C 
ENDBRANCH  12  17
ENDBRANCH   6   8
ENDBRANCH   5   6
ENDBRANCH   4   5
ENDBRANCH   3   4
ENDBRANCH   2   3
ENDBRANCH   1   2
BRANCH   1  23
ATOM     23  C   UNL     1      -1.424  -2.286   4.526  1.00  0.00     0.261 C 
BRANCH  23  24
ATOM     24  O   UNL     1      -2.853  -2.136   4.505  1.00  0.00    -0.460 OA
BRANCH  24  25
ATOM     25  C   UNL     1      -3.476  -2.312   5.691  1.00  0.00     0.338 C 
ATOM     26  O   UNL     1      -2.962  -2.594   6.770  1.00  0.00    -0.246 OA
BRANCH  25  27
ATOM     27  C   UNL     1      -4.909  -1.996   5.556  1.00  0.00     0.060 A 
ATOM     28  C   UNL     1      -5.518  -1.178   6.513  1.00  0.00     0.016 A 
ATOM     29  C   UNL     1      -5.666  -2.558   4.530  1.00  0.00     0.016 A 
ATOM     30  C   UNL     1      -6.897  -0.962   6.467  1.00  0.00     0.010 A 
ATOM     31  C   UNL     1      -7.036  -2.318   4.463  1.00  0.00     0.010 A 
ATOM     32  C   UNL     1      -7.668  -1.557   5.457  1.00  0.00    -0.014 A 
BRANCH  32  33
ATOM     33  C   UNL     1      -9.148  -1.504   5.491  1.00  0.00     0.031 A 
ATOM     34  C   UNL     1      -9.918  -2.752   5.836  1.00  0.00     0.074 A 
ATOM     35  C   UNL     1      -9.796  -0.375   5.156  1.00  0.00     0.049 A 
ATOM     36  N   UNL     1     -11.211  -2.945   5.874  1.00  0.00    -0.248 NA
ATOM     37  C   UNL     1      -9.122  -3.952   6.145  1.00  0.00     0.031 C 
ATOM     38  C   UNL     1      -9.159   0.880   4.754  1.00  0.00     0.029 A 
ATOM     39  N   UNL     1     -11.139  -0.110   5.084  1.00  0.00    -0.354 N 
ATOM     40  C   UNL     1     -11.382  -4.290   6.183  1.00  0.00     0.074 A 
ATOM     41  C   UNL     1     -10.063  -4.875   6.275  1.00  0.00     0.031 C 
ATOM     42  C   UNL     1     -10.114   1.784   4.478  1.00  0.00     0.029 A 
ATOM     43  C   UNL     1     -11.424   1.168   4.671  1.00  0.00     0.049 A 
ATOM     44  H   UNL     1     -11.832  -0.772   5.306  1.00  0.00     0.167 HD
ATOM     45  C   UNL     1     -12.532  -4.974   6.389  1.00  0.00     0.031 A 
ATOM     46  C   UNL     1     -12.611   1.773   4.475  1.00  0.00     0.031 A 
ATOM     47  C   UNL     1     -13.840  -4.378   6.322  1.00  0.00     0.049 A 
ATOM     48  C   UNL     1     -13.876   1.012   4.761  1.00  0.00     0.074 A 
ATOM     49  C   UNL     1     -15.068  -4.955   6.594  1.00  0.00     0.029 A 
ATOM     50  N   UNL     1     -14.084  -3.063   5.959  1.00  0.00    -0.354 N 
ATOM     51  N   UNL     1     -14.021  -0.236   5.136  1.00  0.00    -0.248 NA
ATOM     52  C   UNL     1     -15.138   1.752   4.623  1.00  0.00     0.031 C 
ATOM     53  C   UNL     1     -16.060  -3.996   6.360  1.00  0.00     0.029 A 
ATOM     54  C   UNL     1     -15.444  -2.811   5.988  1.00  0.00     0.049 A 
ATOM     55  H   UNL     1     -13.392  -2.406   5.716  1.00  0.00     0.167 HD
ATOM     56  C   UNL     1     -15.386  -0.424   5.308  1.00  0.00     0.074 A 
ATOM     57  C   UNL     1     -16.023   0.842   5.007  1.00  0.00     0.031 C 
ATOM     58  C   UNL     1     -16.053  -1.542   5.686  1.00  0.00     0.031 A 
BRANCH  45  59
ATOM     59  C   UNL     1     -12.423  -6.441   6.707  1.00  0.00    -0.014 A 
ATOM     60  C   UNL     1     -11.884  -6.886   7.925  1.00  0.00     0.009 A 
ATOM     61  C   UNL     1     -12.888  -7.393   5.786  1.00  0.00     0.009 A 
ATOM     62  C   UNL     1     -11.771  -8.252   8.195  1.00  0.00     0.001 A 
ATOM     63  C   UNL     1     -12.803  -8.758   6.071  1.00  0.00     0.001 A 
ATOM     64  C   UNL     1     -12.235  -9.186   7.270  1.00  0.00     0.000 A 
ENDBRANCH  45  59
BRANCH  46  65
ATOM     65  C   UNL     1     -12.652   3.189   4.033  1.00  0.00    -0.014 A 
ATOM     66  C   UNL     1     -12.990   4.205   4.940  1.00  0.00     0.009 A 
ATOM     67  C   UNL     1     -12.329   3.537   2.712  1.00  0.00     0.009 A 
ATOM     68  C   UNL     1     -13.022   5.540   4.529  1.00  0.00     0.001 A 
ATOM     69  C   UNL     1     -12.339   4.875   2.310  1.00  0.00     0.001 A 
ATOM     70  C   UNL     1     -12.691   5.874   3.217  1.00  0.00     0.000 A 
ENDBRANCH  46  65
BRANCH  58  71
ATOM     71  C   UNL     1     -17.544  -1.433   5.827  1.00  0.00    -0.014 A 
ATOM     72  C   UNL     1     -18.379  -1.371   4.702  1.00  0.00     0.009 A 
ATOM     73  C   UNL     1     -18.120  -1.436   7.107  1.00  0.00     0.009 A 
ATOM     74  C   UNL     1     -19.763  -1.281   4.857  1.00  0.00     0.001 A 
ATOM     75  C   UNL     1     -19.505  -1.371   7.259  1.00  0.00     0.001 A 
ATOM     76  C   UNL     1     -20.325  -1.285   6.134  1.00  0.00     0.000 A 
ENDBRANCH  58  71
ENDBRANCH  32  33
ENDBRANCH  25  27
ENDBRANCH  24  25
ENDBRANCH  23  24
ENDBRANCH   1  23
TORSDOF 16
