REMARK SMILES Cc1cc(C(=O)OCCOCCOC(=O)c2ccc(-c3c4nc(c(-c5ccccc5)c5ccc([nH]5)c(-c5ccccc5)c5nc(c(-c6ccccc6)c6ccc3[nH]6)C=C5)C=C4)cc2)ccc1NC(=O)N1C[C@@H](C)[C@H](C)C1
REMARK SMILES IDX 11 1 10 2 9 3 8 4 7 5 5 6 6 7 4 8 1 9 2 10 3 11 66 12 65 13
REMARK SMILES IDX 64 14 67 15 68 16 69 18 70 19 71 20 76 21 72 22 74 23 73 24
REMARK SMILES IDX 75 25 12 26 13 27 14 28 15 29 16 30 17 31 63 32 18 33 62 34
REMARK SMILES IDX 19 35 20 36 21 37 56 38 22 39 61 40 55 41 57 42 23 43 60 44
REMARK SMILES IDX 54 45 53 46 24 48 46 49 31 50 45 51 32 52 35 53 44 54 58 55
REMARK SMILES IDX 33 56 34 57 43 59 59 60 36 61 25 62 26 63 30 64 27 65 29 66
REMARK SMILES IDX 28 67 47 68 48 69 52 70 49 71 51 72 50 73 37 74 38 75 42 76
REMARK SMILES IDX 39 77 41 78 40 79
REMARK H PARENT 67 17 57 47 35 58
REMARK Flexibility Score: inf
ROOT
ATOM      1  C   UNL     1      -1.178  -3.372  -3.583  1.00  0.00     0.202 C 
ENDROOT
BRANCH   1   2
ATOM      2  O   UNL     1      -1.837  -3.151  -2.353  1.00  0.00    -0.374 OA
BRANCH   2   3
ATOM      3  C   UNL     1      -2.980  -2.316  -2.408  1.00  0.00     0.202 C 
BRANCH   3   4
ATOM      4  C   UNL     1      -3.530  -2.284  -1.013  1.00  0.00     0.261 C 
BRANCH   4   5
ATOM      5  O   UNL     1      -2.699  -1.556  -0.089  1.00  0.00    -0.460 OA
BRANCH   5   6
ATOM      6  C   UNL     1      -1.399  -1.933   0.067  1.00  0.00     0.338 C 
ATOM      7  O   UNL     1      -0.966  -3.012   0.406  1.00  0.00    -0.246 OA
BRANCH   6   8
ATOM      8  C   UNL     1      -0.599  -0.722  -0.200  1.00  0.00     0.060 A 
ATOM      9  C   UNL     1       2.890   0.629   0.292  1.00  0.00     0.046 C 
ATOM     10  C   UNL     1       1.407   0.612   0.055  1.00  0.00    -0.027 A 
ATOM     11  C   UNL     1       0.737  -0.622   0.183  1.00  0.00     0.021 A 
ATOM     12  C   UNL     1       0.666   1.728  -0.372  1.00  0.00     0.045 A 
ATOM     13  C   UNL     1      -0.544   1.523  -1.020  1.00  0.00     0.027 A 
ATOM     14  C   UNL     1      -1.199   0.327  -0.891  1.00  0.00     0.018 A 
BRANCH  12  15
ATOM     15  N   UNL     1       1.073   3.050  -0.122  1.00  0.00    -0.308 N 
ATOM     16  C   UNL     1       0.310   4.193  -0.180  1.00  0.00     0.321 C 
ATOM     17  H   UNL     1       2.018   3.173   0.126  1.00  0.00     0.171 HD
ATOM     18  O   UNL     1       0.862   5.266  -0.424  1.00  0.00    -0.248 OA
ATOM     19  N   UNL     1      -1.051   4.101   0.019  1.00  0.00    -0.324 N 
ATOM     20  C   UNL     1      -1.977   4.946  -0.710  1.00  0.00     0.125 C 
ATOM     21  C   UNL     1      -1.696   3.494   1.187  1.00  0.00     0.125 C 
ATOM     22  C   UNL     1      -3.147   5.175   0.240  1.00  0.00     0.010 C 
ATOM     23  C   UNL     1      -3.179   3.885   1.082  1.00  0.00     0.010 C 
ATOM     24  C   UNL     1      -4.451   5.449  -0.496  1.00  0.00     0.010 C 
ATOM     25  C   UNL     1      -3.855   4.082   2.437  1.00  0.00     0.010 C 
ENDBRANCH  12  15
ENDBRANCH   6   8
ENDBRANCH   5   6
ENDBRANCH   4   5
ENDBRANCH   3   4
ENDBRANCH   2   3
ENDBRANCH   1   2
BRANCH   1  26
ATOM     26  C   UNL     1      -2.078  -4.070  -4.611  1.00  0.00     0.261 C 
BRANCH  26  27
ATOM     27  O   UNL     1      -2.514  -5.341  -4.081  1.00  0.00    -0.460 OA
BRANCH  27  28
ATOM     28  C   UNL     1      -3.788  -5.395  -3.601  1.00  0.00     0.338 C 
ATOM     29  O   UNL     1      -4.775  -4.943  -4.159  1.00  0.00    -0.246 OA
BRANCH  28  30
ATOM     30  C   UNL     1      -3.770  -5.813  -2.166  1.00  0.00     0.060 A 
ATOM     31  C   UNL     1      -4.934  -5.691  -1.379  1.00  0.00     0.016 A 
ATOM     32  C   UNL     1      -2.534  -5.979  -1.546  1.00  0.00     0.016 A 
ATOM     33  C   UNL     1      -4.836  -5.572   0.018  1.00  0.00     0.010 A 
ATOM     34  C   UNL     1      -2.437  -5.759  -0.189  1.00  0.00     0.010 A 
ATOM     35  C   UNL     1      -3.572  -5.517   0.604  1.00  0.00    -0.014 A 
BRANCH  35  36
ATOM     36  C   UNL     1      -3.261  -5.079   1.972  1.00  0.00     0.031 A 
ATOM     37  C   UNL     1      -2.491  -5.990   2.846  1.00  0.00     0.074 A 
ATOM     38  C   UNL     1      -3.371  -3.773   2.325  1.00  0.00     0.049 A 
ATOM     39  N   UNL     1      -2.271  -5.757   4.091  1.00  0.00    -0.248 NA
ATOM     40  C   UNL     1      -1.929  -7.270   2.413  1.00  0.00     0.031 C 
ATOM     41  C   UNL     1      -2.625  -3.031   3.346  1.00  0.00     0.029 A 
ATOM     42  N   UNL     1      -4.208  -2.792   1.795  1.00  0.00    -0.354 N 
ATOM     43  C   UNL     1      -1.272  -6.602   4.500  1.00  0.00     0.074 A 
ATOM     44  C   UNL     1      -1.196  -7.613   3.477  1.00  0.00     0.031 C 
ATOM     45  C   UNL     1      -3.205  -1.835   3.556  1.00  0.00     0.029 A 
ATOM     46  C   UNL     1      -4.419  -1.797   2.759  1.00  0.00     0.049 A 
ATOM     47  H   UNL     1      -4.590  -2.797   0.887  1.00  0.00     0.167 HD
ATOM     48  C   UNL     1      -0.541  -6.249   5.593  1.00  0.00     0.031 A 
ATOM     49  C   UNL     1      -5.680  -1.492   3.165  1.00  0.00     0.031 A 
ATOM     50  C   UNL     1      -1.107  -5.056   6.244  1.00  0.00     0.049 A 
ATOM     51  C   UNL     1      -5.800  -1.939   4.594  1.00  0.00     0.074 A 
ATOM     52  C   UNL     1      -0.689  -3.742   6.361  1.00  0.00     0.029 A 
ATOM     53  N   UNL     1      -2.455  -5.068   6.614  1.00  0.00    -0.354 N 
ATOM     54  N   UNL     1      -5.014  -2.853   5.098  1.00  0.00    -0.248 NA
ATOM     55  C   UNL     1      -6.675  -1.338   5.594  1.00  0.00     0.031 C 
ATOM     56  C   UNL     1      -1.831  -2.952   6.698  1.00  0.00     0.029 A 
ATOM     57  C   UNL     1      -2.930  -3.789   6.834  1.00  0.00     0.049 A 
ATOM     58  H   UNL     1      -2.998  -5.884   6.707  1.00  0.00     0.167 HD
ATOM     59  C   UNL     1      -5.143  -2.862   6.447  1.00  0.00     0.074 A 
ATOM     60  C   UNL     1      -6.249  -1.956   6.713  1.00  0.00     0.031 C 
ATOM     61  C   UNL     1      -4.312  -3.570   7.261  1.00  0.00     0.031 A 
BRANCH  48  62
ATOM     62  C   UNL     1       0.786  -6.869   5.976  1.00  0.00    -0.014 A 
ATOM     63  C   UNL     1       1.466  -6.399   7.114  1.00  0.00     0.009 A 
ATOM     64  C   UNL     1       1.457  -7.864   5.238  1.00  0.00     0.009 A 
ATOM     65  C   UNL     1       2.721  -6.902   7.495  1.00  0.00     0.001 A 
ATOM     66  C   UNL     1       2.697  -8.391   5.625  1.00  0.00     0.001 A 
ATOM     67  C   UNL     1       3.333  -7.907   6.756  1.00  0.00     0.000 A 
ENDBRANCH  48  62
BRANCH  49  68
ATOM     68  C   UNL     1      -6.661  -1.567   2.037  1.00  0.00    -0.014 A 
ATOM     69  C   UNL     1      -6.605  -0.526   1.078  1.00  0.00     0.009 A 
ATOM     70  C   UNL     1      -7.221  -2.791   1.636  1.00  0.00     0.009 A 
ATOM     71  C   UNL     1      -6.969  -0.743  -0.259  1.00  0.00     0.001 A 
ATOM     72  C   UNL     1      -7.574  -3.006   0.291  1.00  0.00     0.001 A 
ATOM     73  C   UNL     1      -7.415  -1.998  -0.660  1.00  0.00     0.000 A 
ENDBRANCH  49  68
BRANCH  61  74
ATOM     74  C   UNL     1      -4.768  -4.101   8.585  1.00  0.00    -0.014 A 
ATOM     75  C   UNL     1      -6.123  -4.255   8.910  1.00  0.00     0.009 A 
ATOM     76  C   UNL     1      -3.824  -4.668   9.462  1.00  0.00     0.009 A 
ATOM     77  C   UNL     1      -6.517  -4.899  10.083  1.00  0.00     0.001 A 
ATOM     78  C   UNL     1      -4.215  -5.366  10.602  1.00  0.00     0.001 A 
ATOM     79  C   UNL     1      -5.563  -5.466  10.921  1.00  0.00     0.000 A 
ENDBRANCH  61  74
ENDBRANCH  35  36
ENDBRANCH  28  30
ENDBRANCH  27  28
ENDBRANCH  26  27
ENDBRANCH   1  26
TORSDOF 15
