REMARK SMILES CC[C@@]1(CO)CCCN(c2nc(-c3ccc(C)s3)ccc2C(=O)OCCOCCOC(=O)c2ccc(-c3c4nc(c(-c5ccccc5)c5ccc([nH]5)c(-c5ccccc5)c5nc(c(-c6ccccc6)c6ccc3[nH]6)C=C5)C=C4)cc2)C1
REMARK SMILES IDX 26 1 25 2 24 3 22 4 23 5 21 6 10 7 11 8 12 9 20 10 19 11
REMARK SMILES IDX 9 12 3 13 6 14 81 15 7 16 8 17 2 18 1 19 4 20 5 21 13 23
REMARK SMILES IDX 14 24 18 25 15 26 16 27 17 28 27 29 28 30 29 31 30 32 31 33
REMARK SMILES IDX 32 34 33 35 34 36 80 37 35 38 79 39 36 40 37 41 38 42 73 43
REMARK SMILES IDX 39 44 78 45 72 46 74 47 40 48 77 49 71 50 70 51 41 53 63 54
REMARK SMILES IDX 48 55 62 56 49 57 52 58 61 59 75 60 50 61 51 62 60 64 76 65
REMARK SMILES IDX 53 66 42 67 43 68 47 69 44 70 46 71 45 72 64 73 65 74 69 75
REMARK SMILES IDX 66 76 68 77 67 78 54 79 55 80 59 81 56 82 58 83 57 84
REMARK H PARENT 5 22 74 52 52 63
REMARK Flexibility Score: inf
ROOT
ATOM      1  C   UNL     1       0.107   9.465   0.945  1.00  0.00     0.202 C 
ENDROOT
BRANCH   1   2
ATOM      2  C   UNL     1      -0.864   8.798  -0.031  1.00  0.00     0.261 C 
BRANCH   2   3
ATOM      3  O   UNL     1      -1.567   7.725   0.622  1.00  0.00    -0.460 OA
BRANCH   3   4
ATOM      4  C   UNL     1      -1.461   6.510   0.025  1.00  0.00     0.341 C 
ATOM      5  O   UNL     1      -0.940   6.285  -1.053  1.00  0.00    -0.246 OA
BRANCH   4   6
ATOM      6  C   UNL     1      -2.052   5.481   0.905  1.00  0.00     0.102 A 
ATOM      7  C   UNL     1      -1.484   4.207   1.018  1.00  0.00     0.143 A 
ATOM      8  N   UNL     1      -2.173   3.193   1.595  1.00  0.00    -0.229 NA
ATOM      9  C   UNL     1      -3.400   3.438   2.108  1.00  0.00     0.083 A 
ATOM     10  C   UNL     1      -3.282   5.742   1.524  1.00  0.00     0.022 A 
ATOM     11  C   UNL     1      -3.967   4.704   2.140  1.00  0.00     0.031 A 
BRANCH   7  12
ATOM     12  N   UNL     1      -0.238   3.852   0.568  1.00  0.00    -0.355 N 
ATOM     13  C   UNL     1       0.827   2.057  -0.706  1.00  0.00     0.011 C 
ATOM     14  C   UNL     1       2.188   2.543  -0.123  1.00  0.00     0.013 C 
ATOM     15  C   UNL     1      -0.149   3.252  -0.751  1.00  0.00     0.127 C 
ATOM     16  C   UNL     1       2.050   3.290   1.207  1.00  0.00     0.022 C 
ATOM     17  C   UNL     1       0.980   4.377   1.145  1.00  0.00     0.118 C 
BRANCH  13  18
ATOM     18  C   UNL     1       1.094   1.546  -2.149  1.00  0.00     0.008 C 
ATOM     19  C   UNL     1      -0.118   0.960  -2.863  1.00  0.00     0.004 C 
ENDBRANCH  13  18
BRANCH  13  20
ATOM     20  C   UNL     1       0.209   0.953   0.186  1.00  0.00     0.164 C 
BRANCH  20  21
ATOM     21  O   UNL     1       0.886  -0.287  -0.002  1.00  0.00    -0.396 OA
ATOM     22  H   UNL     1       0.806  -0.562  -0.928  1.00  0.00     0.210 HD
ENDBRANCH  20  21
ENDBRANCH  13  20
ENDBRANCH   7  12
BRANCH   9  23
ATOM     23  C   UNL     1      -4.178   2.255   2.466  1.00  0.00     0.053 A 
ATOM     24  C   UNL     1      -5.432   1.900   2.003  1.00  0.00     0.022 A 
ATOM     25  S   UNL     1      -3.562   1.085   3.551  1.00  0.00    -0.139 S 
ATOM     26  C   UNL     1      -5.884   0.664   2.544  1.00  0.00     0.016 A 
ATOM     27  C   UNL     1      -4.966   0.114   3.413  1.00  0.00     0.002 A 
ATOM     28  C   UNL     1      -5.073  -1.158   4.181  1.00  0.00     0.056 C 
ENDBRANCH   9  23
ENDBRANCH   4   6
ENDBRANCH   3   4
ENDBRANCH   2   3
ENDBRANCH   1   2
BRANCH   1  29
ATOM     29  O   UNL     1       1.287   8.743   1.306  1.00  0.00    -0.374 OA
BRANCH  29  30
ATOM     30  C   UNL     1       1.128   7.545   2.054  1.00  0.00     0.202 C 
BRANCH  30  31
ATOM     31  C   UNL     1       0.889   7.626   3.566  1.00  0.00     0.261 C 
BRANCH  31  32
ATOM     32  O   UNL     1       0.054   8.713   3.949  1.00  0.00    -0.460 OA
BRANCH  32  33
ATOM     33  C   UNL     1       0.750   9.847   4.198  1.00  0.00     0.338 C 
ATOM     34  O   UNL     1       1.962   9.994   4.232  1.00  0.00    -0.246 OA
BRANCH  33  35
ATOM     35  C   UNL     1      -0.198  10.963   4.255  1.00  0.00     0.060 A 
ATOM     36  C   UNL     1       0.030  12.046   3.399  1.00  0.00     0.016 A 
ATOM     37  C   UNL     1      -1.282  10.947   5.135  1.00  0.00     0.016 A 
ATOM     38  C   UNL     1      -0.809  13.149   3.453  1.00  0.00     0.010 A 
ATOM     39  C   UNL     1      -2.118  12.059   5.194  1.00  0.00     0.010 A 
ATOM     40  C   UNL     1      -1.861  13.174   4.379  1.00  0.00    -0.014 A 
BRANCH  40  41
ATOM     41  C   UNL     1      -2.599  14.434   4.590  1.00  0.00     0.031 A 
ATOM     42  C   UNL     1      -2.241  15.290   5.770  1.00  0.00     0.074 A 
ATOM     43  C   UNL     1      -3.542  14.818   3.715  1.00  0.00     0.049 A 
ATOM     44  N   UNL     1      -2.748  16.436   6.143  1.00  0.00    -0.248 NA
ATOM     45  C   UNL     1      -1.171  14.787   6.647  1.00  0.00     0.031 C 
ATOM     46  C   UNL     1      -3.936  14.078   2.517  1.00  0.00     0.029 A 
ATOM     47  N   UNL     1      -4.337  15.934   3.701  1.00  0.00    -0.354 N 
ATOM     48  C   UNL     1      -2.063  16.787   7.299  1.00  0.00     0.074 A 
ATOM     49  C   UNL     1      -1.133  15.718   7.587  1.00  0.00     0.031 C 
ATOM     50  C   UNL     1      -4.899  14.765   1.879  1.00  0.00     0.029 A 
ATOM     51  C   UNL     1      -5.210  15.970   2.644  1.00  0.00     0.049 A 
ATOM     52  H   UNL     1      -4.286  16.641   4.384  1.00  0.00     0.167 HD
ATOM     53  C   UNL     1      -2.196  17.906   8.049  1.00  0.00     0.031 A 
ATOM     54  C   UNL     1      -6.163  16.870   2.340  1.00  0.00     0.031 A 
ATOM     55  C   UNL     1      -3.139  18.954   7.762  1.00  0.00     0.049 A 
ATOM     56  C   UNL     1      -6.342  18.068   3.233  1.00  0.00     0.074 A 
ATOM     57  C   UNL     1      -3.346  20.138   8.445  1.00  0.00     0.029 A 
ATOM     58  N   UNL     1      -4.041  18.933   6.708  1.00  0.00    -0.354 N 
ATOM     59  N   UNL     1      -5.668  18.409   4.306  1.00  0.00    -0.248 NA
ATOM     60  C   UNL     1      -7.409  19.009   2.867  1.00  0.00     0.031 C 
ATOM     61  C   UNL     1      -4.420  20.803   7.844  1.00  0.00     0.029 A 
ATOM     62  C   UNL     1      -4.833  20.069   6.743  1.00  0.00     0.049 A 
ATOM     63  H   UNL     1      -4.109  18.218   6.036  1.00  0.00     0.167 HD
ATOM     64  C   UNL     1      -6.210  19.617   4.727  1.00  0.00     0.074 A 
ATOM     65  C   UNL     1      -7.255  19.956   3.781  1.00  0.00     0.031 C 
ATOM     66  C   UNL     1      -5.874  20.380   5.797  1.00  0.00     0.031 A 
BRANCH  53  67
ATOM     67  C   UNL     1      -1.329  18.027   9.271  1.00  0.00    -0.014 A 
ATOM     68  C   UNL     1       0.059  18.219   9.172  1.00  0.00     0.009 A 
ATOM     69  C   UNL     1      -1.915  17.967  10.545  1.00  0.00     0.009 A 
ATOM     70  C   UNL     1       0.845  18.311  10.324  1.00  0.00     0.001 A 
ATOM     71  C   UNL     1      -1.132  18.091  11.694  1.00  0.00     0.001 A 
ATOM     72  C   UNL     1       0.248  18.252  11.583  1.00  0.00     0.000 A 
ENDBRANCH  53  67
BRANCH  54  73
ATOM     73  C   UNL     1      -7.026  16.665   1.149  1.00  0.00    -0.014 A 
ATOM     74  C   UNL     1      -6.934  17.518   0.039  1.00  0.00     0.009 A 
ATOM     75  C   UNL     1      -7.954  15.611   1.119  1.00  0.00     0.009 A 
ATOM     76  C   UNL     1      -7.771  17.335  -1.065  1.00  0.00     0.001 A 
ATOM     77  C   UNL     1      -8.767  15.411   0.001  1.00  0.00     0.001 A 
ATOM     78  C   UNL     1      -8.681  16.279  -1.085  1.00  0.00     0.000 A 
ENDBRANCH  54  73
BRANCH  66  79
ATOM     79  C   UNL     1      -6.625  21.669   5.981  1.00  0.00    -0.014 A 
ATOM     80  C   UNL     1      -7.973  21.682   6.371  1.00  0.00     0.009 A 
ATOM     81  C   UNL     1      -5.960  22.892   5.793  1.00  0.00     0.009 A 
ATOM     82  C   UNL     1      -8.650  22.893   6.530  1.00  0.00     0.001 A 
ATOM     83  C   UNL     1      -6.629  24.100   5.988  1.00  0.00     0.001 A 
ATOM     84  C   UNL     1      -7.976  24.100   6.344  1.00  0.00     0.000 A 
ENDBRANCH  66  79
ENDBRANCH  40  41
ENDBRANCH  33  35
ENDBRANCH  32  33
ENDBRANCH  31  32
ENDBRANCH  30  31
ENDBRANCH  29  30
ENDBRANCH   1  29
TORSDOF 19
