REMARK SMILES CCN(CC)c1ccc([C@@H]2[NH2+][C@@H](C(=O)OCCOCCOC(=O)c3ccc(-c4c5nc(c(-c6ccccc6)c6ccc([nH]6)c(-c6ccccc6)c6nc(c(-c7ccccc7)c7ccc4[nH]7)C=C6)C=C5)cc3)Cc3c2[nH]c2ccccc32)cc1
REMARK SMILES IDX 17 1 16 2 15 3 13 4 14 5 12 6 10 7 11 8 74 9 73 12 75 13
REMARK SMILES IDX 72 14 81 15 76 16 80 18 77 19 79 20 78 21 9 22 6 23 7 24
REMARK SMILES IDX 83 25 8 26 82 27 3 28 2 29 1 30 4 31 5 32 18 33 19 34 20 35
REMARK SMILES IDX 21 36 22 37 23 38 24 39 25 40 71 41 26 42 70 43 27 44 28 45
REMARK SMILES IDX 29 46 64 47 30 48 69 49 63 50 65 51 31 52 68 53 62 54 61 55
REMARK SMILES IDX 32 57 54 58 39 59 53 60 40 61 43 62 52 63 66 64 41 65 42 66
REMARK SMILES IDX 51 68 67 69 44 70 33 71 34 72 38 73 35 74 37 75 36 76 55 77
REMARK SMILES IDX 56 78 60 79 57 80 59 81 58 82 45 83 46 84 50 85 47 86 49 87
REMARK SMILES IDX 48 88
REMARK H PARENT 11 10 11 11 75 17 65 56 43 67
REMARK Flexibility Score: inf
ROOT
ATOM      1  C   UNL     1       9.529  -2.137  -0.754  1.00  0.00     0.202 C 
ENDROOT
BRANCH   1   2
ATOM      2  C   UNL     1       8.463  -1.076  -1.065  1.00  0.00     0.261 C 
BRANCH   2   3
ATOM      3  O   UNL     1       8.371   0.072  -0.211  1.00  0.00    -0.459 OA
BRANCH   3   4
ATOM      4  C   UNL     1       7.416  -0.083   0.752  1.00  0.00     0.365 C 
ATOM      5  O   UNL     1       7.062  -1.174   1.197  1.00  0.00    -0.245 OA
BRANCH   4   6
ATOM      6  C   UNL     1       6.650   1.197   1.067  1.00  0.00     0.298 C 
ATOM      7  C   UNL     1       6.184   2.495  -1.097  1.00  0.00     0.262 C 
ATOM      8  N   UNL     1       5.790   1.468  -0.088  1.00  0.00    -0.323 N 
ATOM      9  C   UNL     1       6.897   3.607  -0.391  1.00  0.00     0.083 A 
ATOM     10  H   UNL     1       5.689   0.586  -0.592  1.00  0.00     0.347 HD
ATOM     11  H   UNL     1       4.953   1.869   0.335  1.00  0.00     0.347 HD
ATOM     12  C   UNL     1       7.146   3.647   0.966  1.00  0.00    -0.006 A 
ATOM     13  N   UNL     1       7.209   4.867  -0.847  1.00  0.00    -0.353 N 
ATOM     14  C   UNL     1       7.376   2.382   1.722  1.00  0.00     0.115 C 
ATOM     15  C   UNL     1       6.603   4.923   1.292  1.00  0.00     0.003 A 
ATOM     16  C   UNL     1       6.845   5.734   0.175  1.00  0.00     0.046 A 
ATOM     17  H   UNL     1       7.606   5.104  -1.716  1.00  0.00     0.166 HD
ATOM     18  C   UNL     1       5.825   5.456   2.339  1.00  0.00     0.010 A 
ATOM     19  C   UNL     1       6.559   7.101   0.141  1.00  0.00     0.026 A 
ATOM     20  C   UNL     1       5.359   6.776   2.231  1.00  0.00     0.001 A 
ATOM     21  C   UNL     1       5.772   7.599   1.183  1.00  0.00     0.002 A 
BRANCH   7  22
ATOM     22  C   UNL     1       4.769   2.863  -1.658  1.00  0.00     0.016 A 
ATOM     23  C   UNL     1       2.012   2.623  -1.032  1.00  0.00     0.037 A 
ATOM     24  C   UNL     1       2.697   3.819  -0.820  1.00  0.00     0.026 A 
ATOM     25  C   UNL     1       2.670   1.650  -1.794  1.00  0.00     0.026 A 
ATOM     26  C   UNL     1       4.053   3.951  -1.140  1.00  0.00     0.012 A 
ATOM     27  C   UNL     1       4.018   1.781  -2.155  1.00  0.00     0.012 A 
BRANCH  23  28
ATOM     28  N   UNL     1       0.776   2.364  -0.454  1.00  0.00    -0.372 N 
BRANCH  28  29
ATOM     29  C   UNL     1       0.694   1.365   0.628  1.00  0.00     0.113 C 
ATOM     30  C   UNL     1       0.669  -0.069   0.125  1.00  0.00     0.027 C 
ENDBRANCH  28  29
BRANCH  28  31
ATOM     31  C   UNL     1      -0.312   3.336  -0.568  1.00  0.00     0.113 C 
ATOM     32  C   UNL     1      -0.363   4.342   0.577  1.00  0.00     0.027 C 
ENDBRANCH  28  31
ENDBRANCH  23  28
ENDBRANCH   7  22
ENDBRANCH   4   6
ENDBRANCH   3   4
ENDBRANCH   2   3
ENDBRANCH   1   2
BRANCH   1  33
ATOM     33  O   UNL     1       9.782  -2.561   0.574  1.00  0.00    -0.374 OA
BRANCH  33  34
ATOM     34  C   UNL     1      10.218  -1.615   1.538  1.00  0.00     0.202 C 
BRANCH  34  35
ATOM     35  C   UNL     1      11.566  -0.906   1.356  1.00  0.00     0.261 C 
BRANCH  35  36
ATOM     36  O   UNL     1      11.817  -0.412   0.035  1.00  0.00    -0.460 OA
BRANCH  36  37
ATOM     37  C   UNL     1      12.735  -1.135  -0.655  1.00  0.00     0.338 C 
ATOM     38  O   UNL     1      13.339  -2.123  -0.277  1.00  0.00    -0.246 OA
BRANCH  37  39
ATOM     39  C   UNL     1      12.844  -0.635  -2.038  1.00  0.00     0.060 A 
ATOM     40  C   UNL     1      12.722  -1.563  -3.081  1.00  0.00     0.016 A 
ATOM     41  C   UNL     1      13.176   0.694  -2.301  1.00  0.00     0.016 A 
ATOM     42  C   UNL     1      12.985  -1.174  -4.393  1.00  0.00     0.010 A 
ATOM     43  C   UNL     1      13.448   1.080  -3.616  1.00  0.00     0.010 A 
ATOM     44  C   UNL     1      13.390   0.139  -4.661  1.00  0.00    -0.014 A 
BRANCH  44  45
ATOM     45  C   UNL     1      13.892   0.502  -6.007  1.00  0.00     0.031 A 
ATOM     46  C   UNL     1      15.376   0.559  -6.242  1.00  0.00     0.074 A 
ATOM     47  C   UNL     1      13.038   0.782  -7.007  1.00  0.00     0.049 A 
ATOM     48  N   UNL     1      16.031   0.937  -7.310  1.00  0.00    -0.248 NA
ATOM     49  C   UNL     1      16.235   0.134  -5.125  1.00  0.00     0.031 C 
ATOM     50  C   UNL     1      11.581   0.711  -6.921  1.00  0.00     0.029 A 
ATOM     51  N   UNL     1      13.283   1.195  -8.292  1.00  0.00    -0.354 N 
ATOM     52  C   UNL     1      17.377   0.809  -6.989  1.00  0.00     0.074 A 
ATOM     53  C   UNL     1      17.445   0.338  -5.623  1.00  0.00     0.031 C 
ATOM     54  C   UNL     1      11.058   1.083  -8.102  1.00  0.00     0.029 A 
ATOM     55  C   UNL     1      12.142   1.455  -9.009  1.00  0.00     0.049 A 
ATOM     56  H   UNL     1      14.189   1.296  -8.664  1.00  0.00     0.167 HD
ATOM     57  C   UNL     1      18.459   1.060  -7.764  1.00  0.00     0.031 A 
ATOM     58  C   UNL     1      11.989   1.964 -10.247  1.00  0.00     0.031 A 
ATOM     59  C   UNL     1      18.392   1.538  -9.118  1.00  0.00     0.049 A 
ATOM     60  C   UNL     1      13.207   2.320 -11.057  1.00  0.00     0.074 A 
ATOM     61  C   UNL     1      19.433   1.809  -9.989  1.00  0.00     0.029 A 
ATOM     62  N   UNL     1      17.217   1.824  -9.795  1.00  0.00    -0.354 N 
ATOM     63  N   UNL     1      14.474   2.182 -10.749  1.00  0.00    -0.248 NA
ATOM     64  C   UNL     1      12.971   2.903 -12.387  1.00  0.00     0.031 C 
ATOM     65  C   UNL     1      18.889   2.309 -11.177  1.00  0.00     0.029 A 
ATOM     66  C   UNL     1      17.508   2.295 -11.064  1.00  0.00     0.049 A 
ATOM     67  H   UNL     1      16.311   1.708  -9.429  1.00  0.00     0.167 HD
ATOM     68  C   UNL     1      15.184   2.631 -11.856  1.00  0.00     0.074 A 
ATOM     69  C   UNL     1      14.208   3.040 -12.845  1.00  0.00     0.031 C 
ATOM     70  C   UNL     1      16.526   2.693 -12.038  1.00  0.00     0.031 A 
BRANCH  57  71
ATOM     71  C   UNL     1      19.813   0.857  -7.147  1.00  0.00    -0.014 A 
ATOM     72  C   UNL     1      20.319  -0.429  -6.904  1.00  0.00     0.009 A 
ATOM     73  C   UNL     1      20.609   1.971  -6.838  1.00  0.00     0.009 A 
ATOM     74  C   UNL     1      21.584  -0.594  -6.334  1.00  0.00     0.001 A 
ATOM     75  C   UNL     1      21.883   1.803  -6.293  1.00  0.00     0.001 A 
ATOM     76  C   UNL     1      22.366   0.521  -6.034  1.00  0.00     0.000 A 
ENDBRANCH  57  71
BRANCH  58  77
ATOM     77  C   UNL     1      10.627   2.199 -10.789  1.00  0.00    -0.014 A 
ATOM     78  C   UNL     1      10.129   1.410 -11.837  1.00  0.00     0.009 A 
ATOM     79  C   UNL     1       9.821   3.223 -10.267  1.00  0.00     0.009 A 
ATOM     80  C   UNL     1       8.859   1.657 -12.365  1.00  0.00     0.001 A 
ATOM     81  C   UNL     1       8.542   3.450 -10.779  1.00  0.00     0.001 A 
ATOM     82  C   UNL     1       8.066   2.672 -11.833  1.00  0.00     0.000 A 
ENDBRANCH  58  77
BRANCH  70  83
ATOM     83  C   UNL     1      17.023   3.182 -13.369  1.00  0.00    -0.014 A 
ATOM     84  C   UNL     1      16.979   4.542 -13.709  1.00  0.00     0.009 A 
ATOM     85  C   UNL     1      17.604   2.272 -14.267  1.00  0.00     0.009 A 
ATOM     86  C   UNL     1      17.488   4.978 -14.934  1.00  0.00     0.001 A 
ATOM     87  C   UNL     1      18.134   2.715 -15.480  1.00  0.00     0.001 A 
ATOM     88  C   UNL     1      18.070   4.066 -15.815  1.00  0.00     0.000 A 
ENDBRANCH  70  83
ENDBRANCH  44  45
ENDBRANCH  37  39
ENDBRANCH  36  37
ENDBRANCH  35  36
ENDBRANCH  34  35
ENDBRANCH  33  34
ENDBRANCH   1  33
TORSDOF 18
