REMARK SMILES CC1=C(C)C[C@@H](C(=O)OCCOCCOC(=O)c2ccc(-c3c4nc(c(-c5ccccc5)c5ccc([nH]5)c(-c5ccccc5)c5nc(c(-c6ccccc6)c6ccc3[nH]6)C=C5)C=C4)cc2)[C@@H](C(=O)N2CCN(c3cccc(C(F)(F)F)c3)CC2)C1
REMARK SMILES IDX 11 1 10 2 9 3 7 4 8 5 6 6 1 7 2 8 3 9 85 10 4 11 5 12 66 13
REMARK SMILES IDX 67 14 68 15 69 16 70 17 84 18 71 19 83 20 72 21 73 22 74 23
REMARK SMILES IDX 82 24 75 25 77 26 76 27 78 28 79 29 80 30 81 31 12 32 13 33
REMARK SMILES IDX 14 34 15 35 16 36 17 37 18 38 19 39 65 40 20 41 64 42 21 43
REMARK SMILES IDX 22 44 23 45 58 46 24 47 63 48 57 49 59 50 25 51 62 52 56 53
REMARK SMILES IDX 55 54 26 56 48 57 33 58 47 59 34 60 37 61 46 62 60 63 35 64
REMARK SMILES IDX 36 65 45 67 61 68 38 69 27 70 28 71 32 72 29 73 31 74 30 75
REMARK SMILES IDX 49 76 50 77 54 78 51 79 53 80 52 81 39 82 40 83 44 84 41 85
REMARK SMILES IDX 43 86 42 87
REMARK H PARENT 59 55 37 66
REMARK Flexibility Score: inf
ROOT
ATOM      1  C   UNL     1      -4.112   4.581  -1.236  1.00  0.00     0.202 C 
ENDROOT
BRANCH   1   2
ATOM      2  C   UNL     1      -3.721   3.302  -1.993  1.00  0.00     0.261 C 
BRANCH   2   3
ATOM      3  O   UNL     1      -2.307   3.017  -2.034  1.00  0.00    -0.463 OA
BRANCH   3   4
ATOM      4  C   UNL     1      -1.726   3.284  -3.231  1.00  0.00     0.310 C 
ATOM      5  O   UNL     1      -2.314   3.787  -4.186  1.00  0.00    -0.252 OA
BRANCH   4   6
ATOM      6  C   UNL     1      -0.292   2.805  -3.373  1.00  0.00     0.116 C 
ATOM      7  C   UNL     1       0.980   0.152  -0.051  1.00  0.00     0.039 C 
ATOM      8  C   UNL     1       0.580   0.940  -1.277  1.00  0.00    -0.074 C 
ATOM      9  C   UNL     1      -0.006   0.427  -2.376  1.00  0.00    -0.073 C 
ATOM     10  C   UNL     1       0.907   2.412  -1.158  1.00  0.00     0.045 C 
ATOM     11  C   UNL     1      -0.416  -1.012  -2.562  1.00  0.00     0.039 C 
ATOM     12  C   UNL     1      -0.297   1.283  -3.581  1.00  0.00     0.046 C 
ATOM     13  C   UNL     1       0.806   3.303  -2.429  1.00  0.00     0.097 C 
BRANCH  13  14
ATOM     14  C   UNL     1       0.972   4.781  -1.960  1.00  0.00     0.227 C 
ATOM     15  O   UNL     1       1.425   4.964  -0.818  1.00  0.00    -0.275 OA
ATOM     16  N   UNL     1       0.766   5.898  -2.756  1.00  0.00    -0.339 N 
ATOM     17  C   UNL     1       1.168   7.213  -2.190  1.00  0.00     0.141 C 
ATOM     18  C   UNL     1      -0.193   6.016  -3.865  1.00  0.00     0.141 C 
ATOM     19  C   UNL     1       1.579   8.253  -3.240  1.00  0.00     0.138 C 
ATOM     20  C   UNL     1       0.143   7.105  -4.894  1.00  0.00     0.138 C 
ATOM     21  N   UNL     1       0.510   8.352  -4.230  1.00  0.00    -0.368 N 
BRANCH  21  22
ATOM     22  C   UNL     1      -0.030   9.556  -4.608  1.00  0.00     0.037 A 
ATOM     23  C   UNL     1       0.784  10.644  -4.938  1.00  0.00     0.026 A 
ATOM     24  C   UNL     1      -1.420   9.738  -4.663  1.00  0.00     0.039 A 
ATOM     25  C   UNL     1       0.239  11.864  -5.339  1.00  0.00     0.003 A 
ATOM     26  C   UNL     1      -1.990  10.967  -5.036  1.00  0.00     0.058 A 
ATOM     27  C   UNL     1      -1.142  12.026  -5.389  1.00  0.00     0.013 A 
BRANCH  26  28
ATOM     28  C   UNL     1      -3.484  11.160  -5.064  1.00  0.00     0.416 C 
ATOM     29  F   UNL     1      -3.884  12.249  -4.348  1.00  0.00    -0.166 F 
ATOM     30  F   UNL     1      -3.957  11.355  -6.327  1.00  0.00    -0.166 F 
ATOM     31  F   UNL     1      -4.188  10.107  -4.563  1.00  0.00    -0.166 F 
ENDBRANCH  26  28
ENDBRANCH  21  22
ENDBRANCH  13  14
ENDBRANCH   4   6
ENDBRANCH   3   4
ENDBRANCH   2   3
ENDBRANCH   1   2
BRANCH   1  32
ATOM     32  O   UNL     1      -3.206   5.679  -1.305  1.00  0.00    -0.374 OA
BRANCH  32  33
ATOM     33  C   UNL     1      -1.993   5.457  -0.585  1.00  0.00     0.202 C 
BRANCH  33  34
ATOM     34  C   UNL     1      -1.428   6.756  -0.005  1.00  0.00     0.261 C 
BRANCH  34  35
ATOM     35  O   UNL     1      -1.825   6.917   1.353  1.00  0.00    -0.460 OA
BRANCH  35  36
ATOM     36  C   UNL     1      -3.151   7.096   1.465  1.00  0.00     0.338 C 
ATOM     37  O   UNL     1      -3.824   7.931   0.882  1.00  0.00    -0.246 OA
BRANCH  36  38
ATOM     38  C   UNL     1      -3.680   5.994   2.287  1.00  0.00     0.060 A 
ATOM     39  C   UNL     1      -5.059   5.791   2.247  1.00  0.00     0.016 A 
ATOM     40  C   UNL     1      -2.845   5.161   3.056  1.00  0.00     0.016 A 
ATOM     41  C   UNL     1      -5.625   4.867   3.101  1.00  0.00     0.010 A 
ATOM     42  C   UNL     1      -3.408   4.209   3.891  1.00  0.00     0.010 A 
ATOM     43  C   UNL     1      -4.801   4.151   3.981  1.00  0.00    -0.014 A 
BRANCH  43  44
ATOM     44  C   UNL     1      -5.438   3.594   5.179  1.00  0.00     0.031 A 
ATOM     45  C   UNL     1      -5.387   4.413   6.437  1.00  0.00     0.074 A 
ATOM     46  C   UNL     1      -6.150   2.466   5.072  1.00  0.00     0.049 A 
ATOM     47  N   UNL     1      -6.003   4.224   7.572  1.00  0.00    -0.248 NA
ATOM     48  C   UNL     1      -4.530   5.614   6.414  1.00  0.00     0.031 C 
ATOM     49  C   UNL     1      -6.258   1.653   3.860  1.00  0.00     0.029 A 
ATOM     50  N   UNL     1      -6.942   1.834   5.984  1.00  0.00    -0.354 N 
ATOM     51  C   UNL     1      -5.602   5.273   8.392  1.00  0.00     0.074 A 
ATOM     52  C   UNL     1      -4.661   6.072   7.647  1.00  0.00     0.031 C 
ATOM     53  C   UNL     1      -7.095   0.632   4.099  1.00  0.00     0.029 A 
ATOM     54  C   UNL     1      -7.550   0.713   5.484  1.00  0.00     0.049 A 
ATOM     55  H   UNL     1      -7.065   2.151   6.908  1.00  0.00     0.167 HD
ATOM     56  C   UNL     1      -5.998   5.544   9.656  1.00  0.00     0.031 A 
ATOM     57  C   UNL     1      -8.378  -0.151   6.094  1.00  0.00     0.031 A 
ATOM     58  C   UNL     1      -6.926   4.711  10.369  1.00  0.00     0.049 A 
ATOM     59  C   UNL     1      -8.783   0.149   7.508  1.00  0.00     0.074 A 
ATOM     60  C   UNL     1      -7.424   4.862  11.648  1.00  0.00     0.029 A 
ATOM     61  N   UNL     1      -7.488   3.550   9.849  1.00  0.00    -0.354 N 
ATOM     62  N   UNL     1      -8.425   1.158   8.271  1.00  0.00    -0.248 NA
ATOM     63  C   UNL     1      -9.715  -0.788   8.138  1.00  0.00     0.031 C 
ATOM     64  C   UNL     1      -8.234   3.755  11.926  1.00  0.00     0.029 A 
ATOM     65  C   UNL     1      -8.301   2.953  10.794  1.00  0.00     0.049 A 
ATOM     66  H   UNL     1      -7.330   3.204   8.941  1.00  0.00     0.167 HD
ATOM     67  C   UNL     1      -9.098   0.986   9.471  1.00  0.00     0.074 A 
ATOM     68  C   UNL     1      -9.905  -0.213   9.318  1.00  0.00     0.031 C 
ATOM     69  C   UNL     1      -9.061   1.742  10.599  1.00  0.00     0.031 A 
BRANCH  56  70
ATOM     70  C   UNL     1      -5.370   6.730  10.339  1.00  0.00    -0.014 A 
ATOM     71  C   UNL     1      -5.603   8.049   9.911  1.00  0.00     0.009 A 
ATOM     72  C   UNL     1      -4.492   6.519  11.414  1.00  0.00     0.009 A 
ATOM     73  C   UNL     1      -4.932   9.120  10.510  1.00  0.00     0.001 A 
ATOM     74  C   UNL     1      -3.849   7.594  12.033  1.00  0.00     0.001 A 
ATOM     75  C   UNL     1      -4.058   8.892  11.571  1.00  0.00     0.000 A 
ENDBRANCH  56  70
BRANCH  57  76
ATOM     76  C   UNL     1      -8.841  -1.351   5.355  1.00  0.00    -0.014 A 
ATOM     77  C   UNL     1     -10.168  -1.478   4.924  1.00  0.00     0.009 A 
ATOM     78  C   UNL     1      -7.915  -2.348   5.001  1.00  0.00     0.009 A 
ATOM     79  C   UNL     1     -10.558  -2.581   4.157  1.00  0.00     0.001 A 
ATOM     80  C   UNL     1      -8.299  -3.431   4.210  1.00  0.00     0.001 A 
ATOM     81  C   UNL     1      -9.622  -3.549   3.792  1.00  0.00     0.000 A 
ENDBRANCH  57  76
BRANCH  69  82
ATOM     82  C   UNL     1      -9.929   1.286  11.736  1.00  0.00    -0.014 A 
ATOM     83  C   UNL     1      -9.620   0.129  12.469  1.00  0.00     0.009 A 
ATOM     84  C   UNL     1     -11.053   2.045  12.095  1.00  0.00     0.009 A 
ATOM     85  C   UNL     1     -10.450  -0.284  13.510  1.00  0.00     0.001 A 
ATOM     86  C   UNL     1     -11.860   1.649  13.160  1.00  0.00     0.001 A 
ATOM     87  C   UNL     1     -11.566   0.478  13.857  1.00  0.00     0.000 A 
ENDBRANCH  69  82
ENDBRANCH  43  44
ENDBRANCH  36  38
ENDBRANCH  35  36
ENDBRANCH  34  35
ENDBRANCH  33  34
ENDBRANCH  32  33
ENDBRANCH   1  32
TORSDOF 17
