REMARK SMILES COC(=O)c1ccc(C)c2c1[C@H]1C=CC[C@H]1[C@@H](c1ccc(C(=O)OCCOCCOC(=O)c3ccc(-c4c5nc(c(-c6ccccc6)c6ccc([nH]6)c(-c6ccccc6)c6nc(c(-c7ccccc7)c7ccc4[nH]7)C=C6)C=C5)cc3)cc1)N2
REMARK SMILES IDX 26 1 25 2 24 3 22 4 23 5 21 6 18 7 19 8 82 9 20 10 81 11
REMARK SMILES IDX 17 12 5 13 6 14 11 15 7 16 10 17 12 18 8 19 83 20 13 21
REMARK SMILES IDX 16 22 9 23 14 25 15 26 3 27 4 28 2 29 1 30 27 31 28 32 29 33
REMARK SMILES IDX 30 34 31 35 32 36 33 37 34 38 80 39 35 40 79 41 36 42 37 43
REMARK SMILES IDX 38 44 73 45 39 46 78 47 72 48 74 49 40 50 77 51 71 52 70 53
REMARK SMILES IDX 41 55 63 56 48 57 62 58 49 59 52 60 61 61 75 62 50 63 51 64
REMARK SMILES IDX 60 66 76 67 53 68 42 69 43 70 47 71 44 72 46 73 45 74 64 75
REMARK SMILES IDX 65 76 69 77 66 78 68 79 67 80 54 81 55 82 59 83 56 84 58 85
REMARK SMILES IDX 57 86
REMARK H PARENT 83 24 74 54 52 65
REMARK Flexibility Score: inf
ROOT
ATOM      1  C   UNL     1       5.355   8.622  -1.278  1.00  0.00     0.202 C 
ENDROOT
BRANCH   1   2
ATOM      2  C   UNL     1       4.698   9.534  -0.238  1.00  0.00     0.261 C 
BRANCH   2   3
ATOM      3  O   UNL     1       4.593   8.881   1.036  1.00  0.00    -0.460 OA
BRANCH   3   4
ATOM      4  C   UNL     1       3.319   8.646   1.432  1.00  0.00     0.338 C 
ATOM      5  O   UNL     1       2.299   9.093   0.932  1.00  0.00    -0.246 OA
BRANCH   4   6
ATOM      6  C   UNL     1       3.299   7.577   2.448  1.00  0.00     0.060 A 
ATOM      7  C   UNL     1       3.049   5.485   4.333  1.00  0.00    -0.025 A 
ATOM      8  C   UNL     1       2.264   5.528   3.167  1.00  0.00     0.007 A 
ATOM      9  C   UNL     1       4.012   6.501   4.497  1.00  0.00     0.007 A 
ATOM     10  C   UNL     1       2.370   6.563   2.246  1.00  0.00     0.016 A 
ATOM     11  C   UNL     1       4.148   7.536   3.556  1.00  0.00     0.016 A 
BRANCH   7  12
ATOM     12  C   UNL     1       2.840   4.424   5.424  1.00  0.00     0.114 C 
ATOM     13  C   UNL     1       0.336   1.806   3.196  1.00  0.00     0.065 A 
ATOM     14  C   UNL     1      -1.016   2.142   3.064  1.00  0.00     0.016 A 
ATOM     15  C   UNL     1       1.165   2.489   4.115  1.00  0.00    -0.003 A 
ATOM     16  C   UNL     1      -1.561   3.153   3.845  1.00  0.00     0.006 A 
ATOM     17  C   UNL     1       0.598   3.521   4.916  1.00  0.00     0.042 A 
ATOM     18  C   UNL     1       2.643   2.156   4.241  1.00  0.00     0.050 C 
ATOM     19  C   UNL     1      -0.771   3.851   4.772  1.00  0.00    -0.028 A 
ATOM     20  N   UNL     1       1.422   4.291   5.732  1.00  0.00    -0.377 N 
ATOM     21  C   UNL     1       3.504   2.349   3.015  1.00  0.00    -0.023 C 
ATOM     22  C   UNL     1       3.420   3.006   5.268  1.00  0.00     0.031 C 
ATOM     23  C   UNL     1      -1.450   4.982   5.503  1.00  0.00     0.046 C 
ATOM     24  H   UNL     1       1.045   4.747   6.519  1.00  0.00     0.161 HD
ATOM     25  C   UNL     1       4.734   2.779   3.329  1.00  0.00    -0.030 C 
ATOM     26  C   UNL     1       4.878   2.981   4.800  1.00  0.00     0.034 C 
BRANCH  13  27
ATOM     27  C   UNL     1       0.853   0.725   2.325  1.00  0.00     0.338 C 
ATOM     28  O   UNL     1       1.522  -0.224   2.709  1.00  0.00    -0.246 OA
BRANCH  27  29
ATOM     29  O   UNL     1       0.507   1.005   1.044  1.00  0.00    -0.465 OA
ATOM     30  C   UNL     1       1.003   0.070   0.085  1.00  0.00     0.282 C 
ENDBRANCH  27  29
ENDBRANCH  13  27
ENDBRANCH   7  12
ENDBRANCH   4   6
ENDBRANCH   3   4
ENDBRANCH   2   3
ENDBRANCH   1   2
BRANCH   1  31
ATOM     31  O   UNL     1       4.712   7.375  -1.532  1.00  0.00    -0.374 OA
BRANCH  31  32
ATOM     32  C   UNL     1       4.979   6.303  -0.623  1.00  0.00     0.202 C 
BRANCH  32  33
ATOM     33  C   UNL     1       6.368   5.657  -0.709  1.00  0.00     0.261 C 
BRANCH  33  34
ATOM     34  O   UNL     1       7.383   6.505  -0.135  1.00  0.00    -0.460 OA
BRANCH  34  35
ATOM     35  C   UNL     1       8.323   6.952  -0.999  1.00  0.00     0.338 C 
ATOM     36  O   UNL     1       8.453   6.661  -2.179  1.00  0.00    -0.246 OA
BRANCH  35  37
ATOM     37  C   UNL     1       9.096   8.030  -0.362  1.00  0.00     0.060 A 
ATOM     38  C   UNL     1       9.014   9.315  -0.915  1.00  0.00     0.016 A 
ATOM     39  C   UNL     1       9.957   7.764   0.703  1.00  0.00     0.016 A 
ATOM     40  C   UNL     1       9.820  10.337  -0.423  1.00  0.00     0.010 A 
ATOM     41  C   UNL     1      10.785   8.784   1.179  1.00  0.00     0.010 A 
ATOM     42  C   UNL     1      10.742  10.063   0.595  1.00  0.00    -0.014 A 
BRANCH  42  43
ATOM     43  C   UNL     1      11.777  11.066   0.925  1.00  0.00     0.031 A 
ATOM     44  C   UNL     1      13.108  10.983   0.231  1.00  0.00     0.074 A 
ATOM     45  C   UNL     1      11.528  12.055   1.800  1.00  0.00     0.049 A 
ATOM     46  N   UNL     1      14.170  11.729   0.394  1.00  0.00    -0.248 NA
ATOM     47  C   UNL     1      13.261   9.926  -0.783  1.00  0.00     0.031 C 
ATOM     48  C   UNL     1      10.258  12.277   2.487  1.00  0.00     0.029 A 
ATOM     49  N   UNL     1      12.343  13.060   2.258  1.00  0.00    -0.354 N 
ATOM     50  C   UNL     1      15.113  11.235  -0.498  1.00  0.00     0.074 A 
ATOM     51  C   UNL     1      14.511  10.113  -1.183  1.00  0.00     0.031 C 
ATOM     52  C   UNL     1      10.380  13.349   3.289  1.00  0.00     0.029 A 
ATOM     53  C   UNL     1      11.744  13.868   3.192  1.00  0.00     0.049 A 
ATOM     54  H   UNL     1      13.268  13.189   1.946  1.00  0.00     0.167 HD
ATOM     55  C   UNL     1      16.366  11.683  -0.729  1.00  0.00     0.031 A 
ATOM     56  C   UNL     1      12.245  14.897   3.903  1.00  0.00     0.031 A 
ATOM     57  C   UNL     1      16.970  12.791  -0.043  1.00  0.00     0.049 A 
ATOM     58  C   UNL     1      13.673  15.321   3.694  1.00  0.00     0.074 A 
ATOM     59  C   UNL     1      18.240  13.312  -0.210  1.00  0.00     0.029 A 
ATOM     60  N   UNL     1      16.348  13.545   0.937  1.00  0.00    -0.354 N 
ATOM     61  N   UNL     1      14.559  14.838   2.857  1.00  0.00    -0.248 NA
ATOM     62  C   UNL     1      14.171  16.427   4.525  1.00  0.00     0.031 C 
ATOM     63  C   UNL     1      18.403  14.357   0.702  1.00  0.00     0.029 A 
ATOM     64  C   UNL     1      17.217  14.516   1.400  1.00  0.00     0.049 A 
ATOM     65  H   UNL     1      15.426  13.410   1.257  1.00  0.00     0.167 HD
ATOM     66  C   UNL     1      15.711  15.591   3.047  1.00  0.00     0.074 A 
ATOM     67  C   UNL     1      15.412  16.567   4.074  1.00  0.00     0.031 C 
ATOM     68  C   UNL     1      16.907  15.480   2.422  1.00  0.00     0.031 A 
BRANCH  55  69
ATOM     69  C   UNL     1      17.188  10.975  -1.764  1.00  0.00    -0.014 A 
ATOM     70  C   UNL     1      16.979  11.213  -3.130  1.00  0.00     0.009 A 
ATOM     71  C   UNL     1      18.249  10.148  -1.366  1.00  0.00     0.009 A 
ATOM     72  C   UNL     1      17.821  10.634  -4.081  1.00  0.00     0.001 A 
ATOM     73  C   UNL     1      19.100   9.585  -2.318  1.00  0.00     0.001 A 
ATOM     74  C   UNL     1      18.885   9.829  -3.674  1.00  0.00     0.000 A 
ENDBRANCH  55  69
BRANCH  56  75
ATOM     75  C   UNL     1      11.379  15.587   4.891  1.00  0.00    -0.014 A 
ATOM     76  C   UNL     1      10.861  16.861   4.619  1.00  0.00     0.009 A 
ATOM     77  C   UNL     1      11.033  14.953   6.096  1.00  0.00     0.009 A 
ATOM     78  C   UNL     1      10.013  17.488   5.536  1.00  0.00     0.001 A 
ATOM     79  C   UNL     1      10.169  15.574   7.000  1.00  0.00     0.001 A 
ATOM     80  C   UNL     1       9.662  16.841   6.720  1.00  0.00     0.000 A 
ENDBRANCH  56  75
BRANCH  68  81
ATOM     81  C   UNL     1      17.998  16.437   2.803  1.00  0.00    -0.014 A 
ATOM     82  C   UNL     1      18.742  16.247   3.976  1.00  0.00     0.009 A 
ATOM     83  C   UNL     1      18.374  17.454   1.910  1.00  0.00     0.009 A 
ATOM     84  C   UNL     1      19.845  17.060   4.248  1.00  0.00     0.001 A 
ATOM     85  C   UNL     1      19.488  18.250   2.175  1.00  0.00     0.001 A 
ATOM     86  C   UNL     1      20.222  18.052   3.344  1.00  0.00     0.000 A 
ENDBRANCH  68  81
ENDBRANCH  42  43
ENDBRANCH  35  37
ENDBRANCH  34  35
ENDBRANCH  33  34
ENDBRANCH  32  33
ENDBRANCH  31  32
ENDBRANCH   1  31
TORSDOF 17
