REMARK SMILES Cc1ccc(Br)cc1S(=O)(=O)N[C@H]1C=C[C@H](C(=O)OCCOCCOC(=O)c2ccc(-c3c4nc(c(-c5ccccc5)c5ccc([nH]5)c(-c5ccccc5)c5nc(c(-c6ccccc6)c6ccc3[nH]6)C=C5)C=C4)cc2)C1
REMARK SMILES IDX 21 1 20 2 19 3 17 4 18 5 16 6 13 7 14 8 76 9 15 10 12 11
REMARK SMILES IDX 9 13 10 14 11 15 8 16 1 17 2 18 3 19 4 20 7 21 5 22 6 23
REMARK SMILES IDX 22 24 23 25 24 26 25 27 26 28 27 29 28 30 29 31 75 32 30 33
REMARK SMILES IDX 74 34 31 35 32 36 33 37 68 38 34 39 73 40 67 41 69 42 35 43
REMARK SMILES IDX 72 44 66 45 65 46 36 48 58 49 43 50 57 51 44 52 47 53 56 54
REMARK SMILES IDX 70 55 45 56 46 57 55 59 71 60 48 61 37 62 38 63 42 64 39 65
REMARK SMILES IDX 41 66 40 67 59 68 60 69 64 70 61 71 63 72 62 73 49 74 50 75
REMARK SMILES IDX 54 76 51 77 53 78 52 79
REMARK H PARENT 12 12 69 47 47 58
REMARK Flexibility Score: inf
ROOT
ATOM      1  C   UNL     1       5.366  -1.808  -5.978  1.00  0.00     0.202 C 
ENDROOT
BRANCH   1   2
ATOM      2  C   UNL     1       4.512  -2.460  -4.886  1.00  0.00     0.261 C 
BRANCH   2   3
ATOM      3  O   UNL     1       4.277  -1.502  -3.833  1.00  0.00    -0.463 OA
BRANCH   3   4
ATOM      4  C   UNL     1       4.759  -1.811  -2.602  1.00  0.00     0.312 C 
ATOM      5  O   UNL     1       5.232  -2.897  -2.289  1.00  0.00    -0.252 OA
BRANCH   4   6
ATOM      6  C   UNL     1       4.761  -0.613  -1.662  1.00  0.00     0.123 C 
ATOM      7  C   UNL     1       4.904   1.821  -1.495  1.00  0.00     0.093 C 
ATOM      8  C   UNL     1       6.254   1.178  -1.356  1.00  0.00    -0.011 C 
ATOM      9  C   UNL     1       4.116   0.689  -2.160  1.00  0.00     0.043 C 
ATOM     10  C   UNL     1       6.172  -0.158  -1.396  1.00  0.00    -0.015 C 
BRANCH   7  11
ATOM     11  N   UNL     1       4.511   2.127  -0.126  1.00  0.00    -0.204 NA
ATOM     12  H   UNL     1       4.659   1.270   0.408  1.00  0.00     0.142 HD
BRANCH  11  13
ATOM     13  S   UNL     1       2.983   2.663   0.278  1.00  0.00     0.241 S 
ATOM     14  O   UNL     1       2.479   3.387  -0.872  1.00  0.00    -0.207 OA
ATOM     15  O   UNL     1       3.095   3.277   1.578  1.00  0.00    -0.207 OA
BRANCH  13  16
ATOM     16  C   UNL     1       2.021   1.177   0.487  1.00  0.00     0.086 A 
ATOM     17  C   UNL     1       3.768  -0.047   1.958  1.00  0.00     0.046 C 
ATOM     18  C   UNL     1       2.495   0.035   1.162  1.00  0.00    -0.031 A 
ATOM     19  C   UNL     1       1.703  -1.130   1.125  1.00  0.00     0.006 A 
ATOM     20  C   UNL     1       0.461  -1.144   0.488  1.00  0.00     0.016 A 
ATOM     21  C   UNL     1       0.755   1.170  -0.125  1.00  0.00     0.037 A 
ATOM     22  C   UNL     1      -0.018   0.014  -0.113  1.00  0.00     0.019 A 
ATOM     23  Br  UNL     1      -1.724   0.016  -0.925  1.00  0.00    -0.051 Br
ENDBRANCH  13  16
ENDBRANCH  11  13
ENDBRANCH   7  11
ENDBRANCH   4   6
ENDBRANCH   3   4
ENDBRANCH   2   3
ENDBRANCH   1   2
BRANCH   1  24
ATOM     24  O   UNL     1       6.780  -1.900  -5.779  1.00  0.00    -0.374 OA
BRANCH  24  25
ATOM     25  C   UNL     1       7.342  -1.088  -4.750  1.00  0.00     0.202 C 
BRANCH  25  26
ATOM     26  C   UNL     1       7.743   0.326  -5.178  1.00  0.00     0.261 C 
BRANCH  26  27
ATOM     27  O   UNL     1       6.599   1.097  -5.584  1.00  0.00    -0.460 OA
BRANCH  27  28
ATOM     28  C   UNL     1       6.511   1.292  -6.921  1.00  0.00     0.338 C 
ATOM     29  O   UNL     1       7.325   0.973  -7.772  1.00  0.00    -0.246 OA
BRANCH  28  30
ATOM     30  C   UNL     1       5.186   1.835  -7.275  1.00  0.00     0.060 A 
ATOM     31  C   UNL     1       4.509   1.212  -8.329  1.00  0.00     0.016 A 
ATOM     32  C   UNL     1       4.662   2.980  -6.669  1.00  0.00     0.016 A 
ATOM     33  C   UNL     1       3.339   1.771  -8.831  1.00  0.00     0.010 A 
ATOM     34  C   UNL     1       3.487   3.546  -7.180  1.00  0.00     0.010 A 
ATOM     35  C   UNL     1       2.850   2.969  -8.293  1.00  0.00    -0.014 A 
BRANCH  35  36
ATOM     36  C   UNL     1       1.780   3.686  -9.025  1.00  0.00     0.031 A 
ATOM     37  C   UNL     1       2.163   4.772  -9.994  1.00  0.00     0.074 A 
ATOM     38  C   UNL     1       0.493   3.316  -8.902  1.00  0.00     0.049 A 
ATOM     39  N   UNL     1       1.405   5.460 -10.809  1.00  0.00    -0.248 NA
ATOM     40  C   UNL     1       3.592   5.122 -10.057  1.00  0.00     0.031 C 
ATOM     41  C   UNL     1      -0.003   2.254  -8.029  1.00  0.00     0.029 A 
ATOM     42  N   UNL     1      -0.629   3.790  -9.531  1.00  0.00    -0.354 N 
ATOM     43  C   UNL     1       2.263   6.319 -11.485  1.00  0.00     0.074 A 
ATOM     44  C   UNL     1       3.593   6.090 -10.962  1.00  0.00     0.031 C 
ATOM     45  C   UNL     1      -1.334   2.151  -8.184  1.00  0.00     0.029 A 
ATOM     46  C   UNL     1      -1.782   3.148  -9.154  1.00  0.00     0.049 A 
ATOM     47  H   UNL     1      -0.610   4.521 -10.191  1.00  0.00     0.167 HD
ATOM     48  C   UNL     1       1.976   7.211 -12.462  1.00  0.00     0.031 A 
ATOM     49  C   UNL     1      -3.055   3.345  -9.546  1.00  0.00     0.031 A 
ATOM     50  C   UNL     1       0.656   7.455 -12.976  1.00  0.00     0.049 A 
ATOM     51  C   UNL     1      -3.359   4.390 -10.586  1.00  0.00     0.074 A 
ATOM     52  C   UNL     1       0.266   8.334 -13.972  1.00  0.00     0.029 A 
ATOM     53  N   UNL     1      -0.492   6.822 -12.527  1.00  0.00    -0.354 N 
ATOM     54  N   UNL     1      -2.533   5.170 -11.240  1.00  0.00    -0.248 NA
ATOM     55  C   UNL     1      -4.772   4.570 -10.948  1.00  0.00     0.031 C 
ATOM     56  C   UNL     1      -1.126   8.264 -14.095  1.00  0.00     0.029 A 
ATOM     57  C   UNL     1      -1.595   7.308 -13.208  1.00  0.00     0.049 A 
ATOM     58  H   UNL     1      -0.519   6.130 -11.828  1.00  0.00     0.167 HD
ATOM     59  C   UNL     1      -3.323   5.916 -12.106  1.00  0.00     0.074 A 
ATOM     60  C   UNL     1      -4.691   5.485 -11.904  1.00  0.00     0.031 C 
ATOM     61  C   UNL     1      -2.949   6.872 -12.991  1.00  0.00     0.031 A 
BRANCH  48  62
ATOM     62  C   UNL     1       3.118   8.011 -13.018  1.00  0.00    -0.014 A 
ATOM     63  C   UNL     1       4.057   7.429 -13.884  1.00  0.00     0.009 A 
ATOM     64  C   UNL     1       3.244   9.369 -12.687  1.00  0.00     0.009 A 
ATOM     65  C   UNL     1       5.119   8.186 -14.385  1.00  0.00     0.001 A 
ATOM     66  C   UNL     1       4.294  10.128 -13.207  1.00  0.00     0.001 A 
ATOM     67  C   UNL     1       5.234   9.535 -14.049  1.00  0.00     0.000 A 
ENDBRANCH  48  62
BRANCH  49  68
ATOM     68  C   UNL     1      -4.148   2.536  -8.950  1.00  0.00    -0.014 A 
ATOM     69  C   UNL     1      -4.808   1.555  -9.704  1.00  0.00     0.009 A 
ATOM     70  C   UNL     1      -4.548   2.758  -7.623  1.00  0.00     0.009 A 
ATOM     71  C   UNL     1      -5.861   0.826  -9.148  1.00  0.00     0.001 A 
ATOM     72  C   UNL     1      -5.586   2.012  -7.062  1.00  0.00     0.001 A 
ATOM     73  C   UNL     1      -6.247   1.052  -7.827  1.00  0.00     0.000 A 
ENDBRANCH  49  68
BRANCH  61  74
ATOM     74  C   UNL     1      -4.032   7.497 -13.823  1.00  0.00    -0.014 A 
ATOM     75  C   UNL     1      -4.928   8.424 -13.271  1.00  0.00     0.009 A 
ATOM     76  C   UNL     1      -4.132   7.180 -15.187  1.00  0.00     0.009 A 
ATOM     77  C   UNL     1      -5.926   8.997 -14.061  1.00  0.00     0.001 A 
ATOM     78  C   UNL     1      -5.115   7.773 -15.980  1.00  0.00     0.001 A 
ATOM     79  C   UNL     1      -6.017   8.673 -15.415  1.00  0.00     0.000 A 
ENDBRANCH  61  74
ENDBRANCH  35  36
ENDBRANCH  28  30
ENDBRANCH  27  28
ENDBRANCH  26  27
ENDBRANCH  25  26
ENDBRANCH  24  25
ENDBRANCH   1  24
TORSDOF 17
