REMARK SMILES C[N@H+]1CCO[C@](C)(C(=O)OCCOCCOC(=O)c2ccc(-c3c4nc(c(-c5ccccc5)c5ccc([nH]5)c(-c5ccccc5)c5nc(c(-c6ccccc6)c6ccc3[nH]6)C=C5)C=C4)cc2)C1
REMARK SMILES IDX 14 1 13 2 12 3 11 4 10 5 8 6 9 7 6 8 1 9 2 10 3 11 67 12
REMARK SMILES IDX 4 14 5 15 7 16 15 17 16 18 17 19 18 20 19 21 20 22 66 23
REMARK SMILES IDX 21 24 65 25 22 26 23 27 24 28 59 29 25 30 64 31 58 32 60 33
REMARK SMILES IDX 26 34 63 35 57 36 56 37 27 39 49 40 34 41 48 42 35 43 38 44
REMARK SMILES IDX 47 45 61 46 36 47 37 48 46 50 62 51 39 52 28 53 29 54 33 55
REMARK SMILES IDX 30 56 32 57 31 58 50 59 51 60 55 61 52 62 54 63 53 64 40 65
REMARK SMILES IDX 41 66 45 67 42 68 44 69 43 70
REMARK H PARENT 2 13 60 38 38 49
REMARK Flexibility Score: inf
ROOT
ATOM      1  C   UNL     1      -1.691   5.352   1.845  1.00  0.00     0.202 C 
ENDROOT
BRANCH   1   2
ATOM      2  O   UNL     1      -1.182   6.452   2.599  1.00  0.00    -0.374 OA
BRANCH   2   3
ATOM      3  C   UNL     1      -0.036   7.128   2.093  1.00  0.00     0.202 C 
BRANCH   3   4
ATOM      4  C   UNL     1       1.327   6.449   2.266  1.00  0.00     0.261 C 
BRANCH   4   5
ATOM      5  O   UNL     1       1.391   5.134   1.683  1.00  0.00    -0.461 OA
BRANCH   5   6
ATOM      6  C   UNL     1       1.488   4.114   2.586  1.00  0.00     0.344 C 
ATOM      7  O   UNL     1       1.602   4.290   3.796  1.00  0.00    -0.249 OA
BRANCH   6   8
ATOM      8  C   UNL     1       1.486   2.711   1.935  1.00  0.00     0.211 C 
ATOM      9  C   UNL     1       1.496   0.532  -0.560  1.00  0.00     0.332 C 
ATOM     10  N   UNL     1       0.443   1.402  -0.054  1.00  0.00    -0.333 N 
ATOM     11  C   UNL     1      -0.388   0.733   0.962  1.00  0.00     0.290 C 
ATOM     12  C   UNL     1       0.927   2.695   0.482  1.00  0.00     0.310 C 
ATOM     13  H   UNL     1      -0.123   1.610  -0.876  1.00  0.00     0.348 HD
ATOM     14  C   UNL     1       0.285   0.648   2.336  1.00  0.00     0.223 C 
ATOM     15  O   UNL     1       0.645   1.936   2.826  1.00  0.00    -0.353 OA
ATOM     16  C   UNL     1       2.937   2.223   2.007  1.00  0.00     0.061 C 
ENDBRANCH   6   8
ENDBRANCH   5   6
ENDBRANCH   4   5
ENDBRANCH   3   4
ENDBRANCH   2   3
ENDBRANCH   1   2
BRANCH   1  17
ATOM     17  C   UNL     1      -2.391   5.678   0.518  1.00  0.00     0.261 C 
BRANCH  17  18
ATOM     18  O   UNL     1      -1.492   6.225  -0.467  1.00  0.00    -0.460 OA
BRANCH  18  19
ATOM     19  C   UNL     1      -1.757   7.502  -0.835  1.00  0.00     0.338 C 
ATOM     20  O   UNL     1      -2.697   8.198  -0.480  1.00  0.00    -0.246 OA
BRANCH  19  21
ATOM     21  C   UNL     1      -0.635   8.048  -1.621  1.00  0.00     0.060 A 
ATOM     22  C   UNL     1      -0.057   9.250  -1.187  1.00  0.00     0.016 A 
ATOM     23  C   UNL     1      -0.215   7.448  -2.809  1.00  0.00     0.016 A 
ATOM     24  C   UNL     1       0.911   9.883  -1.965  1.00  0.00     0.010 A 
ATOM     25  C   UNL     1       0.746   8.092  -3.595  1.00  0.00     0.010 A 
ATOM     26  C   UNL     1       1.286   9.329  -3.195  1.00  0.00    -0.014 A 
BRANCH  26  27
ATOM     27  C   UNL     1       2.109  10.114  -4.145  1.00  0.00     0.031 A 
ATOM     28  C   UNL     1       1.416  10.862  -5.252  1.00  0.00     0.074 A 
ATOM     29  C   UNL     1       3.447  10.164  -4.034  1.00  0.00     0.049 A 
ATOM     30  N   UNL     1       1.932  11.521  -6.257  1.00  0.00    -0.248 NA
ATOM     31  C   UNL     1      -0.056  10.866  -5.219  1.00  0.00     0.031 C 
ATOM     32  C   UNL     1       4.234   9.539  -2.973  1.00  0.00     0.029 A 
ATOM     33  N   UNL     1       4.382  10.764  -4.840  1.00  0.00    -0.354 N 
ATOM     34  C   UNL     1       0.851  12.002  -6.985  1.00  0.00     0.074 A 
ATOM     35  C   UNL     1      -0.349  11.548  -6.316  1.00  0.00     0.031 C 
ATOM     36  C   UNL     1       5.538   9.773  -3.204  1.00  0.00     0.029 A 
ATOM     37  C   UNL     1       5.677  10.528  -4.448  1.00  0.00     0.049 A 
ATOM     38  H   UNL     1       4.147  11.310  -5.625  1.00  0.00     0.167 HD
ATOM     39  C   UNL     1       0.855  12.755  -8.110  1.00  0.00     0.031 A 
ATOM     40  C   UNL     1       6.840  10.856  -5.044  1.00  0.00     0.031 A 
ATOM     41  C   UNL     1       2.045  13.198  -8.783  1.00  0.00     0.049 A 
ATOM     42  C   UNL     1       6.820  11.613  -6.345  1.00  0.00     0.074 A 
ATOM     43  C   UNL     1       2.152  13.967  -9.929  1.00  0.00     0.029 A 
ATOM     44  N   UNL     1       3.335  12.908  -8.371  1.00  0.00    -0.354 N 
ATOM     45  N   UNL     1       5.792  12.064  -7.024  1.00  0.00    -0.248 NA
ATOM     46  C   UNL     1       8.122  11.906  -6.964  1.00  0.00     0.031 C 
ATOM     47  C   UNL     1       3.509  14.102 -10.238  1.00  0.00     0.029 A 
ATOM     48  C   UNL     1       4.246  13.463  -9.254  1.00  0.00     0.049 A 
ATOM     49  H   UNL     1       3.570  12.386  -7.571  1.00  0.00     0.167 HD
ATOM     50  C   UNL     1       6.324  12.719  -8.128  1.00  0.00     0.074 A 
ATOM     51  C   UNL     1       7.764  12.611  -8.028  1.00  0.00     0.031 C 
ATOM     52  C   UNL     1       5.676  13.357  -9.133  1.00  0.00     0.031 A 
BRANCH  39  53
ATOM     53  C   UNL     1      -0.476  13.111  -8.707  1.00  0.00    -0.014 A 
ATOM     54  C   UNL     1      -1.308  14.072  -8.111  1.00  0.00     0.009 A 
ATOM     55  C   UNL     1      -0.888  12.499  -9.901  1.00  0.00     0.009 A 
ATOM     56  C   UNL     1      -2.541  14.390  -8.684  1.00  0.00     0.001 A 
ATOM     57  C   UNL     1      -2.110  12.837 -10.485  1.00  0.00     0.001 A 
ATOM     58  C   UNL     1      -2.939  13.776  -9.872  1.00  0.00     0.000 A 
ENDBRANCH  39  53
BRANCH  40  59
ATOM     59  C   UNL     1       8.131  10.440  -4.437  1.00  0.00    -0.014 A 
ATOM     60  C   UNL     1       8.995  11.391  -3.873  1.00  0.00     0.009 A 
ATOM     61  C   UNL     1       8.515   9.090  -4.439  1.00  0.00     0.009 A 
ATOM     62  C   UNL     1      10.228  11.000  -3.345  1.00  0.00     0.001 A 
ATOM     63  C   UNL     1       9.737   8.699  -3.887  1.00  0.00     0.001 A 
ATOM     64  C   UNL     1      10.596   9.655  -3.349  1.00  0.00     0.000 A 
ENDBRANCH  40  59
BRANCH  52  65
ATOM     65  C   UNL     1       6.513  14.034 -10.180  1.00  0.00    -0.014 A 
ATOM     66  C   UNL     1       7.169  13.299 -11.178  1.00  0.00     0.009 A 
ATOM     67  C   UNL     1       6.584  15.437 -10.206  1.00  0.00     0.009 A 
ATOM     68  C   UNL     1       7.898  13.956 -12.171  1.00  0.00     0.001 A 
ATOM     69  C   UNL     1       7.294  16.091 -11.213  1.00  0.00     0.001 A 
ATOM     70  C   UNL     1       7.955  15.350 -12.192  1.00  0.00     0.000 A 
ENDBRANCH  52  65
ENDBRANCH  26  27
ENDBRANCH  19  21
ENDBRANCH  18  19
ENDBRANCH  17  18
ENDBRANCH   1  17
TORSDOF 14
