REMARK SMILES O=C(N[C@@H]1C=C[C@@H](C(=O)OCCOCCOC(=O)c2ccc(-c3c4nc(c(-c5ccccc5)c5ccc([nH]5)c(-c5ccccc5)c5nc(c(-c6ccccc6)c6ccc3[nH]6)C=C5)C=C4)cc2)C1)Oc1ccccc1
REMARK SMILES IDX 12 1 11 2 10 3 8 4 9 5 7 6 4 7 5 8 67 9 6 10 3 11 1 12 2 13
REMARK SMILES IDX 68 15 69 16 70 17 74 18 71 19 73 20 72 21 13 22 14 23 15 24
REMARK SMILES IDX 16 25 17 26 18 27 19 28 20 29 66 30 21 31 65 32 22 33 23 34
REMARK SMILES IDX 24 35 59 36 25 37 64 38 58 39 60 40 26 41 63 42 57 43 56 44
REMARK SMILES IDX 27 46 49 47 34 48 48 49 35 50 38 51 47 52 61 53 36 54 37 55
REMARK SMILES IDX 46 57 62 58 39 59 28 60 29 61 33 62 30 63 32 64 31 65 50 66
REMARK SMILES IDX 51 67 55 68 52 69 54 70 53 71 40 72 41 73 45 74 42 75 44 76
REMARK SMILES IDX 43 77
REMARK H PARENT 3 14 60 45 38 56
REMARK Flexibility Score: inf
ROOT
ATOM      1  C   UNL     1       5.634   2.885   6.650  1.00  0.00     0.202 C 
ENDROOT
BRANCH   1   2
ATOM      2  C   UNL     1       5.712   3.741   5.381  1.00  0.00     0.261 C 
BRANCH   2   3
ATOM      3  O   UNL     1       5.591   2.919   4.212  1.00  0.00    -0.463 OA
BRANCH   3   4
ATOM      4  C   UNL     1       6.596   3.045   3.302  1.00  0.00     0.312 C 
ATOM      5  O   UNL     1       7.367   3.997   3.251  1.00  0.00    -0.252 OA
BRANCH   4   6
ATOM      6  C   UNL     1       6.772   1.761   2.486  1.00  0.00     0.124 C 
ATOM      7  C   UNL     1       5.096   1.351   0.750  1.00  0.00     0.109 C 
ATOM      8  C   UNL     1       6.387   1.840   0.178  1.00  0.00    -0.006 C 
ATOM      9  C   UNL     1       5.506   0.942   2.170  1.00  0.00     0.049 C 
ATOM     10  C   UNL     1       7.299   2.076   1.124  1.00  0.00    -0.014 C 
BRANCH   7  11
ATOM     11  N   UNL     1       4.621   0.264  -0.067  1.00  0.00    -0.315 N 
ATOM     12  O   UNL     1       3.861  -0.812  -1.870  1.00  0.00    -0.224 OA
ATOM     13  C   UNL     1       3.948   0.256  -1.263  1.00  0.00     0.413 C 
ATOM     14  H   UNL     1       4.812  -0.630   0.297  1.00  0.00     0.167 HD
BRANCH  13  15
ATOM     15  O   UNL     1       3.402   1.428  -1.829  1.00  0.00    -0.410 OA
BRANCH  15  16
ATOM     16  C   UNL     1       3.093   2.645  -1.186  1.00  0.00     0.132 A 
ATOM     17  C   UNL     1       1.845   2.800  -0.590  1.00  0.00     0.047 A 
ATOM     18  C   UNL     1       4.040   3.666  -1.175  1.00  0.00     0.047 A 
ATOM     19  C   UNL     1       1.585   3.969   0.126  1.00  0.00     0.004 A 
ATOM     20  C   UNL     1       3.797   4.803  -0.408  1.00  0.00     0.004 A 
ATOM     21  C   UNL     1       2.574   4.950   0.248  1.00  0.00     0.000 A 
ENDBRANCH  15  16
ENDBRANCH  13  15
ENDBRANCH   7  11
ENDBRANCH   4   6
ENDBRANCH   3   4
ENDBRANCH   2   3
ENDBRANCH   1   2
BRANCH   1  22
ATOM     22  O   UNL     1       6.550   1.796   6.762  1.00  0.00    -0.374 OA
BRANCH  22  23
ATOM     23  C   UNL     1       6.336   0.643   5.949  1.00  0.00     0.202 C 
BRANCH  23  24
ATOM     24  C   UNL     1       5.162  -0.284   6.287  1.00  0.00     0.261 C 
BRANCH  24  25
ATOM     25  O   UNL     1       3.888   0.373   6.196  1.00  0.00    -0.460 OA
BRANCH  25  26
ATOM     26  C   UNL     1       3.272   0.551   7.391  1.00  0.00     0.338 C 
ATOM     27  O   UNL     1       3.646   0.161   8.483  1.00  0.00    -0.246 OA
BRANCH  26  28
ATOM     28  C   UNL     1       2.132   1.473   7.241  1.00  0.00     0.060 A 
ATOM     29  C   UNL     1       2.119   2.610   8.059  1.00  0.00     0.016 A 
ATOM     30  C   UNL     1       1.058   1.187   6.397  1.00  0.00     0.016 A 
ATOM     31  C   UNL     1       1.003   3.438   8.082  1.00  0.00     0.010 A 
ATOM     32  C   UNL     1      -0.067   2.016   6.428  1.00  0.00     0.010 A 
ATOM     33  C   UNL     1      -0.115   3.118   7.302  1.00  0.00    -0.014 A 
BRANCH  33  34
ATOM     34  C   UNL     1      -1.383   3.849   7.527  1.00  0.00     0.031 A 
ATOM     35  C   UNL     1      -2.453   3.212   8.368  1.00  0.00     0.074 A 
ATOM     36  C   UNL     1      -1.564   5.079   7.020  1.00  0.00     0.049 A 
ATOM     37  N   UNL     1      -3.637   3.668   8.689  1.00  0.00    -0.248 NA
ATOM     38  C   UNL     1      -2.149   1.881   8.916  1.00  0.00     0.031 C 
ATOM     39  C   UNL     1      -0.587   5.816   6.221  1.00  0.00     0.029 A 
ATOM     40  N   UNL     1      -2.643   5.922   7.101  1.00  0.00    -0.354 N 
ATOM     41  C   UNL     1      -4.224   2.675   9.463  1.00  0.00     0.074 A 
ATOM     42  C   UNL     1      -3.279   1.581   9.537  1.00  0.00     0.031 C 
ATOM     43  C   UNL     1      -1.118   6.999   5.871  1.00  0.00     0.029 A 
ATOM     44  C   UNL     1      -2.480   7.087   6.395  1.00  0.00     0.049 A 
ATOM     45  H   UNL     1      -3.455   5.711   7.615  1.00  0.00     0.167 HD
ATOM     46  C   UNL     1      -5.439   2.674  10.061  1.00  0.00     0.031 A 
ATOM     47  C   UNL     1      -3.340   8.098   6.175  1.00  0.00     0.031 A 
ATOM     48  C   UNL     1      -6.384   3.755   9.970  1.00  0.00     0.049 A 
ATOM     49  C   UNL     1      -4.709   8.053   6.796  1.00  0.00     0.074 A 
ATOM     50  C   UNL     1      -7.628   3.867  10.566  1.00  0.00     0.029 A 
ATOM     51  N   UNL     1      -6.194   4.907   9.222  1.00  0.00    -0.354 N 
ATOM     52  N   UNL     1      -5.238   7.130   7.562  1.00  0.00    -0.248 NA
ATOM     53  C   UNL     1      -5.593   9.197   6.532  1.00  0.00     0.031 C 
ATOM     54  C   UNL     1      -8.218   5.056  10.122  1.00  0.00     0.029 A 
ATOM     55  C   UNL     1      -7.314   5.718   9.307  1.00  0.00     0.049 A 
ATOM     56  H   UNL     1      -5.382   5.118   8.706  1.00  0.00     0.167 HD
ATOM     57  C   UNL     1      -6.509   7.587   7.888  1.00  0.00     0.074 A 
ATOM     58  C   UNL     1      -6.663   8.879   7.249  1.00  0.00     0.031 C 
ATOM     59  C   UNL     1      -7.461   6.993   8.650  1.00  0.00     0.031 A 
BRANCH  46  60
ATOM     60  C   UNL     1      -5.830   1.433  10.817  1.00  0.00    -0.014 A 
ATOM     61  C   UNL     1      -5.195   1.067  12.015  1.00  0.00     0.009 A 
ATOM     62  C   UNL     1      -6.852   0.611  10.315  1.00  0.00     0.009 A 
ATOM     63  C   UNL     1      -5.539  -0.121  12.665  1.00  0.00     0.001 A 
ATOM     64  C   UNL     1      -7.217  -0.558  10.984  1.00  0.00     0.001 A 
ATOM     65  C   UNL     1      -6.551  -0.931  12.150  1.00  0.00     0.000 A 
ENDBRANCH  46  60
BRANCH  47  66
ATOM     66  C   UNL     1      -2.929   9.225   5.299  1.00  0.00    -0.014 A 
ATOM     67  C   UNL     1      -2.660  10.493   5.832  1.00  0.00     0.009 A 
ATOM     68  C   UNL     1      -2.773   9.021   3.918  1.00  0.00     0.009 A 
ATOM     69  C   UNL     1      -2.253  11.538   4.998  1.00  0.00     0.001 A 
ATOM     70  C   UNL     1      -2.339  10.059   3.091  1.00  0.00     0.001 A 
ATOM     71  C   UNL     1      -2.085  11.318   3.631  1.00  0.00     0.000 A 
ENDBRANCH  47  66
BRANCH  59  72
ATOM     72  C   UNL     1      -8.749   7.743   8.853  1.00  0.00    -0.014 A 
ATOM     73  C   UNL     1      -9.679   7.894   7.813  1.00  0.00     0.009 A 
ATOM     74  C   UNL     1      -9.055   8.269  10.119  1.00  0.00     0.009 A 
ATOM     75  C   UNL     1     -10.873   8.586   8.028  1.00  0.00     0.001 A 
ATOM     76  C   UNL     1     -10.262   8.933  10.339  1.00  0.00     0.001 A 
ATOM     77  C   UNL     1     -11.166   9.100   9.291  1.00  0.00     0.000 A 
ENDBRANCH  59  72
ENDBRANCH  33  34
ENDBRANCH  26  28
ENDBRANCH  25  26
ENDBRANCH  24  25
ENDBRANCH  23  24
ENDBRANCH  22  23
ENDBRANCH   1  22
TORSDOF 17
