REMARK SMILES Cc1ccc(C)c(N2C(=O)S[C@H](CC(=O)Nc3ccc(C(=O)OCCOCCOC(=O)c4ccc(-c5c6nc(c(-c7ccccc7)c7ccc([nH]7)c(-c7ccccc7)c7nc(c(-c8ccccc8)c8ccc5[nH]8)C=C7)C=C6)cc4)c(O)c3)C2=O)c1
REMARK SMILES IDX 25 1 24 2 23 3 21 4 22 5 20 6 17 7 18 8 82 9 19 10 80 11
REMARK SMILES IDX 16 12 14 13 15 14 13 16 12 17 8 18 9 19 83 20 10 21 11 22
REMARK SMILES IDX 84 23 7 24 1 25 2 26 3 27 85 28 4 29 5 30 6 31 81 32 26 34
REMARK SMILES IDX 27 35 28 36 29 37 30 38 31 39 32 40 33 41 79 42 34 43 78 44
REMARK SMILES IDX 35 45 36 46 37 47 72 48 38 49 77 50 71 51 73 52 39 53 76 54
REMARK SMILES IDX 70 55 69 56 40 58 62 59 47 60 61 61 48 62 51 63 60 64 74 65
REMARK SMILES IDX 49 66 50 67 59 69 75 70 52 71 41 72 42 73 46 74 43 75 45 76
REMARK SMILES IDX 44 77 63 78 64 79 68 80 65 81 67 82 66 83 53 84 54 85 58 86
REMARK SMILES IDX 55 87 57 88 56 89
REMARK H PARENT 16 15 81 33 73 57 51 68
REMARK Flexibility Score: inf
ROOT
ATOM      1  C   UNL     1       3.824   6.481  -2.632  1.00  0.00     0.202 C 
ENDROOT
BRANCH   1   2
ATOM      2  C   UNL     1       3.121   7.537  -3.497  1.00  0.00     0.261 C 
BRANCH   2   3
ATOM      3  O   UNL     1       2.047   8.091  -2.703  1.00  0.00    -0.460 OA
BRANCH   3   4
ATOM      4  C   UNL     1       0.955   7.286  -2.768  1.00  0.00     0.341 C 
ATOM      5  O   UNL     1       0.748   6.487  -3.642  1.00  0.00    -0.246 OA
BRANCH   4   6
ATOM      6  C   UNL     1       0.084   7.410  -1.576  1.00  0.00     0.101 A 
ATOM      7  C   UNL     1      -1.791   7.438   0.518  1.00  0.00     0.044 A 
ATOM      8  C   UNL     1      -1.773   6.435  -0.428  1.00  0.00     0.027 A 
ATOM      9  C   UNL     1      -0.934   8.523   0.339  1.00  0.00     0.073 A 
ATOM     10  C   UNL     1      -0.769   6.337  -1.366  1.00  0.00     0.022 A 
ATOM     11  C   UNL     1      -0.007   8.511  -0.724  1.00  0.00     0.132 A 
BRANCH   7  12
ATOM     12  N   UNL     1      -2.711   7.328   1.577  1.00  0.00    -0.326 N 
ATOM     13  C   UNL     1      -3.225   6.148   2.099  1.00  0.00     0.226 C 
ATOM     14  O   UNL     1      -4.319   6.147   2.664  1.00  0.00    -0.275 OA
ATOM     15  H   UNL     1      -3.019   8.168   1.987  1.00  0.00     0.169 HD
BRANCH  13  16
ATOM     16  C   UNL     1      -2.324   4.897   2.137  1.00  0.00     0.125 C 
BRANCH  16  17
ATOM     17  C   UNL     1      -2.972   3.570   1.729  1.00  0.00     0.156 C 
ATOM     18  N   UNL     1      -1.446   1.963   0.769  1.00  0.00    -0.240 N 
ATOM     19  C   UNL     1      -1.891   2.535  -0.387  1.00  0.00     0.293 C 
ATOM     20  C   UNL     1      -2.030   2.385   1.956  1.00  0.00     0.248 C 
ATOM     21  O   UNL     1      -1.458   2.416  -1.519  1.00  0.00    -0.261 OA
ATOM     22  S   UNL     1      -3.316   3.451  -0.031  1.00  0.00    -0.050 SA
ATOM     23  O   UNL     1      -1.841   1.902   3.067  1.00  0.00    -0.273 OA
BRANCH  18  24
ATOM     24  C   UNL     1      -0.680   0.785   0.657  1.00  0.00     0.056 A 
ATOM     25  C   UNL     1       2.987  -0.126   0.128  1.00  0.00     0.044 C 
ATOM     26  C   UNL     1       1.496  -0.228   0.267  1.00  0.00    -0.049 A 
ATOM     27  C   UNL     1       0.869  -1.466   0.085  1.00  0.00     0.004 A 
ATOM     28  C   UNL     1       0.716   0.894   0.572  1.00  0.00     0.030 A 
ATOM     29  C   UNL     1      -0.519  -1.574   0.152  1.00  0.00     0.006 A 
ATOM     30  C   UNL     1      -1.315  -0.448   0.403  1.00  0.00    -0.027 A 
ATOM     31  C   UNL     1      -2.809  -0.625   0.351  1.00  0.00     0.046 C 
ENDBRANCH  18  24
ENDBRANCH  16  17
ENDBRANCH  13  16
ENDBRANCH   7  12
BRANCH  11  32
ATOM     32  O   UNL     1       0.787   9.615  -0.869  1.00  0.00    -0.507 OA
ATOM     33  H   UNL     1       1.417   9.651  -1.561  1.00  0.00     0.293 HD
ENDBRANCH  11  32
ENDBRANCH   4   6
ENDBRANCH   3   4
ENDBRANCH   2   3
ENDBRANCH   1   2
BRANCH   1  34
ATOM     34  O   UNL     1       2.941   5.376  -2.452  1.00  0.00    -0.374 OA
BRANCH  34  35
ATOM     35  C   UNL     1       3.144   4.557  -1.312  1.00  0.00     0.202 C 
BRANCH  35  36
ATOM     36  C   UNL     1       4.459   3.767  -1.340  1.00  0.00     0.261 C 
BRANCH  36  37
ATOM     37  O   UNL     1       4.501   2.754  -2.368  1.00  0.00    -0.460 OA
BRANCH  37  38
ATOM     38  C   UNL     1       4.591   3.228  -3.643  1.00  0.00     0.338 C 
ATOM     39  O   UNL     1       5.587   3.741  -4.122  1.00  0.00    -0.246 OA
BRANCH  38  40
ATOM     40  C   UNL     1       3.241   3.195  -4.272  1.00  0.00     0.060 A 
ATOM     41  C   UNL     1       2.940   4.084  -5.312  1.00  0.00     0.016 A 
ATOM     42  C   UNL     1       2.214   2.498  -3.631  1.00  0.00     0.016 A 
ATOM     43  C   UNL     1       1.599   4.367  -5.613  1.00  0.00     0.010 A 
ATOM     44  C   UNL     1       0.896   2.865  -3.859  1.00  0.00     0.010 A 
ATOM     45  C   UNL     1       0.565   3.817  -4.835  1.00  0.00    -0.014 A 
BRANCH  45  46
ATOM     46  C   UNL     1      -0.844   3.806  -5.290  1.00  0.00     0.031 A 
ATOM     47  C   UNL     1      -0.975   2.791  -6.345  1.00  0.00     0.074 A 
ATOM     48  C   UNL     1      -1.957   4.474  -4.892  1.00  0.00     0.049 A 
ATOM     49  N   UNL     1      -1.083   3.093  -7.596  1.00  0.00    -0.248 NA
ATOM     50  C   UNL     1      -0.723   1.367  -6.077  1.00  0.00     0.031 C 
ATOM     51  C   UNL     1      -2.053   5.638  -4.035  1.00  0.00     0.029 A 
ATOM     52  N   UNL     1      -3.296   4.208  -5.111  1.00  0.00    -0.354 N 
ATOM     53  C   UNL     1      -1.227   1.879  -8.225  1.00  0.00     0.074 A 
ATOM     54  C   UNL     1      -0.710   0.884  -7.321  1.00  0.00     0.031 C 
ATOM     55  C   UNL     1      -3.294   5.789  -3.526  1.00  0.00     0.029 A 
ATOM     56  C   UNL     1      -4.156   4.847  -4.206  1.00  0.00     0.049 A 
ATOM     57  H   UNL     1      -3.617   3.624  -5.836  1.00  0.00     0.167 HD
ATOM     58  C   UNL     1      -2.171   1.762  -9.192  1.00  0.00     0.031 A 
ATOM     59  C   UNL     1      -5.512   4.835  -4.121  1.00  0.00     0.031 A 
ATOM     60  C   UNL     1      -2.612   3.047  -9.683  1.00  0.00     0.049 A 
ATOM     61  C   UNL     1      -5.999   4.779  -5.498  1.00  0.00     0.074 A 
ATOM     62  C   UNL     1      -2.069   4.074 -10.426  1.00  0.00     0.029 A 
ATOM     63  N   UNL     1      -3.689   3.568  -9.012  1.00  0.00    -0.354 N 
ATOM     64  N   UNL     1      -5.897   5.788  -6.313  1.00  0.00    -0.248 NA
ATOM     65  C   UNL     1      -6.296   3.491  -6.103  1.00  0.00     0.031 C 
ATOM     66  C   UNL     1      -2.810   5.252 -10.110  1.00  0.00     0.029 A 
ATOM     67  C   UNL     1      -3.809   4.922  -9.201  1.00  0.00     0.049 A 
ATOM     68  H   UNL     1      -4.304   3.034  -8.460  1.00  0.00     0.167 HD
ATOM     69  C   UNL     1      -5.590   5.178  -7.510  1.00  0.00     0.074 A 
ATOM     70  C   UNL     1      -6.066   3.807  -7.379  1.00  0.00     0.031 C 
ATOM     71  C   UNL     1      -4.661   5.720  -8.346  1.00  0.00     0.031 A 
BRANCH  58  72
ATOM     72  C   UNL     1      -3.052   0.545  -9.269  1.00  0.00    -0.014 A 
ATOM     73  C   UNL     1      -3.858   0.372 -10.399  1.00  0.00     0.009 A 
ATOM     74  C   UNL     1      -3.308  -0.299  -8.165  1.00  0.00     0.009 A 
ATOM     75  C   UNL     1      -4.867  -0.596 -10.420  1.00  0.00     0.001 A 
ATOM     76  C   UNL     1      -4.283  -1.294  -8.197  1.00  0.00     0.001 A 
ATOM     77  C   UNL     1      -5.074  -1.432  -9.324  1.00  0.00     0.000 A 
ENDBRANCH  58  72
BRANCH  59  78
ATOM     78  C   UNL     1      -6.437   4.970  -2.976  1.00  0.00    -0.014 A 
ATOM     79  C   UNL     1      -7.772   5.371  -3.092  1.00  0.00     0.009 A 
ATOM     80  C   UNL     1      -6.067   4.359  -1.776  1.00  0.00     0.009 A 
ATOM     81  C   UNL     1      -8.693   5.127  -2.056  1.00  0.00     0.001 A 
ATOM     82  C   UNL     1      -6.965   4.128  -0.729  1.00  0.00     0.001 A 
ATOM     83  C   UNL     1      -8.292   4.495  -0.880  1.00  0.00     0.000 A 
ENDBRANCH  59  78
BRANCH  71  84
ATOM     84  C   UNL     1      -4.414   7.200  -8.241  1.00  0.00    -0.014 A 
ATOM     85  C   UNL     1      -3.838   7.822  -7.121  1.00  0.00     0.009 A 
ATOM     86  C   UNL     1      -4.752   7.997  -9.344  1.00  0.00     0.009 A 
ATOM     87  C   UNL     1      -3.631   9.208  -7.100  1.00  0.00     0.001 A 
ATOM     88  C   UNL     1      -4.529   9.375  -9.331  1.00  0.00     0.001 A 
ATOM     89  C   UNL     1      -3.974   9.982  -8.207  1.00  0.00     0.000 A 
ENDBRANCH  71  84
ENDBRANCH  45  46
ENDBRANCH  38  40
ENDBRANCH  37  38
ENDBRANCH  36  37
ENDBRANCH  35  36
ENDBRANCH  34  35
ENDBRANCH   1  34
TORSDOF 19
