REMARK SMILES CC(=O)N[C@@H](CS[C@@H]1CC(=O)N(c2cccc3ccccc23)C1=O)C(=O)OCCOCCOC(=O)c1ccc(-c2c3nc(c(-c4ccccc4)c4ccc([nH]4)c(-c4ccccc4)c4nc(c(-c5ccccc5)c5ccc2[nH]5)C=C4)C=C3)cc1
REMARK SMILES IDX 29 1 28 2 27 3 25 4 26 5 5 6 4 7 1 8 2 9 3 10 6 12 7 13 8 14
REMARK SMILES IDX 9 15 23 16 10 17 12 18 24 19 11 20 13 21 14 22 22 23 15 24
REMARK SMILES IDX 17 25 21 26 16 27 18 28 20 29 19 30 30 31 31 32 32 33 33 34
REMARK SMILES IDX 34 35 35 36 36 37 37 38 83 39 38 40 82 41 39 42 40 43 41 44
REMARK SMILES IDX 76 45 42 46 81 47 75 48 77 49 43 50 80 51 74 52 73 53 44 55
REMARK SMILES IDX 66 56 51 57 65 58 52 59 55 60 64 61 78 62 53 63 54 64 63 66
REMARK SMILES IDX 79 67 56 68 45 69 46 70 50 71 47 72 49 73 48 74 67 75 68 76
REMARK SMILES IDX 72 77 69 78 71 79 70 80 57 81 58 82 62 83 59 84 61 85 60 86
REMARK H PARENT 4 11 77 54 55 65
REMARK Flexibility Score: inf
ROOT
ATOM      1  C   UNL     1      -0.970  -4.963   3.271  1.00  0.00     0.202 C 
ENDROOT
BRANCH   1   2
ATOM      2  C   UNL     1       0.547  -4.827   3.398  1.00  0.00     0.261 C 
BRANCH   2   3
ATOM      3  O   UNL     1       0.917  -3.465   3.142  1.00  0.00    -0.462 OA
BRANCH   3   4
ATOM      4  C   UNL     1       2.151  -3.278   2.600  1.00  0.00     0.329 C 
ATOM      5  O   UNL     1       3.009  -4.143   2.486  1.00  0.00    -0.250 OA
BRANCH   4   6
ATOM      6  C   UNL     1       2.381  -1.800   2.262  1.00  0.00     0.202 C 
BRANCH   6   7
ATOM      7  N   UNL     1       1.144  -1.053   1.991  1.00  0.00    -0.342 N 
ATOM      8  C   UNL     1       1.722  -0.338  -0.308  1.00  0.00     0.114 C 
ATOM      9  C   UNL     1       0.766  -0.413   0.848  1.00  0.00     0.217 C 
ATOM     10  O   UNL     1      -0.371   0.044   0.771  1.00  0.00    -0.275 OA
ATOM     11  H   UNL     1       0.502  -1.009   2.736  1.00  0.00     0.164 HD
ENDBRANCH   6   7
BRANCH   6  12
ATOM     12  C   UNL     1       3.211  -1.128   3.366  1.00  0.00     0.107 C 
BRANCH  12  13
ATOM     13  S   UNL     1       2.773  -1.484   5.122  1.00  0.00    -0.145 SA
BRANCH  13  14
ATOM     14  C   UNL     1       1.644  -0.148   5.648  1.00  0.00     0.146 C 
ATOM     15  C   UNL     1       0.216  -0.271   5.194  1.00  0.00     0.125 C 
ATOM     16  C   UNL     1       2.061   1.233   5.233  1.00  0.00     0.247 C 
ATOM     17  C   UNL     1       0.002   0.940   4.337  1.00  0.00     0.235 C 
ATOM     18  N   UNL     1       1.135   1.728   4.338  1.00  0.00    -0.249 N 
ATOM     19  O   UNL     1       3.024   1.796   5.736  1.00  0.00    -0.273 OA
ATOM     20  O   UNL     1      -1.075   1.115   3.784  1.00  0.00    -0.274 OA
BRANCH  18  21
ATOM     21  C   UNL     1       1.248   3.002   3.672  1.00  0.00     0.060 A 
ATOM     22  C   UNL     1       0.066   3.735   3.434  1.00  0.00     0.027 A 
ATOM     23  C   UNL     1       2.503   3.587   3.262  1.00  0.00     0.006 A 
ATOM     24  C   UNL     1       0.091   5.016   2.890  1.00  0.00     0.003 A 
ATOM     25  C   UNL     1       2.502   4.915   2.745  1.00  0.00    -0.016 A 
ATOM     26  C   UNL     1       3.775   2.951   3.272  1.00  0.00     0.011 A 
ATOM     27  C   UNL     1       1.302   5.608   2.573  1.00  0.00     0.009 A 
ATOM     28  C   UNL     1       3.700   5.556   2.381  1.00  0.00     0.009 A 
ATOM     29  C   UNL     1       4.961   3.592   2.901  1.00  0.00     0.001 A 
ATOM     30  C   UNL     1       4.925   4.905   2.470  1.00  0.00     0.001 A 
ENDBRANCH  18  21
ENDBRANCH  13  14
ENDBRANCH  12  13
ENDBRANCH   6  12
ENDBRANCH   4   6
ENDBRANCH   3   4
ENDBRANCH   2   3
ENDBRANCH   1   2
BRANCH   1  31
ATOM     31  O   UNL     1      -1.484  -4.810   1.946  1.00  0.00    -0.374 OA
BRANCH  31  32
ATOM     32  C   UNL     1      -1.488  -3.496   1.384  1.00  0.00     0.202 C 
BRANCH  32  33
ATOM     33  C   UNL     1      -2.627  -2.567   1.824  1.00  0.00     0.261 C 
BRANCH  33  34
ATOM     34  O   UNL     1      -2.682  -2.380   3.249  1.00  0.00    -0.460 OA
BRANCH  34  35
ATOM     35  C   UNL     1      -3.701  -3.036   3.853  1.00  0.00     0.338 C 
ATOM     36  O   UNL     1      -4.560  -3.727   3.322  1.00  0.00    -0.246 OA
BRANCH  35  37
ATOM     37  C   UNL     1      -3.575  -2.949   5.318  1.00  0.00     0.060 A 
ATOM     38  C   UNL     1      -3.657  -4.147   6.040  1.00  0.00     0.016 A 
ATOM     39  C   UNL     1      -3.483  -1.724   5.983  1.00  0.00     0.016 A 
ATOM     40  C   UNL     1      -3.706  -4.122   7.431  1.00  0.00     0.010 A 
ATOM     41  C   UNL     1      -3.538  -1.700   7.383  1.00  0.00     0.010 A 
ATOM     42  C   UNL     1      -3.688  -2.896   8.110  1.00  0.00    -0.014 A 
BRANCH  42  43
ATOM     43  C   UNL     1      -3.978  -2.872   9.565  1.00  0.00     0.031 A 
ATOM     44  C   UNL     1      -5.371  -2.543  10.031  1.00  0.00     0.074 A 
ATOM     45  C   UNL     1      -3.028  -3.191  10.462  1.00  0.00     0.049 A 
ATOM     46  N   UNL     1      -5.843  -2.481  11.250  1.00  0.00    -0.248 NA
ATOM     47  C   UNL     1      -6.363  -2.251   8.984  1.00  0.00     0.031 C 
ATOM     48  C   UNL     1      -1.655  -3.577  10.141  1.00  0.00     0.029 A 
ATOM     49  N   UNL     1      -3.083  -3.244  11.832  1.00  0.00    -0.354 N 
ATOM     50  C   UNL     1      -7.183  -2.140  11.118  1.00  0.00     0.074 A 
ATOM     51  C   UNL     1      -7.443  -1.981   9.703  1.00  0.00     0.031 C 
ATOM     52  C   UNL     1      -0.996  -3.827  11.286  1.00  0.00     0.029 A 
ATOM     53  C   UNL     1      -1.891  -3.592  12.417  1.00  0.00     0.049 A 
ATOM     54  H   UNL     1      -3.900  -3.050  12.347  1.00  0.00     0.167 HD
ATOM     55  C   UNL     1      -8.119  -1.981  12.085  1.00  0.00     0.031 A 
ATOM     56  C   UNL     1      -1.556  -3.696  13.717  1.00  0.00     0.031 A 
ATOM     57  C   UNL     1      -7.867  -2.126  13.493  1.00  0.00     0.049 A 
ATOM     58  C   UNL     1      -2.593  -3.434  14.776  1.00  0.00     0.074 A 
ATOM     59  C   UNL     1      -8.756  -1.995  14.546  1.00  0.00     0.029 A 
ATOM     60  N   UNL     1      -6.633  -2.428  14.046  1.00  0.00    -0.354 N 
ATOM     61  N   UNL     1      -3.861  -3.135  14.635  1.00  0.00    -0.248 NA
ATOM     62  C   UNL     1      -2.150  -3.532  16.175  1.00  0.00     0.031 C 
ATOM     63  C   UNL     1      -8.047  -2.169  15.740  1.00  0.00     0.029 A 
ATOM     64  C   UNL     1      -6.729  -2.460  15.426  1.00  0.00     0.049 A 
ATOM     65  H   UNL     1      -5.809  -2.595  13.532  1.00  0.00     0.167 HD
ATOM     66  C   UNL     1      -4.373  -3.036  15.924  1.00  0.00     0.074 A 
ATOM     67  C   UNL     1      -3.281  -3.318  16.832  1.00  0.00     0.031 C 
ATOM     68  C   UNL     1      -5.635  -2.740  16.319  1.00  0.00     0.031 A 
BRANCH  55  69
ATOM     69  C   UNL     1      -9.503  -1.596  11.646  1.00  0.00    -0.014 A 
ATOM     70  C   UNL     1     -10.353  -2.522  11.022  1.00  0.00     0.009 A 
ATOM     71  C   UNL     1      -9.974  -0.297  11.891  1.00  0.00     0.009 A 
ATOM     72  C   UNL     1     -11.637  -2.144  10.622  1.00  0.00     0.001 A 
ATOM     73  C   UNL     1     -11.266   0.071  11.512  1.00  0.00     0.001 A 
ATOM     74  C   UNL     1     -12.093  -0.850  10.871  1.00  0.00     0.000 A 
ENDBRANCH  55  69
BRANCH  56  75
ATOM     75  C   UNL     1      -0.165  -4.050  14.100  1.00  0.00    -0.014 A 
ATOM     76  C   UNL     1       0.127  -5.297  14.671  1.00  0.00     0.009 A 
ATOM     77  C   UNL     1       0.877  -3.126  13.915  1.00  0.00     0.009 A 
ATOM     78  C   UNL     1       1.430  -5.604  15.070  1.00  0.00     0.001 A 
ATOM     79  C   UNL     1       2.183  -3.446  14.290  1.00  0.00     0.001 A 
ATOM     80  C   UNL     1       2.457  -4.681  14.875  1.00  0.00     0.000 A 
ENDBRANCH  56  75
BRANCH  68  81
ATOM     81  C   UNL     1      -5.913  -2.737  17.795  1.00  0.00    -0.014 A 
ATOM     82  C   UNL     1      -5.454  -1.699  18.621  1.00  0.00     0.009 A 
ATOM     83  C   UNL     1      -6.682  -3.767  18.360  1.00  0.00     0.009 A 
ATOM     84  C   UNL     1      -5.734  -1.710  19.989  1.00  0.00     0.001 A 
ATOM     85  C   UNL     1      -6.982  -3.761  19.723  1.00  0.00     0.001 A 
ATOM     86  C   UNL     1      -6.501  -2.738  20.538  1.00  0.00     0.000 A 
ENDBRANCH  68  81
ENDBRANCH  42  43
ENDBRANCH  35  37
ENDBRANCH  34  35
ENDBRANCH  33  34
ENDBRANCH  32  33
ENDBRANCH  31  32
ENDBRANCH   1  31
TORSDOF 19
