REMARK SMILES CCC[C@@H]1SC[C@H](C(=O)OCCOCCOC(=O)c2ccc(-c3c4nc(c(-c5ccccc5)c5ccc([nH]5)c(-c5ccccc5)c5nc(c(-c6ccccc6)c6ccc3[nH]6)C=C5)C=C4)cc2)N1C(=O)C[NH+]1CCC([NH3+])CC1
REMARK SMILES IDX 12 1 11 2 10 3 8 4 9 5 7 6 4 7 5 8 67 9 6 10 3 11 2 12 1 13
REMARK SMILES IDX 68 14 69 15 70 16 71 17 72 18 77 19 73 21 76 22 74 23 75 24
REMARK SMILES IDX 13 28 14 29 15 30 16 31 17 32 18 33 19 34 20 35 66 36 21 37
REMARK SMILES IDX 65 38 22 39 23 40 24 41 59 42 25 43 64 44 58 45 60 46 26 47
REMARK SMILES IDX 63 48 57 49 56 50 27 52 49 53 34 54 48 55 35 56 38 57 47 58
REMARK SMILES IDX 61 59 36 60 37 61 46 63 62 64 39 65 28 66 29 67 33 68 30 69
REMARK SMILES IDX 32 70 31 71 50 72 51 73 55 74 52 75 54 76 53 77 40 78 41 79
REMARK SMILES IDX 45 80 42 81 44 82 43 83
REMARK H PARENT 71 20 75 25 75 26 75 27 60 51 38 62
REMARK Flexibility Score: inf
ROOT
ATOM      1  C   UNL     1       1.623  -9.088  -0.953  1.00  0.00     0.202 C 
ENDROOT
BRANCH   1   2
ATOM      2  C   UNL     1       1.239  -8.163   0.203  1.00  0.00     0.261 C 
BRANCH   2   3
ATOM      3  O   UNL     1       1.011  -6.843  -0.307  1.00  0.00    -0.462 OA
BRANCH   3   4
ATOM      4  C   UNL     1       1.983  -5.927  -0.061  1.00  0.00     0.329 C 
ATOM      5  O   UNL     1       2.871  -6.070   0.768  1.00  0.00    -0.250 OA
BRANCH   4   6
ATOM      6  C   UNL     1       1.836  -4.709  -0.981  1.00  0.00     0.206 C 
ATOM      7  C   UNL     1       0.367  -2.864  -1.363  1.00  0.00     0.144 C 
ATOM      8  S   UNL     1      -0.451  -4.243  -2.211  1.00  0.00    -0.134 SA
ATOM      9  N   UNL     1       1.198  -3.510  -0.353  1.00  0.00    -0.311 N 
ATOM     10  C   UNL     1       1.126  -5.078  -2.310  1.00  0.00     0.109 C 
BRANCH   7  11
ATOM     11  C   UNL     1      -0.648  -1.772  -1.111  1.00  0.00     0.036 C 
BRANCH  11  12
ATOM     12  C   UNL     1      -0.045  -0.383  -0.924  1.00  0.00    -0.000 C 
ATOM     13  C   UNL     1       1.353  -0.166  -1.508  1.00  0.00     0.004 C 
ENDBRANCH  11  12
ENDBRANCH   7  11
BRANCH   9  14
ATOM     14  C   UNL     1       1.970  -2.849   0.620  1.00  0.00     0.279 C 
ATOM     15  O   UNL     1       3.193  -3.033   0.642  1.00  0.00    -0.268 OA
BRANCH  14  16
ATOM     16  C   UNL     1       1.273  -2.068   1.787  1.00  0.00     0.363 C 
BRANCH  16  17
ATOM     17  N   UNL     1       2.117  -0.940   2.274  1.00  0.00    -0.327 N 
ATOM     18  C   UNL     1       1.744   0.411   1.868  1.00  0.00     0.268 C 
ATOM     19  C   UNL     1       2.420  -0.940   3.712  1.00  0.00     0.268 C 
ATOM     20  H   UNL     1       2.965  -1.173   1.758  1.00  0.00     0.348 HD
ATOM     21  C   UNL     1       0.519   0.948   2.609  1.00  0.00     0.126 C 
ATOM     22  C   UNL     1       1.355  -0.284   4.613  1.00  0.00     0.126 C 
ATOM     23  C   UNL     1       0.894   1.081   4.081  1.00  0.00     0.192 C 
BRANCH  23  24
ATOM     24  N   UNL     1      -0.216   1.620   4.868  1.00  0.00    -0.355 N 
ATOM     25  H   UNL     1      -1.013   0.986   4.809  1.00  0.00     0.344 HD
ATOM     26  H   UNL     1      -0.481   2.534   4.501  1.00  0.00     0.344 HD
ATOM     27  H   UNL     1       0.072   1.715   5.841  1.00  0.00     0.344 HD
ENDBRANCH  23  24
ENDBRANCH  16  17
ENDBRANCH  14  16
ENDBRANCH   9  14
ENDBRANCH   4   6
ENDBRANCH   3   4
ENDBRANCH   2   3
ENDBRANCH   1   2
BRANCH   1  28
ATOM     28  O   UNL     1       2.942  -8.960  -1.479  1.00  0.00    -0.374 OA
BRANCH  28  29
ATOM     29  C   UNL     1       3.175  -8.012  -2.519  1.00  0.00     0.202 C 
BRANCH  29  30
ATOM     30  C   UNL     1       2.623  -8.329  -3.923  1.00  0.00     0.261 C 
BRANCH  30  31
ATOM     31  O   UNL     1       1.188  -8.434  -3.963  1.00  0.00    -0.460 OA
BRANCH  31  32
ATOM     32  C   UNL     1       0.719  -9.698  -4.069  1.00  0.00     0.338 C 
ATOM     33  O   UNL     1       1.381 -10.724  -4.215  1.00  0.00    -0.246 OA
BRANCH  32  34
ATOM     34  C   UNL     1      -0.722  -9.739  -3.777  1.00  0.00     0.060 A 
ATOM     35  C   UNL     1      -1.147 -10.595  -2.750  1.00  0.00     0.016 A 
ATOM     36  C   UNL     1      -1.651  -9.028  -4.538  1.00  0.00     0.016 A 
ATOM     37  C   UNL     1      -2.504 -10.789  -2.516  1.00  0.00     0.010 A 
ATOM     38  C   UNL     1      -3.015  -9.235  -4.312  1.00  0.00     0.010 A 
ATOM     39  C   UNL     1      -3.445 -10.149  -3.331  1.00  0.00    -0.014 A 
BRANCH  39  40
ATOM     40  C   UNL     1      -4.861 -10.582  -3.279  1.00  0.00     0.031 A 
ATOM     41  C   UNL     1      -5.363 -11.537  -4.326  1.00  0.00     0.074 A 
ATOM     42  C   UNL     1      -5.680 -10.161  -2.300  1.00  0.00     0.049 A 
ATOM     43  N   UNL     1      -6.566 -12.019  -4.504  1.00  0.00    -0.248 NA
ATOM     44  C   UNL     1      -4.372 -12.010  -5.306  1.00  0.00     0.031 C 
ATOM     45  C   UNL     1      -5.298  -9.281  -1.198  1.00  0.00     0.029 A 
ATOM     46  N   UNL     1      -7.010 -10.420  -2.085  1.00  0.00    -0.354 N 
ATOM     47  C   UNL     1      -6.481 -12.835  -5.626  1.00  0.00     0.074 A 
ATOM     48  C   UNL     1      -5.117 -12.762  -6.101  1.00  0.00     0.031 C 
ATOM     49  C   UNL     1      -6.377  -9.061  -0.426  1.00  0.00     0.029 A 
ATOM     50  C   UNL     1      -7.527  -9.754  -1.002  1.00  0.00     0.049 A 
ATOM     51  H   UNL     1      -7.541 -11.024  -2.652  1.00  0.00     0.167 HD
ATOM     52  C   UNL     1      -7.452 -13.579  -6.207  1.00  0.00     0.031 A 
ATOM     53  C   UNL     1      -8.793  -9.690  -0.545  1.00  0.00     0.031 A 
ATOM     54  C   UNL     1      -8.811 -13.637  -5.740  1.00  0.00     0.049 A 
ATOM     55  C   UNL     1      -9.874 -10.462  -1.252  1.00  0.00     0.074 A 
ATOM     56  C   UNL     1      -9.866 -14.376  -6.246  1.00  0.00     0.029 A 
ATOM     57  N   UNL     1      -9.306 -12.917  -4.664  1.00  0.00    -0.354 N 
ATOM     58  N   UNL     1      -9.780 -11.247  -2.299  1.00  0.00    -0.248 NA
ATOM     59  C   UNL     1     -11.234 -10.345  -0.708  1.00  0.00     0.031 C 
ATOM     60  C   UNL     1     -11.014 -14.052  -5.516  1.00  0.00     0.029 A 
ATOM     61  C   UNL     1     -10.659 -13.166  -4.510  1.00  0.00     0.049 A 
ATOM     62  H   UNL     1      -8.773 -12.317  -4.093  1.00  0.00     0.167 HD
ATOM     63  C   UNL     1     -11.061 -11.738  -2.522  1.00  0.00     0.074 A 
ATOM     64  C   UNL     1     -11.910 -11.172  -1.494  1.00  0.00     0.031 C 
ATOM     65  C   UNL     1     -11.494 -12.587  -3.487  1.00  0.00     0.031 A 
BRANCH  52  66
ATOM     66  C   UNL     1      -7.080 -14.345  -7.448  1.00  0.00    -0.014 A 
ATOM     67  C   UNL     1      -6.212 -15.447  -7.403  1.00  0.00     0.009 A 
ATOM     68  C   UNL     1      -7.614 -13.954  -8.687  1.00  0.00     0.009 A 
ATOM     69  C   UNL     1      -5.851 -16.112  -8.578  1.00  0.00     0.001 A 
ATOM     70  C   UNL     1      -7.277 -14.640  -9.854  1.00  0.00     0.001 A 
ATOM     71  C   UNL     1      -6.386 -15.710  -9.801  1.00  0.00     0.000 A 
ENDBRANCH  52  66
BRANCH  53  72
ATOM     72  C   UNL     1      -9.105  -8.842   0.634  1.00  0.00    -0.014 A 
ATOM     73  C   UNL     1      -9.452  -9.421   1.864  1.00  0.00     0.009 A 
ATOM     74  C   UNL     1      -9.043  -7.442   0.537  1.00  0.00     0.009 A 
ATOM     75  C   UNL     1      -9.743  -8.615   2.967  1.00  0.00     0.001 A 
ATOM     76  C   UNL     1      -9.307  -6.640   1.648  1.00  0.00     0.001 A 
ATOM     77  C   UNL     1      -9.663  -7.227   2.861  1.00  0.00     0.000 A 
ENDBRANCH  53  72
BRANCH  65  78
ATOM     78  C   UNL     1     -12.944 -12.985  -3.459  1.00  0.00    -0.014 A 
ATOM     79  C   UNL     1     -13.960 -12.081  -3.807  1.00  0.00     0.009 A 
ATOM     80  C   UNL     1     -13.294 -14.303  -3.123  1.00  0.00     0.009 A 
ATOM     81  C   UNL     1     -15.298 -12.481  -3.786  1.00  0.00     0.001 A 
ATOM     82  C   UNL     1     -14.629 -14.708  -3.134  1.00  0.00     0.001 A 
ATOM     83  C   UNL     1     -15.631 -13.794  -3.455  1.00  0.00     0.000 A 
ENDBRANCH  65  78
ENDBRANCH  39  40
ENDBRANCH  32  34
ENDBRANCH  31  32
ENDBRANCH  30  31
ENDBRANCH  29  30
ENDBRANCH  28  29
ENDBRANCH   1  28
TORSDOF 20
