REMARK SMILES O=C(OCCOCCOC(=O)[C@H]1CC[C@@H]2CCCC[C@H]2[NH2+]1)c1ccc(-c2c3nc(c(-c4ccccc4)c4ccc([nH]4)c(-c4ccccc4)c4nc(c(-c5ccccc5)c5ccc2[nH]5)C=C4)C=C3)cc1
REMARK SMILES IDX 5 1 4 2 3 3 2 4 1 5 22 6 23 7 69 8 24 9 68 10 25 11 26 12
REMARK SMILES IDX 27 13 62 14 28 15 67 16 61 17 63 18 29 19 66 20 60 21 59 22
REMARK SMILES IDX 30 24 52 25 37 26 51 27 38 28 41 29 50 30 64 31 39 32 40 33
REMARK SMILES IDX 49 35 65 36 42 37 31 38 32 39 36 40 33 41 35 42 34 43 53 44
REMARK SMILES IDX 54 45 58 46 55 47 57 48 56 49 43 50 44 51 48 52 45 53 47 54
REMARK SMILES IDX 46 55 6 56 7 57 8 58 9 59 10 60 11 61 12 62 13 63 21 64
REMARK SMILES IDX 14 65 20 66 15 69 19 70 16 71 18 72 17 73
REMARK H PARENT 63 23 41 34 21 67 21 68
REMARK Flexibility Score: inf
ROOT
ATOM      1  C   UNL     1       4.832   6.049  -1.845  1.00  0.00     0.202 C 
ENDROOT
BRANCH   1   2
ATOM      2  C   UNL     1       4.910   7.098  -2.958  1.00  0.00     0.261 C 
BRANCH   2   3
ATOM      3  O   UNL     1       4.790   8.427  -2.426  1.00  0.00    -0.460 OA
BRANCH   3   4
ATOM      4  C   UNL     1       3.714   9.248  -2.492  1.00  0.00     0.338 C 
ATOM      5  O   UNL     1       3.835  10.409  -2.104  1.00  0.00    -0.246 OA
BRANCH   4   6
ATOM      6  C   UNL     1       2.380   8.829  -3.023  1.00  0.00     0.060 A 
ATOM      7  C   UNL     1       1.884   7.526  -2.988  1.00  0.00     0.016 A 
ATOM      8  C   UNL     1       1.526   9.839  -3.501  1.00  0.00     0.016 A 
ATOM      9  C   UNL     1       0.617   7.215  -3.457  1.00  0.00     0.010 A 
ATOM     10  C   UNL     1       0.224   9.545  -3.926  1.00  0.00     0.010 A 
ATOM     11  C   UNL     1      -0.231   8.223  -3.908  1.00  0.00    -0.014 A 
BRANCH  11  12
ATOM     12  C   UNL     1      -1.569   7.822  -4.380  1.00  0.00     0.031 A 
ATOM     13  C   UNL     1      -1.838   7.771  -5.850  1.00  0.00     0.074 A 
ATOM     14  C   UNL     1      -2.457   7.343  -3.487  1.00  0.00     0.049 A 
ATOM     15  N   UNL     1      -2.919   7.390  -6.477  1.00  0.00    -0.248 NA
ATOM     16  C   UNL     1      -0.737   8.184  -6.736  1.00  0.00     0.031 C 
ATOM     17  C   UNL     1      -2.230   7.248  -2.041  1.00  0.00     0.029 A 
ATOM     18  N   UNL     1      -3.698   6.794  -3.664  1.00  0.00    -0.354 N 
ATOM     19  C   UNL     1      -2.633   7.527  -7.828  1.00  0.00     0.074 A 
ATOM     20  C   UNL     1      -1.284   8.036  -7.933  1.00  0.00     0.031 C 
ATOM     21  C   UNL     1      -3.276   6.630  -1.472  1.00  0.00     0.029 A 
ATOM     22  C   UNL     1      -4.272   6.347  -2.498  1.00  0.00     0.049 A 
ATOM     23  H   UNL     1      -4.137   6.725  -4.543  1.00  0.00     0.167 HD
ATOM     24  C   UNL     1      -3.433   7.253  -8.884  1.00  0.00     0.031 A 
ATOM     25  C   UNL     1      -5.478   5.790  -2.285  1.00  0.00     0.031 A 
ATOM     26  C   UNL     1      -4.781   6.772  -8.757  1.00  0.00     0.049 A 
ATOM     27  C   UNL     1      -6.380   5.588  -3.471  1.00  0.00     0.074 A 
ATOM     28  C   UNL     1      -5.725   6.559  -9.744  1.00  0.00     0.029 A 
ATOM     29  N   UNL     1      -5.372   6.421  -7.550  1.00  0.00    -0.354 N 
ATOM     30  N   UNL     1      -6.132   5.802  -4.742  1.00  0.00    -0.248 NA
ATOM     31  C   UNL     1      -7.730   5.082  -3.194  1.00  0.00     0.031 C 
ATOM     32  C   UNL     1      -6.901   6.112  -9.129  1.00  0.00     0.029 A 
ATOM     33  C   UNL     1      -6.672   6.001  -7.765  1.00  0.00     0.049 A 
ATOM     34  H   UNL     1      -4.930   6.464  -6.671  1.00  0.00     0.167 HD
ATOM     35  C   UNL     1      -7.295   5.461  -5.416  1.00  0.00     0.074 A 
ATOM     36  C   UNL     1      -8.232   4.987  -4.417  1.00  0.00     0.031 C 
ATOM     37  C   UNL     1      -7.574   5.545  -6.740  1.00  0.00     0.031 A 
BRANCH  24  38
ATOM     38  C   UNL     1      -2.876   7.543 -10.247  1.00  0.00    -0.014 A 
ATOM     39  C   UNL     1      -1.909   6.711 -10.833  1.00  0.00     0.009 A 
ATOM     40  C   UNL     1      -3.300   8.687 -10.940  1.00  0.00     0.009 A 
ATOM     41  C   UNL     1      -1.353   7.038 -12.072  1.00  0.00     0.001 A 
ATOM     42  C   UNL     1      -2.758   9.000 -12.188  1.00  0.00     0.001 A 
ATOM     43  C   UNL     1      -1.778   8.182 -12.748  1.00  0.00     0.000 A 
ENDBRANCH  24  38
BRANCH  25  44
ATOM     44  C   UNL     1      -5.926   5.455  -0.906  1.00  0.00    -0.014 A 
ATOM     45  C   UNL     1      -6.179   4.130  -0.524  1.00  0.00     0.009 A 
ATOM     46  C   UNL     1      -6.129   6.478   0.036  1.00  0.00     0.009 A 
ATOM     47  C   UNL     1      -6.651   3.840   0.760  1.00  0.00     0.001 A 
ATOM     48  C   UNL     1      -6.569   6.184   1.328  1.00  0.00     0.001 A 
ATOM     49  C   UNL     1      -6.841   4.866   1.686  1.00  0.00     0.000 A 
ENDBRANCH  25  44
BRANCH  37  50
ATOM     50  C   UNL     1      -8.944   5.104  -7.163  1.00  0.00    -0.014 A 
ATOM     51  C   UNL     1     -10.070   5.899  -6.900  1.00  0.00     0.009 A 
ATOM     52  C   UNL     1      -9.103   3.893  -7.851  1.00  0.00     0.009 A 
ATOM     53  C   UNL     1     -11.339   5.468  -7.287  1.00  0.00     0.001 A 
ATOM     54  C   UNL     1     -10.370   3.478  -8.261  1.00  0.00     0.001 A 
ATOM     55  C   UNL     1     -11.487   4.261  -7.970  1.00  0.00     0.000 A 
ENDBRANCH  37  50
ENDBRANCH  11  12
ENDBRANCH   4   6
ENDBRANCH   3   4
ENDBRANCH   2   3
ENDBRANCH   1   2
BRANCH   1  56
ATOM     56  O   UNL     1       3.739   6.248  -0.946  1.00  0.00    -0.374 OA
BRANCH  56  57
ATOM     57  C   UNL     1       4.041   7.055   0.196  1.00  0.00     0.202 C 
BRANCH  57  58
ATOM     58  C   UNL     1       3.744   6.263   1.471  1.00  0.00     0.261 C 
BRANCH  58  59
ATOM     59  O   UNL     1       4.500   5.041   1.450  1.00  0.00    -0.459 OA
BRANCH  59  60
ATOM     60  C   UNL     1       3.865   3.977   0.869  1.00  0.00     0.364 C 
ATOM     61  O   UNL     1       2.656   3.902   0.677  1.00  0.00    -0.245 OA
BRANCH  60  62
ATOM     62  C   UNL     1       4.849   2.852   0.512  1.00  0.00     0.293 C 
ATOM     63  C   UNL     1       4.566   2.329  -0.902  1.00  0.00     0.078 C 
ATOM     64  N   UNL     1       6.262   3.307   0.582  1.00  0.00    -0.332 N 
ATOM     65  C   UNL     1       5.531   1.216  -1.304  1.00  0.00     0.016 C 
ATOM     66  C   UNL     1       7.165   2.175   0.372  1.00  0.00     0.186 C 
ATOM     67  H   UNL     1       6.440   3.715   1.500  1.00  0.00     0.347 HD
ATOM     68  H   UNL     1       6.426   4.003  -0.145  1.00  0.00     0.347 HD
ATOM     69  C   UNL     1       6.990   1.626  -1.056  1.00  0.00     0.048 C 
ATOM     70  C   UNL     1       8.617   2.599   0.611  1.00  0.00     0.065 C 
ATOM     71  C   UNL     1       7.939   0.446  -1.300  1.00  0.00     0.010 C 
ATOM     72  C   UNL     1       9.557   1.414   0.397  1.00  0.00     0.006 C 
ATOM     73  C   UNL     1       9.392   0.808  -0.994  1.00  0.00     0.001 C 
ENDBRANCH  60  62
ENDBRANCH  59  60
ENDBRANCH  58  59
ENDBRANCH  57  58
ENDBRANCH  56  57
ENDBRANCH   1  56
TORSDOF 14
