REMARK SMILES O=C(OCCOCCOC(=O)c1ccc(-c2c3nc(c(-c4ccccc4)c4ccc([nH]4)c(-c4ccccc4)c4nc(c(-c5ccccc5)c5ccc2[nH]5)C=C4)C=C3)cc1)c1ccc(NS(=O)(=O)C2=Cc3ccccc3CC2)cc1
REMARK SMILES IDX 5 1 4 2 3 3 2 4 1 5 60 6 61 7 79 8 62 9 78 10 63 11 64 12
REMARK SMILES IDX 65 14 66 15 67 16 68 17 69 18 77 19 70 20 76 21 71 22 75 23
REMARK SMILES IDX 72 24 74 25 73 26 6 27 7 28 8 29 9 30 10 31 11 32 12 33
REMARK SMILES IDX 13 34 59 35 14 36 58 37 15 38 16 39 17 40 52 41 18 42 57 43
REMARK SMILES IDX 51 44 53 45 19 46 56 47 50 48 49 49 20 51 42 52 27 53 41 54
REMARK SMILES IDX 28 55 31 56 40 57 54 58 29 59 30 60 39 62 55 63 32 64 21 65
REMARK SMILES IDX 22 66 26 67 23 68 25 69 24 70 43 71 44 72 48 73 45 74 47 75
REMARK SMILES IDX 46 76 33 77 34 78 38 79 35 80 37 81 36 82
REMARK H PARENT 64 13 53 50 31 61
REMARK Flexibility Score: inf
ROOT
ATOM      1  C   UNL     1       4.316  -1.057   0.709  1.00  0.00     0.202 C 
ENDROOT
BRANCH   1   2
ATOM      2  C   UNL     1       4.172   0.305   1.381  1.00  0.00     0.261 C 
BRANCH   2   3
ATOM      3  O   UNL     1       2.853   0.876   1.278  1.00  0.00    -0.460 OA
BRANCH   3   4
ATOM      4  C   UNL     1       2.254   1.594   0.298  1.00  0.00     0.338 C 
ATOM      5  O   UNL     1       1.080   1.925   0.461  1.00  0.00    -0.246 OA
BRANCH   4   6
ATOM      6  C   UNL     1       2.881   1.925  -1.019  1.00  0.00     0.060 A 
ATOM      7  C   UNL     1       4.242   2.016  -1.276  1.00  0.00     0.018 A 
ATOM      8  C   UNL     1       2.007   2.175  -2.095  1.00  0.00     0.018 A 
ATOM      9  C   UNL     1       4.710   2.148  -2.588  1.00  0.00     0.027 A 
ATOM     10  C   UNL     1       2.482   2.288  -3.409  1.00  0.00     0.027 A 
ATOM     11  C   UNL     1       3.843   2.174  -3.669  1.00  0.00     0.049 A 
BRANCH  11  12
ATOM     12  N   UNL     1       4.239   1.901  -5.008  1.00  0.00    -0.280 N 
ATOM     13  H   UNL     1       3.528   1.837  -5.687  1.00  0.00     0.180 HD
BRANCH  12  14
ATOM     14  S   UNL     1       5.827   1.678  -5.525  1.00  0.00     0.258 S 
ATOM     15  O   UNL     1       5.680   1.476  -6.955  1.00  0.00    -0.202 OA
ATOM     16  O   UNL     1       6.572   2.824  -5.043  1.00  0.00    -0.202 OA
BRANCH  14  17
ATOM     17  C   UNL     1       6.453   0.179  -4.761  1.00  0.00     0.066 C 
ATOM     18  C   UNL     1       6.761  -0.823  -5.622  1.00  0.00     0.026 C 
ATOM     19  C   UNL     1       7.540   0.372  -3.715  1.00  0.00     0.055 C 
ATOM     20  C   UNL     1       8.092  -0.639  -6.285  1.00  0.00    -0.021 A 
ATOM     21  C   UNL     1       8.828   0.877  -4.376  1.00  0.00     0.041 C 
ATOM     22  C   UNL     1       8.379  -1.318  -7.469  1.00  0.00     0.008 A 
ATOM     23  C   UNL     1       9.057   0.229  -5.723  1.00  0.00    -0.040 A 
ATOM     24  C   UNL     1       9.578  -1.067  -8.140  1.00  0.00     0.001 A 
ATOM     25  C   UNL     1      10.230   0.512  -6.430  1.00  0.00     0.004 A 
ATOM     26  C   UNL     1      10.483  -0.130  -7.640  1.00  0.00     0.000 A 
ENDBRANCH  14  17
ENDBRANCH  12  14
ENDBRANCH  11  12
ENDBRANCH   4   6
ENDBRANCH   3   4
ENDBRANCH   2   3
ENDBRANCH   1   2
BRANCH   1  27
ATOM     27  O   UNL     1       3.925  -1.058  -0.662  1.00  0.00    -0.374 OA
BRANCH  27  28
ATOM     28  C   UNL     1       2.633  -1.640  -0.888  1.00  0.00     0.202 C 
BRANCH  28  29
ATOM     29  C   UNL     1       2.701  -3.136  -1.218  1.00  0.00     0.261 C 
BRANCH  29  30
ATOM     30  O   UNL     1       3.198  -3.874  -0.088  1.00  0.00    -0.460 OA
BRANCH  30  31
ATOM     31  C   UNL     1       4.511  -4.205  -0.153  1.00  0.00     0.338 C 
ATOM     32  O   UNL     1       5.252  -4.106  -1.112  1.00  0.00    -0.246 OA
BRANCH  31  33
ATOM     33  C   UNL     1       4.988  -4.543   1.206  1.00  0.00     0.060 A 
ATOM     34  C   UNL     1       6.289  -4.149   1.544  1.00  0.00     0.016 A 
ATOM     35  C   UNL     1       4.188  -5.213   2.139  1.00  0.00     0.016 A 
ATOM     36  C   UNL     1       6.807  -4.456   2.799  1.00  0.00     0.010 A 
ATOM     37  C   UNL     1       4.709  -5.521   3.399  1.00  0.00     0.010 A 
ATOM     38  C   UNL     1       6.031  -5.172   3.719  1.00  0.00    -0.014 A 
BRANCH  38  39
ATOM     39  C   UNL     1       6.676  -5.693   4.945  1.00  0.00     0.031 A 
ATOM     40  C   UNL     1       7.170  -7.113   4.948  1.00  0.00     0.074 A 
ATOM     41  C   UNL     1       6.877  -4.896   6.008  1.00  0.00     0.049 A 
ATOM     42  N   UNL     1       7.826  -7.760   5.876  1.00  0.00    -0.248 NA
ATOM     43  C   UNL     1       6.889  -7.908   3.740  1.00  0.00     0.031 C 
ATOM     44  C   UNL     1       6.461  -3.498   6.111  1.00  0.00     0.029 A 
ATOM     45  N   UNL     1       7.494  -5.154   7.206  1.00  0.00    -0.354 N 
ATOM     46  C   UNL     1       8.049  -9.030   5.359  1.00  0.00     0.074 A 
ATOM     47  C   UNL     1       7.419  -9.079   4.059  1.00  0.00     0.031 C 
ATOM     48  C   UNL     1       6.837  -3.019   7.310  1.00  0.00     0.029 A 
ATOM     49  C   UNL     1       7.504  -4.080   8.061  1.00  0.00     0.049 A 
ATOM     50  H   UNL     1       7.892  -6.026   7.431  1.00  0.00     0.167 HD
ATOM     51  C   UNL     1       8.732 -10.060   5.910  1.00  0.00     0.031 A 
ATOM     52  C   UNL     1       7.994  -3.971   9.310  1.00  0.00     0.031 A 
ATOM     53  C   UNL     1       9.332 -10.021   7.216  1.00  0.00     0.049 A 
ATOM     54  C   UNL     1       8.698  -5.151   9.926  1.00  0.00     0.074 A 
ATOM     55  C   UNL     1      10.032 -11.015   7.876  1.00  0.00     0.029 A 
ATOM     56  N   UNL     1       9.293  -8.925   8.064  1.00  0.00    -0.354 N 
ATOM     57  N   UNL     1       8.929  -6.337   9.414  1.00  0.00    -0.248 NA
ATOM     58  C   UNL     1       9.225  -4.970  11.286  1.00  0.00     0.031 C 
ATOM     59  C   UNL     1      10.381 -10.534   9.143  1.00  0.00     0.029 A 
ATOM     60  C   UNL     1       9.944  -9.223   9.249  1.00  0.00     0.049 A 
ATOM     61  H   UNL     1       8.865  -8.064   7.855  1.00  0.00     0.167 HD
ATOM     62  C   UNL     1       9.646  -7.034  10.379  1.00  0.00     0.074 A 
ATOM     63  C   UNL     1       9.832  -6.129  11.495  1.00  0.00     0.031 C 
ATOM     64  C   UNL     1      10.109  -8.308  10.348  1.00  0.00     0.031 A 
BRANCH  51  65
ATOM     65  C   UNL     1       8.844 -11.319   5.099  1.00  0.00    -0.014 A 
ATOM     66  C   UNL     1       9.666 -11.375   3.961  1.00  0.00     0.009 A 
ATOM     67  C   UNL     1       8.131 -12.465   5.479  1.00  0.00     0.009 A 
ATOM     68  C   UNL     1       9.746 -12.545   3.203  1.00  0.00     0.001 A 
ATOM     69  C   UNL     1       8.232 -13.641   4.733  1.00  0.00     0.001 A 
ATOM     70  C   UNL     1       9.032 -13.678   3.592  1.00  0.00     0.000 A 
ENDBRANCH  51  65
BRANCH  52  71
ATOM     71  C   UNL     1       7.833  -2.703  10.070  1.00  0.00    -0.014 A 
ATOM     72  C   UNL     1       8.939  -1.892  10.364  1.00  0.00     0.009 A 
ATOM     73  C   UNL     1       6.564  -2.311  10.527  1.00  0.00     0.009 A 
ATOM     74  C   UNL     1       8.782  -0.731  11.126  1.00  0.00     0.001 A 
ATOM     75  C   UNL     1       6.407  -1.135  11.263  1.00  0.00     0.001 A 
ATOM     76  C   UNL     1       7.517  -0.352  11.572  1.00  0.00     0.000 A 
ENDBRANCH  52  71
BRANCH  64  77
ATOM     77  C   UNL     1      10.882  -8.781  11.547  1.00  0.00    -0.014 A 
ATOM     78  C   UNL     1      10.242  -9.048  12.767  1.00  0.00     0.009 A 
ATOM     79  C   UNL     1      12.266  -8.986  11.444  1.00  0.00     0.009 A 
ATOM     80  C   UNL     1      10.981  -9.470  13.873  1.00  0.00     0.001 A 
ATOM     81  C   UNL     1      12.998  -9.437  12.543  1.00  0.00     0.001 A 
ATOM     82  C   UNL     1      12.357  -9.667  13.759  1.00  0.00     0.000 A 
ENDBRANCH  64  77
ENDBRANCH  38  39
ENDBRANCH  31  33
ENDBRANCH  30  31
ENDBRANCH  29  30
ENDBRANCH  28  29
ENDBRANCH  27  28
ENDBRANCH   1  27
TORSDOF 17
