REMARK SMILES CCS(=O)(=O)Nc1ccc(N2CC[NH+](C)CC2)cc1C(=O)OCCOCCOC(=O)c1ccc(-c2c3nc(c(-c4ccccc4)c4ccc([nH]4)c(-c4ccccc4)c4nc(c(-c5ccccc5)c5ccc2[nH]5)C=C4)C=C3)cc1
REMARK SMILES IDX 24 1 23 2 22 3 20 4 21 5 19 6 7 7 8 8 9 9 18 10 10 11 6 12
REMARK SMILES IDX 3 14 4 15 5 16 2 17 1 18 11 19 12 20 17 21 13 22 16 23 14 24
REMARK SMILES IDX 15 25 25 27 26 28 27 29 28 30 29 31 30 32 31 33 32 34 78 35
REMARK SMILES IDX 33 36 77 37 34 38 35 39 36 40 71 41 37 42 76 43 70 44 72 45
REMARK SMILES IDX 38 46 75 47 69 48 68 49 39 51 61 52 46 53 60 54 47 55 50 56
REMARK SMILES IDX 59 57 73 58 48 59 49 60 58 62 74 63 51 64 40 65 41 66 45 67
REMARK SMILES IDX 42 68 44 69 43 70 62 71 63 72 67 73 64 74 66 75 65 76 52 77
REMARK SMILES IDX 53 78 57 79 54 80 56 81 55 82
REMARK H PARENT 6 13 14 26 72 50 50 61
REMARK Flexibility Score: inf
ROOT
ATOM      1  C   UNL     1      -0.004  -1.400   2.961  1.00  0.00     0.202 C 
ENDROOT
BRANCH   1   2
ATOM      2  C   UNL     1      -0.053  -0.957   1.497  1.00  0.00     0.261 C 
BRANCH   2   3
ATOM      3  O   UNL     1       1.213  -0.962   0.822  1.00  0.00    -0.460 OA
BRANCH   3   4
ATOM      4  C   UNL     1       1.753   0.271   0.648  1.00  0.00     0.340 C 
ATOM      5  O   UNL     1       1.340   1.312   1.140  1.00  0.00    -0.246 OA
BRANCH   4   6
ATOM      6  C   UNL     1       2.933   0.247  -0.244  1.00  0.00     0.086 A 
ATOM      7  C   UNL     1       3.063  -0.615  -1.343  1.00  0.00     0.063 A 
ATOM      8  C   UNL     1       4.100  -0.395  -2.248  1.00  0.00     0.030 A 
ATOM      9  C   UNL     1       5.023   0.646  -2.022  1.00  0.00     0.028 A 
ATOM     10  C   UNL     1       3.875   1.262  -0.025  1.00  0.00     0.043 A 
ATOM     11  C   UNL     1       4.946   1.474  -0.892  1.00  0.00     0.038 A 
BRANCH   7  12
ATOM     12  N   UNL     1       2.190  -1.730  -1.496  1.00  0.00    -0.283 N 
ATOM     13  H   UNL     1       2.314  -2.486  -0.877  1.00  0.00     0.180 HD
BRANCH  12  14
ATOM     14  S   UNL     1       0.984  -1.866  -2.625  1.00  0.00     0.232 S 
ATOM     15  O   UNL     1      -0.101  -2.498  -1.900  1.00  0.00    -0.207 OA
ATOM     16  O   UNL     1       1.553  -2.516  -3.788  1.00  0.00    -0.207 OA
BRANCH  14  17
ATOM     17  C   UNL     1       0.408  -0.253  -3.152  1.00  0.00     0.156 C 
ATOM     18  C   UNL     1       0.108   0.766  -2.081  1.00  0.00     0.023 C 
ENDBRANCH  14  17
ENDBRANCH  12  14
ENDBRANCH   7  12
BRANCH  11  19
ATOM     19  N   UNL     1       5.856   2.472  -0.634  1.00  0.00    -0.360 N 
ATOM     20  C   UNL     1       6.399   2.716   0.713  1.00  0.00     0.178 C 
ATOM     21  C   UNL     1       6.321   3.404  -1.668  1.00  0.00     0.178 C 
ATOM     22  C   UNL     1       6.204   4.192   1.128  1.00  0.00     0.283 C 
ATOM     23  C   UNL     1       6.127   4.868  -1.188  1.00  0.00     0.283 C 
ATOM     24  N   UNL     1       6.749   5.138   0.129  1.00  0.00    -0.334 N 
ATOM     25  C   UNL     1       6.507   6.519   0.546  1.00  0.00     0.332 C 
ATOM     26  H   UNL     1       7.758   5.009   0.054  1.00  0.00     0.347 HD
ENDBRANCH  11  19
ENDBRANCH   4   6
ENDBRANCH   3   4
ENDBRANCH   2   3
ENDBRANCH   1   2
BRANCH   1  27
ATOM     27  O   UNL     1       0.941  -0.792   3.829  1.00  0.00    -0.374 OA
BRANCH  27  28
ATOM     28  C   UNL     1       2.331  -1.012   3.614  1.00  0.00     0.202 C 
BRANCH  28  29
ATOM     29  C   UNL     1       2.877  -2.444   3.668  1.00  0.00     0.261 C 
BRANCH  29  30
ATOM     30  O   UNL     1       2.303  -3.329   2.689  1.00  0.00    -0.460 OA
BRANCH  30  31
ATOM     31  C   UNL     1       1.578  -4.343   3.219  1.00  0.00     0.338 C 
ATOM     32  O   UNL     1       1.350  -4.554   4.403  1.00  0.00    -0.246 OA
BRANCH  31  33
ATOM     33  C   UNL     1       0.956  -5.155   2.165  1.00  0.00     0.060 A 
ATOM     34  C   UNL     1      -0.442  -5.262   2.151  1.00  0.00     0.016 A 
ATOM     35  C   UNL     1       1.745  -5.960   1.344  1.00  0.00     0.016 A 
ATOM     36  C   UNL     1      -1.056  -6.233   1.363  1.00  0.00     0.010 A 
ATOM     37  C   UNL     1       1.129  -6.941   0.565  1.00  0.00     0.010 A 
ATOM     38  C   UNL     1      -0.267  -7.116   0.615  1.00  0.00    -0.014 A 
BRANCH  38  39
ATOM     39  C   UNL     1      -0.863  -8.352   0.062  1.00  0.00     0.031 A 
ATOM     40  C   UNL     1      -0.753  -9.623   0.860  1.00  0.00     0.074 A 
ATOM     41  C   UNL     1      -1.489  -8.351  -1.126  1.00  0.00     0.049 A 
ATOM     42  N   UNL     1      -1.099 -10.842   0.534  1.00  0.00    -0.248 NA
ATOM     43  C   UNL     1      -0.169  -9.500   2.206  1.00  0.00     0.031 C 
ATOM     44  C   UNL     1      -1.721  -7.175  -1.961  1.00  0.00     0.029 A 
ATOM     45  N   UNL     1      -2.034  -9.390  -1.837  1.00  0.00    -0.354 N 
ATOM     46  C   UNL     1      -0.756 -11.633   1.624  1.00  0.00     0.074 A 
ATOM     47  C   UNL     1      -0.164 -10.760   2.614  1.00  0.00     0.031 C 
ATOM     48  C   UNL     1      -2.355  -7.561  -3.082  1.00  0.00     0.029 A 
ATOM     49  C   UNL     1      -2.532  -9.012  -3.058  1.00  0.00     0.049 A 
ATOM     50  H   UNL     1      -2.064 -10.316  -1.504  1.00  0.00     0.167 HD
ATOM     51  C   UNL     1      -0.914 -12.968   1.785  1.00  0.00     0.031 A 
ATOM     52  C   UNL     1      -3.045  -9.759  -4.053  1.00  0.00     0.031 A 
ATOM     53  C   UNL     1      -1.488 -13.838   0.796  1.00  0.00     0.049 A 
ATOM     54  C   UNL     1      -3.126 -11.253  -3.892  1.00  0.00     0.074 A 
ATOM     55  C   UNL     1      -1.694 -15.205   0.861  1.00  0.00     0.029 A 
ATOM     56  N   UNL     1      -1.941 -13.421  -0.446  1.00  0.00    -0.354 N 
ATOM     57  N   UNL     1      -2.794 -11.994  -2.863  1.00  0.00    -0.248 NA
ATOM     58  C   UNL     1      -3.650 -12.014  -5.037  1.00  0.00     0.031 C 
ATOM     59  C   UNL     1      -2.232 -15.622  -0.362  1.00  0.00     0.029 A 
ATOM     60  C   UNL     1      -2.405 -14.507  -1.167  1.00  0.00     0.049 A 
ATOM     61  H   UNL     1      -1.933 -12.491  -0.768  1.00  0.00     0.167 HD
ATOM     62  C   UNL     1      -3.097 -13.302  -3.221  1.00  0.00     0.074 A 
ATOM     63  C   UNL     1      -3.639 -13.254  -4.564  1.00  0.00     0.031 C 
ATOM     64  C   UNL     1      -2.948 -14.439  -2.499  1.00  0.00     0.031 A 
BRANCH  51  65
ATOM     65  C   UNL     1      -0.407 -13.566   3.066  1.00  0.00    -0.014 A 
ATOM     66  C   UNL     1      -1.074 -13.361   4.284  1.00  0.00     0.009 A 
ATOM     67  C   UNL     1       0.761 -14.344   3.053  1.00  0.00     0.009 A 
ATOM     68  C   UNL     1      -0.557 -13.889   5.469  1.00  0.00     0.001 A 
ATOM     69  C   UNL     1       1.261 -14.891   4.235  1.00  0.00     0.001 A 
ATOM     70  C   UNL     1       0.609 -14.654   5.444  1.00  0.00     0.000 A 
ENDBRANCH  51  65
BRANCH  52  71
ATOM     71  C   UNL     1      -3.508  -9.104  -5.301  1.00  0.00    -0.014 A 
ATOM     72  C   UNL     1      -4.879  -9.001  -5.582  1.00  0.00     0.009 A 
ATOM     73  C   UNL     1      -2.584  -8.568  -6.212  1.00  0.00     0.009 A 
ATOM     74  C   UNL     1      -5.314  -8.384  -6.757  1.00  0.00     0.001 A 
ATOM     75  C   UNL     1      -3.024  -7.932  -7.375  1.00  0.00     0.001 A 
ATOM     76  C   UNL     1      -4.388  -7.845  -7.648  1.00  0.00     0.000 A 
ENDBRANCH  52  71
BRANCH  64  77
ATOM     77  C   UNL     1      -3.421 -15.720  -3.122  1.00  0.00    -0.014 A 
ATOM     78  C   UNL     1      -2.676 -16.366  -4.119  1.00  0.00     0.009 A 
ATOM     79  C   UNL     1      -4.602 -16.320  -2.655  1.00  0.00     0.009 A 
ATOM     80  C   UNL     1      -3.116 -17.580  -4.651  1.00  0.00     0.001 A 
ATOM     81  C   UNL     1      -5.027 -17.544  -3.172  1.00  0.00     0.001 A 
ATOM     82  C   UNL     1      -4.287 -18.170  -4.174  1.00  0.00     0.000 A 
ENDBRANCH  64  77
ENDBRANCH  38  39
ENDBRANCH  31  33
ENDBRANCH  30  31
ENDBRANCH  29  30
ENDBRANCH  28  29
ENDBRANCH  27  28
ENDBRANCH   1  27
TORSDOF 18
