REMARK SMILES O=C(Cn1cccc1C(=O)NCCC1CCCCC1)OCCOCCOC(=O)c1ccc(-c2c3nc(c(-c4ccccc4)c4ccc([nH]4)c(-c4ccccc4)c4nc(c(-c5ccccc5)c5ccc2[nH]5)C=C4)C=C3)cc1
REMARK SMILES IDX 21 1 20 2 2 3 1 4 3 5 4 6 5 7 8 8 6 9 7 10 9 11 10 12 11 13
REMARK SMILES IDX 12 15 13 16 14 17 15 18 19 19 16 20 18 21 17 22 22 23 23 24
REMARK SMILES IDX 24 25 25 26 26 27 27 28 28 29 29 30 30 31 76 32 31 33 75 34
REMARK SMILES IDX 32 35 33 36 34 37 69 38 35 39 74 40 68 41 70 42 36 43 73 44
REMARK SMILES IDX 67 45 66 46 37 48 59 49 44 50 58 51 45 52 48 53 57 54 71 55
REMARK SMILES IDX 46 56 47 57 56 59 72 60 49 61 38 62 39 63 43 64 40 65 42 66
REMARK SMILES IDX 41 67 60 68 61 69 65 70 62 71 64 72 63 73 50 74 51 75 55 76
REMARK SMILES IDX 52 77 54 78 53 79
REMARK H PARENT 11 14 70 47 48 58
REMARK Flexibility Score: inf
ROOT
ATOM      1  C   UNL     1       4.950   0.825  -1.153  1.00  0.00     0.261 C 
ENDROOT
BRANCH   1   2
ATOM      2  O   UNL     1       3.622   0.324  -1.320  1.00  0.00    -0.462 OA
BRANCH   2   3
ATOM      3  C   UNL     1       3.342  -0.986  -1.086  1.00  0.00     0.326 C 
ATOM      4  O   UNL     1       2.336  -1.476  -1.593  1.00  0.00    -0.250 OA
BRANCH   3   5
ATOM      5  C   UNL     1       4.207  -1.722  -0.074  1.00  0.00     0.244 C 
BRANCH   5   6
ATOM      6  N   UNL     1       4.357  -3.114  -0.423  1.00  0.00    -0.332 N 
ATOM      7  C   UNL     1       5.438  -3.478  -1.205  1.00  0.00     0.087 A 
ATOM      8  C   UNL     1       3.638  -4.219  -0.010  1.00  0.00     0.107 A 
ATOM      9  C   UNL     1       5.438  -4.836  -1.333  1.00  0.00     0.020 A 
ATOM     10  C   UNL     1       4.325  -5.292  -0.603  1.00  0.00     0.033 A 
BRANCH   8  11
ATOM     11  C   UNL     1       2.467  -4.468   0.838  1.00  0.00     0.267 C 
ATOM     12  O   UNL     1       2.162  -5.639   1.109  1.00  0.00    -0.268 OA
ATOM     13  N   UNL     1       1.594  -3.596   1.428  1.00  0.00    -0.351 N 
ATOM     14  H   UNL     1       0.908  -4.098   1.925  1.00  0.00     0.163 HD
BRANCH  13  15
ATOM     15  C   UNL     1       1.354  -2.174   1.559  1.00  0.00     0.116 C 
BRANCH  15  16
ATOM     16  C   UNL     1      -0.116  -1.767   1.396  1.00  0.00     0.025 C 
BRANCH  16  17
ATOM     17  C   UNL     1      -1.043  -1.842   2.627  1.00  0.00    -0.009 C 
ATOM     18  C   UNL     1      -1.002  -3.189   3.355  1.00  0.00     0.003 C 
ATOM     19  C   UNL     1      -0.814  -0.691   3.623  1.00  0.00     0.003 C 
ATOM     20  C   UNL     1      -2.024  -3.242   4.489  1.00  0.00     0.000 C 
ATOM     21  C   UNL     1      -1.832  -0.739   4.767  1.00  0.00     0.000 C 
ATOM     22  C   UNL     1      -1.831  -2.092   5.473  1.00  0.00     0.000 C 
ENDBRANCH  16  17
ENDBRANCH  15  16
ENDBRANCH  13  15
ENDBRANCH   8  11
ENDBRANCH   5   6
ENDBRANCH   3   5
ENDBRANCH   2   3
ENDBRANCH   1   2
BRANCH   1  23
ATOM     23  C   UNL     1       5.211   1.407   0.237  1.00  0.00     0.202 C 
BRANCH  23  24
ATOM     24  O   UNL     1       4.719   0.669   1.358  1.00  0.00    -0.374 OA
BRANCH  24  25
ATOM     25  C   UNL     1       3.336   0.792   1.705  1.00  0.00     0.202 C 
BRANCH  25  26
ATOM     26  C   UNL     1       2.915   1.961   2.579  1.00  0.00     0.261 C 
BRANCH  26  27
ATOM     27  O   UNL     1       3.110   3.189   1.902  1.00  0.00    -0.460 OA
BRANCH  27  28
ATOM     28  C   UNL     1       4.324   3.710   2.135  1.00  0.00     0.338 C 
ATOM     29  O   UNL     1       5.259   3.221   2.766  1.00  0.00    -0.246 OA
BRANCH  28  30
ATOM     30  C   UNL     1       4.410   5.001   1.488  1.00  0.00     0.060 A 
ATOM     31  C   UNL     1       5.666   5.402   1.020  1.00  0.00     0.016 A 
ATOM     32  C   UNL     1       3.318   5.866   1.600  1.00  0.00     0.016 A 
ATOM     33  C   UNL     1       5.880   6.741   0.807  1.00  0.00     0.010 A 
ATOM     34  C   UNL     1       3.547   7.208   1.439  1.00  0.00     0.010 A 
ATOM     35  C   UNL     1       4.838   7.628   1.095  1.00  0.00    -0.014 A 
BRANCH  35  36
ATOM     36  C   UNL     1       5.106   9.059   1.011  1.00  0.00     0.031 A 
ATOM     37  C   UNL     1       4.766   9.616  -0.354  1.00  0.00     0.074 A 
ATOM     38  C   UNL     1       5.603   9.616   2.151  1.00  0.00     0.049 A 
ATOM     39  N   UNL     1       5.120  10.741  -0.883  1.00  0.00    -0.248 NA
ATOM     40  C   UNL     1       3.946   8.798  -1.290  1.00  0.00     0.031 C 
ATOM     41  C   UNL     1       5.877   8.864   3.398  1.00  0.00     0.029 A 
ATOM     42  N   UNL     1       5.981  10.889   2.505  1.00  0.00    -0.354 N 
ATOM     43  C   UNL     1       4.445  10.846  -2.108  1.00  0.00     0.074 A 
ATOM     44  C   UNL     1       3.811   9.587  -2.353  1.00  0.00     0.031 C 
ATOM     45  C   UNL     1       6.429   9.666   4.328  1.00  0.00     0.029 A 
ATOM     46  C   UNL     1       6.534  11.011   3.800  1.00  0.00     0.049 A 
ATOM     47  H   UNL     1       5.873  11.660   1.902  1.00  0.00     0.167 HD
ATOM     48  C   UNL     1       4.337  12.013  -2.795  1.00  0.00     0.031 A 
ATOM     49  C   UNL     1       7.070  12.111   4.404  1.00  0.00     0.031 A 
ATOM     50  C   UNL     1       5.126  13.039  -2.200  1.00  0.00     0.049 A 
ATOM     51  C   UNL     1       6.827  13.249   3.499  1.00  0.00     0.074 A 
ATOM     52  C   UNL     1       6.481  13.238  -2.122  1.00  0.00     0.029 A 
ATOM     53  N   UNL     1       4.511  13.828  -1.259  1.00  0.00    -0.354 N 
ATOM     54  N   UNL     1       5.667  13.792   3.286  1.00  0.00    -0.248 NA
ATOM     55  C   UNL     1       7.934  13.773   2.692  1.00  0.00     0.031 C 
ATOM     56  C   UNL     1       6.676  13.826  -0.850  1.00  0.00     0.029 A 
ATOM     57  C   UNL     1       5.431  14.059  -0.261  1.00  0.00     0.049 A 
ATOM     58  H   UNL     1       3.586  14.164  -1.292  1.00  0.00     0.167 HD
ATOM     59  C   UNL     1       5.843  14.420   2.075  1.00  0.00     0.074 A 
ATOM     60  C   UNL     1       7.265  14.638   1.932  1.00  0.00     0.031 C 
ATOM     61  C   UNL     1       4.931  14.246   1.084  1.00  0.00     0.031 A 
BRANCH  48  62
ATOM     62  C   UNL     1       3.373  12.362  -3.881  1.00  0.00    -0.014 A 
ATOM     63  C   UNL     1       3.671  13.476  -4.691  1.00  0.00     0.009 A 
ATOM     64  C   UNL     1       2.078  11.830  -3.955  1.00  0.00     0.009 A 
ATOM     65  C   UNL     1       2.696  14.079  -5.486  1.00  0.00     0.001 A 
ATOM     66  C   UNL     1       1.109  12.414  -4.779  1.00  0.00     0.001 A 
ATOM     67  C   UNL     1       1.410  13.553  -5.521  1.00  0.00     0.000 A 
ENDBRANCH  48  62
BRANCH  49  68
ATOM     68  C   UNL     1       7.846  12.386   5.661  1.00  0.00    -0.014 A 
ATOM     69  C   UNL     1       8.062  11.477   6.702  1.00  0.00     0.009 A 
ATOM     70  C   UNL     1       8.467  13.652   5.817  1.00  0.00     0.009 A 
ATOM     71  C   UNL     1       8.906  11.789   7.786  1.00  0.00     0.001 A 
ATOM     72  C   UNL     1       9.328  13.959   6.874  1.00  0.00     0.001 A 
ATOM     73  C   UNL     1       9.558  13.017   7.859  1.00  0.00     0.000 A 
ENDBRANCH  49  68
BRANCH  61  74
ATOM     74  C   UNL     1       3.559  13.798   1.561  1.00  0.00    -0.014 A 
ATOM     75  C   UNL     1       2.791  14.620   2.397  1.00  0.00     0.009 A 
ATOM     76  C   UNL     1       3.063  12.509   1.295  1.00  0.00     0.009 A 
ATOM     77  C   UNL     1       1.591  14.163   2.960  1.00  0.00     0.001 A 
ATOM     78  C   UNL     1       1.863  12.048   1.852  1.00  0.00     0.001 A 
ATOM     79  C   UNL     1       1.129  12.876   2.692  1.00  0.00     0.000 A 
ENDBRANCH  61  74
ENDBRANCH  35  36
ENDBRANCH  28  30
ENDBRANCH  27  28
ENDBRANCH  26  27
ENDBRANCH  25  26
ENDBRANCH  24  25
ENDBRANCH  23  24
ENDBRANCH   1  23
TORSDOF 19
