REMARK SMILES COc1ccc(C(=O)OCCOCCOC(=O)c2ccc(-c3c4nc(c(-c5ccccc5)c5ccc([nH]5)c(-c5ccccc5)c5nc(c(-c6ccccc6)c6ccc3[nH]6)C=C5)C=C4)cc2)cc1NC(=S)NC(=O)c1cccc(C)c1OC
REMARK SMILES IDX 10 1 9 2 7 3 8 4 6 5 3 6 4 7 67 8 5 9 66 10 2 11 1 12 68 13
REMARK SMILES IDX 69 15 70 16 71 17 72 18 73 20 74 21 75 22 80 23 76 24 78 25
REMARK SMILES IDX 77 26 79 27 81 28 82 29 11 30 12 31 13 32 14 33 15 34 16 35
REMARK SMILES IDX 17 36 18 37 19 38 65 39 20 40 64 41 21 42 22 43 23 44 58 45
REMARK SMILES IDX 24 46 63 47 57 48 59 49 25 50 62 51 56 52 55 53 26 55 48 56
REMARK SMILES IDX 33 57 47 58 34 59 37 60 46 61 60 62 35 63 36 64 45 66 61 67
REMARK SMILES IDX 38 68 27 69 28 70 32 71 29 72 31 73 30 74 49 75 50 76 54 77
REMARK SMILES IDX 51 78 53 79 52 80 39 81 40 82 44 83 41 84 43 85 42 86
REMARK H PARENT 68 14 71 19 59 54 37 65
REMARK Flexibility Score: inf
ROOT
ATOM      1  C   UNL     1       2.024  -5.210  -6.274  1.00  0.00     0.261 C 
ENDROOT
BRANCH   1   2
ATOM      2  O   UNL     1       2.147  -4.704  -4.906  1.00  0.00    -0.460 OA
BRANCH   2   3
ATOM      3  C   UNL     1       1.113  -3.842  -4.200  1.00  0.00     0.338 C 
ATOM      4  O   UNL     1       0.341  -3.598  -5.162  1.00  0.00    -0.246 OA
BRANCH   3   5
ATOM      5  C   UNL     1       1.135  -3.297  -2.112  1.00  0.00     0.062 A 
ATOM      6  C   UNL     1       1.455  -1.673   0.345  1.00  0.00     0.142 A 
ATOM      7  C   UNL     1       0.210  -2.176   0.063  1.00  0.00     0.049 A 
ATOM      8  C   UNL     1       2.522  -2.216  -0.320  1.00  0.00     0.084 A 
ATOM      9  C   UNL     1       0.059  -2.918  -1.130  1.00  0.00     0.019 A 
ATOM     10  C   UNL     1       2.255  -3.266  -1.159  1.00  0.00     0.045 A 
BRANCH   6  11
ATOM     11  O   UNL     1       1.599  -0.699   1.280  1.00  0.00    -0.495 OA
ATOM     12  C   UNL     1       1.371   0.570   0.660  1.00  0.00     0.278 C 
ENDBRANCH   6  11
BRANCH   8  13
ATOM     13  N   UNL     1       3.838  -1.772  -0.188  1.00  0.00    -0.329 N 
ATOM     14  H   UNL     1       3.975  -1.157   0.569  1.00  0.00     0.169 HD
BRANCH  13  15
ATOM     15  C   UNL     1       4.963  -2.019  -0.898  1.00  0.00     0.177 C 
ATOM     16  S   UNL     1       6.394  -1.379  -0.293  1.00  0.00    -0.040 S 
BRANCH  15  17
ATOM     17  N   UNL     1       5.069  -2.716  -2.096  1.00  0.00    -0.299 N 
ATOM     18  C   UNL     1       4.416  -3.381  -3.170  1.00  0.00     0.261 C 
ATOM     19  H   UNL     1       6.033  -2.775  -2.289  1.00  0.00     0.172 HD
ATOM     20  O   UNL     1       5.090  -4.007  -3.986  1.00  0.00    -0.269 OA
BRANCH  18  21
ATOM     21  C   UNL     1       2.952  -3.418  -3.310  1.00  0.00     0.082 A 
ATOM     22  C   UNL     1       2.120  -5.011  -2.821  1.00  0.00     0.018 A 
ATOM     23  C   UNL     1       1.932  -1.974  -3.657  1.00  0.00     0.134 A 
ATOM     24  C   UNL     1       0.295  -5.123  -2.812  1.00  0.00     0.001 A 
ATOM     25  C   UNL     1       0.126  -2.077  -3.576  1.00  0.00    -0.008 A 
ATOM     26  C   UNL     1      -0.709  -3.673  -3.242  1.00  0.00     0.007 A 
ATOM     27  C   UNL     1      -0.662  -0.800  -3.471  1.00  0.00     0.048 C 
BRANCH  23  28
ATOM     28  O   UNL     1       2.354  -0.705  -3.940  1.00  0.00    -0.496 OA
ATOM     29  C   UNL     1       3.742  -0.461  -3.999  1.00  0.00     0.278 C 
ENDBRANCH  23  28
ENDBRANCH  18  21
ENDBRANCH  15  17
ENDBRANCH  13  15
ENDBRANCH   8  13
ENDBRANCH   3   5
ENDBRANCH   2   3
ENDBRANCH   1   2
BRANCH   1  30
ATOM     30  C   UNL     1       2.426  -6.704  -6.348  1.00  0.00     0.202 C 
BRANCH  30  31
ATOM     31  O   UNL     1       1.502  -7.710  -5.904  1.00  0.00    -0.374 OA
BRANCH  31  32
ATOM     32  C   UNL     1       1.182  -7.686  -4.523  1.00  0.00     0.202 C 
BRANCH  32  33
ATOM     33  C   UNL     1       2.155  -8.337  -3.524  1.00  0.00     0.261 C 
BRANCH  33  34
ATOM     34  O   UNL     1       3.516  -7.890  -3.663  1.00  0.00    -0.460 OA
BRANCH  34  35
ATOM     35  C   UNL     1       4.281  -8.726  -4.403  1.00  0.00     0.338 C 
ATOM     36  O   UNL     1       3.957  -9.817  -4.843  1.00  0.00    -0.246 OA
BRANCH  35  37
ATOM     37  C   UNL     1       5.561  -8.098  -4.777  1.00  0.00     0.060 A 
ATOM     38  C   UNL     1       5.841  -8.023  -6.146  1.00  0.00     0.016 A 
ATOM     39  C   UNL     1       6.529  -7.750  -3.834  1.00  0.00     0.016 A 
ATOM     40  C   UNL     1       7.117  -7.686  -6.582  1.00  0.00     0.010 A 
ATOM     41  C   UNL     1       7.813  -7.406  -4.276  1.00  0.00     0.010 A 
ATOM     42  C   UNL     1       8.128  -7.424  -5.649  1.00  0.00    -0.014 A 
BRANCH  42  43
ATOM     43  C   UNL     1       9.531  -7.284  -6.114  1.00  0.00     0.031 A 
ATOM     44  C   UNL     1      10.523  -8.385  -5.846  1.00  0.00     0.074 A 
ATOM     45  C   UNL     1       9.912  -6.197  -6.809  1.00  0.00     0.049 A 
ATOM     46  N   UNL     1      11.795  -8.451  -6.153  1.00  0.00    -0.248 NA
ATOM     47  C   UNL     1      10.015  -9.567  -5.133  1.00  0.00     0.031 C 
ATOM     48  C   UNL     1       9.037  -5.090  -7.188  1.00  0.00     0.029 A 
ATOM     49  N   UNL     1      11.136  -5.854  -7.324  1.00  0.00    -0.354 N 
ATOM     50  C   UNL     1      12.244  -9.667  -5.651  1.00  0.00     0.074 A 
ATOM     51  C   UNL     1      11.116 -10.288  -4.988  1.00  0.00     0.031 C 
ATOM     52  C   UNL     1       9.749  -4.196  -7.893  1.00  0.00     0.029 A 
ATOM     53  C   UNL     1      11.139  -4.641  -7.965  1.00  0.00     0.049 A 
ATOM     54  H   UNL     1      11.936  -6.423  -7.242  1.00  0.00     0.167 HD
ATOM     55  C   UNL     1      13.480 -10.219  -5.734  1.00  0.00     0.031 A 
ATOM     56  C   UNL     1      12.150  -3.954  -8.529  1.00  0.00     0.031 A 
ATOM     57  C   UNL     1      14.606  -9.585  -6.373  1.00  0.00     0.049 A 
ATOM     58  C   UNL     1      13.538  -4.537  -8.513  1.00  0.00     0.074 A 
ATOM     59  C   UNL     1      15.894 -10.069  -6.527  1.00  0.00     0.029 A 
ATOM     60  N   UNL     1      14.584  -8.322  -6.946  1.00  0.00    -0.354 N 
ATOM     61  N   UNL     1      13.945  -5.699  -8.062  1.00  0.00    -0.248 NA
ATOM     62  C   UNL     1      14.605  -3.710  -9.093  1.00  0.00     0.031 C 
ATOM     63  C   UNL     1      16.672  -9.062  -7.109  1.00  0.00     0.029 A 
ATOM     64  C   UNL     1      15.847  -7.991  -7.410  1.00  0.00     0.049 A 
ATOM     65  H   UNL     1      13.788  -7.746  -7.013  1.00  0.00     0.167 HD
ATOM     66  C   UNL     1      15.305  -5.760  -8.341  1.00  0.00     0.074 A 
ATOM     67  C   UNL     1      15.649  -4.524  -9.013  1.00  0.00     0.031 C 
ATOM     68  C   UNL     1      16.187  -6.755  -8.072  1.00  0.00     0.031 A 
BRANCH  55  69
ATOM     69  C   UNL     1      13.693 -11.549  -5.056  1.00  0.00    -0.014 A 
ATOM     70  C   UNL     1      13.041 -12.716  -5.488  1.00  0.00     0.009 A 
ATOM     71  C   UNL     1      14.569 -11.636  -3.962  1.00  0.00     0.009 A 
ATOM     72  C   UNL     1      13.212 -13.921  -4.801  1.00  0.00     0.001 A 
ATOM     73  C   UNL     1      14.773 -12.850  -3.304  1.00  0.00     0.001 A 
ATOM     74  C   UNL     1      14.080 -13.988  -3.712  1.00  0.00     0.000 A 
ENDBRANCH  55  69
BRANCH  56  75
ATOM     75  C   UNL     1      11.892  -2.634  -9.163  1.00  0.00    -0.014 A 
ATOM     76  C   UNL     1      12.044  -2.470 -10.548  1.00  0.00     0.009 A 
ATOM     77  C   UNL     1      11.502  -1.529  -8.389  1.00  0.00     0.009 A 
ATOM     78  C   UNL     1      11.839  -1.222 -11.141  1.00  0.00     0.001 A 
ATOM     79  C   UNL     1      11.261  -0.292  -8.989  1.00  0.00     0.001 A 
ATOM     80  C   UNL     1      11.441  -0.137 -10.362  1.00  0.00     0.000 A 
ENDBRANCH  56  75
BRANCH  68  81
ATOM     81  C   UNL     1      17.605  -6.574  -8.548  1.00  0.00    -0.014 A 
ATOM     82  C   UNL     1      18.453  -5.599  -8.000  1.00  0.00     0.009 A 
ATOM     83  C   UNL     1      18.111  -7.424  -9.546  1.00  0.00     0.009 A 
ATOM     84  C   UNL     1      19.761  -5.451  -8.470  1.00  0.00     0.001 A 
ATOM     85  C   UNL     1      19.430  -7.303  -9.984  1.00  0.00     0.001 A 
ATOM     86  C   UNL     1      20.250  -6.308  -9.456  1.00  0.00     0.000 A 
ENDBRANCH  68  81
ENDBRANCH  42  43
ENDBRANCH  35  37
ENDBRANCH  34  35
ENDBRANCH  33  34
ENDBRANCH  32  33
ENDBRANCH  31  32
ENDBRANCH  30  31
ENDBRANCH   1  30
TORSDOF 20
