REMARK SMILES [NH3+][C@H]1CN(C(=O)OCC2c3ccccc3-c3ccccc32)C[C@@H]1C(=O)OCCOCCOC(=O)c1ccc(-c2c3nc(c(-c4ccccc4)c4ccc([nH]4)c(-c4ccccc4)c4nc(c(-c5ccccc5)c5ccc2[nH]5)C=C4)C=C3)cc1
REMARK SMILES IDX 28 1 27 2 26 3 24 4 25 5 23 6 2 7 3 8 4 9 22 10 1 11 5 15
REMARK SMILES IDX 6 16 7 17 8 18 9 19 10 20 21 21 11 22 15 23 16 24 20 25
REMARK SMILES IDX 12 26 14 27 17 28 19 29 13 30 18 31 29 32 30 33 31 34 32 35
REMARK SMILES IDX 33 36 34 37 35 38 36 39 82 40 37 41 81 42 38 43 39 44 40 45
REMARK SMILES IDX 75 46 41 47 80 48 74 49 76 50 42 51 79 52 73 53 72 54 43 56
REMARK SMILES IDX 65 57 50 58 64 59 51 60 54 61 63 62 77 63 52 64 53 65 62 67
REMARK SMILES IDX 78 68 55 69 44 70 45 71 49 72 46 73 48 74 47 75 66 76 67 77
REMARK SMILES IDX 71 78 68 79 70 80 69 81 56 82 57 83 61 84 58 85 60 86 59 87
REMARK H PARENT 1 12 1 13 1 14 76 55 54 66
REMARK Flexibility Score: inf
ROOT
ATOM      1  C   UNL     1       4.116  -3.474  -1.321  1.00  0.00     0.202 C 
ENDROOT
BRANCH   1   2
ATOM      2  C   UNL     1       4.226  -2.747   0.022  1.00  0.00     0.261 C 
BRANCH   2   3
ATOM      3  O   UNL     1       2.968  -2.716   0.708  1.00  0.00    -0.463 OA
BRANCH   3   4
ATOM      4  C   UNL     1       2.376  -1.491   0.799  1.00  0.00     0.316 C 
ATOM      5  O   UNL     1       2.854  -0.443   0.387  1.00  0.00    -0.252 OA
BRANCH   4   6
ATOM      6  C   UNL     1       0.984  -1.620   1.388  1.00  0.00     0.178 C 
ATOM      7  C   UNL     1       0.388  -0.228   1.670  1.00  0.00     0.216 C 
ATOM      8  C   UNL     1       1.032   0.150   3.030  1.00  0.00     0.188 C 
ATOM      9  N   UNL     1       1.530  -1.111   3.566  1.00  0.00    -0.301 N 
ATOM     10  C   UNL     1       1.079  -2.228   2.770  1.00  0.00     0.145 C 
BRANCH   7  11
ATOM     11  N   UNL     1      -1.083  -0.307   1.751  1.00  0.00    -0.353 N 
ATOM     12  H   UNL     1      -1.463   0.621   1.938  1.00  0.00     0.344 HD
ATOM     13  H   UNL     1      -1.348  -0.941   2.504  1.00  0.00     0.344 HD
ATOM     14  H   UNL     1      -1.454  -0.655   0.867  1.00  0.00     0.344 HD
ENDBRANCH   7  11
BRANCH   9  15
ATOM     15  C   UNL     1       2.596  -1.224   4.415  1.00  0.00     0.410 C 
ATOM     16  O   UNL     1       3.300  -2.222   4.477  1.00  0.00    -0.224 OA
BRANCH  15  17
ATOM     17  O   UNL     1       2.731  -0.132   5.203  1.00  0.00    -0.448 OA
BRANCH  17  18
ATOM     18  C   UNL     1       3.593  -0.312   6.345  1.00  0.00     0.248 C 
BRANCH  18  19
ATOM     19  C   UNL     1       2.756  -0.770   7.553  1.00  0.00     0.088 C 
ATOM     20  C   UNL     1       2.884  -2.256   7.897  1.00  0.00    -0.029 A 
ATOM     21  C   UNL     1       3.241  -0.121   8.846  1.00  0.00    -0.029 A 
ATOM     22  C   UNL     1       2.507  -3.365   7.155  1.00  0.00     0.005 A 
ATOM     23  C   UNL     1       3.428  -2.413   9.190  1.00  0.00    -0.014 A 
ATOM     24  C   UNL     1       3.634  -1.106   9.775  1.00  0.00    -0.014 A 
ATOM     25  C   UNL     1       3.293   1.230   9.160  1.00  0.00     0.005 A 
ATOM     26  C   UNL     1       2.743  -4.638   7.678  1.00  0.00     0.000 A 
ATOM     27  C   UNL     1       3.652  -3.676   9.717  1.00  0.00     0.009 A 
ATOM     28  C   UNL     1       4.089  -0.745  11.031  1.00  0.00     0.009 A 
ATOM     29  C   UNL     1       3.757   1.593  10.425  1.00  0.00     0.000 A 
ATOM     30  C   UNL     1       3.317  -4.793   8.947  1.00  0.00     0.001 A 
ATOM     31  C   UNL     1       4.151   0.615  11.352  1.00  0.00     0.001 A 
ENDBRANCH  18  19
ENDBRANCH  17  18
ENDBRANCH  15  17
ENDBRANCH   9  15
ENDBRANCH   4   6
ENDBRANCH   3   4
ENDBRANCH   2   3
ENDBRANCH   1   2
BRANCH   1  32
ATOM     32  O   UNL     1       3.187  -2.953  -2.270  1.00  0.00    -0.374 OA
BRANCH  32  33
ATOM     33  C   UNL     1       1.797  -3.187  -2.051  1.00  0.00     0.202 C 
BRANCH  33  34
ATOM     34  C   UNL     1       1.266  -4.607  -2.279  1.00  0.00     0.261 C 
BRANCH  34  35
ATOM     35  O   UNL     1       1.832  -5.564  -1.366  1.00  0.00    -0.460 OA
BRANCH  35  36
ATOM     36  C   UNL     1       2.611  -6.504  -1.955  1.00  0.00     0.338 C 
ATOM     37  O   UNL     1       2.820  -6.652  -3.148  1.00  0.00    -0.246 OA
BRANCH  36  38
ATOM     38  C   UNL     1       3.346  -7.272  -0.935  1.00  0.00     0.060 A 
ATOM     39  C   UNL     1       4.744  -7.286  -1.021  1.00  0.00     0.016 A 
ATOM     40  C   UNL     1       2.683  -8.055   0.012  1.00  0.00     0.016 A 
ATOM     41  C   UNL     1       5.485  -8.123  -0.192  1.00  0.00     0.010 A 
ATOM     42  C   UNL     1       3.429  -8.906   0.836  1.00  0.00     0.010 A 
ATOM     43  C   UNL     1       4.828  -8.970   0.711  1.00  0.00    -0.014 A 
BRANCH  43  44
ATOM     44  C   UNL     1       5.601 -10.026   1.407  1.00  0.00     0.031 A 
ATOM     45  C   UNL     1       5.612 -11.418   0.836  1.00  0.00     0.074 A 
ATOM     46  C   UNL     1       6.323  -9.741   2.505  1.00  0.00     0.049 A 
ATOM     47  N   UNL     1       6.203 -12.495   1.288  1.00  0.00    -0.248 NA
ATOM     48  C   UNL     1       4.862 -11.623  -0.415  1.00  0.00     0.031 C 
ATOM     49  C   UNL     1       6.439  -8.421   3.124  1.00  0.00     0.029 A 
ATOM     50  N   UNL     1       7.100 -10.553   3.292  1.00  0.00    -0.354 N 
ATOM     51  C   UNL     1       5.902 -13.500   0.377  1.00  0.00     0.074 A 
ATOM     52  C   UNL     1       5.051 -12.916  -0.636  1.00  0.00     0.031 C 
ATOM     53  C   UNL     1       7.235  -8.516   4.204  1.00  0.00     0.029 A 
ATOM     54  C   UNL     1       7.658  -9.905   4.366  1.00  0.00     0.049 A 
ATOM     55  H   UNL     1       7.243 -11.509   3.105  1.00  0.00     0.167 HD
ATOM     56  C   UNL     1       6.307 -14.792   0.377  1.00  0.00     0.031 A 
ATOM     57  C   UNL     1       8.409 -10.385   5.376  1.00  0.00     0.031 A 
ATOM     58  C   UNL     1       7.136 -15.383   1.392  1.00  0.00     0.049 A 
ATOM     59  C   UNL     1       8.767 -11.848   5.401  1.00  0.00     0.074 A 
ATOM     60  C   UNL     1       7.579 -16.691   1.491  1.00  0.00     0.029 A 
ATOM     61  N   UNL     1       7.647 -14.703   2.485  1.00  0.00    -0.354 N 
ATOM     62  N   UNL     1       8.478 -12.786   4.532  1.00  0.00    -0.248 NA
ATOM     63  C   UNL     1       9.562 -12.315   6.547  1.00  0.00     0.031 C 
ATOM     64  C   UNL     1       8.327 -16.811   2.667  1.00  0.00     0.029 A 
ATOM     65  C   UNL     1       8.389 -15.566   3.272  1.00  0.00     0.049 A 
ATOM     66  H   UNL     1       7.503 -13.747   2.674  1.00  0.00     0.167 HD
ATOM     67  C   UNL     1       9.081 -13.944   5.010  1.00  0.00     0.074 A 
ATOM     68  C   UNL     1       9.763 -13.588   6.236  1.00  0.00     0.031 C 
ATOM     69  C   UNL     1       9.070 -15.191   4.482  1.00  0.00     0.031 A 
BRANCH  56  70
ATOM     70  C   UNL     1       5.841 -15.663  -0.754  1.00  0.00    -0.014 A 
ATOM     71  C   UNL     1       6.401 -15.541  -2.035  1.00  0.00     0.009 A 
ATOM     72  C   UNL     1       4.870 -16.650  -0.525  1.00  0.00     0.009 A 
ATOM     73  C   UNL     1       5.981 -16.378  -3.071  1.00  0.00     0.001 A 
ATOM     74  C   UNL     1       4.469 -17.500  -1.557  1.00  0.00     0.001 A 
ATOM     75  C   UNL     1       5.021 -17.360  -2.830  1.00  0.00     0.000 A 
ENDBRANCH  56  70
BRANCH  57  76
ATOM     76  C   UNL     1       8.852  -9.488   6.476  1.00  0.00    -0.014 A 
ATOM     77  C   UNL     1      10.209  -9.171   6.642  1.00  0.00     0.009 A 
ATOM     78  C   UNL     1       7.920  -8.985   7.397  1.00  0.00     0.009 A 
ATOM     79  C   UNL     1      10.627  -8.399   7.729  1.00  0.00     0.001 A 
ATOM     80  C   UNL     1       8.337  -8.189   8.465  1.00  0.00     0.001 A 
ATOM     81  C   UNL     1       9.691  -7.907   8.638  1.00  0.00     0.000 A 
ENDBRANCH  57  76
BRANCH  69  82
ATOM     82  C   UNL     1       9.855 -16.250   5.202  1.00  0.00    -0.014 A 
ATOM     83  C   UNL     1       9.400 -16.801   6.410  1.00  0.00     0.009 A 
ATOM     84  C   UNL     1      11.050 -16.730   4.641  1.00  0.00     0.009 A 
ATOM     85  C   UNL     1      10.143 -17.789   7.059  1.00  0.00     0.001 A 
ATOM     86  C   UNL     1      11.777 -17.736   5.279  1.00  0.00     0.001 A 
ATOM     87  C   UNL     1      11.328 -18.258   6.491  1.00  0.00     0.000 A 
ENDBRANCH  69  82
ENDBRANCH  43  44
ENDBRANCH  36  38
ENDBRANCH  35  36
ENDBRANCH  34  35
ENDBRANCH  33  34
ENDBRANCH  32  33
ENDBRANCH   1  32
TORSDOF 19
