REMARK SMILES Cc1ccc(Nc2c(F)cccc2Cl)c(CC(=O)OCCOCCOC(=O)c2ccc(-c3c4nc(c(-c5ccccc5)c5ccc([nH]5)c(-c5ccccc5)c5nc(c(-c6ccccc6)c6ccc3[nH]6)C=C5)C=C4)cc2)c1
REMARK SMILES IDX 21 1 20 2 19 3 17 4 18 5 16 6 15 7 1 8 2 9 3 10 76 11 4 12
REMARK SMILES IDX 5 13 6 14 7 16 8 17 13 18 9 19 10 20 12 21 14 22 11 23 22 24
REMARK SMILES IDX 23 25 24 26 25 27 26 28 27 29 28 30 29 31 75 32 30 33 74 34
REMARK SMILES IDX 31 35 32 36 33 37 68 38 34 39 73 40 67 41 69 42 35 43 72 44
REMARK SMILES IDX 66 45 65 46 36 48 58 49 43 50 57 51 44 52 47 53 56 54 70 55
REMARK SMILES IDX 45 56 46 57 55 59 71 60 48 61 37 62 38 63 42 64 39 65 41 66
REMARK SMILES IDX 40 67 59 68 60 69 64 70 61 71 63 72 62 73 49 74 50 75 54 76
REMARK SMILES IDX 51 77 53 78 52 79
REMARK H PARENT 6 15 69 47 47 58
REMARK Flexibility Score: inf
ROOT
ATOM      1  C   UNL     1      -1.595   1.251  -3.145  1.00  0.00     0.202 C 
ENDROOT
BRANCH   1   2
ATOM      2  C   UNL     1      -1.155   2.382  -2.233  1.00  0.00     0.261 C 
BRANCH   2   3
ATOM      3  O   UNL     1      -1.142   2.011  -0.864  1.00  0.00    -0.463 OA
BRANCH   3   4
ATOM      4  C   UNL     1      -2.058   2.580  -0.021  1.00  0.00     0.310 C 
ATOM      5  O   UNL     1      -2.909   3.409  -0.310  1.00  0.00    -0.252 OA
BRANCH   4   6
ATOM      6  C   UNL     1      -1.856   2.057   1.392  1.00  0.00     0.160 C 
BRANCH   6   7
ATOM      7  C   UNL     1      -1.165   0.706   1.345  1.00  0.00    -0.013 A 
ATOM      8  C   UNL     1       2.361  -0.185   0.152  1.00  0.00     0.044 C 
ATOM      9  C   UNL     1       0.937  -0.324   0.599  1.00  0.00    -0.051 A 
ATOM     10  C   UNL     1       0.253  -1.520   0.430  1.00  0.00     0.005 A 
ATOM     11  C   UNL     1       0.241   0.760   1.129  1.00  0.00     0.009 A 
ATOM     12  C   UNL     1      -1.115  -1.603   0.718  1.00  0.00     0.026 A 
ATOM     13  C   UNL     1      -1.874  -0.495   1.145  1.00  0.00     0.042 A 
BRANCH  13  14
ATOM     14  N   UNL     1      -3.287  -0.582   1.298  1.00  0.00    -0.352 N 
ATOM     15  H   UNL     1      -3.754   0.270   1.455  1.00  0.00     0.167 HD
BRANCH  14  16
ATOM     16  C   UNL     1      -4.112  -1.741   1.253  1.00  0.00     0.094 A 
ATOM     17  C   UNL     1      -3.701  -2.949   1.835  1.00  0.00     0.148 A 
ATOM     18  C   UNL     1      -5.283  -1.793   0.472  1.00  0.00     0.067 A 
ATOM     19  F   UNL     1      -2.692  -2.959   2.719  1.00  0.00    -0.205 F 
ATOM     20  C   UNL     1      -4.292  -4.169   1.514  1.00  0.00     0.041 A 
ATOM     21  C   UNL     1      -5.847  -3.020   0.092  1.00  0.00     0.023 A 
ATOM     22  Cl  UNL     1      -6.122  -0.358  -0.007  1.00  0.00    -0.082 Cl
ATOM     23  C   UNL     1      -5.328  -4.213   0.590  1.00  0.00     0.005 A 
ENDBRANCH  14  16
ENDBRANCH  13  14
ENDBRANCH   6   7
ENDBRANCH   4   6
ENDBRANCH   3   4
ENDBRANCH   2   3
ENDBRANCH   1   2
BRANCH   1  24
ATOM     24  O   UNL     1      -2.972   1.006  -2.941  1.00  0.00    -0.374 OA
BRANCH  24  25
ATOM     25  C   UNL     1      -3.268  -0.080  -2.084  1.00  0.00     0.202 C 
BRANCH  25  26
ATOM     26  C   UNL     1      -3.618  -1.321  -2.906  1.00  0.00     0.261 C 
BRANCH  26  27
ATOM     27  O   UNL     1      -4.820  -1.101  -3.676  1.00  0.00    -0.460 OA
BRANCH  27  28
ATOM     28  C   UNL     1      -4.600  -0.578  -4.912  1.00  0.00     0.338 C 
ATOM     29  O   UNL     1      -3.929  -1.114  -5.790  1.00  0.00    -0.246 OA
BRANCH  28  30
ATOM     30  C   UNL     1      -5.051   0.841  -4.960  1.00  0.00     0.060 A 
ATOM     31  C   UNL     1      -4.473   1.686  -5.925  1.00  0.00     0.016 A 
ATOM     32  C   UNL     1      -5.670   1.377  -3.832  1.00  0.00     0.016 A 
ATOM     33  C   UNL     1      -4.309   3.043  -5.646  1.00  0.00     0.010 A 
ATOM     34  C   UNL     1      -5.377   2.684  -3.502  1.00  0.00     0.010 A 
ATOM     35  C   UNL     1      -4.657   3.509  -4.383  1.00  0.00    -0.014 A 
BRANCH  35  36
ATOM     36  C   UNL     1      -4.227   4.784  -3.813  1.00  0.00     0.031 A 
ATOM     37  C   UNL     1      -5.246   5.721  -3.314  1.00  0.00     0.074 A 
ATOM     38  C   UNL     1      -2.928   4.998  -3.503  1.00  0.00     0.049 A 
ATOM     39  N   UNL     1      -4.971   6.911  -2.918  1.00  0.00    -0.248 NA
ATOM     40  C   UNL     1      -6.680   5.438  -3.283  1.00  0.00     0.031 C 
ATOM     41  C   UNL     1      -2.366   5.883  -2.477  1.00  0.00     0.029 A 
ATOM     42  N   UNL     1      -1.800   4.463  -4.102  1.00  0.00    -0.354 N 
ATOM     43  C   UNL     1      -6.062   7.372  -2.232  1.00  0.00     0.074 A 
ATOM     44  C   UNL     1      -7.141   6.500  -2.615  1.00  0.00     0.031 C 
ATOM     45  C   UNL     1      -1.039   5.997  -2.661  1.00  0.00     0.029 A 
ATOM     46  C   UNL     1      -0.719   5.322  -3.905  1.00  0.00     0.049 A 
ATOM     47  H   UNL     1      -1.767   3.610  -4.591  1.00  0.00     0.167 HD
ATOM     48  C   UNL     1      -5.867   8.359  -1.318  1.00  0.00     0.031 A 
ATOM     49  C   UNL     1      -0.018   5.833  -4.956  1.00  0.00     0.031 A 
ATOM     50  C   UNL     1      -4.504   8.911  -1.405  1.00  0.00     0.049 A 
ATOM     51  C   UNL     1      -0.311   7.319  -5.066  1.00  0.00     0.074 A 
ATOM     52  C   UNL     1      -3.392   8.908  -0.582  1.00  0.00     0.029 A 
ATOM     53  N   UNL     1      -4.040   9.323  -2.653  1.00  0.00    -0.354 N 
ATOM     54  N   UNL     1      -1.156   7.935  -4.281  1.00  0.00    -0.248 NA
ATOM     55  C   UNL     1       0.265   8.229  -6.046  1.00  0.00     0.031 C 
ATOM     56  C   UNL     1      -2.258   9.298  -1.368  1.00  0.00     0.029 A 
ATOM     57  C   UNL     1      -2.686   9.589  -2.653  1.00  0.00     0.049 A 
ATOM     58  H   UNL     1      -4.615   9.414  -3.447  1.00  0.00     0.167 HD
ATOM     59  C   UNL     1      -1.251   9.254  -4.593  1.00  0.00     0.074 A 
ATOM     60  C   UNL     1      -0.374   9.380  -5.752  1.00  0.00     0.031 C 
ATOM     61  C   UNL     1      -2.051  10.102  -3.873  1.00  0.00     0.031 A 
BRANCH  48  62
ATOM     62  C   UNL     1      -6.866   8.718  -0.242  1.00  0.00    -0.014 A 
ATOM     63  C   UNL     1      -6.585   9.782   0.632  1.00  0.00     0.009 A 
ATOM     64  C   UNL     1      -8.056   8.010   0.020  1.00  0.00     0.009 A 
ATOM     65  C   UNL     1      -7.443  10.119   1.691  1.00  0.00     0.001 A 
ATOM     66  C   UNL     1      -8.934   8.360   1.055  1.00  0.00     0.001 A 
ATOM     67  C   UNL     1      -8.623   9.415   1.897  1.00  0.00     0.000 A 
ENDBRANCH  48  62
BRANCH  49  68
ATOM     68  C   UNL     1       0.145   4.802  -6.034  1.00  0.00    -0.014 A 
ATOM     69  C   UNL     1       0.955   3.690  -5.685  1.00  0.00     0.009 A 
ATOM     70  C   UNL     1      -0.861   4.606  -6.995  1.00  0.00     0.009 A 
ATOM     71  C   UNL     1       0.630   2.397  -6.113  1.00  0.00     0.001 A 
ATOM     72  C   UNL     1      -1.170   3.304  -7.431  1.00  0.00     0.001 A 
ATOM     73  C   UNL     1      -0.463   2.200  -6.948  1.00  0.00     0.000 A 
ENDBRANCH  49  68
BRANCH  61  74
ATOM     74  C   UNL     1      -2.356  11.520  -4.286  1.00  0.00    -0.014 A 
ATOM     75  C   UNL     1      -1.470  12.335  -4.994  1.00  0.00     0.009 A 
ATOM     76  C   UNL     1      -3.596  12.098  -3.933  1.00  0.00     0.009 A 
ATOM     77  C   UNL     1      -1.861  13.599  -5.455  1.00  0.00     0.001 A 
ATOM     78  C   UNL     1      -3.981  13.366  -4.361  1.00  0.00     0.001 A 
ATOM     79  C   UNL     1      -3.122  14.105  -5.155  1.00  0.00     0.000 A 
ENDBRANCH  61  74
ENDBRANCH  35  36
ENDBRANCH  28  30
ENDBRANCH  27  28
ENDBRANCH  26  27
ENDBRANCH  25  26
ENDBRANCH  24  25
ENDBRANCH   1  24
TORSDOF 17
