REMARK SMILES Cn1ccnc1[C@@H]1[C@@H](C(=O)OCCOCCOC(=O)c2ccc(-c3c4nc(c(-c5ccccc5)c5ccc([nH]5)c(-c5ccccc5)c5nc(c(-c6ccccc6)c6ccc3[nH]6)C=C5)C=C4)cc2)CC(=O)N1CCc1ccccc1F
REMARK SMILES IDX 13 1 12 2 11 3 9 4 10 5 8 6 7 7 71 8 68 9 69 10 70 11 6 12
REMARK SMILES IDX 1 13 2 14 3 15 4 16 5 17 72 18 73 19 74 20 75 21 79 22 76 23
REMARK SMILES IDX 78 24 80 25 77 26 14 27 15 28 16 29 17 30 18 31 19 32 20 33
REMARK SMILES IDX 21 34 67 35 22 36 66 37 23 38 24 39 25 40 60 41 26 42 65 43
REMARK SMILES IDX 59 44 61 45 27 46 64 47 58 48 57 49 28 51 50 52 35 53 49 54
REMARK SMILES IDX 36 55 39 56 48 57 62 58 37 59 38 60 47 62 63 63 40 64 29 65
REMARK SMILES IDX 30 66 34 67 31 68 33 69 32 70 51 71 52 72 56 73 53 74 55 75
REMARK SMILES IDX 54 76 41 77 42 78 46 79 43 80 45 81 44 82
REMARK H PARENT 61 50 39 61
REMARK Flexibility Score: inf
ROOT
ATOM      1  C   UNL     1      -0.546   5.448  -4.146  1.00  0.00     0.202 C 
ENDROOT
BRANCH   1   2
ATOM      2  C   UNL     1      -1.083   4.191  -3.454  1.00  0.00     0.261 C 
BRANCH   2   3
ATOM      3  O   UNL     1      -0.448   3.952  -2.189  1.00  0.00    -0.463 OA
BRANCH   3   4
ATOM      4  C   UNL     1       0.532   3.011  -2.215  1.00  0.00     0.312 C 
ATOM      5  O   UNL     1       0.876   2.373  -3.201  1.00  0.00    -0.252 OA
BRANCH   4   6
ATOM      6  C   UNL     1       1.215   2.857  -0.885  1.00  0.00     0.139 C 
ATOM      7  C   UNL     1       0.331   2.035   0.026  1.00  0.00     0.166 C 
ATOM      8  N   UNL     1       0.822   2.354   1.352  1.00  0.00    -0.331 N 
ATOM      9  C   UNL     1       1.464   4.121  -0.067  1.00  0.00     0.118 C 
ATOM     10  C   UNL     1       1.410   3.613   1.356  1.00  0.00     0.224 C 
ATOM     11  O   UNL     1       1.786   4.238   2.333  1.00  0.00    -0.275 OA
BRANCH   7  12
ATOM     12  C   UNL     1       0.288   0.594  -0.355  1.00  0.00     0.132 A 
ATOM     13  C   UNL     1       2.606  -0.184   0.340  1.00  0.00     0.151 C 
ATOM     14  N   UNL     1       1.282  -0.345  -0.205  1.00  0.00    -0.336 N 
ATOM     15  C   UNL     1       0.813  -1.530  -0.712  1.00  0.00     0.107 A 
ATOM     16  C   UNL     1      -0.430  -1.245  -1.214  1.00  0.00     0.131 A 
ATOM     17  N   UNL     1      -0.737   0.067  -1.002  1.00  0.00    -0.239 NA
ENDBRANCH   7  12
BRANCH   8  18
ATOM     18  C   UNL     1       0.419   1.668   2.580  1.00  0.00     0.125 C 
BRANCH  18  19
ATOM     19  C   UNL     1      -1.011   1.988   3.052  1.00  0.00     0.060 C 
BRANCH  19  20
ATOM     20  C   UNL     1      -2.081   1.375   2.183  1.00  0.00    -0.010 A 
ATOM     21  C   UNL     1      -2.910   2.178   1.388  1.00  0.00     0.007 A 
ATOM     22  C   UNL     1      -2.215  -0.015   2.098  1.00  0.00     0.126 A 
ATOM     23  C   UNL     1      -3.798   1.593   0.481  1.00  0.00     0.000 A 
ATOM     24  C   UNL     1      -3.109  -0.603   1.211  1.00  0.00     0.039 A 
ATOM     25  F   UNL     1      -1.438  -0.805   2.855  1.00  0.00    -0.207 F 
ATOM     26  C   UNL     1      -3.890   0.204   0.386  1.00  0.00     0.003 A 
ENDBRANCH  19  20
ENDBRANCH  18  19
ENDBRANCH   8  18
ENDBRANCH   4   6
ENDBRANCH   3   4
ENDBRANCH   2   3
ENDBRANCH   1   2
BRANCH   1  27
ATOM     27  O   UNL     1       0.831   5.458  -4.514  1.00  0.00    -0.374 OA
BRANCH  27  28
ATOM     28  C   UNL     1       1.798   5.711  -3.496  1.00  0.00     0.202 C 
BRANCH  28  29
ATOM     29  C   UNL     1       1.964   7.159  -3.027  1.00  0.00     0.261 C 
BRANCH  29  30
ATOM     30  O   UNL     1       0.773   7.667  -2.400  1.00  0.00    -0.460 OA
BRANCH  30  31
ATOM     31  C   UNL     1       0.134   8.622  -3.118  1.00  0.00     0.338 C 
ATOM     32  O   UNL     1       0.497   9.130  -4.165  1.00  0.00    -0.246 OA
BRANCH  31  33
ATOM     33  C   UNL     1      -1.204   8.876  -2.552  1.00  0.00     0.060 A 
ATOM     34  C   UNL     1      -2.293   8.794  -3.429  1.00  0.00     0.016 A 
ATOM     35  C   UNL     1      -1.383   9.282  -1.229  1.00  0.00     0.016 A 
ATOM     36  C   UNL     1      -3.560   9.181  -3.003  1.00  0.00     0.010 A 
ATOM     37  C   UNL     1      -2.657   9.677  -0.804  1.00  0.00     0.010 A 
ATOM     38  C   UNL     1      -3.740   9.668  -1.702  1.00  0.00    -0.014 A 
BRANCH  38  39
ATOM     39  C   UNL     1      -5.030  10.303  -1.341  1.00  0.00     0.031 A 
ATOM     40  C   UNL     1      -5.140  11.803  -1.367  1.00  0.00     0.074 A 
ATOM     41  C   UNL     1      -6.103   9.552  -1.039  1.00  0.00     0.049 A 
ATOM     42  N   UNL     1      -6.170  12.563  -1.095  1.00  0.00    -0.248 NA
ATOM     43  C   UNL     1      -3.928  12.545  -1.754  1.00  0.00     0.031 C 
ATOM     44  C   UNL     1      -6.136   8.090  -1.024  1.00  0.00     0.029 A 
ATOM     45  N   UNL     1      -7.377   9.924  -0.689  1.00  0.00    -0.354 N 
ATOM     46  C   UNL     1      -5.731  13.869  -1.270  1.00  0.00     0.074 A 
ATOM     47  C   UNL     1      -4.335  13.801  -1.644  1.00  0.00     0.031 C 
ATOM     48  C   UNL     1      -7.371   7.688  -0.677  1.00  0.00     0.029 A 
ATOM     49  C   UNL     1      -8.203   8.861  -0.419  1.00  0.00     0.049 A 
ATOM     50  H   UNL     1      -7.670  10.862  -0.637  1.00  0.00     0.167 HD
ATOM     51  C   UNL     1      -6.428  15.023  -1.137  1.00  0.00     0.031 A 
ATOM     52  C   UNL     1      -9.480   8.840   0.007  1.00  0.00     0.031 A 
ATOM     53  C   UNL     1      -7.813  15.093  -0.755  1.00  0.00     0.049 A 
ATOM     54  C   UNL     1     -10.211  10.138   0.220  1.00  0.00     0.074 A 
ATOM     55  C   UNL     1      -8.612  16.214  -0.614  1.00  0.00     0.029 A 
ATOM     56  N   UNL     1      -8.601  13.997  -0.445  1.00  0.00    -0.354 N 
ATOM     57  N   UNL     1      -9.793  11.365   0.021  1.00  0.00    -0.248 NA
ATOM     58  C   UNL     1     -11.594  10.045   0.709  1.00  0.00     0.031 C 
ATOM     59  C   UNL     1      -9.870  15.799  -0.163  1.00  0.00     0.029 A 
ATOM     60  C   UNL     1      -9.870  14.416  -0.082  1.00  0.00     0.049 A 
ATOM     61  H   UNL     1      -8.304  13.059  -0.479  1.00  0.00     0.167 HD
ATOM     62  C   UNL     1     -10.868  12.187   0.336  1.00  0.00     0.074 A 
ATOM     63  C   UNL     1     -11.961  11.319   0.723  1.00  0.00     0.031 C 
ATOM     64  C   UNL     1     -10.945  13.540   0.306  1.00  0.00     0.031 A 
BRANCH  51  65
ATOM     65  C   UNL     1      -5.687  16.310  -1.371  1.00  0.00    -0.014 A 
ATOM     66  C   UNL     1      -5.304  16.709  -2.661  1.00  0.00     0.009 A 
ATOM     67  C   UNL     1      -5.399  17.152  -0.285  1.00  0.00     0.009 A 
ATOM     68  C   UNL     1      -4.620  17.912  -2.855  1.00  0.00     0.001 A 
ATOM     69  C   UNL     1      -4.739  18.366  -0.485  1.00  0.00     0.001 A 
ATOM     70  C   UNL     1      -4.343  18.740  -1.768  1.00  0.00     0.000 A 
ENDBRANCH  51  65
BRANCH  52  71
ATOM     71  C   UNL     1     -10.149   7.542   0.283  1.00  0.00    -0.014 A 
ATOM     72  C   UNL     1     -11.190   7.082  -0.537  1.00  0.00     0.009 A 
ATOM     73  C   UNL     1      -9.757   6.763   1.384  1.00  0.00     0.009 A 
ATOM     74  C   UNL     1     -11.841   5.880  -0.245  1.00  0.00     0.001 A 
ATOM     75  C   UNL     1     -10.390   5.549   1.656  1.00  0.00     0.001 A 
ATOM     76  C   UNL     1     -11.437   5.114   0.847  1.00  0.00     0.000 A 
ENDBRANCH  52  71
BRANCH  64  77
ATOM     77  C   UNL     1     -12.263  14.163   0.671  1.00  0.00    -0.014 A 
ATOM     78  C   UNL     1     -12.716  14.185   2.000  1.00  0.00     0.009 A 
ATOM     79  C   UNL     1     -13.044  14.772  -0.324  1.00  0.00     0.009 A 
ATOM     80  C   UNL     1     -13.942  14.774   2.317  1.00  0.00     0.001 A 
ATOM     81  C   UNL     1     -14.255  15.385   0.001  1.00  0.00     0.001 A 
ATOM     82  C   UNL     1     -14.707  15.377   1.319  1.00  0.00     0.000 A 
ENDBRANCH  64  77
ENDBRANCH  38  39
ENDBRANCH  31  33
ENDBRANCH  30  31
ENDBRANCH  29  30
ENDBRANCH  28  29
ENDBRANCH  27  28
ENDBRANCH   1  27
TORSDOF 18
