REMARK SMILES Cn1nc(C(=O)N2C[C@@H](O)C[C@H]2C(=O)OCCOCCOC(=O)c2ccc(-c3c4nc(c(-c5ccccc5)c5ccc([nH]5)c(-c5ccccc5)c5nc(c(-c6ccccc6)c6ccc3[nH]6)C=C5)C=C4)cc2)ccc1=O
REMARK SMILES IDX 18 1 17 2 16 3 15 4 13 5 14 6 12 7 7 8 8 9 9 10 11 11 5 12
REMARK SMILES IDX 6 13 4 14 1 15 2 16 3 17 74 18 73 19 75 20 72 21 10 22 19 24
REMARK SMILES IDX 20 25 21 26 22 27 23 28 24 29 25 30 71 31 26 32 70 33 27 34
REMARK SMILES IDX 28 35 29 36 64 37 30 38 69 39 63 40 65 41 31 42 68 43 62 44
REMARK SMILES IDX 61 45 32 47 54 48 39 49 53 50 40 51 43 52 52 53 66 54 41 55
REMARK SMILES IDX 42 56 51 58 67 59 44 60 33 61 34 62 38 63 35 64 37 65 36 66
REMARK SMILES IDX 55 67 56 68 60 69 57 70 59 71 58 72 45 73 46 74 50 75 47 76
REMARK SMILES IDX 49 77 48 78
REMARK H PARENT 10 23 65 46 43 57
REMARK Flexibility Score: inf
ROOT
ATOM      1  O   UNL     1      -4.974   5.163  -5.127  1.00  0.00    -0.374 OA
ENDROOT
BRANCH   1   2
ATOM      2  C   UNL     1      -6.258   4.893  -4.572  1.00  0.00     0.202 C 
BRANCH   2   3
ATOM      3  C   UNL     1      -6.536   3.449  -4.137  1.00  0.00     0.261 C 
BRANCH   3   4
ATOM      4  O   UNL     1      -5.582   2.898  -3.212  1.00  0.00    -0.462 OA
BRANCH   4   5
ATOM      5  C   UNL     1      -4.752   1.957  -3.736  1.00  0.00     0.329 C 
ATOM      6  O   UNL     1      -4.753   1.600  -4.911  1.00  0.00    -0.250 OA
BRANCH   5   7
ATOM      7  C   UNL     1      -3.859   1.266  -2.699  1.00  0.00     0.198 C 
ATOM      8  N   UNL     1      -3.765   1.771  -1.325  1.00  0.00    -0.321 N 
ATOM      9  C   UNL     1      -4.018   0.719  -0.358  1.00  0.00     0.152 C 
ATOM     10  C   UNL     1      -3.926  -0.582  -1.148  1.00  0.00     0.136 C 
ATOM     11  C   UNL     1      -4.371  -0.170  -2.544  1.00  0.00     0.071 C 
BRANCH   8  12
ATOM     12  C   UNL     1      -2.933   2.848  -1.081  1.00  0.00     0.275 C 
ATOM     13  O   UNL     1      -3.216   3.994  -1.400  1.00  0.00    -0.267 OA
BRANCH  12  14
ATOM     14  C   UNL     1      -1.512   2.582  -0.571  1.00  0.00     0.149 A 
ATOM     15  C   UNL     1       0.730  -0.173  -0.064  1.00  0.00     0.178 C 
ATOM     16  N   UNL     1       0.259   1.197  -0.134  1.00  0.00    -0.232 N 
ATOM     17  N   UNL     1      -1.058   1.366  -0.525  1.00  0.00    -0.165 NA
ATOM     18  C   UNL     1       1.119   2.237   0.203  1.00  0.00     0.266 A 
ATOM     19  C   UNL     1       0.555   3.598   0.107  1.00  0.00     0.076 A 
ATOM     20  O   UNL     1       2.285   2.106   0.567  1.00  0.00    -0.268 OA
ATOM     21  C   UNL     1      -0.715   3.787  -0.250  1.00  0.00     0.042 A 
ENDBRANCH  12  14
ENDBRANCH   8  12
BRANCH  10  22
ATOM     22  O   UNL     1      -4.764  -1.601  -0.627  1.00  0.00    -0.391 OA
ATOM     23  H   UNL     1      -5.683  -1.293  -0.623  1.00  0.00     0.211 HD
ENDBRANCH  10  22
ENDBRANCH   5   7
ENDBRANCH   4   5
ENDBRANCH   3   4
ENDBRANCH   2   3
ENDBRANCH   1   2
BRANCH   1  24
ATOM     24  C   UNL     1      -3.875   5.261  -4.216  1.00  0.00     0.202 C 
BRANCH  24  25
ATOM     25  C   UNL     1      -3.990   6.358  -3.152  1.00  0.00     0.261 C 
BRANCH  25  26
ATOM     26  O   UNL     1      -5.002   6.016  -2.190  1.00  0.00    -0.460 OA
BRANCH  26  27
ATOM     27  C   UNL     1      -5.504   7.058  -1.503  1.00  0.00     0.338 C 
ATOM     28  O   UNL     1      -5.137   8.221  -1.531  1.00  0.00    -0.246 OA
BRANCH  27  29
ATOM     29  C   UNL     1      -6.680   6.604  -0.748  1.00  0.00     0.060 A 
ATOM     30  C   UNL     1      -7.943   6.702  -1.342  1.00  0.00     0.016 A 
ATOM     31  C   UNL     1      -6.544   6.239   0.593  1.00  0.00     0.016 A 
ATOM     32  C   UNL     1      -9.086   6.500  -0.569  1.00  0.00     0.010 A 
ATOM     33  C   UNL     1      -7.691   6.039   1.366  1.00  0.00     0.010 A 
ATOM     34  C   UNL     1      -8.965   6.219   0.800  1.00  0.00    -0.014 A 
BRANCH  34  35
ATOM     35  C   UNL     1     -10.161   6.311   1.671  1.00  0.00     0.031 A 
ATOM     36  C   UNL     1     -10.474   7.625   2.336  1.00  0.00     0.074 A 
ATOM     37  C   UNL     1     -10.986   5.263   1.836  1.00  0.00     0.049 A 
ATOM     38  N   UNL     1     -11.480   7.939   3.113  1.00  0.00    -0.248 NA
ATOM     39  C   UNL     1      -9.540   8.735   2.081  1.00  0.00     0.031 C 
ATOM     40  C   UNL     1     -10.829   3.954   1.207  1.00  0.00     0.029 A 
ATOM     41  N   UNL     1     -12.135   5.148   2.579  1.00  0.00    -0.354 N 
ATOM     42  C   UNL     1     -11.307   9.281   3.426  1.00  0.00     0.074 A 
ATOM     43  C   UNL     1     -10.089   9.718   2.781  1.00  0.00     0.031 C 
ATOM     44  C   UNL     1     -11.853   3.167   1.583  1.00  0.00     0.029 A 
ATOM     45  C   UNL     1     -12.721   3.911   2.496  1.00  0.00     0.049 A 
ATOM     46  H   UNL     1     -12.502   5.884   3.120  1.00  0.00     0.167 HD
ATOM     47  C   UNL     1     -12.098  10.083   4.175  1.00  0.00     0.031 A 
ATOM     48  C   UNL     1     -13.829   3.429   3.091  1.00  0.00     0.031 A 
ATOM     49  C   UNL     1     -13.299   9.657   4.837  1.00  0.00     0.049 A 
ATOM     50  C   UNL     1     -14.634   4.310   4.007  1.00  0.00     0.074 A 
ATOM     51  C   UNL     1     -14.158  10.406   5.622  1.00  0.00     0.029 A 
ATOM     52  N   UNL     1     -13.806   8.370   4.797  1.00  0.00    -0.354 N 
ATOM     53  N   UNL     1     -14.456   5.575   4.297  1.00  0.00    -0.248 NA
ATOM     54  C   UNL     1     -15.788   3.694   4.680  1.00  0.00     0.031 C 
ATOM     55  C   UNL     1     -15.167   9.561   6.091  1.00  0.00     0.029 A 
ATOM     56  C   UNL     1     -14.955   8.297   5.564  1.00  0.00     0.049 A 
ATOM     57  H   UNL     1     -13.409   7.620   4.298  1.00  0.00     0.167 HD
ATOM     58  C   UNL     1     -15.482   5.911   5.171  1.00  0.00     0.074 A 
ATOM     59  C   UNL     1     -16.282   4.720   5.363  1.00  0.00     0.031 C 
ATOM     60  C   UNL     1     -15.738   7.106   5.755  1.00  0.00     0.031 A 
BRANCH  47  61
ATOM     61  C   UNL     1     -11.684  11.515   4.332  1.00  0.00    -0.014 A 
ATOM     62  C   UNL     1     -11.934  12.447   3.314  1.00  0.00     0.009 A 
ATOM     63  C   UNL     1     -11.112  11.951   5.537  1.00  0.00     0.009 A 
ATOM     64  C   UNL     1     -11.610  13.792   3.497  1.00  0.00     0.001 A 
ATOM     65  C   UNL     1     -10.803  13.299   5.722  1.00  0.00     0.001 A 
ATOM     66  C   UNL     1     -11.051  14.217   4.702  1.00  0.00     0.000 A 
ENDBRANCH  47  61
BRANCH  48  67
ATOM     67  C   UNL     1     -14.245   2.028   2.836  1.00  0.00    -0.014 A 
ATOM     68  C   UNL     1     -15.322   1.753   1.982  1.00  0.00     0.009 A 
ATOM     69  C   UNL     1     -13.552   0.961   3.428  1.00  0.00     0.009 A 
ATOM     70  C   UNL     1     -15.700   0.432   1.728  1.00  0.00     0.001 A 
ATOM     71  C   UNL     1     -13.922  -0.357   3.160  1.00  0.00     0.001 A 
ATOM     72  C   UNL     1     -14.997  -0.621   2.312  1.00  0.00     0.000 A 
ENDBRANCH  48  67
BRANCH  60  73
ATOM     73  C   UNL     1     -16.933   7.209   6.656  1.00  0.00    -0.014 A 
ATOM     74  C   UNL     1     -16.873   6.753   7.981  1.00  0.00     0.009 A 
ATOM     75  C   UNL     1     -18.087   7.872   6.210  1.00  0.00     0.009 A 
ATOM     76  C   UNL     1     -17.952   6.956   8.843  1.00  0.00     0.001 A 
ATOM     77  C   UNL     1     -19.157   8.088   7.080  1.00  0.00     0.001 A 
ATOM     78  C   UNL     1     -19.088   7.630   8.395  1.00  0.00     0.000 A 
ENDBRANCH  60  73
ENDBRANCH  34  35
ENDBRANCH  27  29
ENDBRANCH  26  27
ENDBRANCH  25  26
ENDBRANCH  24  25
ENDBRANCH   1  24
TORSDOF 17
