REMARK SMILES NS(=O)(=O)c1ccc(-n2nc(NC(=O)NCCCC(=O)OCCOCCOC(=O)c3ccc(-c4c5nc(c(-c6ccccc6)c6ccc([nH]6)c(-c6ccccc6)c6nc(c(-c7ccccc7)c7ccc4[nH]7)C=C6)C=C5)cc3)cc2-c2ccccc2)cc1
REMARK SMILES IDX 22 1 21 2 19 3 20 4 18 5 17 6 16 7 15 8 12 9 13 10 14 12
REMARK SMILES IDX 11 14 9 15 10 16 79 17 78 18 8 19 5 20 6 21 87 22 7 23 86 24
REMARK SMILES IDX 2 25 3 26 4 27 1 28 80 31 81 32 85 33 82 34 84 35 83 36
REMARK SMILES IDX 23 37 24 38 25 39 26 40 27 41 28 42 29 43 30 44 31 45 77 46
REMARK SMILES IDX 32 47 76 48 33 49 34 50 35 51 70 52 36 53 75 54 69 55 71 56
REMARK SMILES IDX 37 57 74 58 68 59 67 60 38 62 60 63 45 64 59 65 46 66 49 67
REMARK SMILES IDX 58 68 72 69 47 70 48 71 57 73 73 74 50 75 39 76 40 77 44 78
REMARK SMILES IDX 41 79 43 80 42 81 61 82 62 83 66 84 63 85 65 86 64 87 51 88
REMARK SMILES IDX 52 89 56 90 53 91 55 92 54 93
REMARK H PARENT 12 11 15 13 1 29 1 30 71 61 49 72
REMARK Flexibility Score: inf
ROOT
ATOM      1  C   UNL     1       7.674  -2.020  -2.788  1.00  0.00     0.261 C 
ENDROOT
BRANCH   1   2
ATOM      2  O   UNL     1       7.254  -3.381  -2.986  1.00  0.00    -0.463 OA
BRANCH   2   3
ATOM      3  C   UNL     1       7.925  -4.298  -2.240  1.00  0.00     0.305 C 
ATOM      4  O   UNL     1       8.791  -4.032  -1.415  1.00  0.00    -0.252 OA
BRANCH   3   5
ATOM      5  C   UNL     1       7.581  -5.726  -2.596  1.00  0.00     0.124 C 
BRANCH   5   6
ATOM      6  C   UNL     1       6.120  -6.111  -2.752  1.00  0.00     0.033 C 
BRANCH   6   7
ATOM      7  C   UNL     1       5.344  -5.599  -3.960  1.00  0.00     0.118 C 
BRANCH   7   8
ATOM      8  N   UNL     1       5.913  -5.861  -5.262  1.00  0.00    -0.338 N 
ATOM      9  N   UNL     1       4.016  -6.232  -6.687  1.00  0.00    -0.291 N 
ATOM     10  C   UNL     1       5.339  -6.107  -6.456  1.00  0.00     0.320 C 
ATOM     11  H   UNL     1       3.821  -6.617  -7.572  1.00  0.00     0.173 HD
ATOM     12  O   UNL     1       6.101  -6.315  -7.409  1.00  0.00    -0.248 OA
ATOM     13  H   UNL     1       6.897  -5.860  -5.280  1.00  0.00     0.165 HD
BRANCH   9  14
ATOM     14  C   UNL     1       2.877  -5.943  -5.969  1.00  0.00     0.157 A 
ATOM     15  N   UNL     1       1.606  -5.380  -4.360  1.00  0.00    -0.231 N 
ATOM     16  N   UNL     1       2.792  -5.102  -4.942  1.00  0.00    -0.149 NA
ATOM     17  C   UNL     1       0.756  -6.039  -5.247  1.00  0.00     0.076 A 
ATOM     18  C   UNL     1       1.584  -6.445  -6.282  1.00  0.00     0.078 A 
BRANCH  15  19
ATOM     19  C   UNL     1       1.260  -4.737  -3.141  1.00  0.00     0.065 A 
ATOM     20  C   UNL     1       0.425  -3.273  -0.913  1.00  0.00     0.082 A 
ATOM     21  C   UNL     1       0.542  -4.672  -0.841  1.00  0.00     0.024 A 
ATOM     22  C   UNL     1       0.648  -2.616  -2.108  1.00  0.00     0.024 A 
ATOM     23  C   UNL     1       0.931  -5.418  -1.973  1.00  0.00     0.030 A 
ATOM     24  C   UNL     1       1.081  -3.359  -3.190  1.00  0.00     0.030 A 
BRANCH  20  25
ATOM     25  S   UNL     1       0.126  -2.292   0.528  1.00  0.00     0.238 S 
ATOM     26  O   UNL     1       0.902  -2.855   1.618  1.00  0.00    -0.207 OA
ATOM     27  O   UNL     1      -1.278  -2.019   0.609  1.00  0.00    -0.207 OA
BRANCH  25  28
ATOM     28  N   UNL     1       0.881  -0.833   0.158  1.00  0.00    -0.225 NA
ATOM     29  H   UNL     1       0.767  -0.184   0.937  1.00  0.00     0.137 HD
ATOM     30  H   UNL     1       0.460  -0.435  -0.681  1.00  0.00     0.137 HD
ENDBRANCH  25  28
ENDBRANCH  20  25
ENDBRANCH  15  19
BRANCH  17  31
ATOM     31  C   UNL     1      -0.670  -6.217  -4.978  1.00  0.00     0.000 A 
ATOM     32  C   UNL     1      -1.372  -5.162  -4.395  1.00  0.00     0.010 A 
ATOM     33  C   UNL     1      -1.331  -7.429  -5.134  1.00  0.00     0.010 A 
ATOM     34  C   UNL     1      -2.596  -5.343  -3.770  1.00  0.00     0.001 A 
ATOM     35  C   UNL     1      -2.621  -7.588  -4.605  1.00  0.00     0.001 A 
ATOM     36  C   UNL     1      -3.237  -6.558  -3.893  1.00  0.00     0.000 A 
ENDBRANCH  17  31
ENDBRANCH   9  14
ENDBRANCH   7   8
ENDBRANCH   6   7
ENDBRANCH   5   6
ENDBRANCH   3   5
ENDBRANCH   2   3
ENDBRANCH   1   2
BRANCH   1  37
ATOM     37  C   UNL     1       6.741  -1.148  -1.940  1.00  0.00     0.202 C 
BRANCH  37  38
ATOM     38  O   UNL     1       6.202  -1.702  -0.749  1.00  0.00    -0.374 OA
BRANCH  38  39
ATOM     39  C   UNL     1       5.233  -2.727  -0.891  1.00  0.00     0.202 C 
BRANCH  39  40
ATOM     40  C   UNL     1       3.935  -2.391  -1.614  1.00  0.00     0.261 C 
BRANCH  40  41
ATOM     41  O   UNL     1       4.039  -1.991  -2.991  1.00  0.00    -0.460 OA
BRANCH  41  42
ATOM     42  C   UNL     1       3.608  -0.720  -3.244  1.00  0.00     0.338 C 
ATOM     43  O   UNL     1       3.639   0.213  -2.456  1.00  0.00    -0.246 OA
BRANCH  42  44
ATOM     44  C   UNL     1       2.788  -0.695  -4.481  1.00  0.00     0.060 A 
ATOM     45  C   UNL     1       1.701   0.196  -4.489  1.00  0.00     0.016 A 
ATOM     46  C   UNL     1       2.857  -1.717  -5.427  1.00  0.00     0.016 A 
ATOM     47  C   UNL     1       0.578  -0.066  -5.276  1.00  0.00     0.010 A 
ATOM     48  C   UNL     1       1.722  -1.985  -6.195  1.00  0.00     0.010 A 
ATOM     49  C   UNL     1       0.544  -1.220  -6.056  1.00  0.00    -0.014 A 
BRANCH  49  50
ATOM     50  C   UNL     1      -0.610  -1.534  -6.909  1.00  0.00     0.031 A 
ATOM     51  C   UNL     1      -0.349  -1.136  -8.298  1.00  0.00     0.074 A 
ATOM     52  C   UNL     1      -1.844  -2.015  -6.631  1.00  0.00     0.049 A 
ATOM     53  N   UNL     1      -0.752  -0.009  -8.781  1.00  0.00    -0.248 NA
ATOM     54  C   UNL     1       0.575  -1.888  -9.149  1.00  0.00     0.031 C 
ATOM     55  C   UNL     1      -2.446  -2.358  -5.348  1.00  0.00     0.029 A 
ATOM     56  N   UNL     1      -2.835  -2.370  -7.521  1.00  0.00    -0.354 N 
ATOM     57  C   UNL     1      -0.299   0.002 -10.079  1.00  0.00     0.074 A 
ATOM     58  C   UNL     1       0.704  -1.032 -10.164  1.00  0.00     0.031 C 
ATOM     59  C   UNL     1      -3.584  -3.071  -5.555  1.00  0.00     0.029 A 
ATOM     60  C   UNL     1      -3.841  -3.161  -6.977  1.00  0.00     0.049 A 
ATOM     61  H   UNL     1      -2.832  -2.087  -8.464  1.00  0.00     0.167 HD
ATOM     62  C   UNL     1      -1.007   0.636 -11.047  1.00  0.00     0.031 A 
ATOM     63  C   UNL     1      -4.925  -3.703  -7.588  1.00  0.00     0.031 A 
ATOM     64  C   UNL     1      -2.028   1.506 -10.506  1.00  0.00     0.049 A 
ATOM     65  C   UNL     1      -5.338  -2.749  -8.626  1.00  0.00     0.074 A 
ATOM     66  C   UNL     1      -2.047   2.574  -9.629  1.00  0.00     0.029 A 
ATOM     67  N   UNL     1      -3.328   1.065 -10.586  1.00  0.00    -0.354 N 
ATOM     68  N   UNL     1      -5.889  -1.608  -8.339  1.00  0.00    -0.248 NA
ATOM     69  C   UNL     1      -4.791  -2.867  -9.963  1.00  0.00     0.031 C 
ATOM     70  C   UNL     1      -3.278   2.468  -8.914  1.00  0.00     0.029 A 
ATOM     71  C   UNL     1      -3.969   1.365  -9.411  1.00  0.00     0.049 A 
ATOM     72  H   UNL     1      -3.732   0.610 -11.360  1.00  0.00     0.167 HD
ATOM     73  C   UNL     1      -5.291  -0.729  -9.222  1.00  0.00     0.074 A 
ATOM     74  C   UNL     1      -4.766  -1.573 -10.293  1.00  0.00     0.031 C 
ATOM     75  C   UNL     1      -5.021   0.554  -8.840  1.00  0.00     0.031 A 
BRANCH  62  76
ATOM     76  C   UNL     1      -1.040   0.119 -12.456  1.00  0.00    -0.014 A 
ATOM     77  C   UNL     1      -1.634   0.907 -13.450  1.00  0.00     0.009 A 
ATOM     78  C   UNL     1      -0.723  -1.212 -12.800  1.00  0.00     0.009 A 
ATOM     79  C   UNL     1      -1.919   0.377 -14.713  1.00  0.00     0.001 A 
ATOM     80  C   UNL     1      -0.956  -1.728 -14.072  1.00  0.00     0.001 A 
ATOM     81  C   UNL     1      -1.576  -0.937 -15.024  1.00  0.00     0.000 A 
ENDBRANCH  62  76
BRANCH  63  82
ATOM     82  C   UNL     1      -5.510  -5.061  -7.518  1.00  0.00    -0.014 A 
ATOM     83  C   UNL     1      -6.814  -5.310  -7.984  1.00  0.00     0.009 A 
ATOM     84  C   UNL     1      -4.681  -6.173  -7.296  1.00  0.00     0.009 A 
ATOM     85  C   UNL     1      -7.258  -6.614  -8.252  1.00  0.00     0.001 A 
ATOM     86  C   UNL     1      -5.124  -7.478  -7.560  1.00  0.00     0.001 A 
ATOM     87  C   UNL     1      -6.408  -7.697  -8.052  1.00  0.00     0.000 A 
ENDBRANCH  63  82
BRANCH  75  88
ATOM     88  C   UNL     1      -5.680   1.048  -7.569  1.00  0.00    -0.014 A 
ATOM     89  C   UNL     1      -5.476   0.451  -6.311  1.00  0.00     0.009 A 
ATOM     90  C   UNL     1      -6.475   2.201  -7.628  1.00  0.00     0.009 A 
ATOM     91  C   UNL     1      -6.090   0.957  -5.159  1.00  0.00     0.001 A 
ATOM     92  C   UNL     1      -7.070   2.723  -6.474  1.00  0.00     0.001 A 
ATOM     93  C   UNL     1      -6.886   2.096  -5.243  1.00  0.00     0.000 A 
ENDBRANCH  75  88
ENDBRANCH  49  50
ENDBRANCH  42  44
ENDBRANCH  41  42
ENDBRANCH  40  41
ENDBRANCH  39  40
ENDBRANCH  38  39
ENDBRANCH  37  38
ENDBRANCH   1  37
TORSDOF 22
