REMARK SMILES CC1=C(C)C[C@@H](C(=O)OCCOCCOC(=O)c2ccc(-c3c4nc(c(-c5ccccc5)c5ccc([nH]5)c(-c5ccccc5)c5nc(c(-c6ccccc6)c6ccc3[nH]6)C=C5)C=C4)cc2)[C@@H](C(=O)NCC[NH+]2CCOCC2)C1
REMARK SMILES IDX 11 1 10 2 9 3 7 4 8 5 6 6 1 7 2 8 3 9 78 10 4 11 5 12 66 13
REMARK SMILES IDX 67 14 68 15 69 16 70 18 71 19 72 20 73 21 77 22 74 24 76 25
REMARK SMILES IDX 75 26 12 27 13 28 14 29 15 30 16 31 17 32 18 33 19 34 65 35
REMARK SMILES IDX 20 36 64 37 21 38 22 39 23 40 58 41 24 42 63 43 57 44 59 45
REMARK SMILES IDX 25 46 62 47 56 48 55 49 26 51 48 52 33 53 47 54 34 55 37 56
REMARK SMILES IDX 46 57 60 58 35 59 36 60 45 62 61 63 38 64 27 65 28 66 32 67
REMARK SMILES IDX 29 68 31 69 30 70 49 71 50 72 54 73 51 74 53 75 52 76 39 77
REMARK SMILES IDX 40 78 44 79 41 80 43 81 42 82
REMARK H PARENT 69 17 72 23 59 50 37 61
REMARK Flexibility Score: inf
ROOT
ATOM      1  C   UNL     1      -4.909   1.565  -4.063  1.00  0.00     0.202 C 
ENDROOT
BRANCH   1   2
ATOM      2  C   UNL     1      -3.930   0.496  -3.537  1.00  0.00     0.261 C 
BRANCH   2   3
ATOM      3  O   UNL     1      -2.576   0.924  -3.211  1.00  0.00    -0.463 OA
BRANCH   3   4
ATOM      4  C   UNL     1      -1.617   0.485  -4.050  1.00  0.00     0.310 C 
ATOM      5  O   UNL     1      -1.879  -0.157  -5.072  1.00  0.00    -0.252 OA
BRANCH   4   6
ATOM      6  C   UNL     1      -0.148   0.758  -3.721  1.00  0.00     0.116 C 
ATOM      7  C   UNL     1       1.246  -0.171   0.334  1.00  0.00     0.039 C 
ATOM      8  C   UNL     1       1.004   0.001  -1.140  1.00  0.00    -0.074 C 
ATOM      9  C   UNL     1       0.568  -0.959  -1.978  1.00  0.00    -0.073 C 
ATOM     10  C   UNL     1       1.374   1.362  -1.693  1.00  0.00     0.045 C 
ATOM     11  C   UNL     1       0.238  -2.382  -1.617  1.00  0.00     0.039 C 
ATOM     12  C   UNL     1       0.460  -0.635  -3.444  1.00  0.00     0.046 C 
ATOM     13  C   UNL     1       0.497   1.892  -2.862  1.00  0.00     0.097 C 
BRANCH  13  14
ATOM     14  C   UNL     1      -0.357   3.029  -2.297  1.00  0.00     0.224 C 
ATOM     15  O   UNL     1      -1.139   2.825  -1.367  1.00  0.00    -0.275 OA
ATOM     16  N   UNL     1      -0.243   4.327  -2.751  1.00  0.00    -0.350 N 
ATOM     17  H   UNL     1      -0.964   4.915  -2.429  1.00  0.00     0.163 HD
BRANCH  16  18
ATOM     18  C   UNL     1       0.726   5.018  -3.612  1.00  0.00     0.177 C 
BRANCH  18  19
ATOM     19  C   UNL     1       0.238   5.500  -5.023  1.00  0.00     0.283 C 
BRANCH  19  20
ATOM     20  N   UNL     1      -0.306   6.875  -5.130  1.00  0.00    -0.330 N 
ATOM     21  C   UNL     1      -1.748   7.035  -4.818  1.00  0.00     0.291 C 
ATOM     22  C   UNL     1      -0.095   7.463  -6.482  1.00  0.00     0.291 C 
ATOM     23  H   UNL     1       0.227   7.364  -4.411  1.00  0.00     0.348 HD
ATOM     24  C   UNL     1      -2.748   6.686  -5.959  1.00  0.00     0.221 C 
ATOM     25  C   UNL     1      -1.067   6.948  -7.554  1.00  0.00     0.221 C 
ATOM     26  O   UNL     1      -2.404   7.313  -7.198  1.00  0.00    -0.370 OA
ENDBRANCH  19  20
ENDBRANCH  18  19
ENDBRANCH  16  18
ENDBRANCH  13  14
ENDBRANCH   4   6
ENDBRANCH   3   4
ENDBRANCH   2   3
ENDBRANCH   1   2
BRANCH   1  27
ATOM     27  O   UNL     1      -4.656   2.243  -5.285  1.00  0.00    -0.374 OA
BRANCH  27  28
ATOM     28  C   UNL     1      -3.373   2.782  -5.505  1.00  0.00     0.202 C 
BRANCH  28  29
ATOM     29  C   UNL     1      -2.688   3.559  -4.387  1.00  0.00     0.261 C 
BRANCH  29  30
ATOM     30  O   UNL     1      -3.260   3.537  -3.083  1.00  0.00    -0.460 OA
BRANCH  30  31
ATOM     31  C   UNL     1      -3.962   4.615  -2.692  1.00  0.00     0.338 C 
ATOM     32  O   UNL     1      -4.210   5.623  -3.340  1.00  0.00    -0.246 OA
BRANCH  31  33
ATOM     33  C   UNL     1      -4.488   4.359  -1.347  1.00  0.00     0.060 A 
ATOM     34  C   UNL     1      -5.824   3.970  -1.231  1.00  0.00     0.016 A 
ATOM     35  C   UNL     1      -3.688   4.519  -0.212  1.00  0.00     0.016 A 
ATOM     36  C   UNL     1      -6.367   3.737   0.028  1.00  0.00     0.010 A 
ATOM     37  C   UNL     1      -4.237   4.285   1.053  1.00  0.00     0.010 A 
ATOM     38  C   UNL     1      -5.584   3.907   1.179  1.00  0.00    -0.014 A 
BRANCH  38  39
ATOM     39  C   UNL     1      -6.221   3.755   2.509  1.00  0.00     0.031 A 
ATOM     40  C   UNL     1      -6.598   4.977   3.296  1.00  0.00     0.074 A 
ATOM     41  C   UNL     1      -6.522   2.530   2.976  1.00  0.00     0.049 A 
ATOM     42  N   UNL     1      -7.229   5.061   4.440  1.00  0.00    -0.248 NA
ATOM     43  C   UNL     1      -6.221   6.276   2.718  1.00  0.00     0.031 C 
ATOM     44  C   UNL     1      -6.233   1.270   2.291  1.00  0.00     0.029 A 
ATOM     45  N   UNL     1      -7.155   2.147   4.132  1.00  0.00    -0.354 N 
ATOM     46  C   UNL     1      -7.327   6.418   4.717  1.00  0.00     0.074 A 
ATOM     47  C   UNL     1      -6.658   7.119   3.642  1.00  0.00     0.031 C 
ATOM     48  C   UNL     1      -6.703   0.254   3.033  1.00  0.00     0.029 A 
ATOM     49  C   UNL     1      -7.293   0.787   4.258  1.00  0.00     0.049 A 
ATOM     50  H   UNL     1      -7.478   2.787   4.807  1.00  0.00     0.167 HD
ATOM     51  C   UNL     1      -7.930   7.027   5.766  1.00  0.00     0.031 A 
ATOM     52  C   UNL     1      -7.825   0.054   5.255  1.00  0.00     0.031 A 
ATOM     53  C   UNL     1      -8.577   6.328   6.846  1.00  0.00     0.049 A 
ATOM     54  C   UNL     1      -8.417   0.753   6.449  1.00  0.00     0.074 A 
ATOM     55  C   UNL     1      -9.228   6.857   7.947  1.00  0.00     0.029 A 
ATOM     56  N   UNL     1      -8.643   4.949   6.968  1.00  0.00    -0.354 N 
ATOM     57  N   UNL     1      -8.541   2.038   6.679  1.00  0.00    -0.248 NA
ATOM     58  C   UNL     1      -8.953  -0.102   7.518  1.00  0.00     0.031 C 
ATOM     59  C   UNL     1      -9.629   5.799   8.768  1.00  0.00     0.029 A 
ATOM     60  C   UNL     1      -9.294   4.609   8.142  1.00  0.00     0.049 A 
ATOM     61  H   UNL     1      -8.281   4.306   6.316  1.00  0.00     0.167 HD
ATOM     62  C   UNL     1      -9.194   2.145   7.901  1.00  0.00     0.074 A 
ATOM     63  C   UNL     1      -9.456   0.795   8.355  1.00  0.00     0.031 C 
ATOM     64  C   UNL     1      -9.546   3.261   8.585  1.00  0.00     0.031 A 
BRANCH  51  65
ATOM     65  C   UNL     1      -7.886   8.529   5.813  1.00  0.00    -0.014 A 
ATOM     66  C   UNL     1      -8.621   9.312   4.908  1.00  0.00     0.009 A 
ATOM     67  C   UNL     1      -7.125   9.172   6.802  1.00  0.00     0.009 A 
ATOM     68  C   UNL     1      -8.566  10.706   4.971  1.00  0.00     0.001 A 
ATOM     69  C   UNL     1      -7.097  10.565   6.883  1.00  0.00     0.001 A 
ATOM     70  C   UNL     1      -7.809  11.331   5.961  1.00  0.00     0.000 A 
ENDBRANCH  51  65
BRANCH  52  71
ATOM     71  C   UNL     1      -7.810  -1.432   5.178  1.00  0.00    -0.014 A 
ATOM     72  C   UNL     1      -9.002  -2.161   5.054  1.00  0.00     0.009 A 
ATOM     73  C   UNL     1      -6.594  -2.131   5.254  1.00  0.00     0.009 A 
ATOM     74  C   UNL     1      -8.980  -3.558   5.037  1.00  0.00     0.001 A 
ATOM     75  C   UNL     1      -6.572  -3.526   5.203  1.00  0.00     0.001 A 
ATOM     76  C   UNL     1      -7.765  -4.239   5.106  1.00  0.00     0.000 A 
ENDBRANCH  52  71
BRANCH  64  77
ATOM     77  C   UNL     1     -10.289   3.072   9.881  1.00  0.00    -0.014 A 
ATOM     78  C   UNL     1      -9.656   2.556  11.022  1.00  0.00     0.009 A 
ATOM     79  C   UNL     1     -11.637   3.457   9.969  1.00  0.00     0.009 A 
ATOM     80  C   UNL     1     -10.368   2.394  12.213  1.00  0.00     0.001 A 
ATOM     81  C   UNL     1     -12.336   3.326  11.169  1.00  0.00     0.001 A 
ATOM     82  C   UNL     1     -11.705   2.784  12.287  1.00  0.00     0.000 A 
ENDBRANCH  64  77
ENDBRANCH  38  39
ENDBRANCH  31  33
ENDBRANCH  30  31
ENDBRANCH  29  30
ENDBRANCH  28  29
ENDBRANCH  27  28
ENDBRANCH   1  27
TORSDOF 18
