REMARK SMILES COc1ccc2[nH]c(C(=O)c3cc(C)ccn3)c(CC(=O)OCCOCCOC(=O)c3ccc(-c4c5nc(c(-c6ccccc6)c6ccc([nH]6)c(-c6ccccc6)c6nc(c(-c7ccccc7)c7ccc4[nH]7)C=C6)C=C5)cc3)c2c1
REMARK SMILES IDX 24 1 23 2 22 3 20 4 21 5 19 6 18 7 3 8 4 9 80 10 5 11 79 12
REMARK SMILES IDX 6 13 7 14 8 15 2 17 1 18 9 19 10 20 11 21 12 22 17 23 13 24
REMARK SMILES IDX 16 25 14 26 15 27 25 28 26 29 27 30 28 31 29 32 30 33 31 34
REMARK SMILES IDX 32 35 78 36 33 37 77 38 34 39 35 40 36 41 71 42 37 43 76 44
REMARK SMILES IDX 70 45 72 46 38 47 75 48 69 49 68 50 39 52 61 53 46 54 60 55
REMARK SMILES IDX 47 56 50 57 59 58 73 59 48 60 49 61 58 63 74 64 51 65 40 66
REMARK SMILES IDX 41 67 45 68 42 69 44 70 43 71 62 72 63 73 67 74 64 75 66 76
REMARK SMILES IDX 65 77 52 78 53 79 57 80 54 81 56 82 55 83
REMARK H PARENT 7 16 72 51 50 62
REMARK Flexibility Score: inf
ROOT
ATOM      1  C   UNL     1      -3.988   7.001  -4.063  1.00  0.00     0.202 C 
ENDROOT
BRANCH   1   2
ATOM      2  C   UNL     1      -3.944   5.524  -3.642  1.00  0.00     0.261 C 
BRANCH   2   3
ATOM      3  O   UNL     1      -2.766   4.819  -4.090  1.00  0.00    -0.463 OA
BRANCH   3   4
ATOM      4  C   UNL     1      -2.999   3.570  -4.584  1.00  0.00     0.310 C 
ATOM      5  O   UNL     1      -4.092   3.008  -4.528  1.00  0.00    -0.252 OA
BRANCH   4   6
ATOM      6  C   UNL     1      -1.841   2.946  -5.339  1.00  0.00     0.161 C 
BRANCH   6   7
ATOM      7  C   UNL     1      -0.443   3.317  -4.920  1.00  0.00     0.000 A 
ATOM      8  C   UNL     1       0.817   1.398  -1.842  1.00  0.00     0.119 A 
ATOM      9  C   UNL     1       2.096   1.951  -1.845  1.00  0.00     0.048 A 
ATOM     10  C   UNL     1      -0.124   1.811  -2.796  1.00  0.00     0.057 A 
ATOM     11  C   UNL     1       2.464   2.919  -2.790  1.00  0.00     0.030 A 
ATOM     12  C   UNL     1       0.229   2.763  -3.777  1.00  0.00     0.008 A 
ATOM     13  C   UNL     1       1.514   3.292  -3.748  1.00  0.00     0.046 A 
ATOM     14  N   UNL     1       1.611   4.166  -4.803  1.00  0.00    -0.352 N 
ATOM     15  C   UNL     1       0.501   4.080  -5.621  1.00  0.00     0.093 A 
ATOM     16  H   UNL     1       2.370   4.773  -4.956  1.00  0.00     0.167 HD
BRANCH   8  17
ATOM     17  O   UNL     1       0.367   0.420  -0.996  1.00  0.00    -0.497 OA
ATOM     18  C   UNL     1       1.173   0.122   0.137  1.00  0.00     0.278 C 
ENDBRANCH   8  17
BRANCH  15  19
ATOM     19  C   UNL     1       0.400   4.683  -6.952  1.00  0.00     0.227 C 
ATOM     20  O   UNL     1      -0.545   4.484  -7.713  1.00  0.00    -0.285 OA
BRANCH  19  21
ATOM     21  C   UNL     1       1.466   5.622  -7.417  1.00  0.00     0.113 A 
ATOM     22  C   UNL     1       2.719   5.170  -7.803  1.00  0.00     0.036 A 
ATOM     23  N   UNL     1       1.114   6.933  -7.417  1.00  0.00    -0.253 NA
ATOM     24  C   UNL     1       3.668   6.124  -8.192  1.00  0.00    -0.047 A 
ATOM     25  C   UNL     1       2.041   7.832  -7.787  1.00  0.00     0.112 A 
ATOM     26  C   UNL     1       5.042   5.730  -8.644  1.00  0.00     0.044 C 
ATOM     27  C   UNL     1       3.319   7.479  -8.174  1.00  0.00     0.023 A 
ENDBRANCH  19  21
ENDBRANCH  15  19
ENDBRANCH   6   7
ENDBRANCH   4   6
ENDBRANCH   3   4
ENDBRANCH   2   3
ENDBRANCH   1   2
BRANCH   1  28
ATOM     28  O   UNL     1      -3.846   7.296  -5.452  1.00  0.00    -0.374 OA
BRANCH  28  29
ATOM     29  C   UNL     1      -2.630   6.898  -6.079  1.00  0.00     0.202 C 
BRANCH  29  30
ATOM     30  C   UNL     1      -1.348   7.576  -5.593  1.00  0.00     0.261 C 
BRANCH  30  31
ATOM     31  O   UNL     1      -1.226   7.688  -4.175  1.00  0.00    -0.460 OA
BRANCH  31  32
ATOM     32  C   UNL     1      -0.690   8.848  -3.753  1.00  0.00     0.338 C 
ATOM     33  O   UNL     1      -0.214   9.761  -4.416  1.00  0.00    -0.246 OA
BRANCH  32  34
ATOM     34  C   UNL     1      -0.823   8.912  -2.299  1.00  0.00     0.060 A 
ATOM     35  C   UNL     1      -1.870   9.666  -1.762  1.00  0.00     0.016 A 
ATOM     36  C   UNL     1       0.147   8.325  -1.484  1.00  0.00     0.016 A 
ATOM     37  C   UNL     1      -1.911   9.889  -0.391  1.00  0.00     0.010 A 
ATOM     38  C   UNL     1       0.097   8.542  -0.108  1.00  0.00     0.010 A 
ATOM     39  C   UNL     1      -0.905   9.364   0.435  1.00  0.00    -0.014 A 
BRANCH  39  40
ATOM     40  C   UNL     1      -0.836   9.806   1.844  1.00  0.00     0.031 A 
ATOM     41  C   UNL     1       0.118  10.906   2.217  1.00  0.00     0.074 A 
ATOM     42  C   UNL     1      -1.662   9.271   2.759  1.00  0.00     0.049 A 
ATOM     43  N   UNL     1       0.275  11.509   3.367  1.00  0.00    -0.248 NA
ATOM     44  C   UNL     1       1.013  11.393   1.154  1.00  0.00     0.031 C 
ATOM     45  C   UNL     1      -2.635   8.211   2.499  1.00  0.00     0.029 A 
ATOM     46  N   UNL     1      -1.824   9.562   4.088  1.00  0.00    -0.354 N 
ATOM     47  C   UNL     1       1.280  12.447   3.165  1.00  0.00     0.074 A 
ATOM     48  C   UNL     1       1.724  12.308   1.796  1.00  0.00     0.031 C 
ATOM     49  C   UNL     1      -3.306   7.949   3.634  1.00  0.00     0.029 A 
ATOM     50  C   UNL     1      -2.796   8.810   4.698  1.00  0.00     0.049 A 
ATOM     51  H   UNL     1      -1.294  10.245   4.559  1.00  0.00     0.167 HD
ATOM     52  C   UNL     1       1.780  13.350   4.040  1.00  0.00     0.031 A 
ATOM     53  C   UNL     1      -3.225   8.820   5.973  1.00  0.00     0.031 A 
ATOM     54  C   UNL     1       1.341  13.475   5.404  1.00  0.00     0.049 A 
ATOM     55  C   UNL     1      -2.624   9.805   6.937  1.00  0.00     0.074 A 
ATOM     56  C   UNL     1       1.764  14.371   6.369  1.00  0.00     0.029 A 
ATOM     57  N   UNL     1       0.382  12.668   5.996  1.00  0.00    -0.354 N 
ATOM     58  N   UNL     1      -1.710  10.721   6.721  1.00  0.00    -0.248 NA
ATOM     59  C   UNL     1      -3.125   9.768   8.318  1.00  0.00     0.031 C 
ATOM     60  C   UNL     1       1.095  14.072   7.562  1.00  0.00     0.029 A 
ATOM     61  C   UNL     1       0.219  13.025   7.323  1.00  0.00     0.049 A 
ATOM     62  H   UNL     1      -0.111  11.948   5.540  1.00  0.00     0.167 HD
ATOM     63  C   UNL     1      -1.539  11.380   7.930  1.00  0.00     0.074 A 
ATOM     64  C   UNL     1      -2.460  10.773   8.871  1.00  0.00     0.031 C 
ATOM     65  C   UNL     1      -0.697  12.396   8.239  1.00  0.00     0.031 A 
BRANCH  52  66
ATOM     66  C   UNL     1       2.877  14.253   3.551  1.00  0.00    -0.014 A 
ATOM     67  C   UNL     1       2.616  15.295   2.647  1.00  0.00     0.009 A 
ATOM     68  C   UNL     1       4.188  14.073   4.019  1.00  0.00     0.009 A 
ATOM     69  C   UNL     1       3.651  16.118   2.197  1.00  0.00     0.001 A 
ATOM     70  C   UNL     1       5.216  14.913   3.587  1.00  0.00     0.001 A 
ATOM     71  C   UNL     1       4.949  15.928   2.670  1.00  0.00     0.000 A 
ENDBRANCH  52  66
BRANCH  53  72
ATOM     72  C   UNL     1      -4.277   7.866   6.409  1.00  0.00    -0.014 A 
ATOM     73  C   UNL     1      -5.568   8.315   6.726  1.00  0.00     0.009 A 
ATOM     74  C   UNL     1      -3.993   6.495   6.506  1.00  0.00     0.009 A 
ATOM     75  C   UNL     1      -6.545   7.412   7.153  1.00  0.00     0.001 A 
ATOM     76  C   UNL     1      -4.979   5.592   6.907  1.00  0.00     0.001 A 
ATOM     77  C   UNL     1      -6.251   6.052   7.238  1.00  0.00     0.000 A 
ENDBRANCH  53  72
BRANCH  65  78
ATOM     78  C   UNL     1      -0.746  12.918   9.646  1.00  0.00    -0.014 A 
ATOM     79  C   UNL     1      -0.206  12.181  10.712  1.00  0.00     0.009 A 
ATOM     80  C   UNL     1      -1.307  14.179   9.903  1.00  0.00     0.009 A 
ATOM     81  C   UNL     1      -0.258  12.683  12.013  1.00  0.00     0.001 A 
ATOM     82  C   UNL     1      -1.333  14.690  11.201  1.00  0.00     0.001 A 
ATOM     83  C   UNL     1      -0.817  13.938  12.255  1.00  0.00     0.000 A 
ENDBRANCH  65  78
ENDBRANCH  39  40
ENDBRANCH  32  34
ENDBRANCH  31  32
ENDBRANCH  30  31
ENDBRANCH  29  30
ENDBRANCH  28  29
ENDBRANCH   1  28
TORSDOF 18
