REMARK SMILES Nc1ccc(C(=O)NC[C@@H]2CC[C@@H](C(=O)OCCOCCOC(=O)c3ccc(-c4c5nc(c(-c6ccccc6)c6ccc([nH]6)c(-c6ccccc6)c6nc(c(-c7ccccc7)c7ccc4[nH]7)C=C6)C=C5)cc3)O2)cc1Cl
REMARK SMILES IDX 18 1 17 2 16 3 14 4 15 5 13 6 10 7 11 8 73 9 12 10 9 11 8 12
REMARK SMILES IDX 6 13 7 14 5 16 2 17 3 18 75 19 4 20 74 21 76 22 1 23 19 26
REMARK SMILES IDX 20 27 21 28 22 29 23 30 24 31 25 32 26 33 72 34 27 35 71 36
REMARK SMILES IDX 28 37 29 38 30 39 65 40 31 41 70 42 64 43 66 44 32 45 69 46
REMARK SMILES IDX 63 47 62 48 33 50 55 51 40 52 54 53 41 54 44 55 53 56 67 57
REMARK SMILES IDX 42 58 43 59 52 61 68 62 45 63 34 64 35 65 39 66 36 67 38 68
REMARK SMILES IDX 37 69 56 70 57 71 61 72 58 73 60 74 59 75 46 76 47 77 51 78
REMARK SMILES IDX 48 79 50 80 49 81
REMARK H PARENT 8 15 1 24 1 25 66 49 44 60
REMARK Flexibility Score: inf
ROOT
ATOM      1  C   UNL     1       7.203  -3.208  -5.619  1.00  0.00     0.202 C 
ENDROOT
BRANCH   1   2
ATOM      2  C   UNL     1       7.819  -2.624  -4.346  1.00  0.00     0.261 C 
BRANCH   2   3
ATOM      3  O   UNL     1       6.782  -2.029  -3.554  1.00  0.00    -0.461 OA
BRANCH   3   4
ATOM      4  C   UNL     1       7.070  -0.809  -3.022  1.00  0.00     0.335 C 
ATOM      5  O   UNL     1       8.193  -0.334  -2.912  1.00  0.00    -0.249 OA
BRANCH   4   6
ATOM      6  C   UNL     1       5.771  -0.081  -2.666  1.00  0.00     0.228 C 
ATOM      7  C   UNL     1       5.794   1.432  -0.911  1.00  0.00     0.138 C 
ATOM      8  C   UNL     1       5.302   2.195  -2.130  1.00  0.00     0.037 C 
ATOM      9  O   UNL     1       5.604   0.048  -1.249  1.00  0.00    -0.361 OA
ATOM     10  C   UNL     1       5.765   1.323  -3.270  1.00  0.00     0.047 C 
BRANCH   7  11
ATOM     11  C   UNL     1       5.119   1.754   0.435  1.00  0.00     0.148 C 
BRANCH  11  12
ATOM     12  N   UNL     1       3.992   2.668   0.342  1.00  0.00    -0.349 N 
ATOM     13  C   UNL     1       2.642   2.545   0.174  1.00  0.00     0.251 C 
ATOM     14  O   UNL     1       2.020   3.609   0.097  1.00  0.00    -0.269 OA
ATOM     15  H   UNL     1       4.271   3.609   0.420  1.00  0.00     0.163 HD
BRANCH  13  16
ATOM     16  C   UNL     1       1.874   1.268   0.087  1.00  0.00     0.041 A 
ATOM     17  C   UNL     1       0.186  -1.024  -0.028  1.00  0.00     0.050 A 
ATOM     18  C   UNL     1       1.575  -1.142  -0.106  1.00  0.00     0.028 A 
ATOM     19  C   UNL     1      -0.355   0.267   0.043  1.00  0.00     0.064 A 
ATOM     20  C   UNL     1       2.410  -0.013  -0.046  1.00  0.00     0.016 A 
ATOM     21  C   UNL     1       0.473   1.391   0.113  1.00  0.00     0.036 A 
ATOM     22  Cl  UNL     1      -2.069   0.505   0.069  1.00  0.00    -0.082 Cl
BRANCH  17  23
ATOM     23  N   UNL     1      -0.612  -2.156  -0.161  1.00  0.00    -0.398 N 
ATOM     24  H   UNL     1      -0.197  -3.048  -0.207  1.00  0.00     0.156 HD
ATOM     25  H   UNL     1      -1.591  -2.066  -0.208  1.00  0.00     0.156 HD
ENDBRANCH  17  23
ENDBRANCH  13  16
ENDBRANCH  11  12
ENDBRANCH   7  11
ENDBRANCH   4   6
ENDBRANCH   3   4
ENDBRANCH   2   3
ENDBRANCH   1   2
BRANCH   1  26
ATOM     26  O   UNL     1       6.684  -2.256  -6.551  1.00  0.00    -0.374 OA
BRANCH  26  27
ATOM     27  C   UNL     1       5.472  -1.581  -6.215  1.00  0.00     0.202 C 
BRANCH  27  28
ATOM     28  C   UNL     1       4.169  -2.373  -6.377  1.00  0.00     0.261 C 
BRANCH  28  29
ATOM     29  O   UNL     1       4.122  -3.546  -5.545  1.00  0.00    -0.460 OA
BRANCH  29  30
ATOM     30  C   UNL     1       4.145  -4.717  -6.226  1.00  0.00     0.338 C 
ATOM     31  O   UNL     1       4.125  -4.872  -7.439  1.00  0.00    -0.246 OA
BRANCH  30  32
ATOM     32  C   UNL     1       4.372  -5.842  -5.303  1.00  0.00     0.060 A 
ATOM     33  C   UNL     1       5.476  -6.665  -5.557  1.00  0.00     0.016 A 
ATOM     34  C   UNL     1       3.482  -6.145  -4.270  1.00  0.00     0.016 A 
ATOM     35  C   UNL     1       5.672  -7.819  -4.804  1.00  0.00     0.010 A 
ATOM     36  C   UNL     1       3.676  -7.312  -3.521  1.00  0.00     0.010 A 
ATOM     37  C   UNL     1       4.754  -8.170  -3.805  1.00  0.00    -0.014 A 
BRANCH  37  38
ATOM     38  C   UNL     1       4.872  -9.498  -3.155  1.00  0.00     0.031 A 
ATOM     39  C   UNL     1       4.030 -10.641  -3.653  1.00  0.00     0.074 A 
ATOM     40  C   UNL     1       5.770  -9.700  -2.174  1.00  0.00     0.049 A 
ATOM     41  N   UNL     1       4.013 -11.889  -3.257  1.00  0.00    -0.248 NA
ATOM     42  C   UNL     1       3.090 -10.341  -4.744  1.00  0.00     0.031 C 
ATOM     43  C   UNL     1       6.670  -8.686  -1.627  1.00  0.00     0.029 A 
ATOM     44  N   UNL     1       6.075 -10.838  -1.469  1.00  0.00    -0.354 N 
ATOM     45  C   UNL     1       3.072 -12.525  -4.056  1.00  0.00     0.074 A 
ATOM     46  C   UNL     1       2.512 -11.520  -4.934  1.00  0.00     0.031 C 
ATOM     47  C   UNL     1       7.427  -9.247  -0.668  1.00  0.00     0.029 A 
ATOM     48  C   UNL     1       7.050 -10.651  -0.521  1.00  0.00     0.049 A 
ATOM     49  H   UNL     1       5.636 -11.705  -1.628  1.00  0.00     0.167 HD
ATOM     50  C   UNL     1       2.713 -13.831  -4.070  1.00  0.00     0.031 A 
ATOM     51  C   UNL     1       7.572 -11.513   0.373  1.00  0.00     0.031 A 
ATOM     52  C   UNL     1       3.249 -14.832  -3.186  1.00  0.00     0.049 A 
ATOM     53  C   UNL     1       7.101 -12.943   0.387  1.00  0.00     0.074 A 
ATOM     54  C   UNL     1       2.938 -16.180  -3.120  1.00  0.00     0.029 A 
ATOM     55  N   UNL     1       4.203 -14.593  -2.212  1.00  0.00    -0.354 N 
ATOM     56  N   UNL     1       6.226 -13.533  -0.390  1.00  0.00    -0.248 NA
ATOM     57  C   UNL     1       7.703 -13.827   1.396  1.00  0.00     0.031 C 
ATOM     58  C   UNL     1       3.675 -16.748  -2.075  1.00  0.00     0.029 A 
ATOM     59  C   UNL     1       4.480 -15.764  -1.526  1.00  0.00     0.049 A 
ATOM     60  H   UNL     1       4.623 -13.721  -2.033  1.00  0.00     0.167 HD
ATOM     61  C   UNL     1       6.189 -14.860   0.021  1.00  0.00     0.074 A 
ATOM     62  C   UNL     1       7.144 -14.992   1.101  1.00  0.00     0.031 C 
ATOM     63  C   UNL     1       5.430 -15.879  -0.451  1.00  0.00     0.031 A 
BRANCH  50  64
ATOM     64  C   UNL     1       1.673 -14.251  -5.069  1.00  0.00    -0.014 A 
ATOM     65  C   UNL     1       1.987 -14.366  -6.432  1.00  0.00     0.009 A 
ATOM     66  C   UNL     1       0.380 -14.582  -4.637  1.00  0.00     0.009 A 
ATOM     67  C   UNL     1       1.017 -14.781  -7.347  1.00  0.00     0.001 A 
ATOM     68  C   UNL     1      -0.581 -15.019  -5.551  1.00  0.00     0.001 A 
ATOM     69  C   UNL     1      -0.264 -15.113  -6.905  1.00  0.00     0.000 A 
ENDBRANCH  50  64
BRANCH  51  70
ATOM     70  C   UNL     1       8.586 -11.048   1.354  1.00  0.00    -0.014 A 
ATOM     71  C   UNL     1       9.917 -11.486   1.278  1.00  0.00     0.009 A 
ATOM     72  C   UNL     1       8.213 -10.190   2.400  1.00  0.00     0.009 A 
ATOM     73  C   UNL     1      10.845 -11.099   2.248  1.00  0.00     0.001 A 
ATOM     74  C   UNL     1       9.149  -9.782   3.352  1.00  0.00     0.001 A 
ATOM     75  C   UNL     1      10.461 -10.245   3.282  1.00  0.00     0.000 A 
ENDBRANCH  51  70
BRANCH  63  76
ATOM     76  C   UNL     1       5.623 -17.228   0.182  1.00  0.00    -0.014 A 
ATOM     77  C   UNL     1       5.148 -17.499   1.475  1.00  0.00     0.009 A 
ATOM     78  C   UNL     1       6.265 -18.248  -0.536  1.00  0.00     0.009 A 
ATOM     79  C   UNL     1       5.348 -18.756   2.050  1.00  0.00     0.001 A 
ATOM     80  C   UNL     1       6.439 -19.512   0.032  1.00  0.00     0.001 A 
ATOM     81  C   UNL     1       5.989 -19.761   1.327  1.00  0.00     0.000 A 
ENDBRANCH  63  76
ENDBRANCH  37  38
ENDBRANCH  30  32
ENDBRANCH  29  30
ENDBRANCH  28  29
ENDBRANCH  27  28
ENDBRANCH  26  27
ENDBRANCH   1  26
TORSDOF 18
