REMARK SMILES CC[C@H]1CC[C@](Cc2cccc(OC)n2)(C(=O)OCCOCCOC(=O)c2ccc(-c3c4nc(c(-c5ccccc5)c5ccc([nH]5)c(-c5ccccc5)c5nc(c(-c6ccccc6)c6ccc3[nH]6)C=C5)C=C4)cc2)C1
REMARK SMILES IDX 20 1 19 2 18 3 16 4 17 5 6 6 3 7 4 8 75 9 5 10 2 11 1 12
REMARK SMILES IDX 7 13 8 14 9 15 15 16 10 17 12 18 11 19 13 20 14 21 21 22
REMARK SMILES IDX 22 23 23 24 24 25 25 26 26 27 27 28 28 29 74 30 29 31 73 32
REMARK SMILES IDX 30 33 31 34 32 35 67 36 33 37 72 38 66 39 68 40 34 41 71 42
REMARK SMILES IDX 65 43 64 44 35 46 57 47 42 48 56 49 43 50 46 51 55 52 69 53
REMARK SMILES IDX 44 54 45 55 54 57 70 58 47 59 36 60 37 61 41 62 38 63 40 64
REMARK SMILES IDX 39 65 58 66 59 67 63 68 60 69 62 70 61 71 48 72 49 73 53 74
REMARK SMILES IDX 50 75 52 76 51 77
REMARK H PARENT 68 45 46 56
REMARK Flexibility Score: inf
ROOT
ATOM      1  C   UNL     1      -1.484  -5.174  -5.467  1.00  0.00     0.202 C 
ENDROOT
BRANCH   1   2
ATOM      2  C   UNL     1      -1.873  -3.700  -5.298  1.00  0.00     0.261 C 
BRANCH   2   3
ATOM      3  O   UNL     1      -0.748  -2.806  -5.159  1.00  0.00    -0.463 OA
BRANCH   3   4
ATOM      4  C   UNL     1      -0.638  -2.225  -3.929  1.00  0.00     0.312 C 
ATOM      5  O   UNL     1      -1.433  -2.440  -3.020  1.00  0.00    -0.252 OA
BRANCH   4   6
ATOM      6  C   UNL     1       0.571  -1.270  -3.801  1.00  0.00     0.074 C 
ATOM      7  C   UNL     1       0.587   0.628  -2.177  1.00  0.00    -0.010 C 
ATOM      8  C   UNL     1      -0.098   1.073  -3.468  1.00  0.00     0.005 C 
ATOM      9  C   UNL     1       0.697  -0.891  -2.299  1.00  0.00     0.022 C 
ATOM     10  C   UNL     1       0.251   0.044  -4.536  1.00  0.00     0.019 C 
BRANCH   7  11
ATOM     11  C   UNL     1       1.924   1.328  -1.911  1.00  0.00     0.000 C 
ATOM     12  C   UNL     1       2.552   0.917  -0.581  1.00  0.00     0.004 C 
ENDBRANCH   7  11
BRANCH   6  13
ATOM     13  C   UNL     1       1.866  -1.947  -4.343  1.00  0.00     0.075 C 
BRANCH  13  14
ATOM     14  C   UNL     1       3.172  -1.188  -4.200  1.00  0.00     0.046 A 
ATOM     15  C   UNL     1       3.986  -1.387  -3.088  1.00  0.00     0.024 A 
ATOM     16  N   UNL     1       3.501  -0.311  -5.177  1.00  0.00    -0.219 NA
ATOM     17  C   UNL     1       5.125  -0.604  -2.940  1.00  0.00     0.007 A 
ATOM     18  C   UNL     1       4.626   0.430  -5.036  1.00  0.00     0.213 A 
ATOM     19  C   UNL     1       5.445   0.328  -3.921  1.00  0.00     0.068 A 
BRANCH  18  20
ATOM     20  O   UNL     1       4.843   1.265  -6.095  1.00  0.00    -0.481 OA
ATOM     21  C   UNL     1       6.000   2.086  -6.048  1.00  0.00     0.280 C 
ENDBRANCH  18  20
ENDBRANCH  13  14
ENDBRANCH   6  13
ENDBRANCH   4   6
ENDBRANCH   3   4
ENDBRANCH   2   3
ENDBRANCH   1   2
BRANCH   1  22
ATOM     22  O   UNL     1      -0.709  -5.798  -4.446  1.00  0.00    -0.374 OA
BRANCH  22  23
ATOM     23  C   UNL     1       0.659  -5.417  -4.342  1.00  0.00     0.202 C 
BRANCH  23  24
ATOM     24  C   UNL     1       1.635  -5.941  -5.404  1.00  0.00     0.261 C 
BRANCH  24  25
ATOM     25  O   UNL     1       1.289  -5.509  -6.731  1.00  0.00    -0.460 OA
BRANCH  25  26
ATOM     26  C   UNL     1       0.869  -6.500  -7.552  1.00  0.00     0.338 C 
ATOM     27  O   UNL     1       0.861  -7.702  -7.320  1.00  0.00    -0.246 OA
BRANCH  26  28
ATOM     28  C   UNL     1       0.211  -5.932  -8.742  1.00  0.00     0.060 A 
ATOM     29  C   UNL     1      -1.086  -6.379  -9.030  1.00  0.00     0.016 A 
ATOM     30  C   UNL     1       0.863  -5.042  -9.597  1.00  0.00     0.016 A 
ATOM     31  C   UNL     1      -1.714  -5.986 -10.208  1.00  0.00     0.010 A 
ATOM     32  C   UNL     1       0.236  -4.659 -10.787  1.00  0.00     0.010 A 
ATOM     33  C   UNL     1      -1.036  -5.163 -11.116  1.00  0.00    -0.014 A 
BRANCH  33  34
ATOM     34  C   UNL     1      -1.591  -4.982 -12.478  1.00  0.00     0.031 A 
ATOM     35  C   UNL     1      -1.068  -5.847 -13.592  1.00  0.00     0.074 A 
ATOM     36  C   UNL     1      -2.574  -4.095 -12.713  1.00  0.00     0.049 A 
ATOM     37  N   UNL     1      -1.398  -5.858 -14.858  1.00  0.00    -0.248 NA
ATOM     38  C   UNL     1      -0.036  -6.833 -13.229  1.00  0.00     0.031 C 
ATOM     39  C   UNL     1      -3.197  -3.235 -11.710  1.00  0.00     0.029 A 
ATOM     40  N   UNL     1      -3.217  -3.774 -13.882  1.00  0.00    -0.354 N 
ATOM     41  C   UNL     1      -0.608  -6.840 -15.443  1.00  0.00     0.074 A 
ATOM     42  C   UNL     1       0.232  -7.388 -14.402  1.00  0.00     0.031 C 
ATOM     43  C   UNL     1      -4.128  -2.473 -12.310  1.00  0.00     0.029 A 
ATOM     44  C   UNL     1      -4.144  -2.772 -13.740  1.00  0.00     0.049 A 
ATOM     45  H   UNL     1      -3.031  -4.220 -14.740  1.00  0.00     0.167 HD
ATOM     46  C   UNL     1      -0.586  -7.250 -16.733  1.00  0.00     0.031 A 
ATOM     47  C   UNL     1      -4.902  -2.152 -14.665  1.00  0.00     0.031 A 
ATOM     48  C   UNL     1      -1.415  -6.702 -17.771  1.00  0.00     0.049 A 
ATOM     49  C   UNL     1      -4.809  -2.579 -16.105  1.00  0.00     0.074 A 
ATOM     50  C   UNL     1      -1.481  -7.067 -19.104  1.00  0.00     0.029 A 
ATOM     51  N   UNL     1      -2.316  -5.664 -17.593  1.00  0.00    -0.354 N 
ATOM     52  N   UNL     1      -4.082  -3.530 -16.641  1.00  0.00    -0.248 NA
ATOM     53  C   UNL     1      -5.647  -1.850 -17.069  1.00  0.00     0.031 C 
ATOM     54  C   UNL     1      -2.384  -6.213 -19.745  1.00  0.00     0.029 A 
ATOM     55  C   UNL     1      -2.921  -5.354 -18.799  1.00  0.00     0.049 A 
ATOM     56  H   UNL     1      -2.498  -5.214 -16.737  1.00  0.00     0.167 HD
ATOM     57  C   UNL     1      -4.395  -3.532 -17.994  1.00  0.00     0.074 A 
ATOM     58  C   UNL     1      -5.387  -2.496 -18.197  1.00  0.00     0.031 C 
ATOM     59  C   UNL     1      -3.908  -4.323 -18.982  1.00  0.00     0.031 A 
BRANCH  46  60
ATOM     60  C   UNL     1       0.399  -8.324 -17.101  1.00  0.00    -0.014 A 
ATOM     61  C   UNL     1       0.208  -9.658 -16.708  1.00  0.00     0.009 A 
ATOM     62  C   UNL     1       1.518  -7.998 -17.883  1.00  0.00     0.009 A 
ATOM     63  C   UNL     1       1.135 -10.639 -17.068  1.00  0.00     0.001 A 
ATOM     64  C   UNL     1       2.429  -8.985 -18.263  1.00  0.00     0.001 A 
ATOM     65  C   UNL     1       2.241 -10.303 -17.849  1.00  0.00     0.000 A 
ENDBRANCH  46  60
BRANCH  47  66
ATOM     66  C   UNL     1      -5.799  -1.037 -14.265  1.00  0.00    -0.014 A 
ATOM     67  C   UNL     1      -7.194  -1.187 -14.298  1.00  0.00     0.009 A 
ATOM     68  C   UNL     1      -5.259   0.196 -13.865  1.00  0.00     0.009 A 
ATOM     69  C   UNL     1      -8.028  -0.117 -13.964  1.00  0.00     0.001 A 
ATOM     70  C   UNL     1      -6.096   1.254 -13.505  1.00  0.00     0.001 A 
ATOM     71  C   UNL     1      -7.479   1.100 -13.563  1.00  0.00     0.000 A 
ENDBRANCH  47  66
BRANCH  59  72
ATOM     72  C   UNL     1      -4.466  -4.126 -20.363  1.00  0.00    -0.014 A 
ATOM     73  C   UNL     1      -4.118  -3.010 -21.138  1.00  0.00     0.009 A 
ATOM     74  C   UNL     1      -5.311  -5.102 -20.914  1.00  0.00     0.009 A 
ATOM     75  C   UNL     1      -4.631  -2.860 -22.428  1.00  0.00     0.001 A 
ATOM     76  C   UNL     1      -5.800  -4.964 -22.214  1.00  0.00     0.001 A 
ATOM     77  C   UNL     1      -5.466  -3.840 -22.966  1.00  0.00     0.000 A 
ENDBRANCH  59  72
ENDBRANCH  33  34
ENDBRANCH  26  28
ENDBRANCH  25  26
ENDBRANCH  24  25
ENDBRANCH  23  24
ENDBRANCH  22  23
ENDBRANCH   1  22
TORSDOF 18
