REMARK SMILES O=C(CSCC(=O)N1CCN(c2ccc(F)cc2)CC1)OCCOCCOC(=O)c1ccc(-c2c3nc(c(-c4ccccc4)c4ccc([nH]4)c(-c4ccccc4)c4nc(c(-c5ccccc5)c5ccc2[nH]5)C=C4)C=C3)cc1
REMARK SMILES IDX 23 1 22 2 21 3 2 4 1 5 3 6 4 7 5 8 6 9 7 10 8 11 9 12 20 13
REMARK SMILES IDX 10 14 19 15 11 16 12 17 13 18 18 19 14 20 17 21 15 22 16 23
REMARK SMILES IDX 24 24 25 25 26 26 27 27 28 28 29 29 30 30 31 31 77 32 32 33
REMARK SMILES IDX 76 34 33 35 34 36 35 37 70 38 36 39 75 40 69 41 71 42 37 43
REMARK SMILES IDX 74 44 68 45 67 46 38 48 60 49 45 50 59 51 46 52 49 53 58 54
REMARK SMILES IDX 72 55 47 56 48 57 57 59 73 60 50 61 39 62 40 63 44 64 41 65
REMARK SMILES IDX 43 66 42 67 61 68 62 69 66 70 63 71 65 72 64 73 51 74 52 75
REMARK SMILES IDX 56 76 53 77 55 78 54 79
REMARK H PARENT 71 47 49 58
REMARK Flexibility Score: inf
ROOT
ATOM      1  C   UNL     1       4.918  -0.799   0.860  1.00  0.00     0.202 C 
ENDROOT
BRANCH   1   2
ATOM      2  C   UNL     1       4.470   0.657   0.946  1.00  0.00     0.261 C 
BRANCH   2   3
ATOM      3  O   UNL     1       3.050   0.849   0.934  1.00  0.00    -0.463 OA
BRANCH   3   4
ATOM      4  C   UNL     1       2.327   1.006  -0.200  1.00  0.00     0.315 C 
ATOM      5  O   UNL     1       1.125   1.255  -0.131  1.00  0.00    -0.251 OA
BRANCH   4   6
ATOM      6  C   UNL     1       2.994   0.791  -1.531  1.00  0.00     0.192 C 
BRANCH   6   7
ATOM      7  S   UNL     1       4.100   2.144  -2.017  1.00  0.00    -0.140 SA
BRANCH   7   8
ATOM      8  C   UNL     1       2.899   3.247  -2.743  1.00  0.00     0.170 C 
BRANCH   8   9
ATOM      9  C   UNL     1       1.961   2.698  -3.805  1.00  0.00     0.232 C 
ATOM     10  O   UNL     1       0.796   3.118  -3.809  1.00  0.00    -0.274 OA
ATOM     11  N   UNL     1       2.426   1.958  -4.875  1.00  0.00    -0.338 N 
ATOM     12  C   UNL     1       1.937   2.338  -6.202  1.00  0.00     0.141 C 
ATOM     13  C   UNL     1       3.501   0.952  -4.948  1.00  0.00     0.141 C 
ATOM     14  C   UNL     1       3.106   2.938  -7.020  1.00  0.00     0.138 C 
ATOM     15  C   UNL     1       4.706   1.482  -5.731  1.00  0.00     0.138 C 
ATOM     16  N   UNL     1       4.254   2.015  -7.019  1.00  0.00    -0.368 N 
BRANCH  16  17
ATOM     17  C   UNL     1       4.770   1.547  -8.204  1.00  0.00     0.037 A 
ATOM     18  C   UNL     1       4.788   0.178  -8.504  1.00  0.00     0.029 A 
ATOM     19  C   UNL     1       5.291   2.442  -9.147  1.00  0.00     0.029 A 
ATOM     20  C   UNL     1       5.306  -0.285  -9.715  1.00  0.00     0.041 A 
ATOM     21  C   UNL     1       5.830   1.985 -10.351  1.00  0.00     0.041 A 
ATOM     22  C   UNL     1       5.828   0.625 -10.625  1.00  0.00     0.123 A 
ATOM     23  F   UNL     1       6.336   0.183 -11.782  1.00  0.00    -0.207 F 
ENDBRANCH  16  17
ENDBRANCH   8   9
ENDBRANCH   7   8
ENDBRANCH   6   7
ENDBRANCH   4   6
ENDBRANCH   3   4
ENDBRANCH   2   3
ENDBRANCH   1   2
BRANCH   1  24
ATOM     24  O   UNL     1       4.328  -1.650  -0.115  1.00  0.00    -0.374 OA
BRANCH  24  25
ATOM     25  C   UNL     1       3.047  -2.214   0.191  1.00  0.00     0.202 C 
BRANCH  25  26
ATOM     26  C   UNL     1       3.029  -3.417   1.140  1.00  0.00     0.261 C 
BRANCH  26  27
ATOM     27  O   UNL     1       3.399  -3.040   2.475  1.00  0.00    -0.460 OA
BRANCH  27  28
ATOM     28  C   UNL     1       4.671  -3.345   2.822  1.00  0.00     0.338 C 
ATOM     29  O   UNL     1       5.481  -3.993   2.175  1.00  0.00    -0.246 OA
BRANCH  28  30
ATOM     30  C   UNL     1       5.045  -2.550   4.007  1.00  0.00     0.060 A 
ATOM     31  C   UNL     1       6.277  -1.877   3.976  1.00  0.00     0.016 A 
ATOM     32  C   UNL     1       4.212  -2.463   5.123  1.00  0.00     0.016 A 
ATOM     33  C   UNL     1       6.716  -1.179   5.093  1.00  0.00     0.010 A 
ATOM     34  C   UNL     1       4.659  -1.776   6.250  1.00  0.00     0.010 A 
ATOM     35  C   UNL     1       5.935  -1.182   6.254  1.00  0.00    -0.014 A 
BRANCH  35  36
ATOM     36  C   UNL     1       6.553  -0.776   7.533  1.00  0.00     0.031 A 
ATOM     37  C   UNL     1       7.064  -1.858   8.444  1.00  0.00     0.074 A 
ATOM     38  C   UNL     1       6.694   0.520   7.853  1.00  0.00     0.049 A 
ATOM     39  N   UNL     1       7.625  -1.757   9.620  1.00  0.00    -0.248 NA
ATOM     40  C   UNL     1       6.916  -3.243   7.963  1.00  0.00     0.031 C 
ATOM     41  C   UNL     1       6.287   1.649   7.018  1.00  0.00     0.029 A 
ATOM     42  N   UNL     1       7.227   1.100   8.973  1.00  0.00    -0.354 N 
ATOM     43  C   UNL     1       7.882  -3.062  10.024  1.00  0.00     0.074 A 
ATOM     44  C   UNL     1       7.384  -3.937   8.988  1.00  0.00     0.031 C 
ATOM     45  C   UNL     1       6.587   2.792   7.659  1.00  0.00     0.029 A 
ATOM     46  C   UNL     1       7.171   2.471   8.959  1.00  0.00     0.049 A 
ATOM     47  H   UNL     1       7.613   0.583   9.717  1.00  0.00     0.167 HD
ATOM     48  C   UNL     1       8.485  -3.491  11.157  1.00  0.00     0.031 A 
ATOM     49  C   UNL     1       7.537   3.359   9.902  1.00  0.00     0.031 A 
ATOM     50  C   UNL     1       8.962  -2.612  12.189  1.00  0.00     0.049 A 
ATOM     51  C   UNL     1       8.127   2.852  11.191  1.00  0.00     0.074 A 
ATOM     52  C   UNL     1       9.599  -2.937  13.373  1.00  0.00     0.029 A 
ATOM     53  N   UNL     1       8.843  -1.230  12.161  1.00  0.00    -0.354 N 
ATOM     54  N   UNL     1       8.389   1.619  11.556  1.00  0.00    -0.248 NA
ATOM     55  C   UNL     1       8.482   3.864  12.195  1.00  0.00     0.031 C 
ATOM     56  C   UNL     1       9.806  -1.755  14.092  1.00  0.00     0.029 A 
ATOM     57  C   UNL     1       9.366  -0.689  13.322  1.00  0.00     0.049 A 
ATOM     58  H   UNL     1       8.445  -0.712  11.425  1.00  0.00     0.167 HD
ATOM     59  C   UNL     1       8.973   1.710  12.814  1.00  0.00     0.074 A 
ATOM     60  C   UNL     1       9.039   3.120  13.140  1.00  0.00     0.031 C 
ATOM     61  C   UNL     1       9.419   0.719  13.626  1.00  0.00     0.031 A 
BRANCH  48  62
ATOM     62  C   UNL     1       8.612  -4.978  11.351  1.00  0.00    -0.014 A 
ATOM     63  C   UNL     1       9.466  -5.755  10.550  1.00  0.00     0.009 A 
ATOM     64  C   UNL     1       7.870  -5.611  12.360  1.00  0.00     0.009 A 
ATOM     65  C   UNL     1       9.540  -7.138  10.730  1.00  0.00     0.001 A 
ATOM     66  C   UNL     1       7.972  -6.988  12.560  1.00  0.00     0.001 A 
ATOM     67  C   UNL     1       8.798  -7.753  11.737  1.00  0.00     0.000 A 
ENDBRANCH  48  62
BRANCH  49  68
ATOM     68  C   UNL     1       7.351   4.815   9.670  1.00  0.00    -0.014 A 
ATOM     69  C   UNL     1       8.459   5.664   9.531  1.00  0.00     0.009 A 
ATOM     70  C   UNL     1       6.062   5.368   9.601  1.00  0.00     0.009 A 
ATOM     71  C   UNL     1       8.281   7.039   9.357  1.00  0.00     0.001 A 
ATOM     72  C   UNL     1       5.886   6.738   9.396  1.00  0.00     0.001 A 
ATOM     73  C   UNL     1       6.995   7.574   9.285  1.00  0.00     0.000 A 
ENDBRANCH  49  68
BRANCH  61  74
ATOM     74  C   UNL     1      10.062   1.132  14.922  1.00  0.00    -0.014 A 
ATOM     75  C   UNL     1       9.313   1.686  15.971  1.00  0.00     0.009 A 
ATOM     76  C   UNL     1      11.440   0.930  15.103  1.00  0.00     0.009 A 
ATOM     77  C   UNL     1       9.940   2.072  17.158  1.00  0.00     0.001 A 
ATOM     78  C   UNL     1      12.057   1.282  16.304  1.00  0.00     0.001 A 
ATOM     79  C   UNL     1      11.309   1.865  17.325  1.00  0.00     0.000 A 
ENDBRANCH  61  74
ENDBRANCH  35  36
ENDBRANCH  28  30
ENDBRANCH  27  28
ENDBRANCH  26  27
ENDBRANCH  25  26
ENDBRANCH  24  25
ENDBRANCH   1  24
TORSDOF 18
