REMARK SMILES Cc1ccccc1/C=C1\SC(=O)N(CC(=O)Nc2ccccc2C(=O)OCCOCCOC(=O)c2ccc(-c3c4nc(c(-c5ccccc5)c5ccc([nH]5)c(-c5ccccc5)c5nc(c(-c6ccccc6)c6ccc3[nH]6)C=C5)C=C4)cc2)C1=O
REMARK SMILES IDX 28 1 27 2 26 3 24 4 25 5 23 6 18 7 19 8 20 9 22 10 21 11
REMARK SMILES IDX 17 12 15 13 16 14 14 16 13 17 8 18 9 19 10 20 83 21 11 22
REMARK SMILES IDX 84 23 12 24 7 25 1 26 2 27 3 28 4 29 6 30 5 31 29 32 30 33
REMARK SMILES IDX 31 34 32 35 33 36 34 37 35 38 36 39 82 40 37 41 81 42 38 43
REMARK SMILES IDX 39 44 40 45 75 46 41 47 80 48 74 49 76 50 42 51 79 52 73 53
REMARK SMILES IDX 72 54 43 56 65 57 50 58 64 59 51 60 54 61 63 62 77 63 52 64
REMARK SMILES IDX 53 65 62 67 78 68 55 69 44 70 45 71 49 72 46 73 48 74 47 75
REMARK SMILES IDX 66 76 67 77 71 78 68 79 70 80 69 81 56 82 57 83 61 84 58 85
REMARK SMILES IDX 60 86 59 87
REMARK H PARENT 17 15 76 55 54 66
REMARK Flexibility Score: inf
ROOT
ATOM      1  C   UNL     1       5.514   2.817  -2.132  1.00  0.00     0.202 C 
ENDROOT
BRANCH   1   2
ATOM      2  C   UNL     1       4.081   2.132  -2.272  1.00  0.00     0.261 C 
BRANCH   2   3
ATOM      3  O   UNL     1       2.394   2.729  -3.267  1.00  0.00    -0.460 OA
BRANCH   3   4
ATOM      4  C   UNL     1       1.555   3.810  -3.874  1.00  0.00     0.340 C 
ATOM      5  O   UNL     1       0.804   4.523  -3.228  1.00  0.00    -0.246 OA
BRANCH   4   6
ATOM      6  C   UNL     1       1.764   4.270  -5.245  1.00  0.00     0.083 A 
ATOM      7  C   UNL     1       2.068   5.632  -5.492  1.00  0.00     0.055 A 
ATOM      8  C   UNL     1       2.142   6.093  -6.801  1.00  0.00     0.027 A 
ATOM      9  C   UNL     1       1.979   5.187  -7.845  1.00  0.00     0.002 A 
ATOM     10  C   UNL     1       1.477   3.400  -6.284  1.00  0.00     0.018 A 
ATOM     11  C   UNL     1       1.633   3.855  -7.588  1.00  0.00     0.001 A 
BRANCH   7  12
ATOM     12  N   UNL     1       2.378   6.562  -4.487  1.00  0.00    -0.324 N 
ATOM     13  C   UNL     1       3.336   6.403  -3.520  1.00  0.00     0.244 C 
ATOM     14  O   UNL     1       3.558   7.330  -2.735  1.00  0.00    -0.273 OA
ATOM     15  H   UNL     1       1.863   7.401  -4.477  1.00  0.00     0.170 HD
BRANCH  13  16
ATOM     16  C   UNL     1       4.284   5.198  -3.621  1.00  0.00     0.230 C 
BRANCH  16  17
ATOM     17  N   UNL     1       3.784   3.868  -3.275  1.00  0.00    -0.259 N 
ATOM     18  C   UNL     1       1.424   1.159  -0.635  1.00  0.00     0.029 C 
ATOM     19  C   UNL     1       2.130   1.779  -1.643  1.00  0.00     0.083 C 
ATOM     20  S   UNL     1       2.647   0.712  -3.555  1.00  0.00    -0.022 SA
ATOM     21  C   UNL     1       2.816   3.679  -1.768  1.00  0.00     0.268 C 
ATOM     22  C   UNL     1       3.884   2.486  -4.363  1.00  0.00     0.294 C 
ATOM     23  O   UNL     1       2.464   4.726  -1.236  1.00  0.00    -0.268 OA
ATOM     24  O   UNL     1       4.492   2.365  -5.413  1.00  0.00    -0.261 OA
BRANCH  18  25
ATOM     25  C   UNL     1       0.646   0.077   0.078  1.00  0.00    -0.021 A 
ATOM     26  C   UNL     1       2.645  -1.319   0.702  1.00  0.00     0.045 C 
ATOM     27  C   UNL     1       1.172  -1.101   0.596  1.00  0.00    -0.044 A 
ATOM     28  C   UNL     1       0.299  -2.094   1.116  1.00  0.00     0.004 A 
ATOM     29  C   UNL     1      -1.076  -1.880   1.250  1.00  0.00     0.000 A 
ATOM     30  C   UNL     1      -0.715   0.352   0.455  1.00  0.00     0.008 A 
ATOM     31  C   UNL     1      -1.576  -0.617   0.998  1.00  0.00     0.001 A 
ENDBRANCH  18  25
ENDBRANCH  16  17
ENDBRANCH  13  16
ENDBRANCH   7  12
ENDBRANCH   4   6
ENDBRANCH   3   4
ENDBRANCH   2   3
ENDBRANCH   1   2
BRANCH   1  32
ATOM     32  O   UNL     1       5.378   3.917  -1.239  1.00  0.00    -0.374 OA
BRANCH  32  33
ATOM     33  C   UNL     1       6.578   4.578  -0.897  1.00  0.00     0.202 C 
BRANCH  33  34
ATOM     34  C   UNL     1       7.496   3.622  -0.148  1.00  0.00     0.261 C 
BRANCH  34  35
ATOM     35  O   UNL     1       6.911   3.342   1.165  1.00  0.00    -0.460 OA
BRANCH  35  36
ATOM     36  C   UNL     1       5.993   2.342   1.345  1.00  0.00     0.338 C 
ATOM     37  O   UNL     1       6.245   1.150   1.245  1.00  0.00    -0.246 OA
BRANCH  36  38
ATOM     38  C   UNL     1       4.606   2.863   1.663  1.00  0.00     0.060 A 
ATOM     39  C   UNL     1       3.522   2.031   1.964  1.00  0.00     0.016 A 
ATOM     40  C   UNL     1       4.295   4.192   1.491  1.00  0.00     0.016 A 
ATOM     41  C   UNL     1       2.163   2.484   1.835  1.00  0.00     0.010 A 
ATOM     42  C   UNL     1       2.969   4.561   1.185  1.00  0.00     0.010 A 
ATOM     43  C   UNL     1       1.859   3.674   1.153  1.00  0.00    -0.014 A 
BRANCH  43  44
ATOM     44  C   UNL     1       0.461   4.067   0.311  1.00  0.00     0.031 A 
ATOM     45  C   UNL     1      -0.189   5.158   1.060  1.00  0.00     0.074 A 
ATOM     46  C   UNL     1      -0.307   3.647  -0.830  1.00  0.00     0.049 A 
ATOM     47  N   UNL     1      -1.341   5.025   1.647  1.00  0.00    -0.248 NA
ATOM     48  C   UNL     1       0.542   6.373   1.461  1.00  0.00     0.031 C 
ATOM     49  C   UNL     1      -1.340   4.412  -1.572  1.00  0.00     0.029 A 
ATOM     50  N   UNL     1      -0.271   2.523  -1.745  1.00  0.00    -0.354 N 
ATOM     51  C   UNL     1      -1.580   6.294   2.116  1.00  0.00     0.074 A 
ATOM     52  C   UNL     1      -0.277   6.819   2.408  1.00  0.00     0.031 C 
ATOM     53  C   UNL     1      -1.887   3.699  -2.599  1.00  0.00     0.029 A 
ATOM     54  C   UNL     1      -1.325   2.350  -2.643  1.00  0.00     0.049 A 
ATOM     55  H   UNL     1       0.484   1.892  -1.734  1.00  0.00     0.167 HD
ATOM     56  C   UNL     1      -2.623   7.023   1.614  1.00  0.00     0.031 A 
ATOM     57  C   UNL     1      -1.917   1.161  -3.029  1.00  0.00     0.031 A 
ATOM     58  C   UNL     1      -3.409   6.269   0.625  1.00  0.00     0.049 A 
ATOM     59  C   UNL     1      -3.224   1.187  -2.247  1.00  0.00     0.074 A 
ATOM     60  C   UNL     1      -3.687   6.487  -0.716  1.00  0.00     0.029 A 
ATOM     61  N   UNL     1      -3.800   4.957   0.881  1.00  0.00    -0.354 N 
ATOM     62  N   UNL     1      -3.421   2.116  -1.354  1.00  0.00    -0.248 NA
ATOM     63  C   UNL     1      -4.379   0.297  -2.338  1.00  0.00     0.031 C 
ATOM     64  C   UNL     1      -4.333   5.333  -1.233  1.00  0.00     0.029 A 
ATOM     65  C   UNL     1      -4.412   4.393  -0.220  1.00  0.00     0.049 A 
ATOM     66  H   UNL     1      -3.657   4.491   1.736  1.00  0.00     0.167 HD
ATOM     67  C   UNL     1      -4.683   2.095  -0.893  1.00  0.00     0.074 A 
ATOM     68  C   UNL     1      -5.233   0.880  -1.465  1.00  0.00     0.031 C 
ATOM     69  C   UNL     1      -5.117   3.117  -0.108  1.00  0.00     0.031 A 
BRANCH  56  70
ATOM     70  C   UNL     1      -2.707   8.541   1.747  1.00  0.00    -0.014 A 
ATOM     71  C   UNL     1      -3.675   9.238   1.007  1.00  0.00     0.009 A 
ATOM     72  C   UNL     1      -1.898   9.346   2.575  1.00  0.00     0.009 A 
ATOM     73  C   UNL     1      -3.792  10.633   1.045  1.00  0.00     0.001 A 
ATOM     74  C   UNL     1      -1.988  10.745   2.604  1.00  0.00     0.001 A 
ATOM     75  C   UNL     1      -2.942  11.389   1.838  1.00  0.00     0.000 A 
ENDBRANCH  56  70
BRANCH  57  76
ATOM     76  C   UNL     1      -1.137  -0.120  -3.362  1.00  0.00    -0.014 A 
ATOM     77  C   UNL     1      -0.615  -0.438  -4.636  1.00  0.00     0.009 A 
ATOM     78  C   UNL     1      -0.739  -1.010  -2.373  1.00  0.00     0.009 A 
ATOM     79  C   UNL     1       0.392  -1.434  -4.823  1.00  0.00     0.001 A 
ATOM     80  C   UNL     1       0.333  -1.920  -2.514  1.00  0.00     0.001 A 
ATOM     81  C   UNL     1       0.934  -2.109  -3.738  1.00  0.00     0.000 A 
ENDBRANCH  57  76
BRANCH  69  82
ATOM     82  C   UNL     1      -6.337   3.094   0.744  1.00  0.00    -0.014 A 
ATOM     83  C   UNL     1      -6.980   1.922   1.135  1.00  0.00     0.009 A 
ATOM     84  C   UNL     1      -6.791   4.309   1.306  1.00  0.00     0.009 A 
ATOM     85  C   UNL     1      -8.087   1.974   1.983  1.00  0.00     0.001 A 
ATOM     86  C   UNL     1      -7.847   4.359   2.203  1.00  0.00     0.001 A 
ATOM     87  C   UNL     1      -8.515   3.188   2.518  1.00  0.00     0.000 A 
ENDBRANCH  69  82
ENDBRANCH  43  44
ENDBRANCH  36  38
ENDBRANCH  35  36
ENDBRANCH  34  35
ENDBRANCH  33  34
ENDBRANCH  32  33
ENDBRANCH   1  32
TORSDOF 18
