REMARK SMILES C[C@@]12CCC[C@](C)(C(=O)OCCOCCOC(=O)c3ccc(-c4c5nc(c(-c6ccccc6)c6ccc([nH]6)c(-c6ccccc6)c6nc(c(-c7ccccc7)c7ccc4[nH]7)C=C6)C=C5)cc3)[C@H]1CC[C@@]13C=C(CO)[C@@H](CC[C@@H]12)C3
REMARK SMILES IDX 13 1 12 2 11 3 10 4 8 5 9 6 6 7 1 8 2 9 3 10 67 11 78 12
REMARK SMILES IDX 4 13 68 14 70 15 77 16 5 17 7 18 69 19 71 20 79 21 76 22
REMARK SMILES IDX 72 23 75 24 73 25 74 26 14 28 15 29 16 30 17 31 18 32 19 33
REMARK SMILES IDX 20 34 66 35 21 36 65 37 22 38 23 39 24 40 59 41 25 42 64 43
REMARK SMILES IDX 58 44 60 45 26 46 63 47 57 48 56 49 27 51 49 52 34 53 48 54
REMARK SMILES IDX 35 55 38 56 47 57 61 58 36 59 37 60 46 62 62 63 39 64 28 65
REMARK SMILES IDX 29 66 33 67 30 68 32 69 31 70 50 71 51 72 55 73 52 74 54 75
REMARK SMILES IDX 53 76 40 77 41 78 45 79 42 80 44 81 43 82
REMARK H PARENT 74 27 60 50 38 61
REMARK Flexibility Score: inf
ROOT
ATOM      1  O   UNL     1      -2.195   2.566   3.816  1.00  0.00    -0.374 OA
ENDROOT
BRANCH   1   2
ATOM      2  C   UNL     1      -1.232   3.591   3.585  1.00  0.00     0.202 C 
BRANCH   2   3
ATOM      3  C   UNL     1       0.244   3.252   3.790  1.00  0.00     0.261 C 
BRANCH   3   4
ATOM      4  O   UNL     1       0.662   2.209   2.902  1.00  0.00    -0.463 OA
BRANCH   4   5
ATOM      5  C   UNL     1       0.435   0.973   3.412  1.00  0.00     0.312 C 
ATOM      6  O   UNL     1      -0.001   0.767   4.540  1.00  0.00    -0.252 OA
BRANCH   5   7
ATOM      7  C   UNL     1       0.935  -0.140   2.499  1.00  0.00     0.069 C 
ATOM      8  C   UNL     1       2.797  -1.224   0.367  1.00  0.00     0.012 C 
ATOM      9  C   UNL     1       1.239  -1.292   0.182  1.00  0.00    -0.025 C 
ATOM     10  C   UNL     1       0.671  -2.595   0.795  1.00  0.00     0.007 C 
ATOM     11  C   UNL     1       0.604  -0.062   0.903  1.00  0.00     0.012 C 
ATOM     12  C   UNL     1       1.031  -1.366  -1.356  1.00  0.00     0.005 C 
ATOM     13  C   UNL     1       0.716  -2.696   2.308  1.00  0.00     0.002 C 
ATOM     14  C   UNL     1       0.849   1.242   0.084  1.00  0.00     0.006 C 
ATOM     15  C   UNL     1       1.188  -0.022  -2.168  1.00  0.00    -0.008 C 
ATOM     16  C   UNL     1       0.061  -2.279  -2.104  1.00  0.00     0.006 C 
ATOM     17  C   UNL     1       0.207  -1.434   2.983  1.00  0.00     0.019 C 
ATOM     18  C   UNL     1       2.403  -0.198   3.000  1.00  0.00     0.024 C 
ATOM     19  C   UNL     1       0.499   1.127  -1.436  1.00  0.00     0.012 C 
ATOM     20  C   UNL     1       2.658   0.085  -2.454  1.00  0.00    -0.018 C 
ATOM     21  C   UNL     1       0.788  -0.209  -3.669  1.00  0.00     0.019 C 
ATOM     22  C   UNL     1       0.846  -2.651  -3.418  1.00  0.00     0.008 C 
ATOM     23  C   UNL     1       2.962  -0.894  -3.337  1.00  0.00    -0.045 C 
ATOM     24  C   UNL     1       1.665  -1.433  -4.008  1.00  0.00     0.018 C 
BRANCH  23  25
ATOM     25  C   UNL     1       4.349  -1.385  -3.585  1.00  0.00     0.187 C 
BRANCH  25  26
ATOM     26  O   UNL     1       4.932  -1.842  -2.365  1.00  0.00    -0.392 OA
ATOM     27  H   UNL     1       4.965  -1.111  -1.729  1.00  0.00     0.211 HD
ENDBRANCH  25  26
ENDBRANCH  23  25
ENDBRANCH   5   7
ENDBRANCH   4   5
ENDBRANCH   3   4
ENDBRANCH   2   3
ENDBRANCH   1   2
BRANCH   1  28
ATOM     28  C   UNL     1      -2.450   1.636   2.760  1.00  0.00     0.202 C 
BRANCH  28  29
ATOM     29  C   UNL     1      -3.384   2.102   1.645  1.00  0.00     0.261 C 
BRANCH  29  30
ATOM     30  O   UNL     1      -2.713   3.041   0.782  1.00  0.00    -0.460 OA
BRANCH  30  31
ATOM     31  C   UNL     1      -3.046   4.334   0.991  1.00  0.00     0.338 C 
ATOM     32  O   UNL     1      -3.927   4.762   1.724  1.00  0.00    -0.246 OA
BRANCH  31  33
ATOM     33  C   UNL     1      -2.036   5.217   0.376  1.00  0.00     0.060 A 
ATOM     34  C   UNL     1      -1.530   6.266   1.160  1.00  0.00     0.016 A 
ATOM     35  C   UNL     1      -1.639   5.068  -0.953  1.00  0.00     0.016 A 
ATOM     36  C   UNL     1      -0.694   7.223   0.596  1.00  0.00     0.010 A 
ATOM     37  C   UNL     1      -0.814   6.041  -1.524  1.00  0.00     0.010 A 
ATOM     38  C   UNL     1      -0.389   7.149  -0.766  1.00  0.00    -0.014 A 
BRANCH  38  39
ATOM     39  C   UNL     1       0.158   8.338  -1.459  1.00  0.00     0.031 A 
ATOM     40  C   UNL     1      -0.798   9.201  -2.238  1.00  0.00     0.074 A 
ATOM     41  C   UNL     1       1.460   8.659  -1.391  1.00  0.00     0.049 A 
ATOM     42  N   UNL     1      -0.549  10.210  -3.031  1.00  0.00    -0.248 NA
ATOM     43  C   UNL     1      -2.229   8.875  -2.108  1.00  0.00     0.031 C 
ATOM     44  C   UNL     1       2.469   7.956  -0.602  1.00  0.00     0.029 A 
ATOM     45  N   UNL     1       2.156   9.663  -2.017  1.00  0.00    -0.354 N 
ATOM     46  C   UNL     1      -1.786  10.619  -3.516  1.00  0.00     0.074 A 
ATOM     47  C   UNL     1      -2.781   9.740  -2.945  1.00  0.00     0.031 C 
ATOM     48  C   UNL     1       3.663   8.539  -0.808  1.00  0.00     0.029 A 
ATOM     49  C   UNL     1       3.507   9.621  -1.779  1.00  0.00     0.049 A 
ATOM     50  H   UNL     1       1.728  10.346  -2.582  1.00  0.00     0.167 HD
ATOM     51  C   UNL     1      -2.067  11.636  -4.362  1.00  0.00     0.031 A 
ATOM     52  C   UNL     1       4.506  10.349  -2.316  1.00  0.00     0.031 A 
ATOM     53  C   UNL     1      -1.073  12.505  -4.930  1.00  0.00     0.049 A 
ATOM     54  C   UNL     1       4.181  11.412  -3.335  1.00  0.00     0.074 A 
ATOM     55  C   UNL     1      -1.254  13.569  -5.796  1.00  0.00     0.029 A 
ATOM     56  N   UNL     1       0.288  12.406  -4.691  1.00  0.00    -0.354 N 
ATOM     57  N   UNL     1       3.011  11.788  -3.794  1.00  0.00    -0.248 NA
ATOM     58  C   UNL     1       5.315  12.152  -3.909  1.00  0.00     0.031 C 
ATOM     59  C   UNL     1       0.005  14.075  -6.130  1.00  0.00     0.029 A 
ATOM     60  C   UNL     1       0.963  13.374  -5.413  1.00  0.00     0.049 A 
ATOM     61  H   UNL     1       0.711  11.745  -4.096  1.00  0.00     0.167 HD
ATOM     62  C   UNL     1       3.266  12.836  -4.672  1.00  0.00     0.074 A 
ATOM     63  C   UNL     1       4.700  13.034  -4.685  1.00  0.00     0.031 C 
ATOM     64  C   UNL     1       2.389  13.573  -5.395  1.00  0.00     0.031 A 
BRANCH  51  65
ATOM     65  C   UNL     1      -3.502  11.832  -4.763  1.00  0.00    -0.014 A 
ATOM     66  C   UNL     1      -4.462  12.307  -3.856  1.00  0.00     0.009 A 
ATOM     67  C   UNL     1      -3.892  11.567  -6.086  1.00  0.00     0.009 A 
ATOM     68  C   UNL     1      -5.789  12.480  -4.257  1.00  0.00     0.001 A 
ATOM     69  C   UNL     1      -5.211  11.771  -6.492  1.00  0.00     0.001 A 
ATOM     70  C   UNL     1      -6.160  12.217  -5.575  1.00  0.00     0.000 A 
ENDBRANCH  51  65
BRANCH  52  71
ATOM     71  C   UNL     1       5.916  10.077  -1.931  1.00  0.00    -0.014 A 
ATOM     72  C   UNL     1       6.655  11.023  -1.205  1.00  0.00     0.009 A 
ATOM     73  C   UNL     1       6.539   8.876  -2.308  1.00  0.00     0.009 A 
ATOM     74  C   UNL     1       7.995  10.784  -0.889  1.00  0.00     0.001 A 
ATOM     75  C   UNL     1       7.868   8.626  -1.964  1.00  0.00     0.001 A 
ATOM     76  C   UNL     1       8.599   9.584  -1.264  1.00  0.00     0.000 A 
ENDBRANCH  52  71
BRANCH  64  77
ATOM     77  C   UNL     1       2.931  14.716  -6.208  1.00  0.00    -0.014 A 
ATOM     78  C   UNL     1       3.639  14.503  -7.399  1.00  0.00     0.009 A 
ATOM     79  C   UNL     1       2.638  16.033  -5.816  1.00  0.00     0.009 A 
ATOM     80  C   UNL     1       4.058  15.589  -8.172  1.00  0.00     0.001 A 
ATOM     81  C   UNL     1       3.030  17.114  -6.605  1.00  0.00     0.001 A 
ATOM     82  C   UNL     1       3.745  16.891  -7.780  1.00  0.00     0.000 A 
ENDBRANCH  64  77
ENDBRANCH  38  39
ENDBRANCH  31  33
ENDBRANCH  30  31
ENDBRANCH  29  30
ENDBRANCH  28  29
ENDBRANCH   1  28
TORSDOF 16
