REMARK SMILES CC[N@@H+]1CC[C@H](C[NH2+]Cc2cc(C(=O)OCCOCCOC(=O)c3ccc(-c4c5nc(c(-c6ccccc6)c6ccc([nH]6)c(-c6ccccc6)c6nc(c(-c7ccccc7)c7ccc4[nH]7)C=C6)C=C5)cc3)cs2)C1
REMARK SMILES IDX 16 1 15 2 13 3 14 4 12 5 10 6 11 7 73 8 72 9 9 10 8 11 7 14
REMARK SMILES IDX 6 15 3 16 4 17 74 18 5 20 2 21 1 22 17 23 18 24 19 25 20 26
REMARK SMILES IDX 21 27 22 28 23 29 24 30 25 31 71 32 26 33 70 34 27 35 28 36
REMARK SMILES IDX 29 37 64 38 30 39 69 40 63 41 65 42 31 43 68 44 62 45 61 46
REMARK SMILES IDX 32 48 54 49 39 50 53 51 40 52 43 53 52 54 66 55 41 56 42 57
REMARK SMILES IDX 51 59 67 60 44 61 33 62 34 63 38 64 35 65 37 66 36 67 55 68
REMARK SMILES IDX 56 69 60 70 57 71 59 72 58 73 45 74 46 75 50 76 47 77 49 78
REMARK SMILES IDX 48 79
REMARK H PARENT 8 12 8 13 3 19 65 47 43 58
REMARK Flexibility Score: inf
ROOT
ATOM      1  C   UNL     1       1.008  -4.826   6.160  1.00  0.00     0.261 C 
ENDROOT
BRANCH   1   2
ATOM      2  O   UNL     1       1.472  -4.561   4.823  1.00  0.00    -0.460 OA
BRANCH   2   3
ATOM      3  C   UNL     1       1.491  -3.246   4.464  1.00  0.00     0.339 C 
ATOM      4  O   UNL     1       0.892  -2.350   5.045  1.00  0.00    -0.246 OA
BRANCH   3   5
ATOM      5  C   UNL     1       2.456  -2.992   3.400  1.00  0.00     0.071 A 
ATOM      6  C   UNL     1       3.814  -3.298   1.510  1.00  0.00     0.059 A 
ATOM      7  C   UNL     1       2.840  -3.857   2.319  1.00  0.00     0.037 A 
ATOM      8  S   UNL     1       4.397  -1.825   2.174  1.00  0.00    -0.142 S 
ATOM      9  C   UNL     1       3.188  -1.819   3.372  1.00  0.00     0.081 A 
BRANCH   6  10
ATOM     10  C   UNL     1       4.375  -3.807   0.207  1.00  0.00     0.308 C 
BRANCH  10  11
ATOM     11  N   UNL     1       3.504  -3.496  -0.938  1.00  0.00    -0.341 N 
ATOM     12  H   UNL     1       3.872  -3.961  -1.768  1.00  0.00     0.346 HD
ATOM     13  H   UNL     1       2.564  -3.824  -0.717  1.00  0.00     0.346 HD
BRANCH  11  14
ATOM     14  C   UNL     1       3.430  -2.053  -1.197  1.00  0.00     0.270 C 
BRANCH  14  15
ATOM     15  C   UNL     1       2.450  -1.675  -2.312  1.00  0.00     0.105 C 
ATOM     16  N   UNL     1       0.877   0.173  -2.381  1.00  0.00    -0.335 N 
ATOM     17  C   UNL     1       0.148  -1.071  -2.620  1.00  0.00     0.262 C 
ATOM     18  C   UNL     1       2.308  -0.147  -2.424  1.00  0.00     0.271 C 
ATOM     19  H   UNL     1       0.658   0.842  -3.118  1.00  0.00     0.348 HD
ATOM     20  C   UNL     1       1.029  -2.179  -2.081  1.00  0.00     0.076 C 
BRANCH  16  21
ATOM     21  C   UNL     1       0.449   0.919  -1.194  1.00  0.00     0.258 C 
ATOM     22  C   UNL     1       0.660   0.281   0.176  1.00  0.00     0.071 C 
ENDBRANCH  16  21
ENDBRANCH  14  15
ENDBRANCH  11  14
ENDBRANCH  10  11
ENDBRANCH   6  10
ENDBRANCH   3   5
ENDBRANCH   2   3
ENDBRANCH   1   2
BRANCH   1  23
ATOM     23  C   UNL     1       2.199  -5.165   7.064  1.00  0.00     0.202 C 
BRANCH  23  24
ATOM     24  O   UNL     1       3.012  -4.032   7.378  1.00  0.00    -0.374 OA
BRANCH  24  25
ATOM     25  C   UNL     1       4.115  -3.795   6.499  1.00  0.00     0.202 C 
BRANCH  25  26
ATOM     26  C   UNL     1       5.402  -4.511   6.911  1.00  0.00     0.261 C 
BRANCH  26  27
ATOM     27  O   UNL     1       5.288  -5.918   6.630  1.00  0.00    -0.460 OA
BRANCH  27  28
ATOM     28  C   UNL     1       5.159  -6.713   7.717  1.00  0.00     0.338 C 
ATOM     29  O   UNL     1       5.275  -6.391   8.887  1.00  0.00    -0.246 OA
BRANCH  28  30
ATOM     30  C   UNL     1       4.677  -8.046   7.298  1.00  0.00     0.060 A 
ATOM     31  C   UNL     1       3.694  -8.648   8.093  1.00  0.00     0.016 A 
ATOM     32  C   UNL     1       5.189  -8.712   6.180  1.00  0.00     0.016 A 
ATOM     33  C   UNL     1       3.257  -9.938   7.806  1.00  0.00     0.010 A 
ATOM     34  C   UNL     1       4.754 -10.011   5.896  1.00  0.00     0.010 A 
ATOM     35  C   UNL     1       3.813 -10.641   6.729  1.00  0.00    -0.014 A 
BRANCH  35  36
ATOM     36  C   UNL     1       3.520 -12.085   6.579  1.00  0.00     0.031 A 
ATOM     37  C   UNL     1       4.480 -13.084   7.163  1.00  0.00     0.074 A 
ATOM     38  C   UNL     1       2.397 -12.504   5.972  1.00  0.00     0.049 A 
ATOM     39  N   UNL     1       4.414 -14.391   7.167  1.00  0.00    -0.248 NA
ATOM     40  C   UNL     1       5.670 -12.536   7.835  1.00  0.00     0.031 C 
ATOM     41  C   UNL     1       1.367 -11.637   5.402  1.00  0.00     0.029 A 
ATOM     42  N   UNL     1       1.936 -13.775   5.741  1.00  0.00    -0.354 N 
ATOM     43  C   UNL     1       5.550 -14.821   7.842  1.00  0.00     0.074 A 
ATOM     44  C   UNL     1       6.301 -13.639   8.208  1.00  0.00     0.031 C 
ATOM     45  C   UNL     1       0.393 -12.405   4.882  1.00  0.00     0.029 A 
ATOM     46  C   UNL     1       0.743 -13.812   5.064  1.00  0.00     0.049 A 
ATOM     47  H   UNL     1       2.416 -14.584   6.033  1.00  0.00     0.167 HD
ATOM     48  C   UNL     1       5.932 -16.085   8.138  1.00  0.00     0.031 A 
ATOM     49  C   UNL     1       0.023 -14.864   4.631  1.00  0.00     0.031 A 
ATOM     50  C   UNL     1       5.200 -17.264   7.765  1.00  0.00     0.049 A 
ATOM     51  C   UNL     1       0.509 -16.262   4.902  1.00  0.00     0.074 A 
ATOM     52  C   UNL     1       5.503 -18.588   8.031  1.00  0.00     0.029 A 
ATOM     53  N   UNL     1       4.023 -17.260   7.035  1.00  0.00    -0.354 N 
ATOM     54  N   UNL     1       1.570 -16.653   5.564  1.00  0.00    -0.248 NA
ATOM     55  C   UNL     1      -0.308 -17.362   4.368  1.00  0.00     0.031 C 
ATOM     56  C   UNL     1       4.529 -19.388   7.423  1.00  0.00     0.029 A 
ATOM     57  C   UNL     1       3.600 -18.559   6.817  1.00  0.00     0.049 A 
ATOM     58  H   UNL     1       3.557 -16.452   6.718  1.00  0.00     0.167 HD
ATOM     59  C   UNL     1       1.538 -18.042   5.544  1.00  0.00     0.074 A 
ATOM     60  C   UNL     1       0.347 -18.425   4.815  1.00  0.00     0.031 C 
ATOM     61  C   UNL     1       2.416 -18.922   6.084  1.00  0.00     0.031 A 
BRANCH  48  62
ATOM     62  C   UNL     1       7.224 -16.251   8.883  1.00  0.00    -0.014 A 
ATOM     63  C   UNL     1       7.313 -15.959  10.253  1.00  0.00     0.009 A 
ATOM     64  C   UNL     1       8.361 -16.722   8.210  1.00  0.00     0.009 A 
ATOM     65  C   UNL     1       8.526 -16.108  10.928  1.00  0.00     0.001 A 
ATOM     66  C   UNL     1       9.567 -16.890   8.892  1.00  0.00     0.001 A 
ATOM     67  C   UNL     1       9.650 -16.576  10.248  1.00  0.00     0.000 A 
ENDBRANCH  48  62
BRANCH  49  68
ATOM     68  C   UNL     1      -1.234 -14.640   3.873  1.00  0.00    -0.014 A 
ATOM     69  C   UNL     1      -2.480 -14.909   4.459  1.00  0.00     0.009 A 
ATOM     70  C   UNL     1      -1.189 -14.176   2.549  1.00  0.00     0.009 A 
ATOM     71  C   UNL     1      -3.656 -14.735   3.726  1.00  0.00     0.001 A 
ATOM     72  C   UNL     1      -2.368 -13.982   1.827  1.00  0.00     0.001 A 
ATOM     73  C   UNL     1      -3.600 -14.269   2.413  1.00  0.00     0.000 A 
ENDBRANCH  49  68
BRANCH  61  74
ATOM     74  C   UNL     1       2.109 -20.383   5.925  1.00  0.00    -0.014 A 
ATOM     75  C   UNL     1       2.313 -21.037   4.701  1.00  0.00     0.009 A 
ATOM     76  C   UNL     1       1.651 -21.122   7.027  1.00  0.00     0.009 A 
ATOM     77  C   UNL     1       2.038 -22.400   4.576  1.00  0.00     0.001 A 
ATOM     78  C   UNL     1       1.398 -22.489   6.905  1.00  0.00     0.001 A 
ATOM     79  C   UNL     1       1.585 -23.125   5.678  1.00  0.00     0.000 A 
ENDBRANCH  61  74
ENDBRANCH  35  36
ENDBRANCH  28  30
ENDBRANCH  27  28
ENDBRANCH  26  27
ENDBRANCH  25  26
ENDBRANCH  24  25
ENDBRANCH  23  24
ENDBRANCH   1  23
TORSDOF 19
