REMARK SMILES O=C(C[C@H](c1ccsc1)n1cccc1)OCCOCCOC(=O)c1ccc(-c2c3nc(c(-c4ccccc4)c4ccc([nH]4)c(-c4ccccc4)c4nc(c(-c5ccccc5)c5ccc2[nH]5)C=C4)C=C3)cc1
REMARK SMILES IDX 18 1 17 2 16 3 15 4 2 5 1 6 3 7 4 8 10 9 11 10 14 11 12 12
REMARK SMILES IDX 13 13 5 14 6 15 9 16 7 17 8 18 19 19 20 20 21 21 22 22 23 23
REMARK SMILES IDX 24 24 25 25 71 26 26 27 70 28 27 29 28 30 29 31 64 32 30 33
REMARK SMILES IDX 69 34 63 35 65 36 31 37 68 38 62 39 61 40 32 42 54 43 39 44
REMARK SMILES IDX 53 45 40 46 43 47 52 48 66 49 41 50 42 51 51 53 67 54 44 55
REMARK SMILES IDX 33 56 34 57 38 58 35 59 37 60 36 61 55 62 56 63 60 64 57 65
REMARK SMILES IDX 59 66 58 67 45 68 46 69 50 70 47 71 49 72 48 73
REMARK H PARENT 65 41 43 52
REMARK Flexibility Score: inf
ROOT
ATOM      1  O   UNL     1       6.050   1.881   1.995  1.00  0.00    -0.374 OA
ENDROOT
BRANCH   1   2
ATOM      2  C   UNL     1       5.258   2.245   3.126  1.00  0.00     0.202 C 
BRANCH   2   3
ATOM      3  C   UNL     1       3.766   2.053   2.930  1.00  0.00     0.261 C 
BRANCH   3   4
ATOM      4  O   UNL     1       3.401   0.667   2.805  1.00  0.00    -0.463 OA
BRANCH   4   5
ATOM      5  C   UNL     1       3.214   0.002   1.646  1.00  0.00     0.308 C 
ATOM      6  O   UNL     1       2.645  -1.087   1.661  1.00  0.00    -0.252 OA
BRANCH   5   7
ATOM      7  C   UNL     1       3.795   0.537   0.370  1.00  0.00     0.153 C 
BRANCH   7   8
ATOM      8  C   UNL     1       3.027   1.700  -0.243  1.00  0.00     0.128 C 
BRANCH   8   9
ATOM      9  N   UNL     1       3.897   2.847  -0.575  1.00  0.00    -0.346 N 
ATOM     10  C   UNL     1       3.654   4.146  -0.183  1.00  0.00     0.086 A 
ATOM     11  C   UNL     1       5.139   2.800  -1.166  1.00  0.00     0.086 A 
ATOM     12  C   UNL     1       4.748   4.915  -0.513  1.00  0.00     0.019 A 
ATOM     13  C   UNL     1       5.687   4.064  -1.137  1.00  0.00     0.019 A 
ENDBRANCH   8   9
BRANCH   8  14
ATOM     14  C   UNL     1       2.225   1.225  -1.424  1.00  0.00    -0.014 A 
ATOM     15  C   UNL     1       2.761   0.776  -2.677  1.00  0.00     0.017 A 
ATOM     16  C   UNL     1       0.854   1.038  -1.382  1.00  0.00     0.070 A 
ATOM     17  C   UNL     1       1.797   0.245  -3.502  1.00  0.00     0.065 A 
ATOM     18  S   UNL     1       0.241   0.321  -2.804  1.00  0.00    -0.152 S 
ENDBRANCH   8  14
ENDBRANCH   7   8
ENDBRANCH   5   7
ENDBRANCH   4   5
ENDBRANCH   3   4
ENDBRANCH   2   3
ENDBRANCH   1   2
BRANCH   1  19
ATOM     19  C   UNL     1       6.632   0.571   2.007  1.00  0.00     0.202 C 
BRANCH  19  20
ATOM     20  C   UNL     1       8.011   0.513   2.626  1.00  0.00     0.261 C 
BRANCH  20  21
ATOM     21  O   UNL     1       7.866   0.659   4.024  1.00  0.00    -0.460 OA
BRANCH  21  22
ATOM     22  C   UNL     1       7.877   1.926   4.461  1.00  0.00     0.338 C 
ATOM     23  O   UNL     1       8.051   2.955   3.808  1.00  0.00    -0.246 OA
BRANCH  22  24
ATOM     24  C   UNL     1       7.742   1.898   5.913  1.00  0.00     0.060 A 
ATOM     25  C   UNL     1       7.911   3.135   6.532  1.00  0.00     0.016 A 
ATOM     26  C   UNL     1       7.993   0.675   6.552  1.00  0.00     0.016 A 
ATOM     27  C   UNL     1       8.678   3.161   7.664  1.00  0.00     0.010 A 
ATOM     28  C   UNL     1       8.828   0.702   7.632  1.00  0.00     0.010 A 
ATOM     29  C   UNL     1       9.210   1.951   8.128  1.00  0.00    -0.014 A 
BRANCH  29  30
ATOM     30  C   UNL     1      10.109   2.011   9.265  1.00  0.00     0.031 A 
ATOM     31  C   UNL     1       9.321   1.936  10.553  1.00  0.00     0.074 A 
ATOM     32  C   UNL     1      11.426   2.188   8.962  1.00  0.00     0.049 A 
ATOM     33  N   UNL     1       9.647   2.358  11.729  1.00  0.00    -0.248 NA
ATOM     34  C   UNL     1       7.938   1.376  10.530  1.00  0.00     0.031 C 
ATOM     35  C   UNL     1      11.983   2.236   7.588  1.00  0.00     0.029 A 
ATOM     36  N   UNL     1      12.551   2.380   9.724  1.00  0.00    -0.354 N 
ATOM     37  C   UNL     1       8.615   1.976  12.596  1.00  0.00     0.074 A 
ATOM     38  C   UNL     1       7.546   1.469  11.796  1.00  0.00     0.031 C 
ATOM     39  C   UNL     1      13.303   2.514   7.620  1.00  0.00     0.029 A 
ATOM     40  C   UNL     1      13.731   2.653   8.998  1.00  0.00     0.049 A 
ATOM     41  H   UNL     1      12.536   2.330  10.707  1.00  0.00     0.167 HD
ATOM     42  C   UNL     1       8.748   1.979  13.946  1.00  0.00     0.031 A 
ATOM     43  C   UNL     1      14.959   3.009   9.475  1.00  0.00     0.031 A 
ATOM     44  C   UNL     1       9.982   2.570  14.341  1.00  0.00     0.049 A 
ATOM     45  C   UNL     1      14.870   2.937  10.944  1.00  0.00     0.074 A 
ATOM     46  C   UNL     1      10.436   3.865  14.309  1.00  0.00     0.029 A 
ATOM     47  N   UNL     1      11.061   1.729  14.470  1.00  0.00    -0.354 N 
ATOM     48  N   UNL     1      14.797   1.838  11.630  1.00  0.00    -0.248 NA
ATOM     49  C   UNL     1      14.775   4.181  11.716  1.00  0.00     0.031 C 
ATOM     50  C   UNL     1      11.809   3.746  13.993  1.00  0.00     0.029 A 
ATOM     51  C   UNL     1      12.155   2.392  13.961  1.00  0.00     0.049 A 
ATOM     52  H   UNL     1      11.053   0.822  14.854  1.00  0.00     0.167 HD
ATOM     53  C   UNL     1      14.262   2.261  12.823  1.00  0.00     0.074 A 
ATOM     54  C   UNL     1      14.565   3.671  12.928  1.00  0.00     0.031 C 
ATOM     55  C   UNL     1      13.206   1.598  13.361  1.00  0.00     0.031 A 
BRANCH  42  56
ATOM     56  C   UNL     1       7.901   1.282  14.955  1.00  0.00    -0.014 A 
ATOM     57  C   UNL     1       7.995   1.708  16.293  1.00  0.00     0.009 A 
ATOM     58  C   UNL     1       7.236   0.074  14.699  1.00  0.00     0.009 A 
ATOM     59  C   UNL     1       7.512   0.925  17.341  1.00  0.00     0.001 A 
ATOM     60  C   UNL     1       6.720  -0.695  15.746  1.00  0.00     0.001 A 
ATOM     61  C   UNL     1       6.883  -0.284  17.066  1.00  0.00     0.000 A 
ENDBRANCH  42  56
BRANCH  43  62
ATOM     62  C   UNL     1      16.262   3.496   8.906  1.00  0.00    -0.014 A 
ATOM     63  C   UNL     1      16.560   3.641   7.549  1.00  0.00     0.009 A 
ATOM     64  C   UNL     1      17.279   3.916   9.806  1.00  0.00     0.009 A 
ATOM     65  C   UNL     1      17.765   4.238   7.124  1.00  0.00     0.001 A 
ATOM     66  C   UNL     1      18.457   4.543   9.394  1.00  0.00     0.001 A 
ATOM     67  C   UNL     1      18.697   4.714   8.044  1.00  0.00     0.000 A 
ENDBRANCH  43  62
BRANCH  55  68
ATOM     68  C   UNL     1      13.029   0.174  12.850  1.00  0.00    -0.014 A 
ATOM     69  C   UNL     1      14.034  -0.786  13.043  1.00  0.00     0.009 A 
ATOM     70  C   UNL     1      11.933  -0.201  12.054  1.00  0.00     0.009 A 
ATOM     71  C   UNL     1      13.954  -2.051  12.443  1.00  0.00     0.001 A 
ATOM     72  C   UNL     1      11.845  -1.464  11.455  1.00  0.00     0.001 A 
ATOM     73  C   UNL     1      12.863  -2.390  11.646  1.00  0.00     0.000 A 
ENDBRANCH  55  68
ENDBRANCH  29  30
ENDBRANCH  22  24
ENDBRANCH  21  22
ENDBRANCH  20  21
ENDBRANCH  19  20
ENDBRANCH   1  19
TORSDOF 17
