REMARK SMILES CCc1nnc(/[NH+]=C2/S/C(=C/c3ccccc3OCCC(=O)OCCOCCOC(=O)c3ccc(-c4c5nc(c(-c6ccccc6)c6ccc([nH]6)c(-c6ccccc6)c6nc(c(-c7ccccc7)c7ccc4[nH]7)C=C6)C=C5)cc3)C(=O)N2C)s1
REMARK SMILES IDX 24 1 23 2 21 3 22 4 20 5 19 6 18 7 17 8 12 9 13 10 14 11
REMARK SMILES IDX 16 12 15 13 11 14 7 15 8 16 9 18 82 19 10 20 80 21 83 22
REMARK SMILES IDX 81 23 6 24 3 25 4 26 84 27 5 28 2 29 1 30 25 31 26 32 27 33
REMARK SMILES IDX 28 34 29 35 30 36 31 37 32 38 33 39 79 40 34 41 78 42 35 43
REMARK SMILES IDX 36 44 37 45 72 46 38 47 77 48 71 49 73 50 39 51 76 52 70 53
REMARK SMILES IDX 69 54 40 56 62 57 47 58 61 59 48 60 51 61 60 62 74 63 49 64
REMARK SMILES IDX 50 65 59 67 75 68 52 69 41 70 42 71 46 72 43 73 45 74 44 75
REMARK SMILES IDX 63 76 64 77 68 78 65 79 67 80 66 81 53 82 54 83 58 84 55 85
REMARK SMILES IDX 57 86 56 87
REMARK H PARENT 7 17 73 55 51 66
REMARK Flexibility Score: inf
ROOT
ATOM      1  C   UNL     1      -0.768 -12.131  -0.150  1.00  0.00     0.261 C 
ENDROOT
BRANCH   1   2
ATOM      2  O   UNL     1      -0.386 -11.202  -1.210  1.00  0.00    -0.463 OA
BRANCH   2   3
ATOM      3  C   UNL     1       0.004  -9.966  -0.756  1.00  0.00     0.309 C 
ATOM      4  O   UNL     1       0.213  -9.809   0.433  1.00  0.00    -0.252 OA
BRANCH   3   5
ATOM      5  C   UNL     1       0.080  -8.928  -1.912  1.00  0.00     0.164 C 
BRANCH   5   6
ATOM      6  C   UNL     1       0.804  -7.526  -1.867  1.00  0.00     0.241 C 
BRANCH   6   7
ATOM      7  O   UNL     1       2.232  -7.321  -1.714  1.00  0.00    -0.492 OA
BRANCH   7   8
ATOM      8  C   UNL     1       2.873  -8.518  -1.700  1.00  0.00     0.126 A 
ATOM      9  C   UNL     1       2.913  -9.222  -0.504  1.00  0.00     0.018 A 
ATOM     10  C   UNL     1       2.971 -10.597  -0.661  1.00  0.00     0.012 A 
ATOM     11  C   UNL     1       2.990 -11.208  -1.920  1.00  0.00     0.001 A 
ATOM     12  C   UNL     1       3.185  -9.090  -2.947  1.00  0.00     0.047 A 
ATOM     13  C   UNL     1       3.218 -10.466  -3.062  1.00  0.00     0.004 A 
BRANCH   9  14
ATOM     14  C   UNL     1       2.901  -8.626   0.856  1.00  0.00     0.035 C 
ATOM     15  N   UNL     1       2.388  -4.473   3.058  1.00  0.00    -0.226 N 
ATOM     16  C   UNL     1       1.858  -5.590   2.688  1.00  0.00     0.271 C 
ATOM     17  H   UNL     1       3.112  -4.436   3.724  1.00  0.00     0.268 HD
ATOM     18  S   UNL     1       2.721  -7.084   3.035  1.00  0.00    -0.012 SA
ATOM     19  N   UNL     1       0.753  -5.879   1.936  1.00  0.00    -0.222 N 
ATOM     20  C   UNL     1       2.095  -7.801   1.560  1.00  0.00     0.100 C 
ATOM     21  C   UNL     1       0.762  -7.125   1.349  1.00  0.00     0.321 C 
ATOM     22  C   UNL     1      -0.429  -5.058   1.708  1.00  0.00     0.252 C 
ATOM     23  O   UNL     1      -0.230  -7.547   0.777  1.00  0.00    -0.250 OA
BRANCH  15  24
ATOM     24  C   UNL     1       1.893  -3.356   2.479  1.00  0.00     0.345 A 
ATOM     25  C   UNL     1       1.125  -1.789   0.854  1.00  0.00     0.138 A 
ATOM     26  N   UNL     1       0.534  -1.630   2.019  1.00  0.00    -0.067 NA
ATOM     27  S   UNL     1       2.379  -2.955   0.858  1.00  0.00    -0.044 S 
ATOM     28  N   UNL     1       1.016  -2.506   2.971  1.00  0.00     0.023 NA
BRANCH  25  29
ATOM     29  C   UNL     1       0.736  -1.077  -0.396  1.00  0.00     0.068 C 
ATOM     30  C   UNL     1       1.071   0.400  -0.317  1.00  0.00     0.012 C 
ENDBRANCH  25  29
ENDBRANCH  15  24
ENDBRANCH   9  14
ENDBRANCH   7   8
ENDBRANCH   6   7
ENDBRANCH   5   6
ENDBRANCH   3   5
ENDBRANCH   2   3
ENDBRANCH   1   2
BRANCH   1  31
ATOM     31  C   UNL     1       0.385 -12.982   0.429  1.00  0.00     0.202 C 
BRANCH  31  32
ATOM     32  O   UNL     1       0.535 -12.923   1.855  1.00  0.00    -0.374 OA
BRANCH  32  33
ATOM     33  C   UNL     1       1.603 -12.115   2.362  1.00  0.00     0.202 C 
BRANCH  33  34
ATOM     34  C   UNL     1       3.002 -12.780   2.369  1.00  0.00     0.261 C 
BRANCH  34  35
ATOM     35  O   UNL     1       3.454 -13.127   1.043  1.00  0.00    -0.460 OA
BRANCH  35  36
ATOM     36  C   UNL     1       3.665 -14.439   0.773  1.00  0.00     0.338 C 
ATOM     37  O   UNL     1       3.673 -15.360   1.551  1.00  0.00    -0.246 OA
BRANCH  36  38
ATOM     38  C   UNL     1       3.651 -14.604  -0.704  1.00  0.00     0.060 A 
ATOM     39  C   UNL     1       2.611 -15.369  -1.242  1.00  0.00     0.016 A 
ATOM     40  C   UNL     1       4.576 -13.986  -1.553  1.00  0.00     0.016 A 
ATOM     41  C   UNL     1       2.477 -15.506  -2.627  1.00  0.00     0.010 A 
ATOM     42  C   UNL     1       4.433 -14.118  -2.947  1.00  0.00     0.010 A 
ATOM     43  C   UNL     1       3.386 -14.886  -3.495  1.00  0.00    -0.014 A 
BRANCH  43  44
ATOM     44  C   UNL     1       3.332 -15.196  -4.951  1.00  0.00     0.031 A 
ATOM     45  C   UNL     1       4.304 -16.208  -5.497  1.00  0.00     0.074 A 
ATOM     46  C   UNL     1       2.411 -14.658  -5.776  1.00  0.00     0.049 A 
ATOM     47  N   UNL     1       4.398 -16.703  -6.705  1.00  0.00    -0.248 NA
ATOM     48  C   UNL     1       5.296 -16.738  -4.548  1.00  0.00     0.031 C 
ATOM     49  C   UNL     1       1.380 -13.692  -5.397  1.00  0.00     0.029 A 
ATOM     50  N   UNL     1       2.194 -14.863  -7.121  1.00  0.00    -0.354 N 
ATOM     51  C   UNL     1       5.447 -17.611  -6.654  1.00  0.00     0.074 A 
ATOM     52  C   UNL     1       5.992 -17.560  -5.316  1.00  0.00     0.031 C 
ATOM     53  C   UNL     1       0.643 -13.390  -6.483  1.00  0.00     0.029 A 
ATOM     54  C   UNL     1       1.156 -14.125  -7.639  1.00  0.00     0.049 A 
ATOM     55  H   UNL     1       2.734 -15.483  -7.662  1.00  0.00     0.167 HD
ATOM     56  C   UNL     1       5.910 -18.436  -7.622  1.00  0.00     0.031 A 
ATOM     57  C   UNL     1       0.677 -14.046  -8.899  1.00  0.00     0.031 A 
ATOM     58  C   UNL     1       5.402 -18.489  -8.964  1.00  0.00     0.049 A 
ATOM     59  C   UNL     1       1.290 -14.888  -9.992  1.00  0.00     0.074 A 
ATOM     60  C   UNL     1       5.799 -19.314 -10.001  1.00  0.00     0.029 A 
ATOM     61  N   UNL     1       4.403 -17.670  -9.460  1.00  0.00    -0.354 N 
ATOM     62  N   UNL     1       2.234 -15.793  -9.910  1.00  0.00    -0.248 NA
ATOM     63  C   UNL     1       0.764 -14.697 -11.355  1.00  0.00     0.031 C 
ATOM     64  C   UNL     1       5.083 -18.949 -11.146  1.00  0.00     0.029 A 
ATOM     65  C   UNL     1       4.202 -17.936 -10.803  1.00  0.00     0.049 A 
ATOM     66  H   UNL     1       3.909 -16.998  -8.936  1.00  0.00     0.167 HD
ATOM     67  C   UNL     1       2.396 -16.295 -11.197  1.00  0.00     0.074 A 
ATOM     68  C   UNL     1       1.444 -15.606 -12.041  1.00  0.00     0.031 C 
ATOM     69  C   UNL     1       3.257 -17.244 -11.639  1.00  0.00     0.031 A 
BRANCH  56  70
ATOM     70  C   UNL     1       7.055 -19.335  -7.257  1.00  0.00    -0.014 A 
ATOM     71  C   UNL     1       6.867 -20.440  -6.411  1.00  0.00     0.009 A 
ATOM     72  C   UNL     1       8.334 -19.077  -7.771  1.00  0.00     0.009 A 
ATOM     73  C   UNL     1       7.948 -21.249  -6.059  1.00  0.00     0.001 A 
ATOM     74  C   UNL     1       9.407 -19.904  -7.438  1.00  0.00     0.001 A 
ATOM     75  C   UNL     1       9.216 -20.982  -6.575  1.00  0.00     0.000 A 
ENDBRANCH  56  70
BRANCH  57  76
ATOM     76  C   UNL     1      -0.433 -13.110  -9.230  1.00  0.00    -0.014 A 
ATOM     77  C   UNL     1      -1.696 -13.593  -9.608  1.00  0.00     0.009 A 
ATOM     78  C   UNL     1      -0.211 -11.723  -9.236  1.00  0.00     0.009 A 
ATOM     79  C   UNL     1      -2.701 -12.710 -10.013  1.00  0.00     0.001 A 
ATOM     80  C   UNL     1      -1.226 -10.842  -9.614  1.00  0.00     0.001 A 
ATOM     81  C   UNL     1      -2.467 -11.335 -10.013  1.00  0.00     0.000 A 
ENDBRANCH  57  76
BRANCH  69  82
ATOM     82  C   UNL     1       3.209 -17.613 -13.096  1.00  0.00    -0.014 A 
ATOM     83  C   UNL     1       3.717 -16.750 -14.080  1.00  0.00     0.009 A 
ATOM     84  C   UNL     1       2.719 -18.870 -13.484  1.00  0.00     0.009 A 
ATOM     85  C   UNL     1       3.715 -17.131 -15.424  1.00  0.00     0.001 A 
ATOM     86  C   UNL     1       2.744 -19.260 -14.824  1.00  0.00     0.001 A 
ATOM     87  C   UNL     1       3.236 -18.388 -15.794  1.00  0.00     0.000 A 
ENDBRANCH  69  82
ENDBRANCH  43  44
ENDBRANCH  36  38
ENDBRANCH  35  36
ENDBRANCH  34  35
ENDBRANCH  33  34
ENDBRANCH  32  33
ENDBRANCH  31  32
ENDBRANCH   1  31
TORSDOF 20
