REMARK SMILES CCC[C@H](NC(=O)Cn1cccc1C(=O)OCCOCCOC(=O)c1ccc(-c2c3nc(c(-c4ccccc4)c4ccc([nH]4)c(-c4ccccc4)c4nc(c(-c5ccccc5)c5ccc2[nH]5)C=C4)C=C3)cc1)c1cccs1
REMARK SMILES IDX 17 1 16 2 14 3 15 4 13 5 9 6 10 7 11 8 12 9 8 10 6 11 5 12
REMARK SMILES IDX 7 14 4 15 3 16 2 17 1 18 73 19 74 20 77 21 75 22 76 23 18 24
REMARK SMILES IDX 19 25 20 26 21 27 22 28 23 29 24 30 25 31 26 32 72 33 27 34
REMARK SMILES IDX 71 35 28 36 29 37 30 38 65 39 31 40 70 41 64 42 66 43 32 44
REMARK SMILES IDX 69 45 63 46 62 47 33 49 55 50 40 51 54 52 41 53 44 54 53 55
REMARK SMILES IDX 67 56 42 57 43 58 52 60 68 61 45 62 34 63 35 64 39 65 36 66
REMARK SMILES IDX 38 67 37 68 56 69 57 70 61 71 58 72 60 73 59 74 46 75 47 76
REMARK SMILES IDX 51 77 48 78 50 79 49 80
REMARK H PARENT 5 13 66 48 44 59
REMARK Flexibility Score: inf
ROOT
ATOM      1  C   UNL     1      -2.065  -1.748  -7.277  1.00  0.00     0.261 C 
ENDROOT
BRANCH   1   2
ATOM      2  O   UNL     1      -0.846  -1.080  -6.920  1.00  0.00    -0.459 OA
BRANCH   2   3
ATOM      3  C   UNL     1       0.157  -1.932  -6.563  1.00  0.00     0.355 C 
ATOM      4  O   UNL     1       0.047  -3.145  -6.520  1.00  0.00    -0.244 OA
BRANCH   3   5
ATOM      5  C   UNL     1       1.401  -1.212  -6.416  1.00  0.00     0.128 A 
ATOM      6  N   UNL     1       1.638  -0.091  -5.647  1.00  0.00    -0.333 N 
ATOM      7  C   UNL     1       2.962   0.271  -5.764  1.00  0.00     0.087 A 
ATOM      8  C   UNL     1       3.604  -0.671  -6.532  1.00  0.00     0.020 A 
ATOM      9  C   UNL     1       2.628  -1.602  -6.937  1.00  0.00     0.035 A 
BRANCH   6  10
ATOM     10  C   UNL     1       0.685   0.545  -4.744  1.00  0.00     0.222 C 
BRANCH  10  11
ATOM     11  C   UNL     1       1.284   0.805  -3.378  1.00  0.00     0.240 C 
ATOM     12  N   UNL     1       1.242  -0.122  -2.383  1.00  0.00    -0.347 N 
ATOM     13  H   UNL     1       1.861   0.071  -1.641  1.00  0.00     0.164 HD
ATOM     14  O   UNL     1       1.859   1.871  -3.132  1.00  0.00    -0.273 OA
BRANCH  12  15
ATOM     15  C   UNL     1       0.464  -1.348  -2.189  1.00  0.00     0.122 C 
BRANCH  15  16
ATOM     16  C   UNL     1      -1.051  -1.058  -2.227  1.00  0.00     0.030 C 
BRANCH  16  17
ATOM     17  C   UNL     1      -1.810  -1.685  -1.048  1.00  0.00    -0.001 C 
ATOM     18  C   UNL     1      -1.478  -1.029   0.287  1.00  0.00     0.004 C 
ENDBRANCH  16  17
ENDBRANCH  15  16
BRANCH  15  19
ATOM     19  C   UNL     1       0.954  -2.506  -3.032  1.00  0.00     0.027 A 
ATOM     20  C   UNL     1       2.203  -2.711  -3.596  1.00  0.00     0.017 A 
ATOM     21  S   UNL     1      -0.026  -3.912  -3.246  1.00  0.00    -0.147 S 
ATOM     22  C   UNL     1       2.302  -3.949  -4.300  1.00  0.00     0.012 A 
ATOM     23  C   UNL     1       1.151  -4.692  -4.200  1.00  0.00     0.065 A 
ENDBRANCH  15  19
ENDBRANCH  12  15
ENDBRANCH  10  11
ENDBRANCH   6  10
ENDBRANCH   3   5
ENDBRANCH   2   3
ENDBRANCH   1   2
BRANCH   1  24
ATOM     24  C   UNL     1      -2.297  -1.859  -8.787  1.00  0.00     0.202 C 
BRANCH  24  25
ATOM     25  O   UNL     1      -1.459  -2.665  -9.609  1.00  0.00    -0.374 OA
BRANCH  25  26
ATOM     26  C   UNL     1      -0.047  -2.529  -9.663  1.00  0.00     0.202 C 
BRANCH  26  27
ATOM     27  C   UNL     1       0.611  -1.217 -10.082  1.00  0.00     0.261 C 
BRANCH  27  28
ATOM     28  O   UNL     1      -0.016  -0.059  -9.566  1.00  0.00    -0.460 OA
BRANCH  28  29
ATOM     29  C   UNL     1      -0.954   0.388 -10.426  1.00  0.00     0.338 C 
ATOM     30  O   UNL     1      -1.473  -0.224 -11.346  1.00  0.00    -0.246 OA
BRANCH  29  31
ATOM     31  C   UNL     1      -1.150   1.821 -10.255  1.00  0.00     0.060 A 
ATOM     32  C   UNL     1      -2.256   2.327 -10.939  1.00  0.00     0.016 A 
ATOM     33  C   UNL     1      -0.012   2.583  -9.961  1.00  0.00     0.016 A 
ATOM     34  C   UNL     1      -2.114   3.534 -11.572  1.00  0.00     0.010 A 
ATOM     35  C   UNL     1       0.144   3.776 -10.624  1.00  0.00     0.010 A 
ATOM     36  C   UNL     1      -0.889   4.206 -11.464  1.00  0.00    -0.014 A 
BRANCH  36  37
ATOM     37  C   UNL     1      -0.807   5.510 -12.108  1.00  0.00     0.031 A 
ATOM     38  C   UNL     1      -1.395   6.563 -11.178  1.00  0.00     0.074 A 
ATOM     39  C   UNL     1      -0.347   5.525 -13.394  1.00  0.00     0.049 A 
ATOM     40  N   UNL     1      -1.940   7.692 -11.480  1.00  0.00    -0.248 NA
ATOM     41  C   UNL     1      -1.474   6.302  -9.708  1.00  0.00     0.031 C 
ATOM     42  C   UNL     1       0.187   4.347 -14.123  1.00  0.00     0.029 A 
ATOM     43  N   UNL     1      -0.248   6.505 -14.357  1.00  0.00    -0.354 N 
ATOM     44  C   UNL     1      -2.255   8.342 -10.275  1.00  0.00     0.074 A 
ATOM     45  C   UNL     1      -2.048   7.401  -9.222  1.00  0.00     0.031 C 
ATOM     46  C   UNL     1       0.465   4.661 -15.408  1.00  0.00     0.029 A 
ATOM     47  C   UNL     1       0.166   6.061 -15.638  1.00  0.00     0.049 A 
ATOM     48  H   UNL     1      -0.451   7.449 -14.168  1.00  0.00     0.167 HD
ATOM     49  C   UNL     1      -2.529   9.672 -10.219  1.00  0.00     0.031 A 
ATOM     50  C   UNL     1       0.225   6.766 -16.810  1.00  0.00     0.031 A 
ATOM     51  C   UNL     1      -2.593  10.216 -11.533  1.00  0.00     0.049 A 
ATOM     52  C   UNL     1      -0.046   8.166 -16.455  1.00  0.00     0.074 A 
ATOM     53  C   UNL     1      -3.493  10.030 -12.551  1.00  0.00     0.029 A 
ATOM     54  N   UNL     1      -1.411  10.692 -12.048  1.00  0.00    -0.354 N 
ATOM     55  N   UNL     1       0.776   8.944 -15.819  1.00  0.00    -0.248 NA
ATOM     56  C   UNL     1      -1.358   8.741 -16.777  1.00  0.00     0.031 C 
ATOM     57  C   UNL     1      -2.669   9.930 -13.692  1.00  0.00     0.029 A 
ATOM     58  C   UNL     1      -1.359  10.293 -13.360  1.00  0.00     0.049 A 
ATOM     59  H   UNL     1      -0.731  11.218 -11.568  1.00  0.00     0.167 HD
ATOM     60  C   UNL     1      -0.068   9.902 -15.319  1.00  0.00     0.074 A 
ATOM     61  C   UNL     1      -1.224   9.928 -16.191  1.00  0.00     0.031 C 
ATOM     62  C   UNL     1      -0.064  10.152 -13.983  1.00  0.00     0.031 A 
BRANCH  49  63
ATOM     63  C   UNL     1      -2.480  10.611  -9.059  1.00  0.00    -0.014 A 
ATOM     64  C   UNL     1      -3.016  11.902  -9.257  1.00  0.00     0.009 A 
ATOM     65  C   UNL     1      -1.660  10.411  -7.943  1.00  0.00     0.009 A 
ATOM     66  C   UNL     1      -2.646  12.977  -8.450  1.00  0.00     0.001 A 
ATOM     67  C   UNL     1      -1.320  11.482  -7.109  1.00  0.00     0.001 A 
ATOM     68  C   UNL     1      -1.780  12.768  -7.385  1.00  0.00     0.000 A 
ENDBRANCH  49  63
BRANCH  50  69
ATOM     69  C   UNL     1       0.412   6.500 -18.282  1.00  0.00    -0.014 A 
ATOM     70  C   UNL     1       0.704   5.268 -18.869  1.00  0.00     0.009 A 
ATOM     71  C   UNL     1       0.187   7.571 -19.195  1.00  0.00     0.009 A 
ATOM     72  C   UNL     1       0.677   5.106 -20.273  1.00  0.00     0.001 A 
ATOM     73  C   UNL     1       0.107   7.407 -20.579  1.00  0.00     0.001 A 
ATOM     74  C   UNL     1       0.342   6.161 -21.122  1.00  0.00     0.000 A 
ENDBRANCH  50  69
BRANCH  62  75
ATOM     75  C   UNL     1       1.234   9.812 -13.264  1.00  0.00    -0.014 A 
ATOM     76  C   UNL     1       2.439  10.401 -13.682  1.00  0.00     0.009 A 
ATOM     77  C   UNL     1       1.322   8.829 -12.263  1.00  0.00     0.009 A 
ATOM     78  C   UNL     1       3.674  10.007 -13.146  1.00  0.00     0.001 A 
ATOM     79  C   UNL     1       2.556   8.428 -11.724  1.00  0.00     0.001 A 
ATOM     80  C   UNL     1       3.734   9.017 -12.170  1.00  0.00     0.000 A 
ENDBRANCH  62  75
ENDBRANCH  36  37
ENDBRANCH  29  31
ENDBRANCH  28  29
ENDBRANCH  27  28
ENDBRANCH  26  27
ENDBRANCH  25  26
ENDBRANCH  24  25
ENDBRANCH   1  24
TORSDOF 20
