REMARK SMILES COc1cccc([C@@H]2CC(c3cccc(C)c3)=NN2C(=O)CCC(=O)OCCOCCOC(=O)c2ccc(-c3c4nc(c(-c5ccccc5)c5ccc([nH]5)c(-c5ccccc5)c5nc(c(-c6ccccc6)c6ccc3[nH]6)C=C5)C=C4)cc2)c1
REMARK SMILES IDX 27 1 26 2 24 3 25 4 23 5 22 6 20 7 21 8 19 9 8 10 9 11 10 12
REMARK SMILES IDX 18 13 7 14 3 15 4 16 83 17 5 18 6 19 2 20 1 21 11 22 12 23
REMARK SMILES IDX 17 24 13 25 15 26 14 27 16 28 28 29 29 30 30 31 31 32 32 33
REMARK SMILES IDX 33 34 34 35 35 36 36 37 82 38 37 39 81 40 38 41 39 42 40 43
REMARK SMILES IDX 75 44 41 45 80 46 74 47 76 48 42 49 79 50 73 51 72 52 43 54
REMARK SMILES IDX 65 55 50 56 64 57 51 58 54 59 63 60 77 61 52 62 53 63 62 65
REMARK SMILES IDX 78 66 55 67 44 68 45 69 49 70 46 71 48 72 47 73 66 74 67 75
REMARK SMILES IDX 71 76 68 77 70 78 69 79 56 80 57 81 61 82 58 83 60 84 59 85
REMARK H PARENT 76 53 54 64
REMARK Flexibility Score: inf
ROOT
ATOM      1  C   UNL     1       0.754   2.429   2.835  1.00  0.00     0.261 C 
ENDROOT
BRANCH   1   2
ATOM      2  O   UNL     1       1.325   2.713   1.569  1.00  0.00    -0.463 OA
BRANCH   2   3
ATOM      3  C   UNL     1       1.126   3.950   1.123  1.00  0.00     0.306 C 
ATOM      4  O   UNL     1       0.147   4.663   1.405  1.00  0.00    -0.252 OA
BRANCH   3   5
ATOM      5  C   UNL     1       2.256   4.369   0.269  1.00  0.00     0.132 C 
BRANCH   5   6
ATOM      6  C   UNL     1       3.608   4.535   0.959  1.00  0.00     0.114 C 
BRANCH   6   7
ATOM      7  C   UNL     1       4.368   3.544   1.935  1.00  0.00     0.243 C 
ATOM      8  O   UNL     1       5.586   3.449   1.694  1.00  0.00    -0.273 OA
BRANCH   7   9
ATOM      9  N   UNL     1       3.701   2.731   2.906  1.00  0.00    -0.225 N 
ATOM     10  C   UNL     1       3.783   2.241   4.603  1.00  0.00     0.147 C 
ATOM     11  C   UNL     1       4.048   0.745   4.490  1.00  0.00     0.091 C 
ATOM     12  C   UNL     1       3.992   0.568   2.999  1.00  0.00     0.071 C 
ATOM     13  N   UNL     1       3.630   1.529   2.226  1.00  0.00    -0.174 NA
BRANCH  10  14
ATOM     14  C   UNL     1       3.735   3.132   6.095  1.00  0.00    -0.019 A 
ATOM     15  C   UNL     1       2.271   4.345   7.706  1.00  0.00     0.119 A 
ATOM     16  C   UNL     1       3.306   5.109   8.223  1.00  0.00     0.046 A 
ATOM     17  C   UNL     1       2.496   3.298   6.767  1.00  0.00     0.052 A 
ATOM     18  C   UNL     1       4.571   4.836   7.787  1.00  0.00     0.004 A 
ATOM     19  C   UNL     1       4.753   3.901   6.748  1.00  0.00     0.006 A 
BRANCH  15  20
ATOM     20  O   UNL     1       1.026   4.707   8.153  1.00  0.00    -0.497 OA
ATOM     21  C   UNL     1       0.112   4.947   7.086  1.00  0.00     0.278 C 
ENDBRANCH  15  20
ENDBRANCH  10  14
BRANCH  12  22
ATOM     22  C   UNL     1       4.658  -0.548   2.368  1.00  0.00    -0.002 A 
ATOM     23  C   UNL     1       5.857  -0.171   1.787  1.00  0.00     0.010 A 
ATOM     24  C   UNL     1       4.266  -1.871   2.472  1.00  0.00     0.013 A 
ATOM     25  C   UNL     1       6.767  -1.152   1.515  1.00  0.00     0.001 A 
ATOM     26  C   UNL     1       5.180  -2.859   2.096  1.00  0.00    -0.050 A 
ATOM     27  C   UNL     1       6.470  -2.489   1.713  1.00  0.00     0.003 A 
ATOM     28  C   UNL     1       4.836  -4.309   2.166  1.00  0.00     0.044 C 
ENDBRANCH  12  22
ENDBRANCH   7   9
ENDBRANCH   6   7
ENDBRANCH   5   6
ENDBRANCH   3   5
ENDBRANCH   2   3
ENDBRANCH   1   2
BRANCH   1  29
ATOM     29  C   UNL     1       0.865   3.587   3.888  1.00  0.00     0.202 C 
BRANCH  29  30
ATOM     30  O   UNL     1       2.161   4.032   4.332  1.00  0.00    -0.374 OA
BRANCH  30  31
ATOM     31  C   UNL     1       3.036   5.112   3.989  1.00  0.00     0.202 C 
BRANCH  31  32
ATOM     32  C   UNL     1       4.818   5.059   4.211  1.00  0.00     0.261 C 
BRANCH  32  33
ATOM     33  O   UNL     1       5.986   3.903   3.970  1.00  0.00    -0.460 OA
BRANCH  33  34
ATOM     34  C   UNL     1       6.598   2.809   4.576  1.00  0.00     0.338 C 
ATOM     35  O   UNL     1       6.301   2.336   5.674  1.00  0.00    -0.246 OA
BRANCH  34  36
ATOM     36  C   UNL     1       7.657   1.894   4.015  1.00  0.00     0.060 A 
ATOM     37  C   UNL     1       7.629   0.557   4.519  1.00  0.00     0.016 A 
ATOM     38  C   UNL     1       8.764   2.228   3.247  1.00  0.00     0.016 A 
ATOM     39  C   UNL     1       8.556  -0.424   4.182  1.00  0.00     0.010 A 
ATOM     40  C   UNL     1       9.753   1.238   2.943  1.00  0.00     0.010 A 
ATOM     41  C   UNL     1       9.640  -0.099   3.374  1.00  0.00    -0.014 A 
BRANCH  41  42
ATOM     42  C   UNL     1      10.565  -1.229   3.053  1.00  0.00     0.031 A 
ATOM     43  C   UNL     1      11.398  -1.829   4.140  1.00  0.00     0.074 A 
ATOM     44  C   UNL     1      10.492  -1.856   1.859  1.00  0.00     0.049 A 
ATOM     45  N   UNL     1      12.234  -2.825   4.040  1.00  0.00    -0.248 NA
ATOM     46  C   UNL     1      11.389  -1.172   5.455  1.00  0.00     0.031 C 
ATOM     47  C   UNL     1       9.828  -1.320   0.688  1.00  0.00     0.029 A 
ATOM     48  N   UNL     1      10.829  -3.129   1.464  1.00  0.00    -0.354 N 
ATOM     49  C   UNL     1      12.992  -2.782   5.198  1.00  0.00     0.074 A 
ATOM     50  C   UNL     1      12.403  -1.778   6.056  1.00  0.00     0.031 C 
ATOM     51  C   UNL     1       9.496  -2.328  -0.135  1.00  0.00     0.029 A 
ATOM     52  C   UNL     1      10.152  -3.539   0.322  1.00  0.00     0.049 A 
ATOM     53  H   UNL     1      11.482  -3.691   1.940  1.00  0.00     0.167 HD
ATOM     54  C   UNL     1      14.165  -3.425   5.412  1.00  0.00     0.031 A 
ATOM     55  C   UNL     1      10.114  -4.747  -0.283  1.00  0.00     0.031 A 
ATOM     56  C   UNL     1      14.702  -4.374   4.469  1.00  0.00     0.049 A 
ATOM     57  C   UNL     1      11.268  -5.636   0.097  1.00  0.00     0.074 A 
ATOM     58  C   UNL     1      15.927  -5.012   4.459  1.00  0.00     0.029 A 
ATOM     59  N   UNL     1      14.007  -4.827   3.349  1.00  0.00    -0.354 N 
ATOM     60  N   UNL     1      12.092  -5.512   1.111  1.00  0.00    -0.248 NA
ATOM     61  C   UNL     1      11.620  -6.705  -0.846  1.00  0.00     0.031 C 
ATOM     62  C   UNL     1      15.975  -5.837   3.324  1.00  0.00     0.029 A 
ATOM     63  C   UNL     1      14.761  -5.755   2.656  1.00  0.00     0.049 A 
ATOM     64  H   UNL     1      13.106  -4.529   3.089  1.00  0.00     0.167 HD
ATOM     65  C   UNL     1      13.135  -6.382   0.856  1.00  0.00     0.074 A 
ATOM     66  C   UNL     1      12.764  -7.136  -0.330  1.00  0.00     0.031 C 
ATOM     67  C   UNL     1      14.333  -6.481   1.484  1.00  0.00     0.031 A 
BRANCH  54  68
ATOM     68  C   UNL     1      14.979  -2.927   6.573  1.00  0.00    -0.014 A 
ATOM     69  C   UNL     1      14.589  -3.134   7.905  1.00  0.00     0.009 A 
ATOM     70  C   UNL     1      16.084  -2.096   6.315  1.00  0.00     0.009 A 
ATOM     71  C   UNL     1      15.236  -2.457   8.944  1.00  0.00     0.001 A 
ATOM     72  C   UNL     1      16.749  -1.446   7.358  1.00  0.00     0.001 A 
ATOM     73  C   UNL     1      16.310  -1.609   8.670  1.00  0.00     0.000 A 
ENDBRANCH  54  68
BRANCH  55  74
ATOM     74  C   UNL     1       9.179  -5.117  -1.401  1.00  0.00    -0.014 A 
ATOM     75  C   UNL     1       8.445  -6.319  -1.350  1.00  0.00     0.009 A 
ATOM     76  C   UNL     1       9.010  -4.315  -2.541  1.00  0.00     0.009 A 
ATOM     77  C   UNL     1       7.577  -6.691  -2.390  1.00  0.00     0.001 A 
ATOM     78  C   UNL     1       8.101  -4.654  -3.551  1.00  0.00     0.001 A 
ATOM     79  C   UNL     1       7.391  -5.847  -3.481  1.00  0.00     0.000 A 
ENDBRANCH  55  74
BRANCH  67  80
ATOM     80  C   UNL     1      15.300  -7.451   0.885  1.00  0.00    -0.014 A 
ATOM     81  C   UNL     1      16.008  -7.139  -0.287  1.00  0.00     0.009 A 
ATOM     82  C   UNL     1      15.523  -8.678   1.524  1.00  0.00     0.009 A 
ATOM     83  C   UNL     1      16.909  -8.057  -0.823  1.00  0.00     0.001 A 
ATOM     84  C   UNL     1      16.442  -9.582   0.997  1.00  0.00     0.001 A 
ATOM     85  C   UNL     1      17.128  -9.275  -0.178  1.00  0.00     0.000 A 
ENDBRANCH  67  80
ENDBRANCH  41  42
ENDBRANCH  34  36
ENDBRANCH  33  34
ENDBRANCH  32  33
ENDBRANCH  31  32
ENDBRANCH  30  31
ENDBRANCH  29  30
ENDBRANCH   1  29
TORSDOF 20
