REMARK SMILES CCc1ncc(C[N@H+]2CCC[C@@H](c3cccc(C(=O)OCCOCCOC(=O)c4ccc(-c5c6nc(c(-c7ccccc7)c7ccc([nH]7)c(-c7ccccc7)c7nc(c(-c8ccccc8)c8ccc5[nH]8)C=C7)C=C6)cc4)c3)C2)cn1
REMARK SMILES IDX 22 1 21 2 20 3 18 4 19 5 17 6 13 7 14 8 77 9 15 10 16 11
REMARK SMILES IDX 12 12 8 13 9 14 78 15 10 17 11 18 7 19 6 20 3 21 4 22 80 23
REMARK SMILES IDX 5 24 79 25 2 26 1 27 23 28 24 29 25 30 26 31 27 32 28 33
REMARK SMILES IDX 29 34 30 35 76 36 31 37 75 38 32 39 33 40 34 41 69 42 35 43
REMARK SMILES IDX 74 44 68 45 70 46 36 47 73 48 67 49 66 50 37 52 59 53 44 54
REMARK SMILES IDX 58 55 45 56 48 57 57 58 71 59 46 60 47 61 56 63 72 64 49 65
REMARK SMILES IDX 38 66 39 67 43 68 40 69 42 70 41 71 60 72 61 73 65 74 62 75
REMARK SMILES IDX 64 76 63 77 50 78 51 79 55 80 52 81 54 82 53 83
REMARK H PARENT 8 16 70 51 48 62
REMARK Flexibility Score: inf
ROOT
ATOM      1  C   UNL     1      -4.653 -13.540  -0.045  1.00  0.00     0.202 C 
ENDROOT
BRANCH   1   2
ATOM      2  C   UNL     1      -3.237 -13.225  -0.539  1.00  0.00     0.261 C 
BRANCH   2   3
ATOM      3  O   UNL     1      -2.828 -11.915  -0.112  1.00  0.00    -0.460 OA
BRANCH   3   4
ATOM      4  C   UNL     1      -2.633 -11.021  -1.111  1.00  0.00     0.338 C 
ATOM      5  O   UNL     1      -2.573 -11.261  -2.308  1.00  0.00    -0.246 OA
BRANCH   4   6
ATOM      6  C   UNL     1      -2.703  -9.645  -0.567  1.00  0.00     0.060 A 
ATOM      7  C   UNL     1      -2.312  -7.981   1.164  1.00  0.00    -0.038 A 
ATOM      8  C   UNL     1      -2.946  -7.027   0.345  1.00  0.00     0.004 A 
ATOM      9  C   UNL     1      -2.209  -9.304   0.700  1.00  0.00     0.020 A 
ATOM     10  C   UNL     1      -3.455  -7.374  -0.906  1.00  0.00     0.001 A 
ATOM     11  C   UNL     1      -3.324  -8.678  -1.367  1.00  0.00     0.016 A 
BRANCH   7  12
ATOM     12  C   UNL     1      -1.605  -7.566   2.452  1.00  0.00     0.074 C 
ATOM     13  N   UNL     1       0.469  -6.309   3.188  1.00  0.00    -0.331 N 
ATOM     14  C   UNL     1      -0.355  -5.417   4.014  1.00  0.00     0.262 C 
ATOM     15  C   UNL     1      -0.293  -6.855   2.057  1.00  0.00     0.270 C 
ATOM     16  H   UNL     1       0.733  -7.092   3.786  1.00  0.00     0.348 HD
ATOM     17  C   UNL     1      -1.607  -6.133   4.526  1.00  0.00     0.062 C 
ATOM     18  C   UNL     1      -2.451  -6.670   3.371  1.00  0.00     0.020 C 
BRANCH  13  19
ATOM     19  C   UNL     1       1.740  -5.686   2.753  1.00  0.00     0.302 C 
BRANCH  19  20
ATOM     20  C   UNL     1       1.617  -4.474   1.873  1.00  0.00     0.043 A 
ATOM     21  C   UNL     1       1.097  -2.291   0.332  1.00  0.00     0.127 A 
ATOM     22  N   UNL     1       1.359  -2.094   1.638  1.00  0.00    -0.241 NA
ATOM     23  N   UNL     1       1.127  -3.493  -0.272  1.00  0.00    -0.241 NA
ATOM     24  C   UNL     1       1.626  -3.191   2.374  1.00  0.00     0.124 A 
ATOM     25  C   UNL     1       1.401  -4.553   0.512  1.00  0.00     0.124 A 
BRANCH  21  26
ATOM     26  C   UNL     1       0.593  -1.135  -0.491  1.00  0.00     0.074 C 
ATOM     27  C   UNL     1       1.026   0.232   0.016  1.00  0.00     0.012 C 
ENDBRANCH  21  26
ENDBRANCH  19  20
ENDBRANCH  13  19
ENDBRANCH   7  12
ENDBRANCH   4   6
ENDBRANCH   3   4
ENDBRANCH   2   3
ENDBRANCH   1   2
BRANCH   1  28
ATOM     28  O   UNL     1      -5.706 -12.737  -0.578  1.00  0.00    -0.374 OA
BRANCH  28  29
ATOM     29  C   UNL     1      -5.889 -11.438  -0.014  1.00  0.00     0.202 C 
BRANCH  29  30
ATOM     30  C   UNL     1      -6.625 -11.363   1.330  1.00  0.00     0.261 C 
BRANCH  30  31
ATOM     31  O   UNL     1      -5.885 -11.991   2.393  1.00  0.00    -0.460 OA
BRANCH  31  32
ATOM     32  C   UNL     1      -6.400 -13.166   2.824  1.00  0.00     0.338 C 
ATOM     33  O   UNL     1      -7.441 -13.697   2.467  1.00  0.00    -0.246 OA
BRANCH  32  34
ATOM     34  C   UNL     1      -5.428 -13.850   3.696  1.00  0.00     0.060 A 
ATOM     35  C   UNL     1      -5.072 -15.163   3.364  1.00  0.00     0.016 A 
ATOM     36  C   UNL     1      -4.928 -13.249   4.853  1.00  0.00     0.016 A 
ATOM     37  C   UNL     1      -4.249 -15.899   4.213  1.00  0.00     0.010 A 
ATOM     38  C   UNL     1      -4.109 -13.993   5.708  1.00  0.00     0.010 A 
ATOM     39  C   UNL     1      -3.792 -15.332   5.410  1.00  0.00    -0.014 A 
BRANCH  39  40
ATOM     40  C   UNL     1      -3.093 -16.179   6.406  1.00  0.00     0.031 A 
ATOM     41  C   UNL     1      -3.856 -16.690   7.598  1.00  0.00     0.074 A 
ATOM     42  C   UNL     1      -1.799 -16.509   6.239  1.00  0.00     0.049 A 
ATOM     43  N   UNL     1      -3.432 -17.413   8.604  1.00  0.00    -0.248 NA
ATOM     44  C   UNL     1      -5.284 -16.340   7.668  1.00  0.00     0.031 C 
ATOM     45  C   UNL     1      -0.963 -16.115   5.106  1.00  0.00     0.029 A 
ATOM     46  N   UNL     1      -0.961 -17.250   7.035  1.00  0.00    -0.354 N 
ATOM     47  C   UNL     1      -4.534 -17.590   9.432  1.00  0.00     0.074 A 
ATOM     48  C   UNL     1      -5.641 -16.884   8.823  1.00  0.00     0.031 C 
ATOM     49  C   UNL     1       0.273 -16.616   5.282  1.00  0.00     0.029 A 
ATOM     50  C   UNL     1       0.324 -17.331   6.555  1.00  0.00     0.049 A 
ATOM     51  H   UNL     1      -1.253 -17.683   7.869  1.00  0.00     0.167 HD
ATOM     52  C   UNL     1      -4.618 -18.281  10.593  1.00  0.00     0.031 A 
ATOM     53  C   UNL     1       1.420 -17.899   7.094  1.00  0.00     0.031 A 
ATOM     54  C   UNL     1      -3.520 -18.987  11.197  1.00  0.00     0.049 A 
ATOM     55  C   UNL     1       1.312 -18.597   8.425  1.00  0.00     0.074 A 
ATOM     56  C   UNL     1      -3.518 -19.745  12.356  1.00  0.00     0.029 A 
ATOM     57  N   UNL     1      -2.228 -19.015  10.698  1.00  0.00    -0.354 N 
ATOM     58  N   UNL     1       0.255 -18.793   9.175  1.00  0.00    -0.248 NA
ATOM     59  C   UNL     1       2.553 -19.160   8.979  1.00  0.00     0.031 C 
ATOM     60  C   UNL     1      -2.211 -20.180  12.591  1.00  0.00     0.029 A 
ATOM     61  C   UNL     1      -1.414 -19.748  11.544  1.00  0.00     0.049 A 
ATOM     62  H   UNL     1      -1.934 -18.579   9.866  1.00  0.00     0.167 HD
ATOM     63  C   UNL     1       0.696 -19.530  10.267  1.00  0.00     0.074 A 
ATOM     64  C   UNL     1       2.112 -19.759  10.076  1.00  0.00     0.031 C 
ATOM     65  C   UNL     1      -0.009 -19.978  11.335  1.00  0.00     0.031 A 
BRANCH  52  66
ATOM     66  C   UNL     1      -5.936 -18.286  11.314  1.00  0.00    -0.014 A 
ATOM     67  C   UNL     1      -7.026 -19.032  10.842  1.00  0.00     0.009 A 
ATOM     68  C   UNL     1      -6.062 -17.590  12.527  1.00  0.00     0.009 A 
ATOM     69  C   UNL     1      -8.223 -19.065  11.562  1.00  0.00     0.001 A 
ATOM     70  C   UNL     1      -7.250 -17.646  13.258  1.00  0.00     0.001 A 
ATOM     71  C   UNL     1      -8.331 -18.380  12.772  1.00  0.00     0.000 A 
ENDBRANCH  52  66
BRANCH  53  72
ATOM     72  C   UNL     1       2.734 -17.811   6.402  1.00  0.00    -0.014 A 
ATOM     73  C   UNL     1       3.359 -18.963   5.901  1.00  0.00     0.009 A 
ATOM     74  C   UNL     1       3.397 -16.579   6.291  1.00  0.00     0.009 A 
ATOM     75  C   UNL     1       4.637 -18.889   5.341  1.00  0.00     0.001 A 
ATOM     76  C   UNL     1       4.660 -16.502   5.700  1.00  0.00     0.001 A 
ATOM     77  C   UNL     1       5.285 -17.659   5.239  1.00  0.00     0.000 A 
ENDBRANCH  53  72
BRANCH  65  78
ATOM     78  C   UNL     1       0.728 -20.805  12.353  1.00  0.00    -0.014 A 
ATOM     79  C   UNL     1       1.667 -20.230  13.223  1.00  0.00     0.009 A 
ATOM     80  C   UNL     1       0.443 -22.175  12.468  1.00  0.00     0.009 A 
ATOM     81  C   UNL     1       2.332 -21.019  14.163  1.00  0.00     0.001 A 
ATOM     82  C   UNL     1       1.086 -22.954  13.431  1.00  0.00     0.001 A 
ATOM     83  C   UNL     1       2.038 -22.378  14.270  1.00  0.00     0.000 A 
ENDBRANCH  65  78
ENDBRANCH  39  40
ENDBRANCH  32  34
ENDBRANCH  31  32
ENDBRANCH  30  31
ENDBRANCH  29  30
ENDBRANCH  28  29
ENDBRANCH   1  28
TORSDOF 18
