REMARK SMILES Cc1nc2cc(S(=O)(=O)N3CCC(C(=O)OCCOCCOC(=O)c4ccc(-c5c6nc(c(-c7ccccc7)c7ccc([nH]7)c(-c7ccccc7)c7nc(c(-c8ccccc8)c8ccc5[nH]8)C=C7)C=C6)cc4)CC3)ccc2n1C1CCCC1
REMARK SMILES IDX 18 1 17 2 16 3 14 4 15 5 13 6 10 7 11 8 74 9 12 10 73 11
REMARK SMILES IDX 7 12 8 13 9 14 6 15 1 16 2 17 3 18 78 19 4 20 77 21 5 22
REMARK SMILES IDX 76 23 75 24 79 25 80 26 83 27 81 28 82 29 19 30 20 31 21 32
REMARK SMILES IDX 22 33 23 34 24 35 25 36 26 37 72 38 27 39 71 40 28 41 29 42
REMARK SMILES IDX 30 43 65 44 31 45 70 46 64 47 66 48 32 49 69 50 63 51 62 52
REMARK SMILES IDX 33 54 55 55 40 56 54 57 41 58 44 59 53 60 67 61 42 62 43 63
REMARK SMILES IDX 52 65 68 66 45 67 34 68 35 69 39 70 36 71 38 72 37 73 56 74
REMARK SMILES IDX 57 75 61 76 58 77 60 78 59 79 46 80 47 81 51 82 48 83 50 84
REMARK SMILES IDX 49 85
REMARK H PARENT 66 53 44 64
REMARK Flexibility Score: inf
ROOT
ATOM      1  C   UNL     1      -6.960 -10.510  -4.787  1.00  0.00     0.202 C 
ENDROOT
BRANCH   1   2
ATOM      2  C   UNL     1      -5.518 -10.550  -5.302  1.00  0.00     0.261 C 
BRANCH   2   3
ATOM      3  O   UNL     1      -4.567 -10.115  -4.329  1.00  0.00    -0.463 OA
BRANCH   3   4
ATOM      4  C   UNL     1      -4.082  -8.870  -4.549  1.00  0.00     0.309 C 
ATOM      5  O   UNL     1      -4.368  -8.151  -5.499  1.00  0.00    -0.252 OA
BRANCH   4   6
ATOM      6  C   UNL     1      -3.091  -8.445  -3.499  1.00  0.00     0.102 C 
ATOM      7  N   UNL     1      -0.916  -8.325  -1.649  1.00  0.00    -0.198 NA
ATOM      8  C   UNL     1      -2.298  -8.425  -1.113  1.00  0.00     0.103 C 
ATOM      9  C   UNL     1      -0.674  -8.140  -3.102  1.00  0.00     0.103 C 
ATOM     10  C   UNL     1      -3.307  -9.000  -2.096  1.00  0.00     0.032 C 
ATOM     11  C   UNL     1      -1.702  -8.844  -3.959  1.00  0.00     0.032 C 
BRANCH   7  12
ATOM     12  S   UNL     1       0.198  -7.506  -0.630  1.00  0.00     0.243 S 
ATOM     13  O   UNL     1       1.521  -7.721  -1.194  1.00  0.00    -0.207 OA
ATOM     14  O   UNL     1      -0.115  -7.854   0.732  1.00  0.00    -0.207 OA
BRANCH  12  15
ATOM     15  C   UNL     1      -0.142  -5.762  -0.806  1.00  0.00     0.085 A 
ATOM     16  C   UNL     1       1.108   0.025   0.039  1.00  0.00     0.088 C 
ATOM     17  C   UNL     1       0.648  -1.353  -0.273  1.00  0.00     0.106 A 
ATOM     18  N   UNL     1       1.288  -2.445   0.097  1.00  0.00    -0.233 NA
ATOM     19  N   UNL     1      -0.505  -1.667  -0.965  1.00  0.00    -0.325 N 
ATOM     20  C   UNL     1       0.547  -3.497  -0.361  1.00  0.00     0.090 A 
ATOM     21  C   UNL     1      -0.584  -3.044  -1.033  1.00  0.00     0.068 A 
ATOM     22  C   UNL     1       0.782  -4.874  -0.237  1.00  0.00     0.052 A 
ATOM     23  C   UNL     1      -1.511  -3.916  -1.604  1.00  0.00     0.030 A 
ATOM     24  C   UNL     1      -1.262  -5.280  -1.486  1.00  0.00     0.024 A 
BRANCH  19  25
ATOM     25  C   UNL     1      -1.469  -0.734  -1.521  1.00  0.00     0.089 C 
ATOM     26  C   UNL     1      -1.665  -0.848  -3.035  1.00  0.00     0.025 C 
ATOM     27  C   UNL     1      -2.882  -0.862  -0.942  1.00  0.00     0.025 C 
ATOM     28  C   UNL     1      -3.000  -0.168  -3.296  1.00  0.00     0.002 C 
ATOM     29  C   UNL     1      -3.817  -0.311  -2.014  1.00  0.00     0.002 C 
ENDBRANCH  19  25
ENDBRANCH  12  15
ENDBRANCH   7  12
ENDBRANCH   4   6
ENDBRANCH   3   4
ENDBRANCH   2   3
ENDBRANCH   1   2
BRANCH   1  30
ATOM     30  O   UNL     1      -7.469  -9.309  -4.223  1.00  0.00    -0.374 OA
BRANCH  30  31
ATOM     31  C   UNL     1      -7.016  -8.928  -2.923  1.00  0.00     0.202 C 
BRANCH  31  32
ATOM     32  C   UNL     1      -7.282  -9.866  -1.726  1.00  0.00     0.261 C 
BRANCH  32  33
ATOM     33  O   UNL     1      -6.582 -11.114  -1.853  1.00  0.00    -0.460 OA
BRANCH  33  34
ATOM     34  C   UNL     1      -7.315 -12.220  -1.537  1.00  0.00     0.338 C 
ATOM     35  O   UNL     1      -8.292 -12.280  -0.814  1.00  0.00    -0.246 OA
BRANCH  34  36
ATOM     36  C   UNL     1      -6.976 -13.223  -2.571  1.00  0.00     0.060 A 
ATOM     37  C   UNL     1      -5.644 -13.498  -2.891  1.00  0.00     0.016 A 
ATOM     38  C   UNL     1      -8.020 -13.573  -3.445  1.00  0.00     0.016 A 
ATOM     39  C   UNL     1      -5.353 -14.025  -4.145  1.00  0.00     0.010 A 
ATOM     40  C   UNL     1      -7.719 -14.055  -4.714  1.00  0.00     0.010 A 
ATOM     41  C   UNL     1      -6.384 -14.237  -5.080  1.00  0.00    -0.014 A 
BRANCH  41  42
ATOM     42  C   UNL     1      -6.038 -14.835  -6.374  1.00  0.00     0.031 A 
ATOM     43  C   UNL     1      -5.631 -16.267  -6.254  1.00  0.00     0.074 A 
ATOM     44  C   UNL     1      -6.190 -14.261  -7.588  1.00  0.00     0.049 A 
ATOM     45  N   UNL     1      -4.534 -16.824  -6.647  1.00  0.00    -0.248 NA
ATOM     46  C   UNL     1      -6.527 -17.162  -5.501  1.00  0.00     0.031 C 
ATOM     47  C   UNL     1      -6.844 -12.998  -7.938  1.00  0.00     0.029 A 
ATOM     48  N   UNL     1      -5.854 -14.766  -8.813  1.00  0.00    -0.354 N 
ATOM     49  C   UNL     1      -4.632 -18.166  -6.283  1.00  0.00     0.074 A 
ATOM     50  C   UNL     1      -5.831 -18.296  -5.497  1.00  0.00     0.031 C 
ATOM     51  C   UNL     1      -7.055 -12.949  -9.276  1.00  0.00     0.029 A 
ATOM     52  C   UNL     1      -6.437 -14.108  -9.894  1.00  0.00     0.049 A 
ATOM     53  H   UNL     1      -5.248 -15.533  -8.923  1.00  0.00     0.167 HD
ATOM     54  C   UNL     1      -3.786 -19.124  -6.749  1.00  0.00     0.031 A 
ATOM     55  C   UNL     1      -6.457 -14.521 -11.189  1.00  0.00     0.031 A 
ATOM     56  C   UNL     1      -2.583 -18.563  -7.293  1.00  0.00     0.049 A 
ATOM     57  C   UNL     1      -5.376 -15.515 -11.358  1.00  0.00     0.074 A 
ATOM     58  C   UNL     1      -1.508 -17.890  -6.748  1.00  0.00     0.029 A 
ATOM     59  N   UNL     1      -2.533 -18.326  -8.643  1.00  0.00    -0.354 N 
ATOM     60  N   UNL     1      -4.111 -15.225 -11.283  1.00  0.00    -0.248 NA
ATOM     61  C   UNL     1      -5.718 -16.915 -11.174  1.00  0.00     0.031 C 
ATOM     62  C   UNL     1      -1.178 -16.895  -7.710  1.00  0.00     0.029 A 
ATOM     63  C   UNL     1      -2.015 -17.067  -8.814  1.00  0.00     0.049 A 
ATOM     64  H   UNL     1      -2.816 -18.944  -9.356  1.00  0.00     0.167 HD
ATOM     65  C   UNL     1      -3.548 -16.300 -10.614  1.00  0.00     0.074 A 
ATOM     66  C   UNL     1      -4.571 -17.345 -10.642  1.00  0.00     0.031 C 
ATOM     67  C   UNL     1      -2.420 -16.153  -9.861  1.00  0.00     0.031 A 
BRANCH  54  68
ATOM     68  C   UNL     1      -4.168 -20.566  -6.921  1.00  0.00    -0.014 A 
ATOM     69  C   UNL     1      -5.508 -20.996  -6.986  1.00  0.00     0.009 A 
ATOM     70  C   UNL     1      -3.184 -21.509  -7.261  1.00  0.00     0.009 A 
ATOM     71  C   UNL     1      -5.853 -22.299  -7.351  1.00  0.00     0.001 A 
ATOM     72  C   UNL     1      -3.527 -22.805  -7.667  1.00  0.00     0.001 A 
ATOM     73  C   UNL     1      -4.861 -23.199  -7.711  1.00  0.00     0.000 A 
ENDBRANCH  54  68
BRANCH  55  74
ATOM     74  C   UNL     1      -7.568 -14.444 -12.171  1.00  0.00    -0.014 A 
ATOM     75  C   UNL     1      -8.899 -14.488 -11.722  1.00  0.00     0.009 A 
ATOM     76  C   UNL     1      -7.335 -14.671 -13.540  1.00  0.00     0.009 A 
ATOM     77  C   UNL     1      -9.951 -14.800 -12.592  1.00  0.00     0.001 A 
ATOM     78  C   UNL     1      -8.390 -14.982 -14.412  1.00  0.00     0.001 A 
ATOM     79  C   UNL     1      -9.695 -15.065 -13.933  1.00  0.00     0.000 A 
ENDBRANCH  55  74
BRANCH  67  80
ATOM     80  C   UNL     1      -1.681 -14.832  -9.918  1.00  0.00    -0.014 A 
ATOM     81  C   UNL     1      -0.294 -14.860 -10.136  1.00  0.00     0.009 A 
ATOM     82  C   UNL     1      -2.270 -13.602  -9.569  1.00  0.00     0.009 A 
ATOM     83  C   UNL     1       0.483 -13.710  -9.984  1.00  0.00     0.001 A 
ATOM     84  C   UNL     1      -1.494 -12.443  -9.445  1.00  0.00     0.001 A 
ATOM     85  C   UNL     1      -0.116 -12.502  -9.638  1.00  0.00     0.000 A 
ENDBRANCH  67  80
ENDBRANCH  41  42
ENDBRANCH  34  36
ENDBRANCH  33  34
ENDBRANCH  32  33
ENDBRANCH  31  32
ENDBRANCH  30  31
ENDBRANCH   1  30
TORSDOF 17
