REMARK SMILES Cc1cc(C(=O)OCCOCCOC(=O)c2ccc(-c3c4nc(c(-c5ccccc5)c5ccc([nH]5)c(-c5ccccc5)c5nc(c(-c6ccccc6)c6ccc3[nH]6)C=C5)C=C4)cc2)ccc1NS(=O)(=O)c1ccc(C#N)cc1C
REMARK SMILES IDX 9 1 8 2 7 3 5 4 6 5 4 6 1 7 2 8 3 9 66 10 65 11 64 12 67 13
REMARK SMILES IDX 68 15 69 16 70 17 71 18 72 19 78 20 73 21 77 22 79 23 74 24
REMARK SMILES IDX 75 25 76 26 10 27 11 28 12 29 13 30 14 31 15 32 16 33 17 34
REMARK SMILES IDX 63 35 18 36 62 37 19 38 20 39 21 40 56 41 22 42 61 43 55 44
REMARK SMILES IDX 57 45 23 46 60 47 54 48 53 49 24 51 46 52 31 53 45 54 32 55
REMARK SMILES IDX 35 56 44 57 58 58 33 59 34 60 43 62 59 63 36 64 25 65 26 66
REMARK SMILES IDX 30 67 27 68 29 69 28 70 47 71 48 72 52 73 49 74 51 75 50 76
REMARK SMILES IDX 37 77 38 78 42 79 39 80 41 81 40 82
REMARK H PARENT 67 14 57 50 35 61
REMARK Flexibility Score: inf
ROOT
ATOM      1  C   UNL     1      -3.038  -2.362  -2.196  1.00  0.00     0.202 C 
ENDROOT
BRANCH   1   2
ATOM      2  C   UNL     1      -3.507  -2.196  -0.796  1.00  0.00     0.261 C 
BRANCH   2   3
ATOM      3  O   UNL     1      -2.597  -1.445   0.032  1.00  0.00    -0.460 OA
BRANCH   3   4
ATOM      4  C   UNL     1      -1.324  -1.906   0.175  1.00  0.00     0.338 C 
ATOM      5  O   UNL     1      -0.952  -2.959   0.654  1.00  0.00    -0.246 OA
BRANCH   4   6
ATOM      6  C   UNL     1      -0.450  -0.803  -0.252  1.00  0.00     0.060 A 
ATOM      7  C   UNL     1       3.056   0.447   0.208  1.00  0.00     0.046 C 
ATOM      8  C   UNL     1       1.571   0.449  -0.008  1.00  0.00    -0.026 A 
ATOM      9  C   UNL     1       0.870  -0.748   0.169  1.00  0.00     0.021 A 
ATOM     10  C   UNL     1       0.881   1.581  -0.494  1.00  0.00     0.052 A 
ATOM     11  C   UNL     1      -0.274   1.397  -1.231  1.00  0.00     0.028 A 
ATOM     12  C   UNL     1      -0.967   0.215  -1.063  1.00  0.00     0.018 A 
BRANCH  10  13
ATOM     13  N   UNL     1       0.997   2.764   0.299  1.00  0.00    -0.279 N 
ATOM     14  H   UNL     1       1.640   2.727   1.044  1.00  0.00     0.180 HD
BRANCH  13  15
ATOM     15  S   UNL     1       0.169   4.207   0.112  1.00  0.00     0.262 S 
ATOM     16  O   UNL     1       0.620   5.027   1.218  1.00  0.00    -0.201 OA
ATOM     17  O   UNL     1       0.343   4.630  -1.262  1.00  0.00    -0.201 OA
BRANCH  15  18
ATOM     18  C   UNL     1      -1.612   3.995   0.359  1.00  0.00     0.090 A 
ATOM     19  C   UNL     1      -2.174   2.763   0.720  1.00  0.00     0.024 A 
ATOM     20  C   UNL     1      -2.472   5.065   0.020  1.00  0.00    -0.029 A 
ATOM     21  C   UNL     1      -3.554   2.535   0.564  1.00  0.00     0.021 A 
ATOM     22  C   UNL     1      -3.856   4.825  -0.111  1.00  0.00     0.024 A 
ATOM     23  C   UNL     1      -2.023   6.494  -0.127  1.00  0.00     0.046 C 
ATOM     24  C   UNL     1      -4.392   3.557   0.115  1.00  0.00     0.052 A 
BRANCH  24  25
ATOM     25  C   UNL     1      -5.794   3.325  -0.112  1.00  0.00     0.099 C 
ATOM     26  N   UNL     1      -6.915   3.139  -0.315  1.00  0.00    -0.192 NA
ENDBRANCH  24  25
ENDBRANCH  15  18
ENDBRANCH  13  15
ENDBRANCH  10  13
ENDBRANCH   4   6
ENDBRANCH   3   4
ENDBRANCH   2   3
ENDBRANCH   1   2
BRANCH   1  27
ATOM     27  O   UNL     1      -1.878  -3.167  -2.095  1.00  0.00    -0.374 OA
BRANCH  27  28
ATOM     28  C   UNL     1      -1.159  -3.348  -3.292  1.00  0.00     0.202 C 
BRANCH  28  29
ATOM     29  C   UNL     1      -2.044  -3.940  -4.393  1.00  0.00     0.261 C 
BRANCH  29  30
ATOM     30  O   UNL     1      -2.512  -5.250  -3.986  1.00  0.00    -0.460 OA
BRANCH  30  31
ATOM     31  C   UNL     1      -3.794  -5.340  -3.523  1.00  0.00     0.338 C 
ATOM     32  O   UNL     1      -4.777  -4.877  -4.078  1.00  0.00    -0.246 OA
BRANCH  31  33
ATOM     33  C   UNL     1      -3.792  -5.801  -2.097  1.00  0.00     0.060 A 
ATOM     34  C   UNL     1      -4.958  -5.708  -1.310  1.00  0.00     0.016 A 
ATOM     35  C   UNL     1      -2.558  -5.942  -1.476  1.00  0.00     0.016 A 
ATOM     36  C   UNL     1      -4.862  -5.554   0.086  1.00  0.00     0.010 A 
ATOM     37  C   UNL     1      -2.464  -5.633  -0.139  1.00  0.00     0.010 A 
ATOM     38  C   UNL     1      -3.603  -5.400   0.653  1.00  0.00    -0.014 A 
BRANCH  38  39
ATOM     39  C   UNL     1      -3.288  -4.941   2.015  1.00  0.00     0.031 A 
ATOM     40  C   UNL     1      -2.503  -5.884   2.839  1.00  0.00     0.074 A 
ATOM     41  C   UNL     1      -3.412  -3.636   2.385  1.00  0.00     0.049 A 
ATOM     42  N   UNL     1      -2.239  -5.686   4.076  1.00  0.00    -0.248 NA
ATOM     43  C   UNL     1      -1.960  -7.160   2.358  1.00  0.00     0.031 C 
ATOM     44  C   UNL     1      -2.698  -2.866   3.412  1.00  0.00     0.029 A 
ATOM     45  N   UNL     1      -4.218  -2.641   1.830  1.00  0.00    -0.354 N 
ATOM     46  C   UNL     1      -1.244  -6.560   4.435  1.00  0.00     0.074 A 
ATOM     47  C   UNL     1      -1.195  -7.538   3.385  1.00  0.00     0.031 C 
ATOM     48  C   UNL     1      -3.322  -1.685   3.624  1.00  0.00     0.029 A 
ATOM     49  C   UNL     1      -4.517  -1.673   2.793  1.00  0.00     0.049 A 
ATOM     50  H   UNL     1      -4.531  -2.624   0.897  1.00  0.00     0.167 HD
ATOM     51  C   UNL     1      -0.499  -6.244   5.527  1.00  0.00     0.031 A 
ATOM     52  C   UNL     1      -5.813  -1.447   3.135  1.00  0.00     0.031 A 
ATOM     53  C   UNL     1      -1.048  -5.046   6.181  1.00  0.00     0.049 A 
ATOM     54  C   UNL     1      -5.927  -1.984   4.532  1.00  0.00     0.074 A 
ATOM     55  C   UNL     1      -0.643  -3.724   6.231  1.00  0.00     0.029 A 
ATOM     56  N   UNL     1      -2.392  -5.055   6.560  1.00  0.00    -0.354 N 
ATOM     57  N   UNL     1      -5.173  -2.961   4.972  1.00  0.00    -0.248 NA
ATOM     58  C   UNL     1      -6.688  -1.325   5.587  1.00  0.00     0.031 C 
ATOM     59  C   UNL     1      -1.794  -2.933   6.548  1.00  0.00     0.029 A 
ATOM     60  C   UNL     1      -2.891  -3.773   6.704  1.00  0.00     0.049 A 
ATOM     61  H   UNL     1      -2.919  -5.873   6.706  1.00  0.00     0.167 HD
ATOM     62  C   UNL     1      -5.163  -2.916   6.330  1.00  0.00     0.074 A 
ATOM     63  C   UNL     1      -6.190  -1.940   6.674  1.00  0.00     0.031 C 
ATOM     64  C   UNL     1      -4.276  -3.573   7.129  1.00  0.00     0.031 A 
BRANCH  51  65
ATOM     65  C   UNL     1       0.812  -6.888   5.904  1.00  0.00    -0.014 A 
ATOM     66  C   UNL     1       1.499  -6.408   7.033  1.00  0.00     0.009 A 
ATOM     67  C   UNL     1       1.458  -7.913   5.186  1.00  0.00     0.009 A 
ATOM     68  C   UNL     1       2.745  -6.921   7.423  1.00  0.00     0.001 A 
ATOM     69  C   UNL     1       2.696  -8.444   5.578  1.00  0.00     0.001 A 
ATOM     70  C   UNL     1       3.342  -7.945   6.699  1.00  0.00     0.000 A 
ENDBRANCH  51  65
BRANCH  52  71
ATOM     71  C   UNL     1      -6.723  -1.593   1.944  1.00  0.00    -0.014 A 
ATOM     72  C   UNL     1      -6.681  -0.562   0.971  1.00  0.00     0.009 A 
ATOM     73  C   UNL     1      -7.177  -2.853   1.524  1.00  0.00     0.009 A 
ATOM     74  C   UNL     1      -6.919  -0.823  -0.390  1.00  0.00     0.001 A 
ATOM     75  C   UNL     1      -7.409  -3.110   0.159  1.00  0.00     0.001 A 
ATOM     76  C   UNL     1      -7.232  -2.114  -0.801  1.00  0.00     0.000 A 
ENDBRANCH  52  71
BRANCH  64  77
ATOM     77  C   UNL     1      -4.721  -4.117   8.453  1.00  0.00    -0.014 A 
ATOM     78  C   UNL     1      -6.074  -4.218   8.810  1.00  0.00     0.009 A 
ATOM     79  C   UNL     1      -3.783  -4.738   9.299  1.00  0.00     0.009 A 
ATOM     80  C   UNL     1      -6.464  -4.834   9.996  1.00  0.00     0.001 A 
ATOM     81  C   UNL     1      -4.177  -5.425  10.443  1.00  0.00     0.001 A 
ATOM     82  C   UNL     1      -5.516  -5.447  10.805  1.00  0.00     0.000 A 
ENDBRANCH  64  77
ENDBRANCH  38  39
ENDBRANCH  31  33
ENDBRANCH  30  31
ENDBRANCH  29  30
ENDBRANCH  28  29
ENDBRANCH  27  28
ENDBRANCH   1  27
TORSDOF 18
