REMARK SMILES O=C(Cc1ccc(F)c(F)c1)NC1(C(=O)OCCOCCOC(=O)c2ccc(-c3c4nc(c(-c5ccccc5)c5ccc([nH]5)c(-c5ccccc5)c5nc(c(-c6ccccc6)c6ccc3[nH]6)C=C5)C=C4)cc2)CCCC1
REMARK SMILES IDX 18 1 17 2 16 3 14 4 15 5 13 6 73 7 76 8 74 9 75 10 12 11
REMARK SMILES IDX 1 12 2 13 3 15 4 16 5 17 11 18 6 19 9 20 7 21 10 22 8 23
REMARK SMILES IDX 19 24 20 25 21 26 22 27 23 28 24 29 25 30 26 31 72 32 27 33
REMARK SMILES IDX 71 34 28 35 29 36 30 37 65 38 31 39 70 40 64 41 66 42 32 43
REMARK SMILES IDX 69 44 63 45 62 46 33 48 55 49 40 50 54 51 41 52 44 53 53 54
REMARK SMILES IDX 67 55 42 56 43 57 52 59 68 60 45 61 34 62 35 63 39 64 36 65
REMARK SMILES IDX 38 66 37 67 56 68 57 69 61 70 58 71 60 72 59 73 46 74 47 75
REMARK SMILES IDX 51 76 48 77 50 78 49 79
REMARK H PARENT 12 14 66 47 44 58
REMARK Flexibility Score: inf
ROOT
ATOM      1  C   UNL     1       1.381   1.992   4.959  1.00  0.00     0.202 C 
ENDROOT
BRANCH   1   2
ATOM      2  C   UNL     1       2.321   2.999   4.290  1.00  0.00     0.261 C 
BRANCH   2   3
ATOM      3  O   UNL     1       2.015   3.162   2.894  1.00  0.00    -0.461 OA
BRANCH   3   4
ATOM      4  C   UNL     1       3.002   2.797   2.035  1.00  0.00     0.331 C 
ATOM      5  O   UNL     1       4.150   2.510   2.370  1.00  0.00    -0.249 OA
BRANCH   4   6
ATOM      6  C   UNL     1       2.555   2.763   0.556  1.00  0.00     0.138 C 
ATOM      7  C   UNL     1       3.173   3.971  -0.161  1.00  0.00     0.040 C 
ATOM      8  C   UNL     1       1.059   2.948   0.261  1.00  0.00     0.040 C 
ATOM      9  C   UNL     1       2.194   5.105   0.108  1.00  0.00     0.003 C 
ATOM     10  C   UNL     1       0.820   4.452   0.128  1.00  0.00     0.003 C 
BRANCH   6  11
ATOM     11  N   UNL     1       3.149   1.519   0.028  1.00  0.00    -0.340 N 
ATOM     12  O   UNL     1       1.308   0.144   0.046  1.00  0.00    -0.275 OA
ATOM     13  C   UNL     1       2.505   0.318  -0.162  1.00  0.00     0.225 C 
ATOM     14  H   UNL     1       4.103   1.552  -0.213  1.00  0.00     0.164 HD
BRANCH  13  15
ATOM     15  C   UNL     1       3.411  -0.825  -0.591  1.00  0.00     0.135 C 
BRANCH  15  16
ATOM     16  C   UNL     1       4.124  -0.703  -1.927  1.00  0.00    -0.036 A 
ATOM     17  C   UNL     1       4.751  -1.855  -2.442  1.00  0.00     0.007 A 
ATOM     18  C   UNL     1       4.252   0.494  -2.646  1.00  0.00     0.046 A 
ATOM     19  C   UNL     1       5.491  -1.806  -3.628  1.00  0.00     0.043 A 
ATOM     20  C   UNL     1       5.006   0.541  -3.818  1.00  0.00     0.159 A 
ATOM     21  C   UNL     1       5.622  -0.601  -4.305  1.00  0.00     0.158 A 
ATOM     22  F   UNL     1       5.139   1.709  -4.461  1.00  0.00    -0.204 F 
ATOM     23  F   UNL     1       6.352  -0.549  -5.428  1.00  0.00    -0.204 F 
ENDBRANCH  15  16
ENDBRANCH  13  15
ENDBRANCH   6  11
ENDBRANCH   4   6
ENDBRANCH   3   4
ENDBRANCH   2   3
ENDBRANCH   1   2
BRANCH   1  24
ATOM     24  O   UNL     1       1.459   0.642   4.503  1.00  0.00    -0.374 OA
BRANCH  24  25
ATOM     25  C   UNL     1       0.886   0.340   3.229  1.00  0.00     0.202 C 
BRANCH  25  26
ATOM     26  C   UNL     1      -0.644   0.277   3.151  1.00  0.00     0.261 C 
BRANCH  26  27
ATOM     27  O   UNL     1      -1.259   1.549   3.437  1.00  0.00    -0.460 OA
BRANCH  27  28
ATOM     28  C   UNL     1      -2.042   1.562   4.539  1.00  0.00     0.338 C 
ATOM     29  O   UNL     1      -2.351   0.612   5.245  1.00  0.00    -0.246 OA
BRANCH  28  30
ATOM     30  C   UNL     1      -2.358   2.949   4.925  1.00  0.00     0.060 A 
ATOM     31  C   UNL     1      -2.035   3.337   6.231  1.00  0.00     0.016 A 
ATOM     32  C   UNL     1      -3.030   3.826   4.070  1.00  0.00     0.016 A 
ATOM     33  C   UNL     1      -2.431   4.584   6.706  1.00  0.00     0.010 A 
ATOM     34  C   UNL     1      -3.434   5.078   4.553  1.00  0.00     0.010 A 
ATOM     35  C   UNL     1      -3.169   5.446   5.884  1.00  0.00    -0.014 A 
BRANCH  35  36
ATOM     36  C   UNL     1      -3.758   6.667   6.484  1.00  0.00     0.031 A 
ATOM     37  C   UNL     1      -5.189   6.644   6.949  1.00  0.00     0.074 A 
ATOM     38  C   UNL     1      -3.002   7.760   6.689  1.00  0.00     0.049 A 
ATOM     39  N   UNL     1      -5.866   7.565   7.588  1.00  0.00    -0.248 NA
ATOM     40  C   UNL     1      -5.954   5.420   6.664  1.00  0.00     0.031 C 
ATOM     41  C   UNL     1      -1.595   7.897   6.316  1.00  0.00     0.029 A 
ATOM     42  N   UNL     1      -3.314   8.958   7.281  1.00  0.00    -0.354 N 
ATOM     43  C   UNL     1      -7.133   7.030   7.787  1.00  0.00     0.074 A 
ATOM     44  C   UNL     1      -7.141   5.720   7.172  1.00  0.00     0.031 C 
ATOM     45  C   UNL     1      -1.161   9.111   6.698  1.00  0.00     0.029 A 
ATOM     46  C   UNL     1      -2.262   9.838   7.325  1.00  0.00     0.049 A 
ATOM     47  H   UNL     1      -4.207   9.166   7.640  1.00  0.00     0.167 HD
ATOM     48  C   UNL     1      -8.193   7.574   8.433  1.00  0.00     0.031 A 
ATOM     49  C   UNL     1      -2.194  11.090   7.816  1.00  0.00     0.031 A 
ATOM     50  C   UNL     1      -8.198   8.883   9.030  1.00  0.00     0.049 A 
ATOM     51  C   UNL     1      -3.405  11.697   8.472  1.00  0.00     0.074 A 
ATOM     52  C   UNL     1      -9.220   9.515   9.717  1.00  0.00     0.029 A 
ATOM     53  N   UNL     1      -7.130   9.766   9.001  1.00  0.00    -0.354 N 
ATOM     54  N   UNL     1      -4.583  11.165   8.685  1.00  0.00    -0.248 NA
ATOM     55  C   UNL     1      -3.266  13.074   8.966  1.00  0.00     0.031 C 
ATOM     56  C   UNL     1      -8.787  10.801  10.060  1.00  0.00     0.029 A 
ATOM     57  C   UNL     1      -7.478  10.949   9.633  1.00  0.00     0.049 A 
ATOM     58  H   UNL     1      -6.254   9.580   8.592  1.00  0.00     0.167 HD
ATOM     59  C   UNL     1      -5.321  12.134   9.354  1.00  0.00     0.074 A 
ATOM     60  C   UNL     1      -4.448  13.277   9.530  1.00  0.00     0.031 C 
ATOM     61  C   UNL     1      -6.605  12.083   9.785  1.00  0.00     0.031 A 
BRANCH  48  62
ATOM     62  C   UNL     1      -9.451   6.755   8.500  1.00  0.00    -0.014 A 
ATOM     63  C   UNL     1      -9.545   5.635   9.341  1.00  0.00     0.009 A 
ATOM     64  C   UNL     1     -10.566   7.127   7.734  1.00  0.00     0.009 A 
ATOM     65  C   UNL     1     -10.723   4.885   9.389  1.00  0.00     0.001 A 
ATOM     66  C   UNL     1     -11.749   6.389   7.802  1.00  0.00     0.001 A 
ATOM     67  C   UNL     1     -11.824   5.265   8.622  1.00  0.00     0.000 A 
ENDBRANCH  48  62
BRANCH  49  68
ATOM     68  C   UNL     1      -0.931  11.864   7.704  1.00  0.00    -0.014 A 
ATOM     69  C   UNL     1      -0.158  12.146   8.840  1.00  0.00     0.009 A 
ATOM     70  C   UNL     1      -0.504  12.343   6.455  1.00  0.00     0.009 A 
ATOM     71  C   UNL     1       1.005  12.911   8.731  1.00  0.00     0.001 A 
ATOM     72  C   UNL     1       0.673  13.085   6.346  1.00  0.00     0.001 A 
ATOM     73  C   UNL     1       1.422  13.376   7.484  1.00  0.00     0.000 A 
ENDBRANCH  49  68
BRANCH  61  74
ATOM     74  C   UNL     1      -7.132  13.295  10.501  1.00  0.00    -0.014 A 
ATOM     75  C   UNL     1      -7.417  14.482   9.808  1.00  0.00     0.009 A 
ATOM     76  C   UNL     1      -7.359  13.245  11.885  1.00  0.00     0.009 A 
ATOM     77  C   UNL     1      -7.878  15.607  10.494  1.00  0.00     0.001 A 
ATOM     78  C   UNL     1      -7.847  14.363  12.564  1.00  0.00     0.001 A 
ATOM     79  C   UNL     1      -8.095  15.546  11.870  1.00  0.00     0.000 A 
ENDBRANCH  61  74
ENDBRANCH  35  36
ENDBRANCH  28  30
ENDBRANCH  27  28
ENDBRANCH  26  27
ENDBRANCH  25  26
ENDBRANCH  24  25
ENDBRANCH   1  24
TORSDOF 17
