REMARK SMILES COc1ccc(Nc2c(C(=O)OCCOCCOC(=O)c3ccc(-c4c5nc(c(-c6ccccc6)c6ccc([nH]6)c(-c6ccccc6)c6nc(c(-c7ccccc7)c7ccc4[nH]7)C=C6)C=C5)cc3)[nH]c(=O)[nH]c2=O)cc1
REMARK SMILES IDX 14 1 13 2 12 3 10 4 11 5 9 6 8 7 73 8 69 9 72 10 74 11 70 12
REMARK SMILES IDX 71 15 7 16 6 18 3 19 4 20 76 21 5 22 75 23 2 24 1 25 15 26
REMARK SMILES IDX 16 27 17 28 18 29 19 30 20 31 21 32 22 33 68 34 23 35 67 36
REMARK SMILES IDX 24 37 25 38 26 39 61 40 27 41 66 42 60 43 62 44 28 45 65 46
REMARK SMILES IDX 59 47 58 48 29 50 51 51 36 52 50 53 37 54 40 55 49 56 63 57
REMARK SMILES IDX 38 58 39 59 48 61 64 62 41 63 30 64 31 65 35 66 32 67 34 68
REMARK SMILES IDX 33 69 52 70 53 71 57 72 54 73 56 74 55 75 42 76 43 77 47 78
REMARK SMILES IDX 44 79 46 80 45 81
REMARK H PARENT 69 13 72 14 7 17 62 49 40 60
REMARK Flexibility Score: inf
ROOT
ATOM      1  C   UNL     1       4.503   4.839  -7.130  1.00  0.00     0.202 C 
ENDROOT
BRANCH   1   2
ATOM      2  C   UNL     1       4.872   5.942  -6.133  1.00  0.00     0.261 C 
BRANCH   2   3
ATOM      3  O   UNL     1       3.802   6.138  -5.187  1.00  0.00    -0.459 OA
BRANCH   3   4
ATOM      4  C   UNL     1       3.115   7.297  -5.322  1.00  0.00     0.357 C 
ATOM      5  O   UNL     1       3.447   8.252  -6.013  1.00  0.00    -0.244 OA
BRANCH   4   6
ATOM      6  C   UNL     1       1.774   7.264  -4.654  1.00  0.00     0.158 A 
ATOM      7  C   UNL     1       1.377   6.356  -3.732  1.00  0.00     0.136 A 
ATOM      8  C   UNL     1       0.007   6.647  -3.137  1.00  0.00     0.278 A 
ATOM      9  N   UNL     1       0.913   8.221  -5.149  1.00  0.00    -0.299 N 
ATOM     10  N   UNL     1      -0.810   7.493  -3.831  1.00  0.00    -0.272 N 
ATOM     11  O   UNL     1      -0.368   6.191  -2.060  1.00  0.00    -0.267 OA
ATOM     12  C   UNL     1      -0.395   8.332  -4.812  1.00  0.00     0.326 A 
ATOM     13  H   UNL     1       1.276   8.872  -5.793  1.00  0.00     0.172 HD
ATOM     14  H   UNL     1      -1.767   7.495  -3.602  1.00  0.00     0.175 HD
ATOM     15  O   UNL     1      -1.141   9.144  -5.345  1.00  0.00    -0.248 OA
BRANCH   7  16
ATOM     16  N   UNL     1       2.125   5.292  -3.240  1.00  0.00    -0.349 N 
ATOM     17  H   UNL     1       3.095   5.455  -3.191  1.00  0.00     0.167 HD
BRANCH  16  18
ATOM     18  C   UNL     1       1.716   4.015  -2.798  1.00  0.00     0.039 A 
ATOM     19  C   UNL     1       0.993   1.480  -1.765  1.00  0.00     0.119 A 
ATOM     20  C   UNL     1       0.078   2.234  -2.492  1.00  0.00     0.048 A 
ATOM     21  C   UNL     1       2.282   1.969  -1.574  1.00  0.00     0.048 A 
ATOM     22  C   UNL     1       0.434   3.492  -2.994  1.00  0.00     0.030 A 
ATOM     23  C   UNL     1       2.633   3.229  -2.080  1.00  0.00     0.030 A 
BRANCH  19  24
ATOM     24  O   UNL     1       0.557   0.260  -1.331  1.00  0.00    -0.497 OA
ATOM     25  C   UNL     1       0.982  -0.077  -0.013  1.00  0.00     0.278 C 
ENDBRANCH  19  24
ENDBRANCH  16  18
ENDBRANCH   7  16
ENDBRANCH   4   6
ENDBRANCH   3   4
ENDBRANCH   2   3
ENDBRANCH   1   2
BRANCH   1  26
ATOM     26  O   UNL     1       3.484   5.197  -8.065  1.00  0.00    -0.374 OA
BRANCH  26  27
ATOM     27  C   UNL     1       2.130   5.030  -7.639  1.00  0.00     0.202 C 
BRANCH  27  28
ATOM     28  C   UNL     1       1.559   3.616  -7.780  1.00  0.00     0.261 C 
BRANCH  28  29
ATOM     29  O   UNL     1       2.213   2.701  -6.883  1.00  0.00    -0.460 OA
BRANCH  29  30
ATOM     30  C   UNL     1       3.004   1.787  -7.487  1.00  0.00     0.338 C 
ATOM     31  O   UNL     1       3.133   1.601  -8.691  1.00  0.00    -0.246 OA
BRANCH  30  32
ATOM     32  C   UNL     1       3.872   1.124  -6.497  1.00  0.00     0.060 A 
ATOM     33  C   UNL     1       5.235   1.039  -6.807  1.00  0.00     0.016 A 
ATOM     34  C   UNL     1       3.375   0.541  -5.328  1.00  0.00     0.016 A 
ATOM     35  C   UNL     1       6.095   0.319  -5.983  1.00  0.00     0.010 A 
ATOM     36  C   UNL     1       4.241  -0.189  -4.504  1.00  0.00     0.010 A 
ATOM     37  C   UNL     1       5.597  -0.333  -4.847  1.00  0.00    -0.014 A 
BRANCH  37  38
ATOM     38  C   UNL     1       6.497  -1.242  -4.097  1.00  0.00     0.031 A 
ATOM     39  C   UNL     1       6.438  -2.724  -4.354  1.00  0.00     0.074 A 
ATOM     40  C   UNL     1       7.408  -0.744  -3.242  1.00  0.00     0.049 A 
ATOM     41  N   UNL     1       7.192  -3.677  -3.867  1.00  0.00    -0.248 NA
ATOM     42  C   UNL     1       5.398  -3.194  -5.282  1.00  0.00     0.031 C 
ATOM     43  C   UNL     1       7.582   0.672  -2.922  1.00  0.00     0.029 A 
ATOM     44  N   UNL     1       8.366  -1.380  -2.492  1.00  0.00    -0.354 N 
ATOM     45  C   UNL     1       6.717  -4.858  -4.424  1.00  0.00     0.074 A 
ATOM     46  C   UNL     1       5.594  -4.506  -5.267  1.00  0.00     0.031 C 
ATOM     47  C   UNL     1       8.587   0.798  -2.038  1.00  0.00     0.029 A 
ATOM     48  C   UNL     1       9.113  -0.527  -1.718  1.00  0.00     0.049 A 
ATOM     49  H   UNL     1       8.503  -2.354  -2.507  1.00  0.00     0.167 HD
ATOM     50  C   UNL     1       7.176  -6.120  -4.254  1.00  0.00     0.031 A 
ATOM     51  C   UNL     1      10.105  -0.785  -0.845  1.00  0.00     0.031 A 
ATOM     52  C   UNL     1       8.290  -6.477  -3.417  1.00  0.00     0.049 A 
ATOM     53  C   UNL     1      10.569  -2.203  -0.646  1.00  0.00     0.074 A 
ATOM     54  C   UNL     1       8.856  -7.725  -3.223  1.00  0.00     0.029 A 
ATOM     55  N   UNL     1       9.000  -5.588  -2.626  1.00  0.00    -0.354 N 
ATOM     56  N   UNL     1      10.153  -3.299  -1.233  1.00  0.00    -0.248 NA
ATOM     57  C   UNL     1      11.650  -2.415   0.328  1.00  0.00     0.031 C 
ATOM     58  C   UNL     1       9.872  -7.602  -2.269  1.00  0.00     0.029 A 
ATOM     59  C   UNL     1       9.974  -6.267  -1.912  1.00  0.00     0.049 A 
ATOM     60  H   UNL     1       8.836  -4.619  -2.578  1.00  0.00     0.167 HD
ATOM     61  C   UNL     1      10.934  -4.325  -0.716  1.00  0.00     0.074 A 
ATOM     62  C   UNL     1      11.864  -3.718   0.214  1.00  0.00     0.031 C 
ATOM     63  C   UNL     1      10.885  -5.653  -0.984  1.00  0.00     0.031 A 
BRANCH  50  64
ATOM     64  C   UNL     1       6.453  -7.228  -4.967  1.00  0.00    -0.014 A 
ATOM     65  C   UNL     1       6.601  -7.425  -6.348  1.00  0.00     0.009 A 
ATOM     66  C   UNL     1       5.667  -8.127  -4.230  1.00  0.00     0.009 A 
ATOM     67  C   UNL     1       5.957  -8.492  -6.980  1.00  0.00     0.001 A 
ATOM     68  C   UNL     1       5.043  -9.205  -4.861  1.00  0.00     0.001 A 
ATOM     69  C   UNL     1       5.185  -9.384  -6.236  1.00  0.00     0.000 A 
ENDBRANCH  50  64
BRANCH  51  70
ATOM     70  C   UNL     1      10.719   0.321  -0.065  1.00  0.00    -0.014 A 
ATOM     71  C   UNL     1      12.044   0.719  -0.296  1.00  0.00     0.009 A 
ATOM     72  C   UNL     1       9.984   0.958   0.948  1.00  0.00     0.009 A 
ATOM     73  C   UNL     1      12.631   1.712   0.493  1.00  0.00     0.001 A 
ATOM     74  C   UNL     1      10.564   1.970   1.715  1.00  0.00     0.001 A 
ATOM     75  C   UNL     1      11.890   2.337   1.495  1.00  0.00     0.000 A 
ENDBRANCH  51  70
BRANCH  63  76
ATOM     76  C   UNL     1      11.876  -6.533  -0.274  1.00  0.00    -0.014 A 
ATOM     77  C   UNL     1      11.751  -6.809   1.097  1.00  0.00     0.009 A 
ATOM     78  C   UNL     1      12.934  -7.113  -0.991  1.00  0.00     0.009 A 
ATOM     79  C   UNL     1      12.689  -7.616   1.742  1.00  0.00     0.001 A 
ATOM     80  C   UNL     1      13.854  -7.943  -0.349  1.00  0.00     0.001 A 
ATOM     81  C   UNL     1      13.737  -8.185   1.019  1.00  0.00     0.000 A 
ENDBRANCH  63  76
ENDBRANCH  37  38
ENDBRANCH  30  32
ENDBRANCH  29  30
ENDBRANCH  28  29
ENDBRANCH  27  28
ENDBRANCH  26  27
ENDBRANCH   1  26
TORSDOF 17
