REMARK SMILES Cc1ccc(C)c(S(=O)(=O)N[C@H](CC2=c3ccccc3=NC2)C(=O)OCCOCCOC(=O)c2ccc(-c3c4nc(c(-c5ccccc5)c5ccc([nH]5)c(-c5ccccc5)c5nc(c(-c6ccccc6)c6ccc3[nH]6)C=C5)C=C4)cc2)c1
REMARK SMILES IDX 27 1 26 2 25 3 23 4 24 5 12 6 11 7 8 9 9 10 10 11 7 12 1 13
REMARK SMILES IDX 2 14 3 15 82 16 4 17 5 18 6 19 13 20 14 21 15 22 22 23 16 24
REMARK SMILES IDX 20 25 21 26 17 27 19 28 18 29 28 30 29 31 30 32 31 33 32 34
REMARK SMILES IDX 33 35 34 36 35 37 81 38 36 39 80 40 37 41 38 42 39 43 74 44
REMARK SMILES IDX 40 45 79 46 73 47 75 48 41 49 78 50 72 51 71 52 42 54 64 55
REMARK SMILES IDX 49 56 63 57 50 58 53 59 62 60 76 61 51 62 52 63 61 65 77 66
REMARK SMILES IDX 54 67 43 68 44 69 48 70 45 71 47 72 46 73 65 74 66 75 70 76
REMARK SMILES IDX 67 77 69 78 68 79 55 80 56 81 60 82 57 83 59 84 58 85
REMARK H PARENT 11 8 75 53 53 64
REMARK Flexibility Score: inf
ROOT
ATOM      1  C   UNL     1       0.963   7.265   0.099  1.00  0.00     0.202 C 
ENDROOT
BRANCH   1   2
ATOM      2  C   UNL     1       0.106   7.079  -1.168  1.00  0.00     0.261 C 
BRANCH   2   3
ATOM      3  O   UNL     1      -0.802   5.963  -1.008  1.00  0.00    -0.462 OA
BRANCH   3   4
ATOM      4  C   UNL     1      -0.206   4.749  -0.920  1.00  0.00     0.324 C 
ATOM      5  O   UNL     1       0.906   4.493  -1.356  1.00  0.00    -0.250 OA
BRANCH   4   6
ATOM      6  C   UNL     1      -1.088   3.703  -0.256  1.00  0.00     0.183 C 
BRANCH   6   7
ATOM      7  N   UNL     1      -2.046   3.119  -1.242  1.00  0.00    -0.197 NA
ATOM      8  H   UNL     1      -2.814   2.693  -0.723  1.00  0.00     0.142 HD
BRANCH   7   9
ATOM      9  S   UNL     1      -1.391   1.949  -2.262  1.00  0.00     0.241 S 
ATOM     10  O   UNL     1       0.013   2.228  -2.315  1.00  0.00    -0.207 OA
ATOM     11  O   UNL     1      -2.259   1.896  -3.417  1.00  0.00    -0.207 OA
BRANCH   9  12
ATOM     12  C   UNL     1      -1.477   0.405  -1.423  1.00  0.00     0.085 A 
ATOM     13  C   UNL     1      -2.406  -0.759   2.035  1.00  0.00     0.044 C 
ATOM     14  C   UNL     1      -1.950  -0.782   0.613  1.00  0.00    -0.050 A 
ATOM     15  C   UNL     1      -1.309  -1.912   0.096  1.00  0.00     0.004 A 
ATOM     16  C   UNL     1      -2.116   0.345  -0.189  1.00  0.00     0.025 A 
ATOM     17  C   UNL     1      -0.693  -1.861  -1.148  1.00  0.00     0.005 A 
ATOM     18  C   UNL     1      -0.695  -0.673  -1.881  1.00  0.00    -0.031 A 
ATOM     19  C   UNL     1       0.209  -0.599  -3.075  1.00  0.00     0.046 C 
ENDBRANCH   9  12
ENDBRANCH   7   9
ENDBRANCH   6   7
BRANCH   6  20
ATOM     20  C   UNL     1      -1.877   4.056   1.025  1.00  0.00     0.065 C 
BRANCH  20  21
ATOM     21  C   UNL     1      -1.591   5.289   1.821  1.00  0.00    -0.037 C 
ATOM     22  C   UNL     1      -0.866   5.404   2.933  1.00  0.00     0.001 A 
ATOM     23  C   UNL     1      -2.274   6.595   1.517  1.00  0.00     0.174 C 
ATOM     24  C   UNL     1      -0.101   4.515   3.750  1.00  0.00     0.010 A 
ATOM     25  C   UNL     1      -0.950   6.844   3.234  1.00  0.00     0.065 A 
ATOM     26  N   UNL     1      -1.724   7.570   2.488  1.00  0.00    -0.280 NA
ATOM     27  C   UNL     1       0.608   5.027   4.771  1.00  0.00     0.001 A 
ATOM     28  C   UNL     1      -0.099   7.339   4.335  1.00  0.00     0.028 A 
ATOM     29  C   UNL     1       0.629   6.456   5.039  1.00  0.00     0.002 A 
ENDBRANCH  20  21
ENDBRANCH   6  20
ENDBRANCH   4   6
ENDBRANCH   3   4
ENDBRANCH   2   3
ENDBRANCH   1   2
BRANCH   1  30
ATOM     30  O   UNL     1       1.925   6.230   0.130  1.00  0.00    -0.374 OA
BRANCH  30  31
ATOM     31  C   UNL     1       2.348   5.664   1.351  1.00  0.00     0.202 C 
BRANCH  31  32
ATOM     32  C   UNL     1       3.166   6.609   2.229  1.00  0.00     0.261 C 
BRANCH  32  33
ATOM     33  O   UNL     1       4.408   7.027   1.616  1.00  0.00    -0.460 OA
BRANCH  33  34
ATOM     34  C   UNL     1       4.276   7.898   0.572  1.00  0.00     0.338 C 
ATOM     35  O   UNL     1       3.994   9.078   0.697  1.00  0.00    -0.246 OA
BRANCH  34  36
ATOM     36  C   UNL     1       4.329   7.152  -0.724  1.00  0.00     0.060 A 
ATOM     37  C   UNL     1       3.662   7.665  -1.850  1.00  0.00     0.016 A 
ATOM     38  C   UNL     1       4.686   5.803  -0.684  1.00  0.00     0.016 A 
ATOM     39  C   UNL     1       3.229   6.789  -2.864  1.00  0.00     0.010 A 
ATOM     40  C   UNL     1       4.115   4.932  -1.599  1.00  0.00     0.010 A 
ATOM     41  C   UNL     1       3.383   5.401  -2.705  1.00  0.00    -0.014 A 
BRANCH  41  42
ATOM     42  C   UNL     1       3.397   4.430  -3.820  1.00  0.00     0.031 A 
ATOM     43  C   UNL     1       4.673   4.626  -4.495  1.00  0.00     0.074 A 
ATOM     44  C   UNL     1       2.553   3.563  -4.418  1.00  0.00     0.049 A 
ATOM     45  N   UNL     1       4.766   5.508  -5.435  1.00  0.00    -0.248 NA
ATOM     46  C   UNL     1       5.941   4.165  -3.931  1.00  0.00     0.031 C 
ATOM     47  C   UNL     1       1.109   3.551  -4.354  1.00  0.00     0.029 A 
ATOM     48  N   UNL     1       2.837   2.474  -5.242  1.00  0.00    -0.354 N 
ATOM     49  C   UNL     1       6.083   5.475  -5.781  1.00  0.00     0.074 A 
ATOM     50  C   UNL     1       6.781   4.921  -4.644  1.00  0.00     0.031 C 
ATOM     51  C   UNL     1       0.641   2.456  -4.998  1.00  0.00     0.029 A 
ATOM     52  C   UNL     1       1.754   1.614  -5.442  1.00  0.00     0.049 A 
ATOM     53  H   UNL     1       3.722   2.325  -5.647  1.00  0.00     0.167 HD
ATOM     54  C   UNL     1       6.386   5.456  -7.101  1.00  0.00     0.031 A 
ATOM     55  C   UNL     1       1.525   0.669  -6.395  1.00  0.00     0.031 A 
ATOM     56  C   UNL     1       5.261   5.849  -7.930  1.00  0.00     0.049 A 
ATOM     57  C   UNL     1       1.908   1.281  -7.677  1.00  0.00     0.074 A 
ATOM     58  C   UNL     1       4.558   7.019  -8.150  1.00  0.00     0.029 A 
ATOM     59  N   UNL     1       4.434   4.819  -8.313  1.00  0.00    -0.354 N 
ATOM     60  N   UNL     1       1.219   2.215  -8.261  1.00  0.00    -0.248 NA
ATOM     61  C   UNL     1       3.262   1.072  -8.184  1.00  0.00     0.031 C 
ATOM     62  C   UNL     1       3.260   6.651  -8.615  1.00  0.00     0.029 A 
ATOM     63  C   UNL     1       3.189   5.266  -8.693  1.00  0.00     0.049 A 
ATOM     64  H   UNL     1       4.702   3.871  -8.316  1.00  0.00     0.167 HD
ATOM     65  C   UNL     1       2.195   3.011  -8.821  1.00  0.00     0.074 A 
ATOM     66  C   UNL     1       3.385   2.179  -8.916  1.00  0.00     0.031 C 
ATOM     67  C   UNL     1       2.066   4.364  -8.828  1.00  0.00     0.031 A 
BRANCH  54  68
ATOM     68  C   UNL     1       7.521   4.616  -7.597  1.00  0.00    -0.014 A 
ATOM     69  C   UNL     1       8.038   3.508  -6.889  1.00  0.00     0.009 A 
ATOM     70  C   UNL     1       7.986   4.810  -8.898  1.00  0.00     0.009 A 
ATOM     71  C   UNL     1       9.033   2.687  -7.406  1.00  0.00     0.001 A 
ATOM     72  C   UNL     1       8.949   3.956  -9.444  1.00  0.00     0.001 A 
ATOM     73  C   UNL     1       9.484   2.909  -8.694  1.00  0.00     0.000 A 
ENDBRANCH  54  68
BRANCH  55  74
ATOM     74  C   UNL     1       1.627  -0.806  -6.231  1.00  0.00    -0.014 A 
ATOM     75  C   UNL     1       2.402  -1.425  -5.240  1.00  0.00     0.009 A 
ATOM     76  C   UNL     1       0.924  -1.640  -7.121  1.00  0.00     0.009 A 
ATOM     77  C   UNL     1       2.435  -2.825  -5.114  1.00  0.00     0.001 A 
ATOM     78  C   UNL     1       0.973  -3.037  -7.009  1.00  0.00     0.001 A 
ATOM     79  C   UNL     1       1.720  -3.630  -5.997  1.00  0.00     0.000 A 
ENDBRANCH  55  74
BRANCH  67  80
ATOM     80  C   UNL     1       0.670   4.920  -8.802  1.00  0.00    -0.014 A 
ATOM     81  C   UNL     1       0.183   5.537  -9.961  1.00  0.00     0.009 A 
ATOM     82  C   UNL     1      -0.148   4.909  -7.664  1.00  0.00     0.009 A 
ATOM     83  C   UNL     1      -1.076   6.141  -9.976  1.00  0.00     0.001 A 
ATOM     84  C   UNL     1      -1.418   5.497  -7.680  1.00  0.00     0.001 A 
ATOM     85  C   UNL     1      -1.877   6.123  -8.835  1.00  0.00     0.000 A 
ENDBRANCH  67  80
ENDBRANCH  41  42
ENDBRANCH  34  36
ENDBRANCH  33  34
ENDBRANCH  32  33
ENDBRANCH  31  32
ENDBRANCH  30  31
ENDBRANCH   1  30
TORSDOF 19
