REMARK SMILES Cc1nc(CNC(=O)[C@H]2CCO[C@H]2C)sc1C(=O)OCCOCCOC(=O)c1ccc(-c2c3nc(c(-c4ccccc4)c4ccc([nH]4)c(-c4ccccc4)c4nc(c(-c5ccccc5)c5ccc2[nH]5)C=C4)C=C3)cc1
REMARK SMILES IDX 21 1 20 2 19 3 17 4 18 5 16 6 1 7 2 8 3 9 4 10 15 11 5 12
REMARK SMILES IDX 6 13 7 14 8 16 9 17 10 18 13 19 11 20 12 21 14 22 22 23
REMARK SMILES IDX 23 24 24 25 25 26 26 27 27 28 28 29 29 30 75 31 30 32 74 33
REMARK SMILES IDX 31 34 32 35 33 36 68 37 34 38 73 39 67 40 69 41 35 42 72 43
REMARK SMILES IDX 66 44 65 45 36 47 58 48 43 49 57 50 44 51 47 52 56 53 70 54
REMARK SMILES IDX 45 55 46 56 55 58 71 59 48 60 37 61 38 62 42 63 39 64 41 65
REMARK SMILES IDX 40 66 59 67 60 68 64 69 61 70 63 71 62 72 49 73 50 74 54 75
REMARK SMILES IDX 51 76 53 77 52 78
REMARK H PARENT 6 15 69 46 47 57
REMARK Flexibility Score: inf
ROOT
ATOM      1  C   UNL     1      -1.033  -4.977  -0.415  1.00  0.00     0.202 C 
ENDROOT
BRANCH   1   2
ATOM      2  C   UNL     1      -1.120  -4.379   0.991  1.00  0.00     0.261 C 
BRANCH   2   3
ATOM      3  O   UNL     1      -1.210  -2.945   0.899  1.00  0.00    -0.459 OA
BRANCH   3   4
ATOM      4  C   UNL     1      -0.211  -2.244   1.504  1.00  0.00     0.350 C 
ATOM      5  O   UNL     1       0.584  -2.732   2.300  1.00  0.00    -0.245 OA
BRANCH   4   6
ATOM      6  C   UNL     1      -0.159  -0.894   0.984  1.00  0.00     0.135 A 
ATOM      7  C   UNL     1      -2.518  -0.365   0.034  1.00  0.00     0.068 C 
ATOM      8  C   UNL     1      -1.083  -0.090   0.329  1.00  0.00     0.063 A 
ATOM      9  N   UNL     1      -0.589   1.149  -0.075  1.00  0.00    -0.244 NA
ATOM     10  C   UNL     1       0.673   1.284   0.271  1.00  0.00     0.113 A 
ATOM     11  S   UNL     1       1.336  -0.050   1.117  1.00  0.00    -0.110 S 
BRANCH  10  12
ATOM     12  C   UNL     1       1.539   2.487   0.034  1.00  0.00     0.183 C 
BRANCH  12  13
ATOM     13  N   UNL     1       1.044   3.291  -1.068  1.00  0.00    -0.349 N 
ATOM     14  C   UNL     1       0.487   4.534  -1.048  1.00  0.00     0.226 C 
ATOM     15  H   UNL     1       1.121   2.879  -1.959  1.00  0.00     0.163 HD
ATOM     16  O   UNL     1       0.237   5.083  -2.120  1.00  0.00    -0.275 OA
BRANCH  14  17
ATOM     17  C   UNL     1       0.203   5.190   0.287  1.00  0.00     0.109 C 
ATOM     18  C   UNL     1      -0.134   6.666   0.205  1.00  0.00     0.044 C 
ATOM     19  C   UNL     1      -1.022   4.630   1.005  1.00  0.00     0.127 C 
ATOM     20  C   UNL     1      -0.817   6.902   1.535  1.00  0.00     0.161 C 
ATOM     21  O   UNL     1      -1.447   5.670   1.913  1.00  0.00    -0.378 OA
ATOM     22  C   UNL     1      -2.214   4.293   0.112  1.00  0.00     0.039 C 
ENDBRANCH  14  17
ENDBRANCH  12  13
ENDBRANCH  10  12
ENDBRANCH   4   6
ENDBRANCH   3   4
ENDBRANCH   2   3
ENDBRANCH   1   2
BRANCH   1  23
ATOM     23  O   UNL     1       0.202  -4.713  -1.084  1.00  0.00    -0.374 OA
BRANCH  23  24
ATOM     24  C   UNL     1       0.291  -3.476  -1.794  1.00  0.00     0.202 C 
BRANCH  24  25
ATOM     25  C   UNL     1      -0.291  -3.502  -3.212  1.00  0.00     0.261 C 
BRANCH  25  26
ATOM     26  O   UNL     1      -1.728  -3.596  -3.180  1.00  0.00    -0.460 OA
BRANCH  26  27
ATOM     27  C   UNL     1      -2.231  -4.788  -3.581  1.00  0.00     0.338 C 
ATOM     28  O   UNL     1      -1.617  -5.733  -4.046  1.00  0.00    -0.246 OA
BRANCH  27  29
ATOM     29  C   UNL     1      -3.659  -4.874  -3.214  1.00  0.00     0.060 A 
ATOM     30  C   UNL     1      -4.090  -6.047  -2.581  1.00  0.00     0.016 A 
ATOM     31  C   UNL     1      -4.570  -3.862  -3.526  1.00  0.00     0.016 A 
ATOM     32  C   UNL     1      -5.442  -6.233  -2.300  1.00  0.00     0.010 A 
ATOM     33  C   UNL     1      -5.929  -4.053  -3.250  1.00  0.00     0.010 A 
ATOM     34  C   UNL     1      -6.374  -5.253  -2.666  1.00  0.00    -0.014 A 
BRANCH  34  35
ATOM     35  C   UNL     1      -7.823  -5.548  -2.562  1.00  0.00     0.031 A 
ATOM     36  C   UNL     1      -8.569  -6.000  -3.787  1.00  0.00     0.074 A 
ATOM     37  C   UNL     1      -8.463  -5.448  -1.383  1.00  0.00     0.049 A 
ATOM     38  N   UNL     1      -9.835  -6.303  -3.921  1.00  0.00    -0.248 NA
ATOM     39  C   UNL     1      -7.782  -6.129  -5.024  1.00  0.00     0.031 C 
ATOM     40  C   UNL     1      -7.847  -5.061  -0.115  1.00  0.00     0.029 A 
ATOM     41  N   UNL     1      -9.780  -5.665  -1.068  1.00  0.00    -0.354 N 
ATOM     42  C   UNL     1      -9.998  -6.656  -5.255  1.00  0.00     0.074 A 
ATOM     43  C   UNL     1      -8.709  -6.502  -5.895  1.00  0.00     0.031 C 
ATOM     44  C   UNL     1      -8.790  -5.061   0.843  1.00  0.00     0.029 A 
ATOM     45  C   UNL     1     -10.077  -5.421   0.250  1.00  0.00     0.049 A 
ATOM     46  H   UNL     1     -10.450  -5.966  -1.724  1.00  0.00     0.167 HD
ATOM     47  C   UNL     1     -11.117  -7.077  -5.890  1.00  0.00     0.031 A 
ATOM     48  C   UNL     1     -11.255  -5.467   0.901  1.00  0.00     0.031 A 
ATOM     49  C   UNL     1     -12.404  -7.216  -5.264  1.00  0.00     0.049 A 
ATOM     50  C   UNL     1     -12.501  -5.863   0.155  1.00  0.00     0.074 A 
ATOM     51  C   UNL     1     -13.594  -7.646  -5.825  1.00  0.00     0.029 A 
ATOM     52  N   UNL     1     -12.669  -6.920  -3.937  1.00  0.00    -0.354 N 
ATOM     53  N   UNL     1     -12.635  -6.218  -1.100  1.00  0.00    -0.248 NA
ATOM     54  C   UNL     1     -13.756  -5.869   0.920  1.00  0.00     0.031 C 
ATOM     55  C   UNL     1     -14.592  -7.564  -4.848  1.00  0.00     0.029 A 
ATOM     56  C   UNL     1     -14.011  -7.133  -3.666  1.00  0.00     0.049 A 
ATOM     57  H   UNL     1     -12.004  -6.605  -3.284  1.00  0.00     0.167 HD
ATOM     58  C   UNL     1     -13.982  -6.514  -1.268  1.00  0.00     0.074 A 
ATOM     59  C   UNL     1     -14.621  -6.310   0.016  1.00  0.00     0.031 C 
ATOM     60  C   UNL     1     -14.632  -6.923  -2.385  1.00  0.00     0.031 A 
BRANCH  47  61
ATOM     61  C   UNL     1     -11.000  -7.388  -7.355  1.00  0.00    -0.014 A 
ATOM     62  C   UNL     1     -10.344  -8.546  -7.802  1.00  0.00     0.009 A 
ATOM     63  C   UNL     1     -11.579  -6.526  -8.299  1.00  0.00     0.009 A 
ATOM     64  C   UNL     1     -10.244  -8.818  -9.168  1.00  0.00     0.001 A 
ATOM     65  C   UNL     1     -11.498  -6.813  -9.662  1.00  0.00     0.001 A 
ATOM     66  C   UNL     1     -10.824  -7.954 -10.096  1.00  0.00     0.000 A 
ENDBRANCH  47  61
BRANCH  48  67
ATOM     67  C   UNL     1     -11.323  -5.108   2.341  1.00  0.00    -0.014 A 
ATOM     68  C   UNL     1     -11.564  -6.089   3.313  1.00  0.00     0.009 A 
ATOM     69  C   UNL     1     -11.165  -3.773   2.746  1.00  0.00     0.009 A 
ATOM     70  C   UNL     1     -11.669  -5.737   4.661  1.00  0.00     0.001 A 
ATOM     71  C   UNL     1     -11.244  -3.428   4.096  1.00  0.00     0.001 A 
ATOM     72  C   UNL     1     -11.505  -4.409   5.052  1.00  0.00     0.000 A 
ENDBRANCH  48  67
BRANCH  60  73
ATOM     73  C   UNL     1     -16.102  -7.206  -2.262  1.00  0.00    -0.014 A 
ATOM     74  C   UNL     1     -17.037  -6.166  -2.149  1.00  0.00     0.009 A 
ATOM     75  C   UNL     1     -16.560  -8.532  -2.303  1.00  0.00     0.009 A 
ATOM     76  C   UNL     1     -18.401  -6.451  -2.049  1.00  0.00     0.001 A 
ATOM     77  C   UNL     1     -17.925  -8.813  -2.230  1.00  0.00     0.001 A 
ATOM     78  C   UNL     1     -18.843  -7.773  -2.094  1.00  0.00     0.000 A 
ENDBRANCH  60  73
ENDBRANCH  34  35
ENDBRANCH  27  29
ENDBRANCH  26  27
ENDBRANCH  25  26
ENDBRANCH  24  25
ENDBRANCH  23  24
ENDBRANCH   1  23
TORSDOF 17
