REMARK SMILES CCCNC(=O)[C@H](C)[NH2+][C@H](C)[C@@H](C)C(=O)OCCOCCOC(=O)c1ccc(-c2c3nc(c(-c4ccccc4)c4ccc([nH]4)c(-c4ccccc4)c4nc(c(-c5ccccc5)c5ccc2[nH]5)C=C4)C=C3)cc1
REMARK SMILES IDX 17 1 16 2 14 3 15 4 12 5 13 6 10 7 11 8 9 9 7 12 8 13 5 14
REMARK SMILES IDX 4 15 6 17 3 18 2 19 1 20 18 21 19 22 20 23 21 24 22 25 23 26
REMARK SMILES IDX 24 27 25 28 26 29 72 30 27 31 71 32 28 33 29 34 30 35 65 36
REMARK SMILES IDX 31 37 70 38 64 39 66 40 32 41 69 42 63 43 62 44 33 46 55 47
REMARK SMILES IDX 40 48 54 49 41 50 44 51 53 52 67 53 42 54 43 55 52 57 68 58
REMARK SMILES IDX 45 59 34 60 35 61 39 62 36 63 38 64 37 65 56 66 57 67 61 68
REMARK SMILES IDX 58 69 60 70 59 71 46 72 47 73 51 74 48 75 50 76 49 77
REMARK H PARENT 9 10 9 11 4 16 66 45 44 56
REMARK Flexibility Score: inf
ROOT
ATOM      1  C   UNL     1       0.739 -10.374   2.502  1.00  0.00     0.261 C 
ENDROOT
BRANCH   1   2
ATOM      2  O   UNL     1       0.686  -8.925   2.610  1.00  0.00    -0.463 OA
BRANCH   2   3
ATOM      3  C   UNL     1       1.894  -8.397   2.957  1.00  0.00     0.314 C 
ATOM      4  O   UNL     1       2.851  -9.097   3.290  1.00  0.00    -0.252 OA
BRANCH   3   5
ATOM      5  C   UNL     1       2.012  -6.862   2.918  1.00  0.00     0.154 C 
ATOM      6  C   UNL     1       2.655  -6.472   4.264  1.00  0.00     0.026 C 
BRANCH   5   7
ATOM      7  C   UNL     1       0.742  -6.017   2.581  1.00  0.00     0.193 C 
ATOM      8  C   UNL     1       0.661  -4.682   3.351  1.00  0.00     0.076 C 
BRANCH   7   9
ATOM      9  N   UNL     1       0.670  -5.552   1.173  1.00  0.00    -0.333 N 
ATOM     10  H   UNL     1       0.070  -4.728   1.140  1.00  0.00     0.347 HD
ATOM     11  H   UNL     1       1.629  -5.360   0.882  1.00  0.00     0.347 HD
BRANCH   9  12
ATOM     12  C   UNL     1       0.141  -6.540   0.230  1.00  0.00     0.269 C 
ATOM     13  C   UNL     1      -0.894  -5.922  -0.705  1.00  0.00     0.086 C 
BRANCH  12  14
ATOM     14  C   UNL     1       1.275  -7.341  -0.453  1.00  0.00     0.277 C 
ATOM     15  N   UNL     1       1.851  -7.000  -1.626  1.00  0.00    -0.351 N 
ATOM     16  H   UNL     1       2.310  -7.743  -2.079  1.00  0.00     0.163 HD
ATOM     17  O   UNL     1       1.754  -8.348   0.079  1.00  0.00    -0.268 OA
BRANCH  15  18
ATOM     18  C   UNL     1       1.915  -5.744  -2.335  1.00  0.00     0.116 C 
BRANCH  18  19
ATOM     19  C   UNL     1       3.065  -4.881  -1.825  1.00  0.00     0.018 C 
ATOM     20  C   UNL     1       4.413  -5.586  -1.918  1.00  0.00     0.006 C 
ENDBRANCH  18  19
ENDBRANCH  15  18
ENDBRANCH  12  14
ENDBRANCH   9  12
ENDBRANCH   7   9
ENDBRANCH   5   7
ENDBRANCH   3   5
ENDBRANCH   2   3
ENDBRANCH   1   2
BRANCH   1  21
ATOM     21  C   UNL     1      -0.599 -10.982   2.054  1.00  0.00     0.202 C 
BRANCH  21  22
ATOM     22  O   UNL     1      -0.756 -11.164   0.635  1.00  0.00    -0.374 OA
BRANCH  22  23
ATOM     23  C   UNL     1      -0.834  -9.950  -0.105  1.00  0.00     0.202 C 
BRANCH  23  24
ATOM     24  C   UNL     1      -2.251  -9.527  -0.490  1.00  0.00     0.261 C 
BRANCH  24  25
ATOM     25  O   UNL     1      -3.059  -9.463   0.689  1.00  0.00    -0.460 OA
BRANCH  25  26
ATOM     26  C   UNL     1      -3.837 -10.554   0.838  1.00  0.00     0.338 C 
ATOM     27  O   UNL     1      -4.157 -11.365  -0.023  1.00  0.00    -0.246 OA
BRANCH  26  28
ATOM     28  C   UNL     1      -4.136 -10.764   2.259  1.00  0.00     0.060 A 
ATOM     29  C   UNL     1      -4.060 -12.085   2.709  1.00  0.00     0.016 A 
ATOM     30  C   UNL     1      -4.545  -9.729   3.108  1.00  0.00     0.016 A 
ATOM     31  C   UNL     1      -4.535 -12.403   3.966  1.00  0.00     0.010 A 
ATOM     32  C   UNL     1      -5.018 -10.049   4.380  1.00  0.00     0.010 A 
ATOM     33  C   UNL     1      -5.091 -11.397   4.767  1.00  0.00    -0.014 A 
BRANCH  33  34
ATOM     34  C   UNL     1      -5.988 -11.838   5.853  1.00  0.00     0.031 A 
ATOM     35  C   UNL     1      -7.462 -11.909   5.556  1.00  0.00     0.074 A 
ATOM     36  C   UNL     1      -5.468 -12.323   6.991  1.00  0.00     0.049 A 
ATOM     37  N   UNL     1      -8.429 -12.419   6.272  1.00  0.00    -0.248 NA
ATOM     38  C   UNL     1      -7.907 -11.344   4.268  1.00  0.00     0.031 C 
ATOM     39  C   UNL     1      -4.043 -12.351   7.319  1.00  0.00     0.029 A 
ATOM     40  N   UNL     1      -6.076 -12.928   8.057  1.00  0.00    -0.354 N 
ATOM     41  C   UNL     1      -9.587 -12.236   5.524  1.00  0.00     0.074 A 
ATOM     42  C   UNL     1      -9.215 -11.538   4.316  1.00  0.00     0.031 C 
ATOM     43  C   UNL     1      -3.881 -12.974   8.498  1.00  0.00     0.029 A 
ATOM     44  C   UNL     1      -5.191 -13.364   9.012  1.00  0.00     0.049 A 
ATOM     45  H   UNL     1      -7.051 -13.040   8.131  1.00  0.00     0.167 HD
ATOM     46  C   UNL     1     -10.848 -12.627   5.816  1.00  0.00     0.031 A 
ATOM     47  C   UNL     1      -5.425 -14.012  10.167  1.00  0.00     0.031 A 
ATOM     48  C   UNL     1     -11.195 -13.313   7.030  1.00  0.00     0.049 A 
ATOM     49  C   UNL     1      -6.842 -14.393  10.493  1.00  0.00     0.074 A 
ATOM     50  C   UNL     1     -12.437 -13.739   7.462  1.00  0.00     0.029 A 
ATOM     51  N   UNL     1     -10.279 -13.674   8.009  1.00  0.00    -0.354 N 
ATOM     52  N   UNL     1      -7.931 -14.206   9.783  1.00  0.00    -0.248 NA
ATOM     53  C   UNL     1      -7.062 -15.087  11.767  1.00  0.00     0.031 C 
ATOM     54  C   UNL     1     -12.278 -14.317   8.727  1.00  0.00     0.029 A 
ATOM     55  C   UNL     1     -10.929 -14.303   9.054  1.00  0.00     0.049 A 
ATOM     56  H   UNL     1      -9.310 -13.507   7.965  1.00  0.00     0.167 HD
ATOM     57  C   UNL     1      -8.964 -14.774  10.514  1.00  0.00     0.074 A 
ATOM     58  C   UNL     1      -8.364 -15.333  11.712  1.00  0.00     0.031 C 
ATOM     59  C   UNL     1     -10.290 -14.833  10.231  1.00  0.00     0.031 A 
BRANCH  46  60
ATOM     60  C   UNL     1     -11.930 -12.276   4.832  1.00  0.00    -0.014 A 
ATOM     61  C   UNL     1     -12.023 -12.910   3.582  1.00  0.00     0.009 A 
ATOM     62  C   UNL     1     -12.873 -11.289   5.160  1.00  0.00     0.009 A 
ATOM     63  C   UNL     1     -13.016 -12.538   2.670  1.00  0.00     0.001 A 
ATOM     64  C   UNL     1     -13.880 -10.939   4.259  1.00  0.00     0.001 A 
ATOM     65  C   UNL     1     -13.946 -11.557   3.011  1.00  0.00     0.000 A 
ENDBRANCH  46  60
BRANCH  47  66
ATOM     66  C   UNL     1      -4.295 -14.334  11.078  1.00  0.00    -0.014 A 
ATOM     67  C   UNL     1      -3.887 -15.659  11.293  1.00  0.00     0.009 A 
ATOM     68  C   UNL     1      -3.596 -13.300  11.723  1.00  0.00     0.009 A 
ATOM     69  C   UNL     1      -2.815 -15.940  12.145  1.00  0.00     0.001 A 
ATOM     70  C   UNL     1      -2.507 -13.581  12.550  1.00  0.00     0.001 A 
ATOM     71  C   UNL     1      -2.122 -14.902  12.767  1.00  0.00     0.000 A 
ENDBRANCH  47  66
BRANCH  59  72
ATOM     72  C   UNL     1     -11.159 -15.544  11.226  1.00  0.00    -0.014 A 
ATOM     73  C   UNL     1     -11.463 -14.966  12.467  1.00  0.00     0.009 A 
ATOM     74  C   UNL     1     -11.702 -16.796  10.900  1.00  0.00     0.009 A 
ATOM     75  C   UNL     1     -12.263 -15.650  13.383  1.00  0.00     0.001 A 
ATOM     76  C   UNL     1     -12.525 -17.464  11.805  1.00  0.00     0.001 A 
ATOM     77  C   UNL     1     -12.795 -16.896  13.050  1.00  0.00     0.000 A 
ENDBRANCH  59  72
ENDBRANCH  33  34
ENDBRANCH  26  28
ENDBRANCH  25  26
ENDBRANCH  24  25
ENDBRANCH  23  24
ENDBRANCH  22  23
ENDBRANCH  21  22
ENDBRANCH   1  21
TORSDOF 20
