REMARK SMILES Cc1c(CCC(=O)N2CCC(C(=O)OCCOCCOC(=O)c3ccc(-c4c5nc(c(-c6ccccc6)c6ccc([nH]6)c(-c6ccccc6)c6nc(c(-c7ccccc7)c7ccc4[nH]7)C=C6)C=C5)cc3)CC2)c(=O)oc2cc3oc4c(c3cc12)CCCC4
REMARK SMILES IDX 16 1 15 2 14 3 12 4 13 5 11 6 6 7 7 8 8 9 9 10 72 11 10 12
REMARK SMILES IDX 71 13 5 14 4 15 3 16 1 17 2 18 84 19 73 20 76 21 83 22 74 23
REMARK SMILES IDX 75 24 77 25 82 26 78 27 81 28 79 29 80 30 85 31 88 32 86 33
REMARK SMILES IDX 87 34 17 35 18 36 19 37 20 38 21 39 22 40 23 41 24 42 70 43
REMARK SMILES IDX 25 44 69 45 26 46 27 47 28 48 63 49 29 50 68 51 62 52 64 53
REMARK SMILES IDX 30 54 67 55 61 56 60 57 31 59 53 60 38 61 52 62 39 63 42 64
REMARK SMILES IDX 51 65 65 66 40 67 41 68 50 70 66 71 43 72 32 73 33 74 37 75
REMARK SMILES IDX 34 76 36 77 35 78 54 79 55 80 59 81 56 82 58 83 57 84 44 85
REMARK SMILES IDX 45 86 49 87 46 88 48 89 47 90
REMARK H PARENT 64 58 42 69
REMARK Flexibility Score: inf
ROOT
ATOM      1  C   UNL     1       4.697  -5.519  -2.784  1.00  0.00     0.202 C 
ENDROOT
BRANCH   1   2
ATOM      2  C   UNL     1       3.528  -4.596  -2.425  1.00  0.00     0.261 C 
BRANCH   2   3
ATOM      3  O   UNL     1       3.830  -3.283  -1.911  1.00  0.00    -0.463 OA
BRANCH   3   4
ATOM      4  C   UNL     1       3.808  -3.186  -0.559  1.00  0.00     0.309 C 
ATOM      5  O   UNL     1       3.670  -4.144   0.196  1.00  0.00    -0.252 OA
BRANCH   4   6
ATOM      6  C   UNL     1       3.762  -1.776  -0.018  1.00  0.00     0.103 C 
ATOM      7  C   UNL     1       2.413   2.157   0.973  1.00  0.00     0.222 C 
ATOM      8  O   UNL     1       2.895   3.162   0.445  1.00  0.00    -0.275 OA
ATOM      9  N   UNL     1       2.915   0.889   0.681  1.00  0.00    -0.343 N 
ATOM     10  C   UNL     1       4.340   0.662   0.349  1.00  0.00     0.120 C 
ATOM     11  C   UNL     1       2.078  -0.260   0.834  1.00  0.00     0.120 C 
ATOM     12  C   UNL     1       4.660  -0.631  -0.472  1.00  0.00     0.037 C 
ATOM     13  C   UNL     1       2.345  -1.301  -0.216  1.00  0.00     0.037 C 
BRANCH   7  14
ATOM     14  C   UNL     1       1.362   2.310   2.119  1.00  0.00     0.105 C 
BRANCH  14  15
ATOM     15  C   UNL     1      -0.147   1.985   1.955  1.00  0.00     0.053 C 
BRANCH  15  16
ATOM     16  C   UNL     1      -0.591   0.588   2.381  1.00  0.00     0.042 A 
ATOM     17  C   UNL     1      -1.486  -0.047   0.084  1.00  0.00     0.046 C 
ATOM     18  C   UNL     1      -1.060  -0.322   1.507  1.00  0.00    -0.030 A 
ATOM     19  C   UNL     1      -0.894  -1.716   1.906  1.00  0.00     0.022 A 
ATOM     20  C   UNL     1      -0.483   0.216   3.831  1.00  0.00     0.339 A 
ATOM     21  C   UNL     1      -0.931  -2.093   3.242  1.00  0.00     0.142 A 
ATOM     22  C   UNL     1      -0.527  -2.658   0.959  1.00  0.00     0.024 A 
ATOM     23  O   UNL     1      -0.116   1.036   4.666  1.00  0.00    -0.246 OA
ATOM     24  O   UNL     1      -0.898  -1.070   4.209  1.00  0.00    -0.422 OA
ATOM     25  C   UNL     1      -0.950  -3.444   3.652  1.00  0.00     0.095 A 
ATOM     26  C   UNL     1      -0.309  -3.967   1.364  1.00  0.00     0.025 A 
ATOM     27  C   UNL     1      -0.726  -4.364   2.625  1.00  0.00     0.138 A 
ATOM     28  C   UNL     1       0.135  -5.114   0.705  1.00  0.00     0.001 A 
ATOM     29  O   UNL     1      -0.968  -5.726   2.578  1.00  0.00    -0.461 OA
ATOM     30  C   UNL     1      -0.591  -6.103   1.316  1.00  0.00     0.108 A 
ATOM     31  C   UNL     1       0.632  -5.274  -0.668  1.00  0.00     0.040 C 
ATOM     32  C   UNL     1      -1.332  -7.096   0.483  1.00  0.00     0.076 C 
ATOM     33  C   UNL     1      -0.525  -5.636  -1.589  1.00  0.00     0.005 C 
ATOM     34  C   UNL     1      -1.690  -6.357  -0.857  1.00  0.00     0.008 C 
ENDBRANCH  15  16
ENDBRANCH  14  15
ENDBRANCH   7  14
ENDBRANCH   4   6
ENDBRANCH   3   4
ENDBRANCH   2   3
ENDBRANCH   1   2
BRANCH   1  35
ATOM     35  O   UNL     1       5.683  -5.747  -1.793  1.00  0.00    -0.374 OA
BRANCH  35  36
ATOM     36  C   UNL     1       6.513  -4.662  -1.388  1.00  0.00     0.202 C 
BRANCH  36  37
ATOM     37  C   UNL     1       7.124  -3.751  -2.467  1.00  0.00     0.261 C 
BRANCH  37  38
ATOM     38  O   UNL     1       6.141  -2.955  -3.164  1.00  0.00    -0.460 OA
BRANCH  38  39
ATOM     39  C   UNL     1       6.061  -3.137  -4.513  1.00  0.00     0.338 C 
ATOM     40  O   UNL     1       6.804  -3.787  -5.206  1.00  0.00    -0.246 OA
BRANCH  39  41
ATOM     41  C   UNL     1       4.743  -2.638  -4.986  1.00  0.00     0.060 A 
ATOM     42  C   UNL     1       4.292  -1.350  -4.705  1.00  0.00     0.016 A 
ATOM     43  C   UNL     1       3.926  -3.526  -5.699  1.00  0.00     0.016 A 
ATOM     44  C   UNL     1       3.025  -0.952  -5.151  1.00  0.00     0.010 A 
ATOM     45  C   UNL     1       2.646  -3.139  -6.101  1.00  0.00     0.010 A 
ATOM     46  C   UNL     1       2.185  -1.841  -5.851  1.00  0.00    -0.014 A 
BRANCH  46  47
ATOM     47  C   UNL     1       0.936  -1.332  -6.469  1.00  0.00     0.031 A 
ATOM     48  C   UNL     1       0.435  -2.034  -7.699  1.00  0.00     0.074 A 
ATOM     49  C   UNL     1       0.035  -0.594  -5.788  1.00  0.00     0.049 A 
ATOM     50  N   UNL     1      -0.411  -3.029  -7.693  1.00  0.00    -0.248 NA
ATOM     51  C   UNL     1       1.063  -1.796  -8.999  1.00  0.00     0.031 C 
ATOM     52  C   UNL     1      -0.431  -0.923  -4.436  1.00  0.00     0.029 A 
ATOM     53  N   UNL     1      -0.837   0.373  -6.227  1.00  0.00    -0.354 N 
ATOM     54  C   UNL     1      -0.407  -3.569  -8.972  1.00  0.00     0.074 A 
ATOM     55  C   UNL     1       0.523  -2.771  -9.743  1.00  0.00     0.031 C 
ATOM     56  C   UNL     1      -1.605  -0.290  -4.223  1.00  0.00     0.029 A 
ATOM     57  C   UNL     1      -1.887   0.603  -5.345  1.00  0.00     0.049 A 
ATOM     58  H   UNL     1      -0.729   0.854  -7.079  1.00  0.00     0.167 HD
ATOM     59  C   UNL     1      -1.150  -4.641  -9.366  1.00  0.00     0.031 A 
ATOM     60  C   UNL     1      -3.111   1.074  -5.708  1.00  0.00     0.031 A 
ATOM     61  C   UNL     1      -2.039  -5.201  -8.397  1.00  0.00     0.049 A 
ATOM     62  C   UNL     1      -3.713  -0.168  -6.320  1.00  0.00     0.074 A 
ATOM     63  C   UNL     1      -2.086  -6.279  -7.539  1.00  0.00     0.029 A 
ATOM     64  N   UNL     1      -3.250  -4.584  -8.207  1.00  0.00    -0.354 N 
ATOM     65  N   UNL     1      -4.245  -1.181  -5.695  1.00  0.00    -0.248 NA
ATOM     66  C   UNL     1      -3.387  -0.418  -7.726  1.00  0.00     0.031 C 
ATOM     67  C   UNL     1      -3.094  -5.957  -6.572  1.00  0.00     0.029 A 
ATOM     68  C   UNL     1      -3.549  -4.674  -6.872  1.00  0.00     0.049 A 
ATOM     69  H   UNL     1      -3.802  -4.155  -8.900  1.00  0.00     0.167 HD
ATOM     70  C   UNL     1      -4.052  -2.280  -6.538  1.00  0.00     0.074 A 
ATOM     71  C   UNL     1      -3.529  -1.733  -7.774  1.00  0.00     0.031 C 
ATOM     72  C   UNL     1      -4.155  -3.582  -6.134  1.00  0.00     0.031 A 
BRANCH  59  73
ATOM     73  C   UNL     1      -1.191  -5.119 -10.766  1.00  0.00    -0.014 A 
ATOM     74  C   UNL     1      -0.258  -6.034 -11.267  1.00  0.00     0.009 A 
ATOM     75  C   UNL     1      -2.279  -4.744 -11.570  1.00  0.00     0.009 A 
ATOM     76  C   UNL     1      -0.425  -6.575 -12.547  1.00  0.00     0.001 A 
ATOM     77  C   UNL     1      -2.449  -5.291 -12.841  1.00  0.00     0.001 A 
ATOM     78  C   UNL     1      -1.524  -6.211 -13.327  1.00  0.00     0.000 A 
ENDBRANCH  59  73
BRANCH  60  79
ATOM     79  C   UNL     1      -3.127   2.390  -6.436  1.00  0.00    -0.014 A 
ATOM     80  C   UNL     1      -3.879   2.646  -7.593  1.00  0.00     0.009 A 
ATOM     81  C   UNL     1      -2.344   3.449  -5.933  1.00  0.00     0.009 A 
ATOM     82  C   UNL     1      -3.729   3.845  -8.304  1.00  0.00     0.001 A 
ATOM     83  C   UNL     1      -2.218   4.658  -6.623  1.00  0.00     0.001 A 
ATOM     84  C   UNL     1      -2.885   4.843  -7.828  1.00  0.00     0.000 A 
ENDBRANCH  60  79
BRANCH  72  85
ATOM     85  C   UNL     1      -4.720  -3.818  -4.764  1.00  0.00    -0.014 A 
ATOM     86  C   UNL     1      -4.005  -4.541  -3.798  1.00  0.00     0.009 A 
ATOM     87  C   UNL     1      -6.013  -3.378  -4.439  1.00  0.00     0.009 A 
ATOM     88  C   UNL     1      -4.596  -4.872  -2.578  1.00  0.00     0.001 A 
ATOM     89  C   UNL     1      -6.582  -3.670  -3.196  1.00  0.00     0.001 A 
ATOM     90  C   UNL     1      -5.879  -4.434  -2.272  1.00  0.00     0.000 A 
ENDBRANCH  72  85
ENDBRANCH  46  47
ENDBRANCH  39  41
ENDBRANCH  38  39
ENDBRANCH  37  38
ENDBRANCH  36  37
ENDBRANCH  35  36
ENDBRANCH   1  35
TORSDOF 17
