REMARK SMILES CCc1cc(/C=C/C(=O)OCCOCCOC(=O)c2ccc(-c3c4nc(c(-c5ccccc5)c5ccc([nH]5)c(-c5ccccc5)c5nc(c(-c6ccccc6)c6ccc3[nH]6)C=C5)C=C4)cc2)cc(C(=O)c2ccccc2)c1
REMARK SMILES IDX 12 1 11 2 10 3 8 4 9 5 7 6 6 7 5 8 3 9 4 10 77 11 68 12
REMARK SMILES IDX 67 13 2 14 1 15 69 16 70 17 71 18 72 19 76 20 73 21 75 22
REMARK SMILES IDX 74 23 13 24 14 25 15 26 16 27 17 28 18 29 19 30 20 31 66 32
REMARK SMILES IDX 21 33 65 34 22 35 23 36 24 37 59 38 25 39 64 40 58 41 60 42
REMARK SMILES IDX 26 43 63 44 57 45 56 46 27 48 49 49 34 50 48 51 35 52 38 53
REMARK SMILES IDX 47 54 61 55 36 56 37 57 46 59 62 60 39 61 28 62 29 63 33 64
REMARK SMILES IDX 30 65 32 66 31 67 50 68 51 69 55 70 52 71 54 72 53 73 40 74
REMARK SMILES IDX 41 75 45 76 42 77 44 78 43 79
REMARK H PARENT 60 47 38 58
REMARK Flexibility Score: inf
ROOT
ATOM      1  C   UNL     1      -1.693  -8.566   1.098  1.00  0.00     0.202 C 
ENDROOT
BRANCH   1   2
ATOM      2  C   UNL     1      -2.193  -8.343  -0.331  1.00  0.00     0.261 C 
BRANCH   2   3
ATOM      3  O   UNL     1      -1.466  -7.278  -0.967  1.00  0.00    -0.460 OA
BRANCH   3   4
ATOM      4  C   UNL     1      -2.206  -6.195  -1.298  1.00  0.00     0.330 C 
ATOM      5  O   UNL     1      -3.423  -6.095  -1.232  1.00  0.00    -0.247 OA
BRANCH   4   6
ATOM      6  C   UNL     1      -1.371  -5.036  -1.670  1.00  0.00     0.094 C 
ATOM      7  C   UNL     1      -0.040  -5.024  -1.858  1.00  0.00     0.015 C 
BRANCH   7   8
ATOM      8  C   UNL     1       0.699  -3.782  -2.157  1.00  0.00    -0.024 A 
ATOM      9  C   UNL     1       0.977  -1.363  -1.922  1.00  0.00    -0.047 A 
ATOM     10  C   UNL     1       0.302  -2.551  -1.613  1.00  0.00     0.011 A 
ATOM     11  C   UNL     1       2.089  -1.413  -2.767  1.00  0.00     0.016 A 
ATOM     12  C   UNL     1       2.549  -2.638  -3.268  1.00  0.00     0.023 A 
ATOM     13  C   UNL     1       1.845  -3.818  -2.964  1.00  0.00     0.020 A 
BRANCH   9  14
ATOM     14  C   UNL     1       0.518  -0.054  -1.330  1.00  0.00     0.032 C 
ATOM     15  C   UNL     1       1.018   0.122   0.096  1.00  0.00     0.009 C 
ENDBRANCH   9  14
BRANCH  12  16
ATOM     16  C   UNL     1       3.740  -2.726  -4.166  1.00  0.00     0.193 C 
ATOM     17  O   UNL     1       3.967  -3.761  -4.787  1.00  0.00    -0.289 OA
BRANCH  16  18
ATOM     18  C   UNL     1       4.648  -1.571  -4.370  1.00  0.00     0.022 A 
ATOM     19  C   UNL     1       4.931  -1.173  -5.681  1.00  0.00     0.012 A 
ATOM     20  C   UNL     1       5.220  -0.889  -3.290  1.00  0.00     0.012 A 
ATOM     21  C   UNL     1       5.743  -0.061  -5.909  1.00  0.00     0.001 A 
ATOM     22  C   UNL     1       6.028   0.226  -3.524  1.00  0.00     0.001 A 
ATOM     23  C   UNL     1       6.282   0.643  -4.832  1.00  0.00     0.000 A 
ENDBRANCH  16  18
ENDBRANCH  12  16
ENDBRANCH   7   8
ENDBRANCH   4   6
ENDBRANCH   3   4
ENDBRANCH   2   3
ENDBRANCH   1   2
BRANCH   1  24
ATOM     24  O   UNL     1      -1.891  -7.469   1.990  1.00  0.00    -0.374 OA
BRANCH  24  25
ATOM     25  C   UNL     1      -0.894  -6.444   1.971  1.00  0.00     0.202 C 
BRANCH  25  26
ATOM     26  C   UNL     1       0.380  -6.753   2.769  1.00  0.00     0.261 C 
BRANCH  26  27
ATOM     27  O   UNL     1       1.169  -7.775   2.131  1.00  0.00    -0.460 OA
BRANCH  27  28
ATOM     28  C   UNL     1       1.252  -8.948   2.801  1.00  0.00     0.338 C 
ATOM     29  O   UNL     1       0.823  -9.198   3.919  1.00  0.00    -0.246 OA
BRANCH  28  30
ATOM     30  C   UNL     1       1.787  -9.989   1.905  1.00  0.00     0.060 A 
ATOM     31  C   UNL     1       1.035 -11.161   1.747  1.00  0.00     0.016 A 
ATOM     32  C   UNL     1       3.014  -9.841   1.255  1.00  0.00     0.016 A 
ATOM     33  C   UNL     1       1.519 -12.200   0.952  1.00  0.00     0.010 A 
ATOM     34  C   UNL     1       3.502 -10.889   0.467  1.00  0.00     0.010 A 
ATOM     35  C   UNL     1       2.767 -12.080   0.327  1.00  0.00    -0.014 A 
BRANCH  35  36
ATOM     36  C   UNL     1       3.341 -13.230  -0.410  1.00  0.00     0.031 A 
ATOM     37  C   UNL     1       4.365 -14.103   0.257  1.00  0.00     0.074 A 
ATOM     38  C   UNL     1       2.946 -13.497  -1.668  1.00  0.00     0.049 A 
ATOM     39  N   UNL     1       5.019 -15.128  -0.225  1.00  0.00    -0.248 NA
ATOM     40  C   UNL     1       4.694 -13.777   1.654  1.00  0.00     0.031 C 
ATOM     41  C   UNL     1       1.931 -12.752  -2.412  1.00  0.00     0.029 A 
ATOM     42  N   UNL     1       3.363 -14.468  -2.544  1.00  0.00    -0.354 N 
ATOM     43  C   UNL     1       5.841 -15.569   0.805  1.00  0.00     0.074 A 
ATOM     44  C   UNL     1       5.621 -14.684   1.929  1.00  0.00     0.031 C 
ATOM     45  C   UNL     1       1.810 -13.289  -3.638  1.00  0.00     0.029 A 
ATOM     46  C   UNL     1       2.763 -14.388  -3.776  1.00  0.00     0.049 A 
ATOM     47  H   UNL     1       4.029 -15.155  -2.311  1.00  0.00     0.167 HD
ATOM     48  C   UNL     1       6.698 -16.617   0.814  1.00  0.00     0.031 A 
ATOM     49  C   UNL     1       2.977 -15.103  -4.897  1.00  0.00     0.031 A 
ATOM     50  C   UNL     1       6.934 -17.484  -0.310  1.00  0.00     0.049 A 
ATOM     51  C   UNL     1       4.012 -16.195  -4.894  1.00  0.00     0.074 A 
ATOM     52  C   UNL     1       7.763 -18.590  -0.387  1.00  0.00     0.029 A 
ATOM     53  N   UNL     1       6.353 -17.331  -1.559  1.00  0.00    -0.354 N 
ATOM     54  N   UNL     1       4.755 -16.626  -3.904  1.00  0.00    -0.248 NA
ATOM     55  C   UNL     1       4.238 -16.896  -6.166  1.00  0.00     0.031 C 
ATOM     56  C   UNL     1       7.730 -19.070  -1.702  1.00  0.00     0.029 A 
ATOM     57  C   UNL     1       6.839 -18.296  -2.427  1.00  0.00     0.049 A 
ATOM     58  H   UNL     1       5.694 -16.639  -1.794  1.00  0.00     0.167 HD
ATOM     59  C   UNL     1       5.526 -17.655  -4.428  1.00  0.00     0.074 A 
ATOM     60  C   UNL     1       5.146 -17.798  -5.819  1.00  0.00     0.031 C 
ATOM     61  C   UNL     1       6.466 -18.414  -3.812  1.00  0.00     0.031 A 
BRANCH  48  62
ATOM     62  C   UNL     1       7.476 -16.859   2.076  1.00  0.00    -0.014 A 
ATOM     63  C   UNL     1       6.858 -17.372   3.228  1.00  0.00     0.009 A 
ATOM     64  C   UNL     1       8.855 -16.598   2.104  1.00  0.00     0.009 A 
ATOM     65  C   UNL     1       7.600 -17.584   4.392  1.00  0.00     0.001 A 
ATOM     66  C   UNL     1       9.599 -16.835   3.261  1.00  0.00     0.001 A 
ATOM     67  C   UNL     1       8.969 -17.319   4.407  1.00  0.00     0.000 A 
ENDBRANCH  48  62
BRANCH  49  68
ATOM     68  C   UNL     1       2.218 -14.786  -6.134  1.00  0.00    -0.014 A 
ATOM     69  C   UNL     1       1.244 -15.669  -6.621  1.00  0.00     0.009 A 
ATOM     70  C   UNL     1       2.470 -13.597  -6.837  1.00  0.00     0.009 A 
ATOM     71  C   UNL     1       0.549 -15.376  -7.798  1.00  0.00     0.001 A 
ATOM     72  C   UNL     1       1.756 -13.294  -7.998  1.00  0.00     0.001 A 
ATOM     73  C   UNL     1       0.802 -14.187  -8.481  1.00  0.00     0.000 A 
ENDBRANCH  49  68
BRANCH  61  74
ATOM     74  C   UNL     1       7.144 -19.472  -4.637  1.00  0.00    -0.014 A 
ATOM     75  C   UNL     1       8.100 -19.132  -5.606  1.00  0.00     0.009 A 
ATOM     76  C   UNL     1       6.854 -20.827  -4.413  1.00  0.00     0.009 A 
ATOM     77  C   UNL     1       8.734 -20.128  -6.352  1.00  0.00     0.001 A 
ATOM     78  C   UNL     1       7.508 -21.821  -5.142  1.00  0.00     0.001 A 
ATOM     79  C   UNL     1       8.442 -21.471  -6.116  1.00  0.00     0.000 A 
ENDBRANCH  61  74
ENDBRANCH  35  36
ENDBRANCH  28  30
ENDBRANCH  27  28
ENDBRANCH  26  27
ENDBRANCH  25  26
ENDBRANCH  24  25
ENDBRANCH   1  24
TORSDOF 18
