REMARK SMILES Cc1oc2cc(OCC(=O)OCCOCCOC(=O)c3ccc(-c4c5nc(c(-c6ccccc6)c6ccc([nH]6)c(-c6ccccc6)c6nc(c(-c7ccccc7)c7ccc4[nH]7)C=C6)C=C5)cc3)ccc2c(=O)c1Oc1ccc(Cl)cc1Cl
REMARK SMILES IDX 13 1 12 2 11 3 9 4 10 5 8 6 7 7 6 8 1 9 2 10 3 11 73 12 4 13
REMARK SMILES IDX 71 14 5 15 70 16 72 17 69 18 68 19 74 20 75 21 76 22 81 23
REMARK SMILES IDX 77 24 80 25 82 26 78 27 79 28 14 29 15 30 16 31 17 32 18 33
REMARK SMILES IDX 19 34 20 35 21 36 67 37 22 38 66 39 23 40 24 41 25 42 60 43
REMARK SMILES IDX 26 44 65 45 59 46 61 47 27 48 64 49 58 50 57 51 28 53 50 54
REMARK SMILES IDX 35 55 49 56 36 57 39 58 48 59 62 60 37 61 38 62 47 64 63 65
REMARK SMILES IDX 40 66 29 67 30 68 34 69 31 70 33 71 32 72 51 73 52 74 56 75
REMARK SMILES IDX 53 76 55 77 54 78 41 79 42 80 46 81 43 82 45 83 44 84
REMARK H PARENT 61 52 39 63
REMARK Flexibility Score: inf
ROOT
ATOM      1  C   UNL     1       1.915   4.227  -3.612  1.00  0.00     0.202 C 
ENDROOT
BRANCH   1   2
ATOM      2  C   UNL     1       3.064   4.783  -2.762  1.00  0.00     0.261 C 
BRANCH   2   3
ATOM      3  O   UNL     1       3.508   3.865  -1.740  1.00  0.00    -0.461 OA
BRANCH   3   4
ATOM      4  C   UNL     1       3.462   4.329  -0.459  1.00  0.00     0.344 C 
ATOM      5  O   UNL     1       3.068   5.444  -0.132  1.00  0.00    -0.248 OA
BRANCH   4   6
ATOM      6  C   UNL     1       4.016   3.332   0.563  1.00  0.00     0.351 C 
BRANCH   6   7
ATOM      7  O   UNL     1       3.979   1.942   0.291  1.00  0.00    -0.482 OA
BRANCH   7   8
ATOM      8  C   UNL     1       2.846   1.230   0.564  1.00  0.00     0.123 A 
ATOM      9  C   UNL     1      -2.973   1.882   0.697  1.00  0.00     0.092 C 
ATOM     10  C   UNL     1      -1.862   0.879   0.832  1.00  0.00     0.148 A 
ATOM     11  O   UNL     1      -0.707   1.507   1.297  1.00  0.00    -0.457 OA
ATOM     12  C   UNL     1      -1.918  -0.443   0.525  1.00  0.00     0.213 A 
ATOM     13  C   UNL     1       0.499   0.918   1.036  1.00  0.00     0.142 A 
ATOM     14  C   UNL     1      -0.639  -1.217   0.649  1.00  0.00     0.235 A 
ATOM     15  C   UNL     1       1.625   1.749   0.992  1.00  0.00     0.094 A 
ATOM     16  C   UNL     1       0.599  -0.431   0.736  1.00  0.00     0.069 A 
ATOM     17  O   UNL     1      -0.601  -2.441   0.597  1.00  0.00    -0.285 OA
ATOM     18  C   UNL     1       1.837  -0.983   0.409  1.00  0.00     0.020 A 
ATOM     19  C   UNL     1       2.951  -0.144   0.309  1.00  0.00     0.047 A 
BRANCH  12  20
ATOM     20  O   UNL     1      -2.968  -1.194   0.009  1.00  0.00    -0.448 OA
BRANCH  20  21
ATOM     21  C   UNL     1      -4.262  -0.757   0.085  1.00  0.00     0.146 A 
ATOM     22  C   UNL     1      -4.965  -0.919   1.282  1.00  0.00     0.050 A 
ATOM     23  C   UNL     1      -4.900  -0.222  -1.041  1.00  0.00     0.085 A 
ATOM     24  C   UNL     1      -6.279  -0.459   1.377  1.00  0.00     0.024 A 
ATOM     25  C   UNL     1      -6.212   0.244  -0.944  1.00  0.00     0.045 A 
ATOM     26  Cl  UNL     1      -4.079  -0.076  -2.551  1.00  0.00    -0.080 Cl
ATOM     27  C   UNL     1      -6.889   0.135   0.270  1.00  0.00     0.042 A 
ATOM     28  Cl  UNL     1      -8.491   0.747   0.408  1.00  0.00    -0.084 Cl
ENDBRANCH  20  21
ENDBRANCH  12  20
ENDBRANCH   7   8
ENDBRANCH   6   7
ENDBRANCH   4   6
ENDBRANCH   3   4
ENDBRANCH   2   3
ENDBRANCH   1   2
BRANCH   1  29
ATOM     29  O   UNL     1       0.655   4.082  -2.955  1.00  0.00    -0.374 OA
BRANCH  29  30
ATOM     30  C   UNL     1       0.546   3.029  -2.002  1.00  0.00     0.202 C 
BRANCH  30  31
ATOM     31  C   UNL     1       0.366   1.620  -2.574  1.00  0.00     0.261 C 
BRANCH  31  32
ATOM     32  O   UNL     1       1.486   1.215  -3.372  1.00  0.00    -0.460 OA
BRANCH  32  33
ATOM     33  C   UNL     1       1.168   0.897  -4.645  1.00  0.00     0.338 C 
ATOM     34  O   UNL     1       0.050   0.806  -5.136  1.00  0.00    -0.246 OA
BRANCH  33  35
ATOM     35  C   UNL     1       2.383   0.832  -5.465  1.00  0.00     0.060 A 
ATOM     36  C   UNL     1       2.427   1.652  -6.599  1.00  0.00     0.016 A 
ATOM     37  C   UNL     1       3.412  -0.072  -5.190  1.00  0.00     0.016 A 
ATOM     38  C   UNL     1       3.474   1.526  -7.502  1.00  0.00     0.010 A 
ATOM     39  C   UNL     1       4.463  -0.200  -6.102  1.00  0.00     0.010 A 
ATOM     40  C   UNL     1       4.474   0.569  -7.280  1.00  0.00    -0.014 A 
BRANCH  40  41
ATOM     41  C   UNL     1       5.443   0.285  -8.360  1.00  0.00     0.031 A 
ATOM     42  C   UNL     1       5.200  -0.888  -9.267  1.00  0.00     0.074 A 
ATOM     43  C   UNL     1       6.494   1.099  -8.557  1.00  0.00     0.049 A 
ATOM     44  N   UNL     1       5.899  -1.299 -10.293  1.00  0.00    -0.248 NA
ATOM     45  C   UNL     1       4.011  -1.708  -8.979  1.00  0.00     0.031 C 
ATOM     46  C   UNL     1       6.804   2.285  -7.759  1.00  0.00     0.029 A 
ATOM     47  N   UNL     1       7.492   1.051  -9.495  1.00  0.00    -0.354 N 
ATOM     48  C   UNL     1       5.239  -2.426 -10.770  1.00  0.00     0.074 A 
ATOM     49  C   UNL     1       4.101  -2.651  -9.906  1.00  0.00     0.031 C 
ATOM     50  C   UNL     1       7.922   2.853  -8.242  1.00  0.00     0.029 A 
ATOM     51  C   UNL     1       8.417   2.057  -9.362  1.00  0.00     0.049 A 
ATOM     52  H   UNL     1       7.541   0.362 -10.196  1.00  0.00     0.167 HD
ATOM     53  C   UNL     1       5.552  -3.199 -11.836  1.00  0.00     0.031 A 
ATOM     54  C   UNL     1       9.543   2.296 -10.060  1.00  0.00     0.031 A 
ATOM     55  C   UNL     1       6.691  -2.974 -12.684  1.00  0.00     0.049 A 
ATOM     56  C   UNL     1       9.900   1.388 -11.204  1.00  0.00     0.074 A 
ATOM     57  C   UNL     1       7.086  -3.683 -13.805  1.00  0.00     0.029 A 
ATOM     58  N   UNL     1       7.624  -1.967 -12.495  1.00  0.00    -0.354 N 
ATOM     59  N   UNL     1       9.245   0.351 -11.671  1.00  0.00    -0.248 NA
ATOM     60  C   UNL     1      11.146   1.687 -11.923  1.00  0.00     0.031 C 
ATOM     61  C   UNL     1       8.290  -3.136 -14.262  1.00  0.00     0.029 A 
ATOM     62  C   UNL     1       8.613  -2.054 -13.460  1.00  0.00     0.049 A 
ATOM     63  H   UNL     1       7.589  -1.290 -11.781  1.00  0.00     0.167 HD
ATOM     64  C   UNL     1       9.987  -0.112 -12.749  1.00  0.00     0.074 A 
ATOM     65  C   UNL     1      11.132   0.767 -12.878  1.00  0.00     0.031 C 
ATOM     66  C   UNL     1       9.745  -1.169 -13.562  1.00  0.00     0.031 A 
BRANCH  53  67
ATOM     67  C   UNL     1       4.668  -4.380 -12.119  1.00  0.00    -0.014 A 
ATOM     68  C   UNL     1       3.374  -4.218 -12.639  1.00  0.00     0.009 A 
ATOM     69  C   UNL     1       5.149  -5.679 -11.887  1.00  0.00     0.009 A 
ATOM     70  C   UNL     1       2.569  -5.332 -12.891  1.00  0.00     0.001 A 
ATOM     71  C   UNL     1       4.351  -6.790 -12.164  1.00  0.00     0.001 A 
ATOM     72  C   UNL     1       3.059  -6.616 -12.658  1.00  0.00     0.000 A 
ENDBRANCH  53  67
BRANCH  54  73
ATOM     73  C   UNL     1      10.422   3.433  -9.682  1.00  0.00    -0.014 A 
ATOM     74  C   UNL     1      10.542   4.558 -10.512  1.00  0.00     0.009 A 
ATOM     75  C   UNL     1      11.152   3.393  -8.483  1.00  0.00     0.009 A 
ATOM     76  C   UNL     1      11.392   5.609 -10.159  1.00  0.00     0.001 A 
ATOM     77  C   UNL     1      11.980   4.458  -8.120  1.00  0.00     0.001 A 
ATOM     78  C   UNL     1      12.105   5.561  -8.962  1.00  0.00     0.000 A 
ENDBRANCH  54  73
BRANCH  66  79
ATOM     79  C   UNL     1      10.724  -1.417 -14.674  1.00  0.00    -0.014 A 
ATOM     80  C   UNL     1      11.995  -1.952 -14.416  1.00  0.00     0.009 A 
ATOM     81  C   UNL     1      10.348  -1.157 -16.001  1.00  0.00     0.009 A 
ATOM     82  C   UNL     1      12.883  -2.194 -15.465  1.00  0.00     0.001 A 
ATOM     83  C   UNL     1      11.228  -1.426 -17.050  1.00  0.00     0.001 A 
ATOM     84  C   UNL     1      12.497  -1.936 -16.781  1.00  0.00     0.000 A 
ENDBRANCH  66  79
ENDBRANCH  40  41
ENDBRANCH  33  35
ENDBRANCH  32  33
ENDBRANCH  31  32
ENDBRANCH  30  31
ENDBRANCH  29  30
ENDBRANCH   1  29
TORSDOF 18
