REMARK SMILES CC(C)[C@@H]1C(=O)Nc2ccccc2N1C(=O)N[C@H](Cc1ccccc1)C(=O)OCCOCCOC(=O)c1ccc(-c2c3nc(c(-c4ccccc4)c4ccc([nH]4)c(-c4ccccc4)c4nc(c(-c5ccccc5)c5ccc2[nH]5)C=C4)C=C3)cc1
REMARK SMILES IDX 30 1 29 2 28 3 26 4 27 5 18 6 17 7 15 8 16 9 14 11 4 12 5 13
REMARK SMILES IDX 6 14 7 15 13 16 8 17 12 19 9 20 11 21 10 22 2 23 1 24 3 25
REMARK SMILES IDX 19 26 20 27 21 28 25 29 22 30 24 31 23 32 31 33 32 34 33 35
REMARK SMILES IDX 34 36 35 37 36 38 37 39 38 40 84 41 39 42 83 43 40 44 41 45
REMARK SMILES IDX 42 46 77 47 43 48 82 49 76 50 78 51 44 52 81 53 75 54 74 55
REMARK SMILES IDX 45 57 67 58 52 59 66 60 53 61 56 62 65 63 79 64 54 65 55 66
REMARK SMILES IDX 64 68 80 69 57 70 46 71 47 72 51 73 48 74 50 75 49 76 68 77
REMARK SMILES IDX 69 78 73 79 70 80 72 81 71 82 58 83 59 84 63 85 60 86 62 87
REMARK SMILES IDX 61 88
REMARK H PARENT 17 10 7 18 78 56 56 67
REMARK Flexibility Score: inf
ROOT
ATOM      1  C   UNL     1       2.988   4.396   3.060  1.00  0.00     0.202 C 
ENDROOT
BRANCH   1   2
ATOM      2  C   UNL     1       3.349   2.969   2.639  1.00  0.00     0.261 C 
BRANCH   2   3
ATOM      3  O   UNL     1       2.906   2.681   1.298  1.00  0.00    -0.462 OA
BRANCH   3   4
ATOM      4  C   UNL     1       1.786   1.922   1.145  1.00  0.00     0.329 C 
ATOM      5  O   UNL     1       1.057   1.562   2.060  1.00  0.00    -0.250 OA
BRANCH   4   6
ATOM      6  C   UNL     1       1.466   1.667  -0.336  1.00  0.00     0.198 C 
BRANCH   6   7
ATOM      7  N   UNL     1       2.679   1.806  -1.235  1.00  0.00    -0.324 N 
ATOM      8  C   UNL     1       3.699   2.548  -1.694  1.00  0.00     0.323 C 
ATOM      9  O   UNL     1       4.400   1.870  -2.466  1.00  0.00    -0.248 OA
ATOM     10  H   UNL     1       2.754   0.944  -1.705  1.00  0.00     0.166 HD
BRANCH   8  11
ATOM     11  N   UNL     1       4.067   3.837  -1.373  1.00  0.00    -0.280 N 
ATOM     12  C   UNL     1       3.222   5.094  -1.327  1.00  0.00     0.184 C 
ATOM     13  C   UNL     1       3.801   6.345  -2.029  1.00  0.00     0.247 C 
ATOM     14  O   UNL     1       3.135   7.332  -2.349  1.00  0.00    -0.272 OA
ATOM     15  N   UNL     1       5.141   6.413  -2.173  1.00  0.00    -0.322 N 
ATOM     16  C   UNL     1       5.505   4.126  -1.418  1.00  0.00     0.070 A 
ATOM     17  C   UNL     1       5.991   5.368  -1.857  1.00  0.00     0.065 A 
ATOM     18  H   UNL     1       5.534   7.247  -2.520  1.00  0.00     0.170 HD
ATOM     19  C   UNL     1       6.466   3.157  -1.080  1.00  0.00     0.028 A 
ATOM     20  C   UNL     1       7.356   5.597  -2.058  1.00  0.00     0.028 A 
ATOM     21  C   UNL     1       7.840   3.404  -1.231  1.00  0.00     0.002 A 
ATOM     22  C   UNL     1       8.284   4.618  -1.740  1.00  0.00     0.002 A 
BRANCH  12  23
ATOM     23  C   UNL     1       1.809   4.938  -1.876  1.00  0.00     0.015 C 
ATOM     24  C   UNL     1       0.806   6.044  -1.524  1.00  0.00     0.010 C 
ATOM     25  C   UNL     1       1.768   4.535  -3.356  1.00  0.00     0.010 C 
ENDBRANCH  12  23
ENDBRANCH   8  11
ENDBRANCH   6   7
BRANCH   6  26
ATOM     26  C   UNL     1       0.222   2.432  -0.822  1.00  0.00     0.072 C 
BRANCH  26  27
ATOM     27  C   UNL     1      -1.185   2.006  -1.155  1.00  0.00    -0.045 A 
ATOM     28  C   UNL     1      -2.037   3.069  -1.557  1.00  0.00     0.004 A 
ATOM     29  C   UNL     1      -1.642   0.704  -1.307  1.00  0.00     0.004 A 
ATOM     30  C   UNL     1      -3.286   2.844  -2.124  1.00  0.00     0.000 A 
ATOM     31  C   UNL     1      -2.910   0.478  -1.869  1.00  0.00     0.000 A 
ATOM     32  C   UNL     1      -3.721   1.539  -2.288  1.00  0.00     0.000 A 
ENDBRANCH  26  27
ENDBRANCH   6  26
ENDBRANCH   4   6
ENDBRANCH   3   4
ENDBRANCH   2   3
ENDBRANCH   1   2
BRANCH   1  33
ATOM     33  O   UNL     1       1.671   4.505   3.600  1.00  0.00    -0.374 OA
BRANCH  33  34
ATOM     34  C   UNL     1       0.631   4.679   2.639  1.00  0.00     0.202 C 
BRANCH  34  35
ATOM     35  C   UNL     1       0.238   6.143   2.450  1.00  0.00     0.261 C 
BRANCH  35  36
ATOM     36  O   UNL     1       1.291   6.858   1.774  1.00  0.00    -0.460 OA
BRANCH  36  37
ATOM     37  C   UNL     1       2.028   7.676   2.561  1.00  0.00     0.338 C 
ATOM     38  O   UNL     1       1.861   7.911   3.744  1.00  0.00    -0.246 OA
BRANCH  37  39
ATOM     39  C   UNL     1       3.188   8.195   1.808  1.00  0.00     0.060 A 
ATOM     40  C   UNL     1       4.426   8.221   2.458  1.00  0.00     0.016 A 
ATOM     41  C   UNL     1       3.062   8.732   0.526  1.00  0.00     0.016 A 
ATOM     42  C   UNL     1       5.523   8.842   1.857  1.00  0.00     0.010 A 
ATOM     43  C   UNL     1       4.172   9.326  -0.088  1.00  0.00     0.010 A 
ATOM     44  C   UNL     1       5.398   9.432   0.592  1.00  0.00    -0.014 A 
BRANCH  44  45
ATOM     45  C   UNL     1       6.489  10.287   0.047  1.00  0.00     0.031 A 
ATOM     46  C   UNL     1       6.279  11.777  -0.056  1.00  0.00     0.074 A 
ATOM     47  C   UNL     1       7.675   9.771  -0.325  1.00  0.00     0.049 A 
ATOM     48  N   UNL     1       7.093  12.698  -0.509  1.00  0.00    -0.248 NA
ATOM     49  C   UNL     1       4.992  12.300   0.430  1.00  0.00     0.031 C 
ATOM     50  C   UNL     1       8.064   8.368  -0.216  1.00  0.00     0.029 A 
ATOM     51  N   UNL     1       8.774  10.379  -0.886  1.00  0.00    -0.354 N 
ATOM     52  C   UNL     1       6.425  13.904  -0.343  1.00  0.00     0.074 A 
ATOM     53  C   UNL     1       5.113  13.594   0.180  1.00  0.00     0.031 C 
ATOM     54  C   UNL     1       9.296   8.215  -0.731  1.00  0.00     0.029 A 
ATOM     55  C   UNL     1       9.773   9.501  -1.228  1.00  0.00     0.049 A 
ATOM     56  H   UNL     1       8.838  11.351  -1.029  1.00  0.00     0.167 HD
ATOM     57  C   UNL     1       6.871  15.164  -0.563  1.00  0.00     0.031 A 
ATOM     58  C   UNL     1      10.932   9.697  -1.883  1.00  0.00     0.031 A 
ATOM     59  C   UNL     1       8.170  15.494  -1.081  1.00  0.00     0.049 A 
ATOM     60  C   UNL     1      11.349  11.090  -2.264  1.00  0.00     0.074 A 
ATOM     61  C   UNL     1       8.720  16.747  -1.293  1.00  0.00     0.029 A 
ATOM     62  N   UNL     1       9.119  14.568  -1.478  1.00  0.00    -0.354 N 
ATOM     63  N   UNL     1      10.727  12.223  -2.051  1.00  0.00    -0.248 NA
ATOM     64  C   UNL     1      12.648  11.234  -2.939  1.00  0.00     0.031 C 
ATOM     65  C   UNL     1       9.984  16.578  -1.868  1.00  0.00     0.029 A 
ATOM     66  C   UNL     1      10.241  15.220  -1.963  1.00  0.00     0.049 A 
ATOM     67  H   UNL     1       9.013  13.590  -1.424  1.00  0.00     0.167 HD
ATOM     68  C   UNL     1      11.585  13.217  -2.505  1.00  0.00     0.074 A 
ATOM     69  C   UNL     1      12.762  12.553  -3.023  1.00  0.00     0.031 C 
ATOM     70  C   UNL     1      11.416  14.561  -2.468  1.00  0.00     0.031 A 
BRANCH  57  71
ATOM     71  C   UNL     1       5.930  16.288  -0.233  1.00  0.00    -0.014 A 
ATOM     72  C   UNL     1       5.625  16.606   1.101  1.00  0.00     0.009 A 
ATOM     73  C   UNL     1       5.359  17.050  -1.262  1.00  0.00     0.009 A 
ATOM     74  C   UNL     1       4.736  17.642   1.395  1.00  0.00     0.001 A 
ATOM     75  C   UNL     1       4.493  18.104  -0.964  1.00  0.00     0.001 A 
ATOM     76  C   UNL     1       4.174  18.391   0.363  1.00  0.00     0.000 A 
ENDBRANCH  57  71
BRANCH  58  77
ATOM     77  C   UNL     1      11.791   8.536  -2.232  1.00  0.00    -0.014 A 
ATOM     78  C   UNL     1      13.000   8.307  -1.560  1.00  0.00     0.009 A 
ATOM     79  C   UNL     1      11.410   7.666  -3.266  1.00  0.00     0.009 A 
ATOM     80  C   UNL     1      13.824   7.243  -1.936  1.00  0.00     0.001 A 
ATOM     81  C   UNL     1      12.225   6.590  -3.623  1.00  0.00     0.001 A 
ATOM     82  C   UNL     1      13.435   6.385  -2.964  1.00  0.00     0.000 A 
ENDBRANCH  58  77
BRANCH  70  83
ATOM     83  C   UNL     1      12.560  15.417  -2.934  1.00  0.00    -0.014 A 
ATOM     84  C   UNL     1      12.883  15.538  -4.293  1.00  0.00     0.009 A 
ATOM     85  C   UNL     1      13.298  16.151  -1.991  1.00  0.00     0.009 A 
ATOM     86  C   UNL     1      13.943  16.356  -4.696  1.00  0.00     0.001 A 
ATOM     87  C   UNL     1      14.337  16.989  -2.398  1.00  0.00     0.001 A 
ATOM     88  C   UNL     1      14.664  17.084  -3.749  1.00  0.00     0.000 A 
ENDBRANCH  70  83
ENDBRANCH  44  45
ENDBRANCH  37  39
ENDBRANCH  36  37
ENDBRANCH  35  36
ENDBRANCH  34  35
ENDBRANCH  33  34
ENDBRANCH   1  33
TORSDOF 19
