REMARK SMILES COc1ccc2c(c1)c(CC(=O)OCCOCCOC(=O)c1ccc(-c3c4nc(c(-c5ccccc5)c5ccc([nH]5)c(-c5ccccc5)c5nc(c(-c6ccccc6)c6ccc3[nH]6)C=C5)C=C4)cc1)c(C)n2Cc1ccn(C(F)F)c(=O)c1
REMARK SMILES IDX 15 1 14 2 13 3 11 4 12 5 10 6 9 7 3 8 4 9 8 10 5 11 7 12
REMARK SMILES IDX 6 13 72 14 70 15 71 16 2 17 1 18 73 19 74 20 75 21 83 22
REMARK SMILES IDX 76 23 81 24 77 25 82 26 78 27 79 28 80 29 16 30 17 31 18 32
REMARK SMILES IDX 19 33 20 34 21 35 22 36 23 37 69 38 24 39 68 40 25 41 26 42
REMARK SMILES IDX 27 43 62 44 28 45 67 46 61 47 63 48 29 49 66 50 60 51 59 52
REMARK SMILES IDX 30 54 52 55 37 56 51 57 38 58 41 59 50 60 64 61 39 62 40 63
REMARK SMILES IDX 49 65 65 66 42 67 31 68 32 69 36 70 33 71 35 72 34 73 53 74
REMARK SMILES IDX 54 75 58 76 55 77 57 78 56 79 43 80 44 81 48 82 45 83 47 84
REMARK SMILES IDX 46 85
REMARK H PARENT 63 53 41 64
REMARK Flexibility Score: inf
ROOT
ATOM      1  C   UNL     1      -2.744  -4.141  -4.669  1.00  0.00     0.202 C 
ENDROOT
BRANCH   1   2
ATOM      2  C   UNL     1      -2.809  -3.345  -5.986  1.00  0.00     0.261 C 
BRANCH   2   3
ATOM      3  O   UNL     1      -2.094  -2.098  -6.003  1.00  0.00    -0.463 OA
BRANCH   3   4
ATOM      4  C   UNL     1      -2.884  -0.994  -5.952  1.00  0.00     0.310 C 
ATOM      5  O   UNL     1      -4.114  -1.035  -5.980  1.00  0.00    -0.252 OA
BRANCH   4   6
ATOM      6  C   UNL     1      -2.174   0.338  -5.835  1.00  0.00     0.160 C 
BRANCH   6   7
ATOM      7  C   UNL     1      -0.669   0.390  -5.779  1.00  0.00    -0.008 A 
ATOM      8  C   UNL     1       0.837   0.115  -2.271  1.00  0.00     0.119 A 
ATOM      9  C   UNL     1       2.166   0.112  -2.673  1.00  0.00     0.048 A 
ATOM     10  C   UNL     1      -0.171   0.276  -3.224  1.00  0.00     0.057 A 
ATOM     11  C   UNL     1       2.509   0.279  -4.027  1.00  0.00     0.031 A 
ATOM     12  C   UNL     1       0.137   0.354  -4.599  1.00  0.00     0.007 A 
ATOM     13  C   UNL     1       1.479   0.399  -4.983  1.00  0.00     0.049 A 
ATOM     14  N   UNL     1       1.500   0.591  -6.361  1.00  0.00    -0.340 N 
ATOM     15  C   UNL     1       0.194   0.688  -6.827  1.00  0.00     0.020 A 
ATOM     16  C   UNL     1      -0.183   1.088  -8.211  1.00  0.00     0.065 C 
BRANCH   8  17
ATOM     17  O   UNL     1       0.378  -0.193  -1.020  1.00  0.00    -0.497 OA
ATOM     18  C   UNL     1       1.155   0.259   0.079  1.00  0.00     0.278 C 
ENDBRANCH   8  17
BRANCH  14  19
ATOM     19  C   UNL     1       2.726   0.830  -7.145  1.00  0.00     0.158 C 
BRANCH  19  20
ATOM     20  C   UNL     1       3.094  -0.300  -8.081  1.00  0.00    -0.021 A 
ATOM     21  C   UNL     1       2.445  -0.375  -9.375  1.00  0.00     0.024 A 
ATOM     22  C   UNL     1       4.032  -1.220  -7.790  1.00  0.00     0.077 A 
ATOM     23  C   UNL     1       2.567  -1.463 -10.142  1.00  0.00     0.095 A 
ATOM     24  C   UNL     1       4.273  -2.385  -8.696  1.00  0.00     0.255 A 
ATOM     25  N   UNL     1       3.415  -2.488  -9.780  1.00  0.00    -0.258 N 
ATOM     26  O   UNL     1       5.168  -3.174  -8.414  1.00  0.00    -0.269 OA
BRANCH  25  27
ATOM     27  C   UNL     1       3.494  -3.679 -10.585  1.00  0.00     0.451 C 
ATOM     28  F   UNL     1       4.673  -3.744 -11.247  1.00  0.00    -0.185 F 
ATOM     29  F   UNL     1       3.375  -4.792  -9.821  1.00  0.00    -0.185 F 
ENDBRANCH  25  27
ENDBRANCH  19  20
ENDBRANCH  14  19
ENDBRANCH   6   7
ENDBRANCH   4   6
ENDBRANCH   3   4
ENDBRANCH   2   3
ENDBRANCH   1   2
BRANCH   1  30
ATOM     30  O   UNL     1      -2.659  -3.479  -3.417  1.00  0.00    -0.374 OA
BRANCH  30  31
ATOM     31  C   UNL     1      -1.526  -2.643  -3.187  1.00  0.00     0.202 C 
BRANCH  31  32
ATOM     32  C   UNL     1      -0.101  -3.228  -3.243  1.00  0.00     0.261 C 
BRANCH  32  33
ATOM     33  O   UNL     1       0.164  -3.930  -4.457  1.00  0.00    -0.460 OA
BRANCH  33  34
ATOM     34  C   UNL     1       0.835  -5.105  -4.296  1.00  0.00     0.338 C 
ATOM     35  O   UNL     1       1.528  -5.454  -3.369  1.00  0.00    -0.246 OA
BRANCH  34  36
ATOM     36  C   UNL     1       0.189  -6.012  -5.261  1.00  0.00     0.060 A 
ATOM     37  C   UNL     1       0.040  -5.626  -6.594  1.00  0.00     0.016 A 
ATOM     38  C   UNL     1      -0.572  -7.056  -4.708  1.00  0.00     0.016 A 
ATOM     39  C   UNL     1      -0.955  -6.234  -7.346  1.00  0.00     0.010 A 
ATOM     40  C   UNL     1      -1.582  -7.645  -5.461  1.00  0.00     0.010 A 
ATOM     41  C   UNL     1      -1.797  -7.210  -6.768  1.00  0.00    -0.014 A 
BRANCH  41  42
ATOM     42  C   UNL     1      -2.674  -7.952  -7.676  1.00  0.00     0.031 A 
ATOM     43  C   UNL     1      -1.872  -8.672  -8.698  1.00  0.00     0.074 A 
ATOM     44  C   UNL     1      -4.014  -8.107  -7.623  1.00  0.00     0.049 A 
ATOM     45  N   UNL     1      -1.853  -8.439  -9.966  1.00  0.00    -0.248 NA
ATOM     46  C   UNL     1      -0.837  -9.611  -8.236  1.00  0.00     0.031 C 
ATOM     47  C   UNL     1      -4.939  -7.692  -6.568  1.00  0.00     0.029 A 
ATOM     48  N   UNL     1      -4.833  -8.768  -8.502  1.00  0.00    -0.354 N 
ATOM     49  C   UNL     1      -0.909  -9.311 -10.495  1.00  0.00     0.074 A 
ATOM     50  C   UNL     1      -0.215  -9.898  -9.379  1.00  0.00     0.031 C 
ATOM     51  C   UNL     1      -6.134  -8.308  -6.750  1.00  0.00     0.029 A 
ATOM     52  C   UNL     1      -6.107  -9.035  -8.010  1.00  0.00     0.049 A 
ATOM     53  H   UNL     1      -4.544  -9.033  -9.405  1.00  0.00     0.167 HD
ATOM     54  C   UNL     1      -0.922  -9.643 -11.811  1.00  0.00     0.031 A 
ATOM     55  C   UNL     1      -7.057  -9.812  -8.591  1.00  0.00     0.031 A 
ATOM     56  C   UNL     1      -1.762  -8.757 -12.570  1.00  0.00     0.049 A 
ATOM     57  C   UNL     1      -6.782  -9.860 -10.039  1.00  0.00     0.074 A 
ATOM     58  C   UNL     1      -1.658  -7.479 -13.068  1.00  0.00     0.029 A 
ATOM     59  N   UNL     1      -3.091  -9.089 -12.550  1.00  0.00    -0.354 N 
ATOM     60  N   UNL     1      -6.909  -8.829 -10.821  1.00  0.00    -0.248 NA
ATOM     61  C   UNL     1      -6.070 -10.997 -10.608  1.00  0.00     0.031 C 
ATOM     62  C   UNL     1      -2.990  -6.977 -13.135  1.00  0.00     0.029 A 
ATOM     63  C   UNL     1      -3.872  -7.977 -12.725  1.00  0.00     0.049 A 
ATOM     64  H   UNL     1      -3.438 -10.003 -12.427  1.00  0.00     0.167 HD
ATOM     65  C   UNL     1      -5.918  -9.003 -11.765  1.00  0.00     0.074 A 
ATOM     66  C   UNL     1      -5.577 -10.419 -11.707  1.00  0.00     0.031 C 
ATOM     67  C   UNL     1      -5.246  -7.931 -12.269  1.00  0.00     0.031 A 
BRANCH  54  68
ATOM     68  C   UNL     1      -0.551 -11.010 -12.322  1.00  0.00    -0.014 A 
ATOM     69  C   UNL     1      -0.455 -12.142 -11.490  1.00  0.00     0.009 A 
ATOM     70  C   UNL     1      -0.568 -11.243 -13.707  1.00  0.00     0.009 A 
ATOM     71  C   UNL     1      -0.377 -13.438 -12.005  1.00  0.00     0.001 A 
ATOM     72  C   UNL     1      -0.525 -12.543 -14.227  1.00  0.00     0.001 A 
ATOM     73  C   UNL     1      -0.431 -13.639 -13.376  1.00  0.00     0.000 A 
ENDBRANCH  54  68
BRANCH  55  74
ATOM     74  C   UNL     1      -8.066 -10.719  -7.997  1.00  0.00    -0.014 A 
ATOM     75  C   UNL     1      -7.749 -11.433  -6.830  1.00  0.00     0.009 A 
ATOM     76  C   UNL     1      -9.175 -11.152  -8.749  1.00  0.00     0.009 A 
ATOM     77  C   UNL     1      -8.467 -12.580  -6.467  1.00  0.00     0.001 A 
ATOM     78  C   UNL     1      -9.894 -12.299  -8.383  1.00  0.00     0.001 A 
ATOM     79  C   UNL     1      -9.525 -13.025  -7.255  1.00  0.00     0.000 A 
ENDBRANCH  55  74
BRANCH  67  80
ATOM     80  C   UNL     1      -5.892  -6.575 -12.150  1.00  0.00    -0.014 A 
ATOM     81  C   UNL     1      -6.103  -5.851 -13.333  1.00  0.00     0.009 A 
ATOM     82  C   UNL     1      -6.187  -5.954 -10.925  1.00  0.00     0.009 A 
ATOM     83  C   UNL     1      -6.571  -4.538 -13.297  1.00  0.00     0.001 A 
ATOM     84  C   UNL     1      -6.684  -4.647 -10.890  1.00  0.00     0.001 A 
ATOM     85  C   UNL     1      -6.862  -3.936 -12.076  1.00  0.00     0.000 A 
ENDBRANCH  67  80
ENDBRANCH  41  42
ENDBRANCH  34  36
ENDBRANCH  33  34
ENDBRANCH  32  33
ENDBRANCH  31  32
ENDBRANCH  30  31
ENDBRANCH   1  30
TORSDOF 19
