REMARK SMILES C[C@H]1OCC[C@@H]1C(=O)Nc1sc2c(c1C(=O)OCCOCCOC(=O)c1ccc(-c3c4nc(c(-c5ccccc5)c5ccc([nH]5)c(-c5ccccc5)c5nc(c(-c6ccccc6)c6ccc3[nH]6)C=C5)C=C4)cc1)CCC2
REMARK SMILES IDX 20 1 19 2 18 3 17 4 15 5 16 6 14 7 10 8 11 9 12 10 13 11
REMARK SMILES IDX 76 12 74 13 75 14 9 15 7 16 8 17 6 19 1 20 2 21 3 22 4 23
REMARK SMILES IDX 5 24 21 25 22 26 23 27 24 28 25 29 26 30 27 31 73 32 28 33
REMARK SMILES IDX 72 34 29 35 30 36 31 37 66 38 32 39 71 40 65 41 67 42 33 43
REMARK SMILES IDX 70 44 64 45 63 46 34 48 56 49 41 50 55 51 42 52 45 53 54 54
REMARK SMILES IDX 68 55 43 56 44 57 53 59 69 60 46 61 35 62 36 63 40 64 37 65
REMARK SMILES IDX 39 66 38 67 57 68 58 69 62 70 59 71 61 72 60 73 47 74 48 75
REMARK SMILES IDX 52 76 49 77 51 78 50 79
REMARK H PARENT 9 18 67 47 45 58
REMARK Flexibility Score: inf
ROOT
ATOM      1  O   UNL     1      -3.479  -0.754  -2.650  1.00  0.00    -0.374 OA
ENDROOT
BRANCH   1   2
ATOM      2  C   UNL     1      -4.126   0.144  -1.724  1.00  0.00     0.202 C 
BRANCH   2   3
ATOM      3  C   UNL     1      -4.427  -0.482  -0.344  1.00  0.00     0.261 C 
BRANCH   3   4
ATOM      4  O   UNL     1      -3.515  -0.010   0.691  1.00  0.00    -0.460 OA
BRANCH   4   5
ATOM      5  C   UNL     1      -3.428  -0.818   1.807  1.00  0.00     0.341 C 
ATOM      6  O   UNL     1      -4.055  -1.863   1.931  1.00  0.00    -0.246 OA
BRANCH   5   7
ATOM      7  C   UNL     1      -2.478  -0.348   2.826  1.00  0.00     0.098 A 
ATOM      8  C   UNL     1      -1.404  -1.094   3.317  1.00  0.00     0.110 A 
ATOM      9  S   UNL     1      -0.637  -0.410   4.692  1.00  0.00    -0.122 S 
ATOM     10  C   UNL     1      -1.488   0.998   4.457  1.00  0.00     0.011 A 
ATOM     11  C   UNL     1      -2.420   0.938   3.453  1.00  0.00    -0.017 A 
ATOM     12  C   UNL     1      -1.377   2.308   5.133  1.00  0.00     0.047 C 
ATOM     13  C   UNL     1      -3.093   2.256   3.308  1.00  0.00     0.038 C 
ATOM     14  C   UNL     1      -2.147   3.204   4.123  1.00  0.00     0.010 C 
BRANCH   8  15
ATOM     15  N   UNL     1      -0.869  -2.315   2.973  1.00  0.00    -0.317 N 
ATOM     16  C   UNL     1       0.320  -2.433   2.295  1.00  0.00     0.230 C 
ATOM     17  O   UNL     1       1.068  -3.363   2.623  1.00  0.00    -0.274 OA
ATOM     18  H   UNL     1      -1.356  -3.133   3.221  1.00  0.00     0.170 HD
BRANCH  16  19
ATOM     19  C   UNL     1       0.732  -1.553   1.120  1.00  0.00     0.110 C 
ATOM     20  C   UNL     1       2.718  -0.253   0.300  1.00  0.00     0.039 C 
ATOM     21  C   UNL     1       1.630  -0.355   1.375  1.00  0.00     0.127 C 
ATOM     22  O   UNL     1       0.831   0.833   1.240  1.00  0.00    -0.378 OA
ATOM     23  C   UNL     1      -0.349   0.511   0.515  1.00  0.00     0.161 C 
ATOM     24  C   UNL     1      -0.373  -0.987   0.300  1.00  0.00     0.044 C 
ENDBRANCH  16  19
ENDBRANCH   8  15
ENDBRANCH   5   7
ENDBRANCH   4   5
ENDBRANCH   3   4
ENDBRANCH   2   3
ENDBRANCH   1   2
BRANCH   1  25
ATOM     25  C   UNL     1      -2.122  -1.039  -2.340  1.00  0.00     0.202 C 
BRANCH  25  26
ATOM     26  C   UNL     1      -1.073  -0.303  -3.170  1.00  0.00     0.261 C 
BRANCH  26  27
ATOM     27  O   UNL     1      -1.144   1.083  -2.871  1.00  0.00    -0.460 OA
BRANCH  27  28
ATOM     28  C   UNL     1      -2.050   1.765  -3.596  1.00  0.00     0.338 C 
ATOM     29  O   UNL     1      -2.783   1.347  -4.483  1.00  0.00    -0.246 OA
BRANCH  28  30
ATOM     30  C   UNL     1      -1.845   3.171  -3.278  1.00  0.00     0.060 A 
ATOM     31  C   UNL     1      -1.978   4.026  -4.362  1.00  0.00     0.016 A 
ATOM     32  C   UNL     1      -1.271   3.576  -2.057  1.00  0.00     0.016 A 
ATOM     33  C   UNL     1      -1.320   5.222  -4.300  1.00  0.00     0.010 A 
ATOM     34  C   UNL     1      -0.627   4.791  -1.990  1.00  0.00     0.010 A 
ATOM     35  C   UNL     1      -0.597   5.563  -3.141  1.00  0.00    -0.014 A 
BRANCH  35  36
ATOM     36  C   UNL     1       0.029   6.864  -3.177  1.00  0.00     0.031 A 
ATOM     37  C   UNL     1      -0.979   7.935  -3.326  1.00  0.00     0.074 A 
ATOM     38  C   UNL     1       1.352   7.083  -3.158  1.00  0.00     0.049 A 
ATOM     39  N   UNL     1      -1.226   8.614  -4.395  1.00  0.00    -0.248 NA
ATOM     40  C   UNL     1      -1.972   8.088  -2.253  1.00  0.00     0.031 C 
ATOM     41  C   UNL     1       2.445   6.189  -2.783  1.00  0.00     0.029 A 
ATOM     42  N   UNL     1       1.984   8.252  -3.428  1.00  0.00    -0.354 N 
ATOM     43  C   UNL     1      -2.321   9.406  -4.086  1.00  0.00     0.074 A 
ATOM     44  C   UNL     1      -2.832   8.929  -2.825  1.00  0.00     0.031 C 
ATOM     45  C   UNL     1       3.573   6.925  -2.621  1.00  0.00     0.029 A 
ATOM     46  C   UNL     1       3.305   8.298  -3.024  1.00  0.00     0.049 A 
ATOM     47  H   UNL     1       1.538   9.007  -3.876  1.00  0.00     0.167 HD
ATOM     48  C   UNL     1      -2.575  10.547  -4.778  1.00  0.00     0.031 A 
ATOM     49  C   UNL     1       4.067   9.418  -2.962  1.00  0.00     0.031 A 
ATOM     50  C   UNL     1      -1.934  10.540  -6.069  1.00  0.00     0.049 A 
ATOM     51  C   UNL     1       3.437  10.440  -3.835  1.00  0.00     0.074 A 
ATOM     52  C   UNL     1      -2.039   9.749  -7.198  1.00  0.00     0.029 A 
ATOM     53  N   UNL     1      -0.738  11.207  -6.188  1.00  0.00    -0.354 N 
ATOM     54  N   UNL     1       3.420  10.360  -5.133  1.00  0.00    -0.248 NA
ATOM     55  C   UNL     1       2.433  11.319  -3.252  1.00  0.00     0.031 C 
ATOM     56  C   UNL     1      -0.706   9.626  -7.691  1.00  0.00     0.029 A 
ATOM     57  C   UNL     1       0.126  10.393  -6.874  1.00  0.00     0.049 A 
ATOM     58  H   UNL     1      -0.538  12.107  -5.843  1.00  0.00     0.167 HD
ATOM     59  C   UNL     1       2.159  10.807  -5.500  1.00  0.00     0.074 A 
ATOM     60  C   UNL     1       1.631  11.473  -4.310  1.00  0.00     0.031 C 
ATOM     61  C   UNL     1       1.551  10.351  -6.636  1.00  0.00     0.031 A 
BRANCH  48  62
ATOM     62  C   UNL     1      -2.988  11.813  -4.072  1.00  0.00    -0.014 A 
ATOM     63  C   UNL     1      -3.117  12.989  -4.829  1.00  0.00     0.009 A 
ATOM     64  C   UNL     1      -2.963  11.963  -2.671  1.00  0.00     0.009 A 
ATOM     65  C   UNL     1      -3.114  14.247  -4.218  1.00  0.00     0.001 A 
ATOM     66  C   UNL     1      -2.998  13.214  -2.055  1.00  0.00     0.001 A 
ATOM     67  C   UNL     1      -3.039  14.360  -2.833  1.00  0.00     0.000 A 
ENDBRANCH  48  62
BRANCH  49  68
ATOM     68  C   UNL     1       5.107   9.777  -1.976  1.00  0.00    -0.014 A 
ATOM     69  C   UNL     1       5.947  10.879  -2.203  1.00  0.00     0.009 A 
ATOM     70  C   UNL     1       5.080   9.229  -0.681  1.00  0.00     0.009 A 
ATOM     71  C   UNL     1       6.691  11.444  -1.159  1.00  0.00     0.001 A 
ATOM     72  C   UNL     1       5.827   9.789   0.360  1.00  0.00     0.001 A 
ATOM     73  C   UNL     1       6.618  10.909   0.125  1.00  0.00     0.000 A 
ENDBRANCH  49  68
BRANCH  61  74
ATOM     74  C   UNL     1       2.378   9.530  -7.596  1.00  0.00    -0.014 A 
ATOM     75  C   UNL     1       3.004   8.322  -7.238  1.00  0.00     0.009 A 
ATOM     76  C   UNL     1       2.419   9.924  -8.942  1.00  0.00     0.009 A 
ATOM     77  C   UNL     1       3.684   7.556  -8.192  1.00  0.00     0.001 A 
ATOM     78  C   UNL     1       3.077   9.148  -9.898  1.00  0.00     0.001 A 
ATOM     79  C   UNL     1       3.717   7.969  -9.522  1.00  0.00     0.000 A 
ENDBRANCH  61  74
ENDBRANCH  35  36
ENDBRANCH  28  30
ENDBRANCH  27  28
ENDBRANCH  26  27
ENDBRANCH  25  26
ENDBRANCH   1  25
TORSDOF 16
