REMARK SMILES CC[C@@](O)(C(=O)OCCOCCOC(=O)c1ccc(-c2c3nc(c(-c4ccccc4)c4ccc([nH]4)c(-c4ccccc4)c4nc(c(-c5ccccc5)c5ccc2[nH]5)C=C4)C=C3)cc1)[C@@H](c1ccccc1)C(C)C
REMARK SMILES IDX 10 1 9 2 8 3 7 4 5 5 6 6 3 7 2 8 1 9 4 10 64 12 65 13 66 14
REMARK SMILES IDX 70 15 67 16 69 17 68 18 71 19 72 20 73 21 11 22 12 23 13 24
REMARK SMILES IDX 14 25 15 26 16 27 17 28 63 29 18 30 62 31 19 32 20 33 21 34
REMARK SMILES IDX 56 35 22 36 61 37 55 38 57 39 23 40 60 41 54 42 53 43 24 45
REMARK SMILES IDX 46 46 31 47 45 48 32 49 35 50 44 51 58 52 33 53 34 54 43 56
REMARK SMILES IDX 59 57 36 58 25 59 26 60 30 61 27 62 29 63 28 64 47 65 48 66
REMARK SMILES IDX 52 67 49 68 51 69 50 70 37 71 38 72 42 73 39 74 41 75 40 76
REMARK H PARENT 4 11 57 44 35 55
REMARK Flexibility Score: inf
ROOT
ATOM      1  O   UNL     1       0.040   3.349  -5.597  1.00  0.00    -0.374 OA
ENDROOT
BRANCH   1   2
ATOM      2  C   UNL     1      -1.034   2.409  -5.519  1.00  0.00     0.202 C 
BRANCH   2   3
ATOM      3  C   UNL     1      -0.637   0.936  -5.398  1.00  0.00     0.261 C 
BRANCH   3   4
ATOM      4  O   UNL     1      -0.251   0.598  -4.050  1.00  0.00    -0.461 OA
BRANCH   4   5
ATOM      5  C   UNL     1       1.053   0.224  -3.863  1.00  0.00     0.338 C 
ATOM      6  O   UNL     1       1.879   0.171  -4.765  1.00  0.00    -0.249 OA
BRANCH   5   7
ATOM      7  C   UNL     1       1.299  -0.242  -2.398  1.00  0.00     0.168 C 
BRANCH   7   8
ATOM      8  C   UNL     1       0.273   0.377  -1.407  1.00  0.00     0.044 C 
ATOM      9  C   UNL     1       0.506   0.123   0.075  1.00  0.00     0.007 C 
ENDBRANCH   7   8
BRANCH   7  10
ATOM     10  O   UNL     1       0.934  -1.645  -2.500  1.00  0.00    -0.378 OA
ATOM     11  H   UNL     1      -0.014  -1.719  -2.689  1.00  0.00     0.212 HD
ENDBRANCH   7  10
BRANCH   7  12
ATOM     12  C   UNL     1       2.867  -0.116  -2.085  1.00  0.00     0.065 C 
BRANCH  12  13
ATOM     13  C   UNL     1       3.464   1.319  -2.070  1.00  0.00    -0.041 A 
ATOM     14  C   UNL     1       4.783   1.516  -2.534  1.00  0.00     0.004 A 
ATOM     15  C   UNL     1       2.805   2.461  -1.598  1.00  0.00     0.004 A 
ATOM     16  C   UNL     1       5.420   2.762  -2.477  1.00  0.00     0.000 A 
ATOM     17  C   UNL     1       3.418   3.726  -1.600  1.00  0.00     0.000 A 
ATOM     18  C   UNL     1       4.731   3.875  -2.023  1.00  0.00     0.000 A 
ENDBRANCH  12  13
BRANCH  12  19
ATOM     19  C   UNL     1       3.437  -1.009  -0.898  1.00  0.00    -0.006 C 
ATOM     20  C   UNL     1       2.941  -2.464  -0.901  1.00  0.00     0.008 C 
ATOM     21  C   UNL     1       4.978  -1.103  -0.894  1.00  0.00     0.008 C 
ENDBRANCH  12  19
ENDBRANCH   7  12
ENDBRANCH   5   7
ENDBRANCH   4   5
ENDBRANCH   3   4
ENDBRANCH   2   3
ENDBRANCH   1   2
BRANCH   1  22
ATOM     22  C   UNL     1       0.798   3.570  -4.411  1.00  0.00     0.202 C 
BRANCH  22  23
ATOM     23  C   UNL     1       0.221   4.596  -3.430  1.00  0.00     0.261 C 
BRANCH  23  24
ATOM     24  O   UNL     1      -1.156   4.345  -3.132  1.00  0.00    -0.460 OA
BRANCH  24  25
ATOM     25  C   UNL     1      -2.005   5.205  -3.732  1.00  0.00     0.338 C 
ATOM     26  O   UNL     1      -1.727   6.227  -4.353  1.00  0.00    -0.246 OA
BRANCH  25  27
ATOM     27  C   UNL     1      -3.369   4.671  -3.680  1.00  0.00     0.060 A 
ATOM     28  C   UNL     1      -4.067   4.596  -4.890  1.00  0.00     0.016 A 
ATOM     29  C   UNL     1      -3.976   4.318  -2.472  1.00  0.00     0.016 A 
ATOM     30  C   UNL     1      -5.407   4.239  -4.889  1.00  0.00     0.010 A 
ATOM     31  C   UNL     1      -5.324   3.960  -2.472  1.00  0.00     0.010 A 
ATOM     32  C   UNL     1      -6.051   3.970  -3.675  1.00  0.00    -0.014 A 
BRANCH  32  33
ATOM     33  C   UNL     1      -7.525   3.880  -3.662  1.00  0.00     0.031 A 
ATOM     34  C   UNL     1      -8.314   5.101  -3.280  1.00  0.00     0.074 A 
ATOM     35  C   UNL     1      -8.137   2.751  -4.054  1.00  0.00     0.049 A 
ATOM     36  N   UNL     1      -9.610   5.272  -3.243  1.00  0.00    -0.248 NA
ATOM     37  C   UNL     1      -7.538   6.292  -2.892  1.00  0.00     0.031 C 
ATOM     38  C   UNL     1      -7.458   1.530  -4.488  1.00  0.00     0.029 A 
ATOM     39  N   UNL     1      -9.470   2.454  -4.161  1.00  0.00    -0.354 N 
ATOM     40  C   UNL     1      -9.802   6.582  -2.822  1.00  0.00     0.074 A 
ATOM     41  C   UNL     1      -8.496   7.153  -2.586  1.00  0.00     0.031 C 
ATOM     42  C   UNL     1      -8.383   0.615  -4.824  1.00  0.00     0.029 A 
ATOM     43  C   UNL     1      -9.713   1.177  -4.601  1.00  0.00     0.049 A 
ATOM     44  H   UNL     1     -10.185   3.096  -3.943  1.00  0.00     0.167 HD
ATOM     45  C   UNL     1     -10.967   7.250  -2.655  1.00  0.00     0.031 A 
ATOM     46  C   UNL     1     -10.881   0.537  -4.791  1.00  0.00     0.031 A 
ATOM     47  C   UNL     1     -12.261   6.665  -2.881  1.00  0.00     0.049 A 
ATOM     48  C   UNL     1     -12.163   1.281  -4.533  1.00  0.00     0.074 A 
ATOM     49  C   UNL     1     -13.508   7.248  -2.754  1.00  0.00     0.029 A 
ATOM     50  N   UNL     1     -12.467   5.351  -3.277  1.00  0.00    -0.354 N 
ATOM     51  N   UNL     1     -12.334   2.528  -4.160  1.00  0.00    -0.248 NA
ATOM     52  C   UNL     1     -13.411   0.534  -4.730  1.00  0.00     0.031 C 
ATOM     53  C   UNL     1     -14.472   6.269  -3.019  1.00  0.00     0.029 A 
ATOM     54  C   UNL     1     -13.823   5.095  -3.370  1.00  0.00     0.049 A 
ATOM     55  H   UNL     1     -11.755   4.699  -3.464  1.00  0.00     0.167 HD
ATOM     56  C   UNL     1     -13.707   2.722  -4.102  1.00  0.00     0.074 A 
ATOM     57  C   UNL     1     -14.322   1.468  -4.495  1.00  0.00     0.031 C 
ATOM     58  C   UNL     1     -14.402   3.834  -3.759  1.00  0.00     0.031 A 
BRANCH  45  59
ATOM     59  C   UNL     1     -10.888   8.670  -2.166  1.00  0.00    -0.014 A 
ATOM     60  C   UNL     1     -10.408   9.703  -2.987  1.00  0.00     0.009 A 
ATOM     61  C   UNL     1     -11.314   8.981  -0.866  1.00  0.00     0.009 A 
ATOM     62  C   UNL     1     -10.323  11.011  -2.502  1.00  0.00     0.001 A 
ATOM     63  C   UNL     1     -11.254  10.293  -0.393  1.00  0.00     0.001 A 
ATOM     64  C   UNL     1     -10.750  11.305  -1.208  1.00  0.00     0.000 A 
ENDBRANCH  45  59
BRANCH  46  65
ATOM     65  C   UNL     1     -10.889  -0.879  -5.239  1.00  0.00    -0.014 A 
ATOM     66  C   UNL     1     -11.344  -1.226  -6.520  1.00  0.00     0.009 A 
ATOM     67  C   UNL     1     -10.439  -1.897  -4.382  1.00  0.00     0.009 A 
ATOM     68  C   UNL     1     -11.366  -2.563  -6.926  1.00  0.00     0.001 A 
ATOM     69  C   UNL     1     -10.435  -3.229  -4.801  1.00  0.00     0.001 A 
ATOM     70  C   UNL     1     -10.906  -3.562  -6.069  1.00  0.00     0.000 A 
ENDBRANCH  46  65
BRANCH  58  71
ATOM     71  C   UNL     1     -15.900   3.749  -3.822  1.00  0.00    -0.014 A 
ATOM     72  C   UNL     1     -16.629   3.022  -2.868  1.00  0.00     0.009 A 
ATOM     73  C   UNL     1     -16.592   4.442  -4.828  1.00  0.00     0.009 A 
ATOM     74  C   UNL     1     -18.022   2.963  -2.942  1.00  0.00     0.001 A 
ATOM     75  C   UNL     1     -17.985   4.406  -4.881  1.00  0.00     0.001 A 
ATOM     76  C   UNL     1     -18.698   3.659  -3.944  1.00  0.00     0.000 A 
ENDBRANCH  58  71
ENDBRANCH  32  33
ENDBRANCH  25  27
ENDBRANCH  24  25
ENDBRANCH  23  24
ENDBRANCH  22  23
ENDBRANCH   1  22
TORSDOF 19
