REMARK SMILES CCCc1cc(OC(F)(F)F)cc2c1O[C@@H](C(F)(F)F)C(C(=O)OCCOCCOC(=O)c1ccc(-c3c4nc(c(-c5ccccc5)c5ccc([nH]5)c(-c5ccccc5)c5nc(c(-c6ccccc6)c6ccc3[nH]6)C=C5)C=C4)cc1)=C2
REMARK SMILES IDX 27 1 26 2 25 3 24 4 22 5 23 6 21 7 4 8 5 9 14 10 6 11 13 12
REMARK SMILES IDX 15 13 12 14 81 15 16 16 3 17 2 18 1 19 7 20 8 21 9 22 10 23
REMARK SMILES IDX 11 24 17 25 18 26 19 27 20 28 28 29 29 30 30 31 31 32 32 33
REMARK SMILES IDX 33 34 34 35 80 36 35 37 79 38 36 39 37 40 38 41 73 42 39 43
REMARK SMILES IDX 78 44 72 45 74 46 40 47 77 48 71 49 70 50 41 52 63 53 48 54
REMARK SMILES IDX 62 55 49 56 52 57 61 58 75 59 50 60 51 61 60 63 76 64 53 65
REMARK SMILES IDX 42 66 43 67 47 68 44 69 46 70 45 71 64 72 65 73 69 74 66 75
REMARK SMILES IDX 68 76 67 77 54 78 55 79 59 80 56 81 58 82 57 83
REMARK H PARENT 74 51 52 62
REMARK Flexibility Score: inf
ROOT
ATOM      1  O   UNL     1       5.652  -6.469  -0.193  1.00  0.00    -0.374 OA
ENDROOT
BRANCH   1   2
ATOM      2  C   UNL     1       4.676  -7.478   0.052  1.00  0.00     0.202 C 
BRANCH   2   3
ATOM      3  C   UNL     1       3.307  -7.020   0.558  1.00  0.00     0.261 C 
BRANCH   3   4
ATOM      4  O   UNL     1       2.684  -6.118  -0.369  1.00  0.00    -0.460 OA
BRANCH   4   5
ATOM      5  C   UNL     1       2.377  -4.907   0.148  1.00  0.00     0.338 C 
ATOM      6  O   UNL     1       2.401  -4.586   1.325  1.00  0.00    -0.246 OA
BRANCH   5   7
ATOM      7  C   UNL     1       2.111  -3.941  -0.926  1.00  0.00     0.087 C 
ATOM      8  C   UNL     1       0.590  -0.628  -2.903  1.00  0.00    -0.002 A 
ATOM      9  C   UNL     1      -0.433  -0.792  -3.852  1.00  0.00     0.054 A 
ATOM     10  C   UNL     1       1.181  -1.767  -2.344  1.00  0.00     0.131 A 
ATOM     11  C   UNL     1      -0.868  -2.070  -4.217  1.00  0.00     0.130 A 
ATOM     12  C   UNL     1       0.697  -3.047  -2.635  1.00  0.00     0.021 A 
ATOM     13  O   UNL     1       2.177  -1.546  -1.436  1.00  0.00    -0.475 OA
ATOM     14  C   UNL     1      -0.305  -3.193  -3.596  1.00  0.00     0.058 A 
ATOM     15  C   UNL     1       1.103  -4.165  -1.782  1.00  0.00     0.027 C 
ATOM     16  C   UNL     1       2.943  -2.685  -0.995  1.00  0.00     0.316 C 
BRANCH   8  17
ATOM     17  C   UNL     1       0.985   0.758  -2.437  1.00  0.00     0.039 C 
BRANCH  17  18
ATOM     18  C   UNL     1       0.279   1.207  -1.147  1.00  0.00     0.001 C 
ATOM     19  C   UNL     1       0.703   0.467   0.117  1.00  0.00     0.004 C 
ENDBRANCH  17  18
ENDBRANCH   8  17
BRANCH  11  20
ATOM     20  O   UNL     1      -1.849  -2.362  -5.123  1.00  0.00    -0.406 OA
BRANCH  20  21
ATOM     21  C   UNL     1      -2.557  -1.280  -5.705  1.00  0.00     0.573 C 
ATOM     22  F   UNL     1      -3.181  -0.543  -4.762  1.00  0.00    -0.132 F 
ATOM     23  F   UNL     1      -1.733  -0.490  -6.426  1.00  0.00    -0.132 F 
ATOM     24  F   UNL     1      -3.498  -1.778  -6.539  1.00  0.00    -0.132 F 
ENDBRANCH  20  21
ENDBRANCH  11  20
BRANCH  16  25
ATOM     25  C   UNL     1       3.727  -2.255   0.258  1.00  0.00     0.430 C 
ATOM     26  F   UNL     1       4.624  -3.199   0.625  1.00  0.00    -0.167 F 
ATOM     27  F   UNL     1       4.453  -1.136  -0.010  1.00  0.00    -0.167 F 
ATOM     28  F   UNL     1       2.934  -1.967   1.308  1.00  0.00    -0.167 F 
ENDBRANCH  16  25
ENDBRANCH   5   7
ENDBRANCH   4   5
ENDBRANCH   3   4
ENDBRANCH   2   3
ENDBRANCH   1   2
BRANCH   1  29
ATOM     29  C   UNL     1       5.491  -5.631  -1.336  1.00  0.00     0.202 C 
BRANCH  29  30
ATOM     30  C   UNL     1       5.744  -6.245  -2.718  1.00  0.00     0.261 C 
BRANCH  30  31
ATOM     31  O   UNL     1       4.815  -7.294  -3.038  1.00  0.00    -0.460 OA
BRANCH  31  32
ATOM     32  C   UNL     1       5.366  -8.530  -3.106  1.00  0.00     0.338 C 
ATOM     33  O   UNL     1       6.545  -8.826  -2.985  1.00  0.00    -0.246 OA
BRANCH  32  34
ATOM     34  C   UNL     1       4.307  -9.550  -3.174  1.00  0.00     0.060 A 
ATOM     35  C   UNL     1       4.303 -10.549  -2.190  1.00  0.00     0.016 A 
ATOM     36  C   UNL     1       3.396  -9.586  -4.230  1.00  0.00     0.016 A 
ATOM     37  C   UNL     1       3.418 -11.618  -2.287  1.00  0.00     0.010 A 
ATOM     38  C   UNL     1       2.518 -10.668  -4.333  1.00  0.00     0.010 A 
ATOM     39  C   UNL     1       2.552 -11.706  -3.384  1.00  0.00    -0.014 A 
BRANCH  39  40
ATOM     40  C   UNL     1       1.807 -12.962  -3.628  1.00  0.00     0.031 A 
ATOM     41  C   UNL     1       2.361 -13.950  -4.618  1.00  0.00     0.074 A 
ATOM     42  C   UNL     1       0.670 -13.232  -2.964  1.00  0.00     0.049 A 
ATOM     43  N   UNL     1       1.855 -15.084  -5.029  1.00  0.00    -0.248 NA
ATOM     44  C   UNL     1       3.658 -13.612  -5.227  1.00  0.00     0.031 C 
ATOM     45  C   UNL     1       0.065 -12.382  -1.940  1.00  0.00     0.029 A 
ATOM     46  N   UNL     1      -0.179 -14.305  -3.060  1.00  0.00    -0.354 N 
ATOM     47  C   UNL     1       2.765 -15.589  -5.949  1.00  0.00     0.074 A 
ATOM     48  C   UNL     1       3.841 -14.628  -6.057  1.00  0.00     0.031 C 
ATOM     49  C   UNL     1      -1.068 -12.963  -1.508  1.00  0.00     0.029 A 
ATOM     50  C   UNL     1      -1.283 -14.204  -2.249  1.00  0.00     0.049 A 
ATOM     51  H   UNL     1      -0.014 -15.073  -3.653  1.00  0.00     0.167 HD
ATOM     52  C   UNL     1       2.712 -16.752  -6.640  1.00  0.00     0.031 A 
ATOM     53  C   UNL     1      -2.354 -15.012  -2.138  1.00  0.00     0.031 A 
ATOM     54  C   UNL     1       1.637 -17.702  -6.542  1.00  0.00     0.049 A 
ATOM     55  C   UNL     1      -2.430 -16.258  -2.980  1.00  0.00     0.074 A 
ATOM     56  C   UNL     1       1.493 -18.912  -7.199  1.00  0.00     0.029 A 
ATOM     57  N   UNL     1       0.520 -17.546  -5.737  1.00  0.00    -0.354 N 
ATOM     58  N   UNL     1      -1.559 -16.731  -3.839  1.00  0.00    -0.248 NA
ATOM     59  C   UNL     1      -3.637 -17.085  -2.832  1.00  0.00     0.031 C 
ATOM     60  C   UNL     1       0.262 -19.463  -6.829  1.00  0.00     0.029 A 
ATOM     61  C   UNL     1      -0.330 -18.625  -5.898  1.00  0.00     0.049 A 
ATOM     62  H   UNL     1       0.356 -16.780  -5.141  1.00  0.00     0.167 HD
ATOM     63  C   UNL     1      -2.096 -17.925  -4.305  1.00  0.00     0.074 A 
ATOM     64  C   UNL     1      -3.363 -18.108  -3.628  1.00  0.00     0.031 C 
ATOM     65  C   UNL     1      -1.583 -18.796  -5.209  1.00  0.00     0.031 A 
BRANCH  52  66
ATOM     66  C   UNL     1       3.838 -17.042  -7.593  1.00  0.00    -0.014 A 
ATOM     67  C   UNL     1       5.115 -17.393  -7.128  1.00  0.00     0.009 A 
ATOM     68  C   UNL     1       3.607 -16.995  -8.976  1.00  0.00     0.009 A 
ATOM     69  C   UNL     1       6.146 -17.660  -8.031  1.00  0.00     0.001 A 
ATOM     70  C   UNL     1       4.632 -17.289  -9.877  1.00  0.00     0.001 A 
ATOM     71  C   UNL     1       5.903 -17.613  -9.403  1.00  0.00     0.000 A 
ENDBRANCH  52  66
BRANCH  53  72
ATOM     72  C   UNL     1      -3.460 -14.662  -1.209  1.00  0.00    -0.014 A 
ATOM     73  C   UNL     1      -3.699 -15.428  -0.058  1.00  0.00     0.009 A 
ATOM     74  C   UNL     1      -4.301 -13.572  -1.484  1.00  0.00     0.009 A 
ATOM     75  C   UNL     1      -4.774 -15.127   0.782  1.00  0.00     0.001 A 
ATOM     76  C   UNL     1      -5.356 -13.255  -0.627  1.00  0.00     0.001 A 
ATOM     77  C   UNL     1      -5.598 -14.039   0.500  1.00  0.00     0.000 A 
ENDBRANCH  53  72
BRANCH  65  78
ATOM     78  C   UNL     1      -2.364 -20.050  -5.481  1.00  0.00    -0.014 A 
ATOM     79  C   UNL     1      -3.549 -20.027  -6.231  1.00  0.00     0.009 A 
ATOM     80  C   UNL     1      -1.872 -21.283  -5.021  1.00  0.00     0.009 A 
ATOM     81  C   UNL     1      -4.242 -21.212  -6.490  1.00  0.00     0.001 A 
ATOM     82  C   UNL     1      -2.552 -22.468  -5.305  1.00  0.00     0.001 A 
ATOM     83  C   UNL     1      -3.741 -22.430  -6.032  1.00  0.00     0.000 A 
ENDBRANCH  65  78
ENDBRANCH  39  40
ENDBRANCH  32  34
ENDBRANCH  31  32
ENDBRANCH  30  31
ENDBRANCH  29  30
ENDBRANCH   1  29
TORSDOF 19
