REMARK SMILES CC(C)C[C@H](NC(=O)[C@H]1CCCCC[C@H]1[NH3+])C(=O)OCCOCCOC(=O)c1ccc(-c2c3nc(c(-c4ccccc4)c4ccc([nH]4)c(-c4ccccc4)c4nc(c(-c5ccccc5)c5ccc2[nH]5)C=C4)C=C3)cc1
REMARK SMILES IDX 20 1 19 2 17 3 18 4 5 5 4 6 2 7 1 8 3 9 6 10 7 11 8 13 9 14
REMARK SMILES IDX 10 15 11 16 15 18 14 19 13 20 12 21 16 23 21 27 22 28 23 29
REMARK SMILES IDX 24 30 25 31 26 32 27 33 28 34 29 35 75 36 30 37 74 38 31 39
REMARK SMILES IDX 32 40 33 41 68 42 34 43 73 44 67 45 69 46 35 47 72 48 66 49
REMARK SMILES IDX 65 50 36 52 58 53 43 54 57 55 44 56 47 57 56 58 70 59 45 60
REMARK SMILES IDX 46 61 55 63 71 64 48 65 37 66 38 67 42 68 39 69 41 70 40 71
REMARK SMILES IDX 59 72 60 73 64 74 61 75 63 76 62 77 49 78 50 79 54 80 51 81
REMARK SMILES IDX 53 82 52 83
REMARK H PARENT 6 12 16 24 16 25 16 26 69 51 47 62
REMARK Flexibility Score: 90.00
ROOT
ATOM      1  C   UNL     1       4.417   3.989   3.380  1.00  0.00     0.261 C 
ENDROOT
BRANCH   1   2
ATOM      2  O   UNL     1       3.694   2.788   3.079  1.00  0.00    -0.462 OA
BRANCH   2   3
ATOM      3  C   UNL     1       3.198   2.767   1.805  1.00  0.00     0.328 C 
ATOM      4  O   UNL     1       3.403   3.643   0.973  1.00  0.00    -0.250 OA
BRANCH   3   5
ATOM      5  C   UNL     1       2.223   1.597   1.569  1.00  0.00     0.192 C 
BRANCH   5   6
ATOM      6  C   UNL     1       0.789   2.083   1.843  1.00  0.00     0.040 C 
BRANCH   6   7
ATOM      7  C   UNL     1       0.383   3.412   1.172  1.00  0.00    -0.015 C 
ATOM      8  C   UNL     1       0.561   3.399  -0.348  1.00  0.00     0.007 C 
ATOM      9  C   UNL     1      -1.074   3.729   1.512  1.00  0.00     0.007 C 
ENDBRANCH   6   7
ENDBRANCH   5   6
BRANCH   5  10
ATOM     10  N   UNL     1       2.558   0.414   2.384  1.00  0.00    -0.342 N 
ATOM     11  C   UNL     1       2.199  -0.900   2.259  1.00  0.00     0.229 C 
ATOM     12  H   UNL     1       3.144   0.604   3.152  1.00  0.00     0.164 HD
ATOM     13  O   UNL     1       2.723  -1.704   3.037  1.00  0.00    -0.275 OA
BRANCH  11  14
ATOM     14  C   UNL     1       1.187  -1.347   1.188  1.00  0.00     0.136 C 
BRANCH  14  15
ATOM     15  C   UNL     1       1.803  -1.392  -0.221  1.00  0.00     0.020 C 
BRANCH  15  16
ATOM     16  C   UNL     1       2.960  -2.372  -0.384  1.00  0.00     0.001 CG0
ATOM     17  G   UNL     1       2.542  -3.778  -0.794  1.00  0.00     0.000 G0
ENDBRANCH  15  16
ENDBRANCH  14  15
BRANCH  14  18
ATOM     18  C   UNL     1       0.394  -2.633   1.560  1.00  0.00     0.193 C 
BRANCH  18  19
ATOM     19  C   UNL     1       1.099  -3.982   1.326  1.00  0.00     0.066 C 
BRANCH  19  20
ATOM     20  C   UNL     1       1.267  -4.315  -0.157  1.00  0.00     0.006 C 
BRANCH  20  21
ATOM     21  C   UNL     1       2.542  -3.778  -0.794  1.00  0.00     0.000 CG0
ATOM     22  G   UNL     1       2.960  -2.372  -0.384  1.00  0.00     0.000 G0
ENDBRANCH  20  21
ENDBRANCH  19  20
ENDBRANCH  18  19
BRANCH  18  23
ATOM     23  N   UNL     1      -0.114  -2.568   2.941  1.00  0.00    -0.354 N 
ATOM     24  H   UNL     1       0.671  -2.575   3.592  1.00  0.00     0.344 HD
ATOM     25  H   UNL     1      -0.713  -3.373   3.121  1.00  0.00     0.344 HD
ATOM     26  H   UNL     1      -0.651  -1.709   3.065  1.00  0.00     0.344 HD
ENDBRANCH  18  23
ENDBRANCH  14  18
ENDBRANCH  11  14
ENDBRANCH   5  10
ENDBRANCH   3   5
ENDBRANCH   2   3
ENDBRANCH   1   2
BRANCH   1  27
ATOM     27  C   UNL     1       5.931   3.917   3.147  1.00  0.00     0.202 C 
BRANCH  27  28
ATOM     28  O   UNL     1       6.410   3.198   2.020  1.00  0.00    -0.374 OA
BRANCH  28  29
ATOM     29  C   UNL     1       6.324   1.772   2.025  1.00  0.00     0.202 C 
BRANCH  29  30
ATOM     30  C   UNL     1       7.051   1.014   3.139  1.00  0.00     0.261 C 
BRANCH  30  31
ATOM     31  O   UNL     1       6.454   1.244   4.430  1.00  0.00    -0.460 OA
BRANCH  31  32
ATOM     32  C   UNL     1       7.313   1.698   5.372  1.00  0.00     0.338 C 
ATOM     33  O   UNL     1       8.519   1.878   5.255  1.00  0.00    -0.246 OA
BRANCH  32  34
ATOM     34  C   UNL     1       6.579   2.146   6.564  1.00  0.00     0.060 A 
ATOM     35  C   UNL     1       6.724   3.485   6.951  1.00  0.00     0.016 A 
ATOM     36  C   UNL     1       5.880   1.243   7.366  1.00  0.00     0.016 A 
ATOM     37  C   UNL     1       6.221   3.913   8.176  1.00  0.00     0.010 A 
ATOM     38  C   UNL     1       5.385   1.672   8.603  1.00  0.00     0.010 A 
ATOM     39  C   UNL     1       5.594   2.996   9.030  1.00  0.00    -0.014 A 
BRANCH  39  40
ATOM     40  C   UNL     1       5.321   3.393  10.431  1.00  0.00     0.031 A 
ATOM     41  C   UNL     1       6.318   3.028  11.498  1.00  0.00     0.074 A 
ATOM     42  C   UNL     1       4.236   4.122  10.741  1.00  0.00     0.049 A 
ATOM     43  N   UNL     1       6.297   3.296  12.779  1.00  0.00    -0.248 NA
ATOM     44  C   UNL     1       7.500   2.266  11.060  1.00  0.00     0.031 C 
ATOM     45  C   UNL     1       3.224   4.580   9.791  1.00  0.00     0.029 A 
ATOM     46  N   UNL     1       3.811   4.610  11.951  1.00  0.00    -0.354 N 
ATOM     47  C   UNL     1       7.461   2.742  13.298  1.00  0.00     0.074 A 
ATOM     48  C   UNL     1       8.149   2.094  12.203  1.00  0.00     0.031 C 
ATOM     49  C   UNL     1       2.290   5.283  10.456  1.00  0.00     0.029 A 
ATOM     50  C   UNL     1       2.627   5.301  11.878  1.00  0.00     0.049 A 
ATOM     51  H   UNL     1       4.308   4.478  12.790  1.00  0.00     0.167 HD
ATOM     52  C   UNL     1       7.923   2.778  14.570  1.00  0.00     0.031 A 
ATOM     53  C   UNL     1       1.894   5.871  12.852  1.00  0.00     0.031 A 
ATOM     54  C   UNL     1       7.232   3.399  15.667  1.00  0.00     0.049 A 
ATOM     55  C   UNL     1       2.386   5.822  14.274  1.00  0.00     0.074 A 
ATOM     56  C   UNL     1       7.612   3.478  16.995  1.00  0.00     0.029 A 
ATOM     57  N   UNL     1       6.011   4.045  15.560  1.00  0.00    -0.354 N 
ATOM     58  N   UNL     1       3.496   5.309  14.748  1.00  0.00    -0.248 NA
ATOM     59  C   UNL     1       1.526   6.442  15.293  1.00  0.00     0.031 C 
ATOM     60  C   UNL     1       6.598   4.134  17.701  1.00  0.00     0.029 A 
ATOM     61  C   UNL     1       5.612   4.509  16.802  1.00  0.00     0.049 A 
ATOM     62  H   UNL     1       5.502   4.159  14.725  1.00  0.00     0.167 HD
ATOM     63  C   UNL     1       3.480   5.567  16.113  1.00  0.00     0.074 A 
ATOM     64  C   UNL     1       2.259   6.296  16.388  1.00  0.00     0.031 C 
ATOM     65  C   UNL     1       4.394   5.232  17.056  1.00  0.00     0.031 A 
BRANCH  52  66
ATOM     66  C   UNL     1       9.234   2.097  14.845  1.00  0.00    -0.014 A 
ATOM     67  C   UNL     1      10.447   2.659  14.415  1.00  0.00     0.009 A 
ATOM     68  C   UNL     1       9.260   0.892  15.564  1.00  0.00     0.009 A 
ATOM     69  C   UNL     1      11.657   2.012  14.674  1.00  0.00     0.001 A 
ATOM     70  C   UNL     1      10.473   0.260  15.843  1.00  0.00     0.001 A 
ATOM     71  C   UNL     1      11.669   0.816  15.391  1.00  0.00     0.000 A 
ENDBRANCH  52  66
BRANCH  53  72
ATOM     72  C   UNL     1       0.600   6.525  12.526  1.00  0.00    -0.014 A 
ATOM     73  C   UNL     1       0.454   7.917  12.621  1.00  0.00     0.009 A 
ATOM     74  C   UNL     1      -0.507   5.750  12.146  1.00  0.00     0.009 A 
ATOM     75  C   UNL     1      -0.783   8.516  12.368  1.00  0.00     0.001 A 
ATOM     76  C   UNL     1      -1.734   6.354  11.868  1.00  0.00     0.001 A 
ATOM     77  C   UNL     1      -1.874   7.736  11.989  1.00  0.00     0.000 A 
ENDBRANCH  53  72
BRANCH  65  78
ATOM     78  C   UNL     1       4.123   5.682  18.464  1.00  0.00    -0.014 A 
ATOM     79  C   UNL     1       3.133   5.069  19.247  1.00  0.00     0.009 A 
ATOM     80  C   UNL     1       4.893   6.714  19.023  1.00  0.00     0.009 A 
ATOM     81  C   UNL     1       2.896   5.506  20.552  1.00  0.00     0.001 A 
ATOM     82  C   UNL     1       4.672   7.131  20.336  1.00  0.00     0.001 A 
ATOM     83  C   UNL     1       3.667   6.533  21.096  1.00  0.00     0.000 A 
ENDBRANCH  65  78
ENDBRANCH  39  40
ENDBRANCH  32  34
ENDBRANCH  31  32
ENDBRANCH  30  31
ENDBRANCH  29  30
ENDBRANCH  28  29
ENDBRANCH  27  28
ENDBRANCH   1  27
TORSDOF 19
