REMARK SMILES CC(C)c1ccc([C@]2(C(=O)OCCOCCOC(=O)c3ccc(-c4c5nc(c(-c6ccccc6)c6ccc([nH]6)c(-c6ccccc6)c6nc(c(-c7ccccc7)c7ccc4[nH]7)C=C6)C=C5)cc3)CCC[C@@H]2C)cc1
REMARK SMILES IDX 14 1 13 2 12 3 11 4 9 5 10 6 8 7 68 8 71 9 69 10 70 11 72 12
REMARK SMILES IDX 7 13 4 14 5 15 74 16 6 17 73 18 2 19 1 20 3 21 15 22 16 23
REMARK SMILES IDX 17 24 18 25 19 26 20 27 21 28 67 29 22 30 66 31 23 32 24 33
REMARK SMILES IDX 25 34 60 35 26 36 65 37 59 38 61 39 27 40 64 41 58 42 57 43
REMARK SMILES IDX 28 45 50 46 35 47 49 48 36 49 39 50 48 51 62 52 37 53 38 54
REMARK SMILES IDX 47 56 63 57 40 58 29 59 30 60 34 61 31 62 33 63 32 64 51 65
REMARK SMILES IDX 52 66 56 67 53 68 55 69 54 70 41 71 42 72 46 73 43 74 45 75
REMARK SMILES IDX 44 76
REMARK H PARENT 61 44 39 55
REMARK Flexibility Score: inf
ROOT
ATOM      1  O   UNL     1      -5.569  -3.922   4.509  1.00  0.00    -0.374 OA
ENDROOT
BRANCH   1   2
ATOM      2  C   UNL     1      -6.798  -3.235   4.757  1.00  0.00     0.202 C 
BRANCH   2   3
ATOM      3  C   UNL     1      -6.734  -1.709   4.683  1.00  0.00     0.261 C 
BRANCH   3   4
ATOM      4  O   UNL     1      -6.548  -1.292   3.319  1.00  0.00    -0.463 OA
BRANCH   4   5
ATOM      5  C   UNL     1      -5.675  -0.266   3.133  1.00  0.00     0.316 C 
ATOM      6  O   UNL     1      -5.208   0.404   4.050  1.00  0.00    -0.251 OA
BRANCH   5   7
ATOM      7  C   UNL     1      -5.352  -0.012   1.629  1.00  0.00     0.095 C 
ATOM      8  C   UNL     1      -6.102  -0.957   0.653  1.00  0.00     0.024 C 
ATOM      9  C   UNL     1      -6.019   1.357   1.278  1.00  0.00     0.008 C 
ATOM     10  C   UNL     1      -7.517  -0.399   0.493  1.00  0.00     0.002 C 
ATOM     11  C   UNL     1      -7.505   0.982   1.138  1.00  0.00     0.005 C 
ATOM     12  C   UNL     1      -5.542   2.027  -0.016  1.00  0.00     0.009 C 
BRANCH   7  13
ATOM     13  C   UNL     1      -3.823  -0.101   1.486  1.00  0.00    -0.030 A 
ATOM     14  C   UNL     1      -0.976  -0.303   1.425  1.00  0.00    -0.045 A 
ATOM     15  C   UNL     1      -1.607   0.884   1.812  1.00  0.00     0.004 A 
ATOM     16  C   UNL     1      -1.785  -1.385   1.055  1.00  0.00     0.004 A 
ATOM     17  C   UNL     1      -3.003   0.974   1.862  1.00  0.00     0.005 A 
ATOM     18  C   UNL     1      -3.182  -1.286   1.085  1.00  0.00     0.005 A 
BRANCH  14  19
ATOM     19  C   UNL     1       0.536  -0.443   1.374  1.00  0.00     0.013 C 
ATOM     20  C   UNL     1       1.077   0.099   0.050  1.00  0.00     0.012 C 
ATOM     21  C   UNL     1       1.252   0.217   2.558  1.00  0.00     0.012 C 
ENDBRANCH  14  19
ENDBRANCH   7  13
ENDBRANCH   5   7
ENDBRANCH   4   5
ENDBRANCH   3   4
ENDBRANCH   2   3
ENDBRANCH   1   2
BRANCH   1  22
ATOM     22  C   UNL     1      -5.071  -3.913   3.172  1.00  0.00     0.202 C 
BRANCH  22  23
ATOM     23  C   UNL     1      -5.724  -4.909   2.204  1.00  0.00     0.261 C 
BRANCH  23  24
ATOM     24  O   UNL     1      -7.138  -4.686   2.049  1.00  0.00    -0.460 OA
BRANCH  24  25
ATOM     25  C   UNL     1      -7.919  -5.656   2.580  1.00  0.00     0.338 C 
ATOM     26  O   UNL     1      -7.559  -6.717   3.070  1.00  0.00    -0.246 OA
BRANCH  25  27
ATOM     27  C   UNL     1      -9.321  -5.205   2.653  1.00  0.00     0.060 A 
ATOM     28  C   UNL     1      -9.946  -5.257   3.906  1.00  0.00     0.016 A 
ATOM     29  C   UNL     1     -10.040  -4.833   1.515  1.00  0.00     0.016 A 
ATOM     30  C   UNL     1     -11.307  -4.987   4.018  1.00  0.00     0.010 A 
ATOM     31  C   UNL     1     -11.411  -4.574   1.629  1.00  0.00     0.010 A 
ATOM     32  C   UNL     1     -12.057  -4.688   2.873  1.00  0.00    -0.014 A 
BRANCH  32  33
ATOM     33  C   UNL     1     -13.537  -4.657   2.969  1.00  0.00     0.031 A 
ATOM     34  C   UNL     1     -14.317  -5.888   2.597  1.00  0.00     0.074 A 
ATOM     35  C   UNL     1     -14.177  -3.569   3.433  1.00  0.00     0.049 A 
ATOM     36  N   UNL     1     -15.610  -6.090   2.625  1.00  0.00    -0.248 NA
ATOM     37  C   UNL     1     -13.535  -7.048   2.138  1.00  0.00     0.031 C 
ATOM     38  C   UNL     1     -13.535  -2.332   3.873  1.00  0.00     0.029 A 
ATOM     39  N   UNL     1     -15.518  -3.339   3.615  1.00  0.00    -0.354 N 
ATOM     40  C   UNL     1     -15.797  -7.395   2.186  1.00  0.00     0.074 A 
ATOM     41  C   UNL     1     -14.489  -7.929   1.873  1.00  0.00     0.031 C 
ATOM     42  C   UNL     1     -14.485  -1.469   4.275  1.00  0.00     0.029 A 
ATOM     43  C   UNL     1     -15.799  -2.084   4.095  1.00  0.00     0.049 A 
ATOM     44  H   UNL     1     -16.211  -4.010   3.420  1.00  0.00     0.167 HD
ATOM     45  C   UNL     1     -16.951  -8.092   2.062  1.00  0.00     0.031 A 
ATOM     46  C   UNL     1     -16.983  -1.493   4.346  1.00  0.00     0.031 A 
ATOM     47  C   UNL     1     -18.255  -7.563   2.359  1.00  0.00     0.049 A 
ATOM     48  C   UNL     1     -18.258  -2.261   4.122  1.00  0.00     0.074 A 
ATOM     49  C   UNL     1     -19.483  -8.197   2.274  1.00  0.00     0.029 A 
ATOM     50  N   UNL     1     -18.500  -6.270   2.792  1.00  0.00    -0.354 N 
ATOM     51  N   UNL     1     -18.418  -3.502   3.730  1.00  0.00    -0.248 NA
ATOM     52  C   UNL     1     -19.516  -1.546   4.383  1.00  0.00     0.031 C 
ATOM     53  C   UNL     1     -20.476  -7.270   2.607  1.00  0.00     0.029 A 
ATOM     54  C   UNL     1     -19.862  -6.076   2.950  1.00  0.00     0.049 A 
ATOM     55  H   UNL     1     -17.809  -5.590   2.961  1.00  0.00     0.167 HD
ATOM     56  C   UNL     1     -19.790  -3.723   3.722  1.00  0.00     0.074 A 
ATOM     57  C   UNL     1     -20.417  -2.494   4.160  1.00  0.00     0.031 C 
ATOM     58  C   UNL     1     -20.470  -4.846   3.384  1.00  0.00     0.031 A 
BRANCH  45  59
ATOM     59  C   UNL     1     -16.853  -9.500   1.548  1.00  0.00    -0.014 A 
ATOM     60  C   UNL     1     -16.350 -10.536   2.351  1.00  0.00     0.009 A 
ATOM     61  C   UNL     1     -17.297  -9.798   0.250  1.00  0.00     0.009 A 
ATOM     62  C   UNL     1     -16.265 -11.837   1.852  1.00  0.00     0.001 A 
ATOM     63  C   UNL     1     -17.233 -11.105  -0.237  1.00  0.00     0.001 A 
ATOM     64  C   UNL     1     -16.709 -12.121   0.561  1.00  0.00     0.000 A 
ENDBRANCH  45  59
BRANCH  46  65
ATOM     65  C   UNL     1     -17.026  -0.087   4.823  1.00  0.00    -0.014 A 
ATOM     66  C   UNL     1     -17.418   0.214   6.136  1.00  0.00     0.009 A 
ATOM     67  C   UNL     1     -16.692   0.965   3.955  1.00  0.00     0.009 A 
ATOM     68  C   UNL     1     -17.497   1.542   6.563  1.00  0.00     0.001 A 
ATOM     69  C   UNL     1     -16.747   2.290   4.393  1.00  0.00     0.001 A 
ATOM     70  C   UNL     1     -17.157   2.578   5.693  1.00  0.00     0.000 A 
ENDBRANCH  46  65
BRANCH  58  71
ATOM     71  C   UNL     1     -21.967  -4.808   3.504  1.00  0.00    -0.014 A 
ATOM     72  C   UNL     1     -22.754  -4.103   2.581  1.00  0.00     0.009 A 
ATOM     73  C   UNL     1     -22.601  -5.524   4.533  1.00  0.00     0.009 A 
ATOM     74  C   UNL     1     -24.145  -4.091   2.703  1.00  0.00     0.001 A 
ATOM     75  C   UNL     1     -23.992  -5.532   4.637  1.00  0.00     0.001 A 
ATOM     76  C   UNL     1     -24.762  -4.809   3.727  1.00  0.00     0.000 A 
ENDBRANCH  58  71
ENDBRANCH  32  33
ENDBRANCH  25  27
ENDBRANCH  24  25
ENDBRANCH  23  24
ENDBRANCH  22  23
ENDBRANCH   1  22
TORSDOF 16
