REMARK SMILES O=C(OCCOCCOC(=O)c1ccc(-c2c3nc(c(-c4ccccc4)c4ccc([nH]4)c(-c4ccccc4)c4nc(c(-c5ccccc5)c5ccc2[nH]5)C=C4)C=C3)cc1)c1ccc(NC(=O)[C@@H]2CC=CC[C@H]2C(=O)Nc2cccc([N+](=O)[O-])c2)cc1
REMARK SMILES IDX 4 1 3 2 2 3 1 4 60 5 61 6 86 7 62 8 85 9 63 10 64 11 65 12
REMARK SMILES IDX 66 14 67 15 68 16 72 17 69 18 71 19 70 20 73 21 74 22 75 23
REMARK SMILES IDX 76 25 77 26 84 27 78 28 80 29 79 30 81 31 82 32 83 33 5 34
REMARK SMILES IDX 6 35 7 36 8 37 9 38 10 39 11 40 12 41 13 42 59 43 14 44
REMARK SMILES IDX 58 45 15 46 16 47 17 48 52 49 18 50 57 51 51 52 53 53 19 54
REMARK SMILES IDX 56 55 50 56 49 57 20 59 42 60 27 61 41 62 28 63 31 64 40 65
REMARK SMILES IDX 54 66 29 67 30 68 39 70 55 71 32 72 21 73 22 74 26 75 23 76
REMARK SMILES IDX 25 77 24 78 43 79 44 80 48 81 45 82 47 83 46 84 33 85 34 86
REMARK SMILES IDX 38 87 35 88 37 89 36 90
REMARK H PARENT 64 13 75 24 53 58 31 69
REMARK Flexibility Score: inf
ROOT
ATOM      1  C   UNL     1       4.316   8.762   5.179  1.00  0.00     0.261 C 
ENDROOT
BRANCH   1   2
ATOM      2  O   UNL     1       4.952   9.840   4.467  1.00  0.00    -0.460 OA
BRANCH   2   3
ATOM      3  C   UNL     1       6.147   9.880   3.829  1.00  0.00     0.338 C 
ATOM      4  O   UNL     1       6.551  10.975   3.435  1.00  0.00    -0.246 OA
BRANCH   3   5
ATOM      5  C   UNL     1       6.997   8.683   3.522  1.00  0.00     0.060 A 
ATOM      6  C   UNL     1       6.588   7.365   3.623  1.00  0.00     0.018 A 
ATOM      7  C   UNL     1       8.281   8.894   2.989  1.00  0.00     0.018 A 
ATOM      8  C   UNL     1       7.387   6.314   3.172  1.00  0.00     0.027 A 
ATOM      9  C   UNL     1       9.040   7.829   2.458  1.00  0.00     0.027 A 
ATOM     10  C   UNL     1       8.539   6.526   2.466  1.00  0.00     0.041 A 
BRANCH  10  11
ATOM     11  N   UNL     1       9.153   5.544   1.677  1.00  0.00    -0.326 N 
ATOM     12  C   UNL     1       8.844   4.286   1.238  1.00  0.00     0.228 C 
ATOM     13  H   UNL     1      10.036   5.835   1.355  1.00  0.00     0.169 HD
ATOM     14  O   UNL     1       9.629   3.863   0.374  1.00  0.00    -0.274 OA
BRANCH  12  15
ATOM     15  C   UNL     1       7.704   3.361   1.759  1.00  0.00     0.095 C 
ATOM     16  C   UNL     1       8.203   1.901   1.517  1.00  0.00     0.041 C 
ATOM     17  C   UNL     1       6.277   3.568   1.163  1.00  0.00     0.095 C 
ATOM     18  C   UNL     1       7.194   0.813   1.669  1.00  0.00    -0.030 C 
ATOM     19  C   UNL     1       5.336   2.331   1.061  1.00  0.00     0.041 C 
ATOM     20  C   UNL     1       5.896   1.009   1.443  1.00  0.00    -0.030 C 
BRANCH  17  21
ATOM     21  C   UNL     1       5.368   4.695   1.687  1.00  0.00     0.228 C 
ATOM     22  O   UNL     1       5.205   5.693   0.971  1.00  0.00    -0.274 OA
ATOM     23  N   UNL     1       4.603   4.623   2.830  1.00  0.00    -0.326 N 
ATOM     24  H   UNL     1       3.889   5.301   2.851  1.00  0.00     0.169 HD
BRANCH  23  25
ATOM     25  C   UNL     1       4.606   3.802   3.980  1.00  0.00     0.048 A 
ATOM     26  C   UNL     1       3.391   3.575   4.632  1.00  0.00     0.026 A 
ATOM     27  C   UNL     1       5.744   3.264   4.566  1.00  0.00     0.111 A 
ATOM     28  C   UNL     1       3.314   2.774   5.784  1.00  0.00     0.009 A 
ATOM     29  C   UNL     1       5.680   2.431   5.691  1.00  0.00     0.271 A 
ATOM     30  C   UNL     1       4.460   2.177   6.308  1.00  0.00     0.086 A 
BRANCH  29  31
ATOM     31  N   UNL     1       6.921   1.839   6.211  1.00  0.00     0.062 N 
ATOM     32  O   UNL     1       6.829   1.048   7.159  1.00  0.00    -0.258 OA
ATOM     33  O   UNL     1       7.987   2.164   5.666  1.00  0.00    -0.258 OA
ENDBRANCH  29  31
ENDBRANCH  23  25
ENDBRANCH  17  21
ENDBRANCH  12  15
ENDBRANCH  10  11
ENDBRANCH   3   5
ENDBRANCH   2   3
ENDBRANCH   1   2
BRANCH   1  34
ATOM     34  C   UNL     1       3.164   8.156   4.367  1.00  0.00     0.202 C 
BRANCH  34  35
ATOM     35  O   UNL     1       3.543   7.719   3.060  1.00  0.00    -0.374 OA
BRANCH  35  36
ATOM     36  C   UNL     1       3.392   8.722   2.039  1.00  0.00     0.202 C 
BRANCH  36  37
ATOM     37  C   UNL     1       2.295   8.345   1.036  1.00  0.00     0.261 C 
BRANCH  37  38
ATOM     38  O   UNL     1       1.047   8.175   1.727  1.00  0.00    -0.460 OA
BRANCH  38  39
ATOM     39  C   UNL     1       0.837   6.927   2.208  1.00  0.00     0.338 C 
ATOM     40  O   UNL     1       1.445   5.903   1.933  1.00  0.00    -0.246 OA
BRANCH  39  41
ATOM     41  C   UNL     1      -0.095   7.022   3.350  1.00  0.00     0.060 A 
ATOM     42  C   UNL     1       0.153   6.184   4.444  1.00  0.00     0.016 A 
ATOM     43  C   UNL     1      -1.135   7.953   3.397  1.00  0.00     0.016 A 
ATOM     44  C   UNL     1      -0.622   6.273   5.593  1.00  0.00     0.010 A 
ATOM     45  C   UNL     1      -1.919   8.040   4.546  1.00  0.00     0.010 A 
ATOM     46  C   UNL     1      -1.668   7.197   5.643  1.00  0.00    -0.014 A 
BRANCH  46  47
ATOM     47  C   UNL     1      -2.579   7.221   6.802  1.00  0.00     0.031 A 
ATOM     48  C   UNL     1      -3.910   6.545   6.674  1.00  0.00     0.074 A 
ATOM     49  C   UNL     1      -2.229   7.867   7.928  1.00  0.00     0.049 A 
ATOM     50  N   UNL     1      -4.926   6.564   7.494  1.00  0.00    -0.248 NA
ATOM     51  C   UNL     1      -4.129   5.750   5.453  1.00  0.00     0.031 C 
ATOM     52  C   UNL     1      -0.939   8.515   8.169  1.00  0.00     0.029 A 
ATOM     53  N   UNL     1      -2.946   8.110   9.070  1.00  0.00    -0.354 N 
ATOM     54  C   UNL     1      -5.915   5.811   6.876  1.00  0.00     0.074 A 
ATOM     55  C   UNL     1      -5.382   5.351   5.614  1.00  0.00     0.031 C 
ATOM     56  C   UNL     1      -0.970   9.112   9.373  1.00  0.00     0.029 A 
ATOM     57  C   UNL     1      -2.294   8.927   9.961  1.00  0.00     0.049 A 
ATOM     58  H   UNL     1      -3.842   7.735   9.236  1.00  0.00     0.167 HD
ATOM     59  C   UNL     1      -7.161   5.540   7.325  1.00  0.00     0.031 A 
ATOM     60  C   UNL     1      -2.739   9.500  11.096  1.00  0.00     0.031 A 
ATOM     61  C   UNL     1      -7.678   6.010   8.580  1.00  0.00     0.049 A 
ATOM     62  C   UNL     1      -4.159   9.242  11.530  1.00  0.00     0.074 A 
ATOM     63  C   UNL     1      -8.913   5.758   9.149  1.00  0.00     0.029 A 
ATOM     64  N   UNL     1      -6.993   6.843   9.450  1.00  0.00    -0.354 N 
ATOM     65  N   UNL     1      -5.072   8.487  10.967  1.00  0.00    -0.248 NA
ATOM     66  C   UNL     1      -4.612   9.921  12.753  1.00  0.00     0.031 C 
ATOM     67  C   UNL     1      -9.000   6.493  10.335  1.00  0.00     0.029 A 
ATOM     68  C   UNL     1      -7.796   7.152  10.532  1.00  0.00     0.049 A 
ATOM     69  H   UNL     1      -6.072   7.166   9.318  1.00  0.00     0.167 HD
ATOM     70  C   UNL     1      -6.197   8.584  11.776  1.00  0.00     0.074 A 
ATOM     71  C   UNL     1      -5.845   9.451  12.881  1.00  0.00     0.031 C 
ATOM     72  C   UNL     1      -7.417   8.015  11.620  1.00  0.00     0.031 A 
BRANCH  59  73
ATOM     73  C   UNL     1      -8.068   4.740   6.438  1.00  0.00    -0.014 A 
ATOM     74  C   UNL     1      -7.886   3.361   6.255  1.00  0.00     0.009 A 
ATOM     75  C   UNL     1      -9.162   5.371   5.825  1.00  0.00     0.009 A 
ATOM     76  C   UNL     1      -8.777   2.632   5.463  1.00  0.00     0.001 A 
ATOM     77  C   UNL     1     -10.064   4.636   5.055  1.00  0.00     0.001 A 
ATOM     78  C   UNL     1      -9.868   3.268   4.871  1.00  0.00     0.000 A 
ENDBRANCH  59  73
BRANCH  60  79
ATOM     79  C   UNL     1      -1.870  10.428  11.868  1.00  0.00    -0.014 A 
ATOM     80  C   UNL     1      -1.440  10.103  13.163  1.00  0.00     0.009 A 
ATOM     81  C   UNL     1      -1.507  11.674  11.330  1.00  0.00     0.009 A 
ATOM     82  C   UNL     1      -0.700  11.018  13.916  1.00  0.00     0.001 A 
ATOM     83  C   UNL     1      -0.738  12.574  12.071  1.00  0.00     0.001 A 
ATOM     84  C   UNL     1      -0.347  12.251  13.369  1.00  0.00     0.000 A 
ENDBRANCH  60  79
BRANCH  72  85
ATOM     85  C   UNL     1      -8.447   8.290  12.678  1.00  0.00    -0.014 A 
ATOM     86  C   UNL     1      -9.073   9.542  12.772  1.00  0.00     0.009 A 
ATOM     87  C   UNL     1      -8.839   7.262  13.549  1.00  0.00     0.009 A 
ATOM     88  C   UNL     1     -10.055   9.766  13.737  1.00  0.00     0.001 A 
ATOM     89  C   UNL     1      -9.843   7.480  14.492  1.00  0.00     0.001 A 
ATOM     90  C   UNL     1     -10.444   8.734  14.591  1.00  0.00     0.000 A 
ENDBRANCH  72  85
ENDBRANCH  46  47
ENDBRANCH  39  41
ENDBRANCH  38  39
ENDBRANCH  37  38
ENDBRANCH  36  37
ENDBRANCH  35  36
ENDBRANCH  34  35
ENDBRANCH   1  34
TORSDOF 19
