REMARK SMILES O=C(OCCOCCOC(=O)c1ccccc1Nc1nc(Cl)nc(Nc2ccc(N3CCOCC3=O)cc2)n1)c1ccc(-c2c3nc(c(-c4ccccc4)c4ccc([nH]4)c(-c4ccccc4)c4nc(c(-c5ccccc5)c5ccc2[nH]5)C=C4)C=C3)cc1
REMARK SMILES IDX 7 1 6 2 5 3 4 4 3 5 2 6 1 7 40 8 41 9 87 10 42 11 86 12
REMARK SMILES IDX 43 13 44 14 45 15 80 16 46 17 85 18 79 19 81 20 47 21 84 22
REMARK SMILES IDX 78 23 77 24 48 26 70 27 55 28 69 29 56 30 59 31 68 32 82 33
REMARK SMILES IDX 57 34 58 35 67 37 83 38 60 39 49 40 50 41 54 42 51 43 53 44
REMARK SMILES IDX 52 45 71 46 72 47 76 48 73 49 75 50 74 51 61 52 62 53 66 54
REMARK SMILES IDX 63 55 65 56 64 57 8 58 9 59 10 60 11 61 12 62 13 63 17 64
REMARK SMILES IDX 14 65 16 66 15 67 18 68 19 70 20 71 39 72 21 73 24 74 22 75
REMARK SMILES IDX 23 76 25 77 26 79 27 80 38 81 28 82 37 83 29 84 30 85 31 86
REMARK SMILES IDX 35 87 32 88 34 89 36 90 33 91
REMARK H PARENT 81 25 59 36 18 69 25 78
REMARK Flexibility Score: inf
ROOT
ATOM      1  C   UNL     1       2.828  -0.842  -2.093  1.00  0.00     0.202 C 
ENDROOT
BRANCH   1   2
ATOM      2  O   UNL     1       4.117  -0.855  -1.471  1.00  0.00    -0.374 OA
BRANCH   2   3
ATOM      3  C   UNL     1       4.274  -1.724  -0.351  1.00  0.00     0.202 C 
BRANCH   3   4
ATOM      4  C   UNL     1       3.947  -1.064   0.988  1.00  0.00     0.261 C 
BRANCH   4   5
ATOM      5  O   UNL     1       2.571  -0.650   1.010  1.00  0.00    -0.460 OA
BRANCH   5   6
ATOM      6  C   UNL     1       2.062   0.596   0.890  1.00  0.00     0.338 C 
ATOM      7  O   UNL     1       0.847   0.749   1.006  1.00  0.00    -0.246 OA
BRANCH   6   8
ATOM      8  C   UNL     1       2.887   1.812   0.619  1.00  0.00     0.060 A 
ATOM      9  C   UNL     1       4.100   1.819  -0.070  1.00  0.00     0.016 A 
ATOM     10  C   UNL     1       2.340   3.051   0.995  1.00  0.00     0.016 A 
ATOM     11  C   UNL     1       4.775   2.996  -0.349  1.00  0.00     0.010 A 
ATOM     12  C   UNL     1       2.996   4.248   0.694  1.00  0.00     0.010 A 
ATOM     13  C   UNL     1       4.223   4.215   0.025  1.00  0.00    -0.014 A 
BRANCH  13  14
ATOM     14  C   UNL     1       5.025   5.422  -0.218  1.00  0.00     0.031 A 
ATOM     15  C   UNL     1       5.789   6.005   0.928  1.00  0.00     0.074 A 
ATOM     16  C   UNL     1       5.176   5.871  -1.476  1.00  0.00     0.049 A 
ATOM     17  N   UNL     1       6.557   7.059   0.957  1.00  0.00    -0.248 NA
ATOM     18  C   UNL     1       5.689   5.289   2.212  1.00  0.00     0.031 C 
ATOM     19  C   UNL     1       4.578   5.260  -2.667  1.00  0.00     0.029 A 
ATOM     20  N   UNL     1       5.910   6.915  -1.968  1.00  0.00    -0.354 N 
ATOM     21  C   UNL     1       7.010   7.149   2.265  1.00  0.00     0.074 A 
ATOM     22  C   UNL     1       6.435   6.046   3.001  1.00  0.00     0.031 C 
ATOM     23  C   UNL     1       4.993   5.928  -3.756  1.00  0.00     0.029 A 
ATOM     24  C   UNL     1       5.824   7.048  -3.333  1.00  0.00     0.049 A 
ATOM     25  H   UNL     1       6.447   7.513  -1.400  1.00  0.00     0.167 HD
ATOM     26  C   UNL     1       7.825   8.086   2.801  1.00  0.00     0.031 A 
ATOM     27  C   UNL     1       6.338   7.997  -4.136  1.00  0.00     0.031 A 
ATOM     28  C   UNL     1       8.360   9.184   2.045  1.00  0.00     0.049 A 
ATOM     29  C   UNL     1       7.144   9.094  -3.495  1.00  0.00     0.074 A 
ATOM     30  C   UNL     1       9.127  10.246   2.480  1.00  0.00     0.029 A 
ATOM     31  N   UNL     1       8.172   9.351   0.678  1.00  0.00    -0.354 N 
ATOM     32  N   UNL     1       7.506   9.224  -2.239  1.00  0.00    -0.248 NA
ATOM     33  C   UNL     1       7.596  10.180  -4.371  1.00  0.00     0.031 C 
ATOM     34  C   UNL     1       9.362  11.084   1.383  1.00  0.00     0.029 A 
ATOM     35  C   UNL     1       8.791  10.512   0.255  1.00  0.00     0.049 A 
ATOM     36  H   UNL     1       7.672   8.734   0.097  1.00  0.00     0.167 HD
ATOM     37  C   UNL     1       8.238  10.400  -2.175  1.00  0.00     0.074 A 
ATOM     38  C   UNL     1       8.289  10.930  -3.525  1.00  0.00     0.031 C 
ATOM     39  C   UNL     1       8.813  10.998  -1.102  1.00  0.00     0.031 A 
BRANCH  26  40
ATOM     40  C   UNL     1       8.083   7.995   4.277  1.00  0.00    -0.014 A 
ATOM     41  C   UNL     1       8.903   6.994   4.823  1.00  0.00     0.009 A 
ATOM     42  C   UNL     1       7.446   8.898   5.142  1.00  0.00     0.009 A 
ATOM     43  C   UNL     1       9.043   6.874   6.209  1.00  0.00     0.001 A 
ATOM     44  C   UNL     1       7.609   8.792   6.524  1.00  0.00     0.001 A 
ATOM     45  C   UNL     1       8.396   7.773   7.057  1.00  0.00     0.000 A 
ENDBRANCH  26  40
BRANCH  27  46
ATOM     46  C   UNL     1       6.050   7.992  -5.596  1.00  0.00    -0.014 A 
ATOM     47  C   UNL     1       7.074   7.818  -6.537  1.00  0.00     0.009 A 
ATOM     48  C   UNL     1       4.735   8.176  -6.059  1.00  0.00     0.009 A 
ATOM     49  C   UNL     1       6.793   7.852  -7.907  1.00  0.00     0.001 A 
ATOM     50  C   UNL     1       4.451   8.178  -7.426  1.00  0.00     0.001 A 
ATOM     51  C   UNL     1       5.482   8.026  -8.350  1.00  0.00     0.000 A 
ENDBRANCH  27  46
BRANCH  39  52
ATOM     52  C   UNL     1       9.565  12.269  -1.362  1.00  0.00    -0.014 A 
ATOM     53  C   UNL     1       8.889  13.470  -1.627  1.00  0.00     0.009 A 
ATOM     54  C   UNL     1      10.966  12.270  -1.290  1.00  0.00     0.009 A 
ATOM     55  C   UNL     1       9.609  14.645  -1.843  1.00  0.00     0.001 A 
ATOM     56  C   UNL     1      11.680  13.452  -1.477  1.00  0.00     0.001 A 
ATOM     57  C   UNL     1      11.002  14.636  -1.762  1.00  0.00     0.000 A 
ENDBRANCH  39  52
ENDBRANCH  13  14
ENDBRANCH   6   8
ENDBRANCH   5   6
ENDBRANCH   4   5
ENDBRANCH   3   4
ENDBRANCH   2   3
ENDBRANCH   1   2
BRANCH   1  58
ATOM     58  C   UNL     1       3.032  -0.868  -3.611  1.00  0.00     0.261 C 
BRANCH  58  59
ATOM     59  O   UNL     1       3.639  -2.124  -3.958  1.00  0.00    -0.460 OA
BRANCH  59  60
ATOM     60  C   UNL     1       4.981  -2.205  -3.748  1.00  0.00     0.340 C 
ATOM     61  O   UNL     1       5.777  -1.288  -3.864  1.00  0.00    -0.246 OA
BRANCH  60  62
ATOM     62  C   UNL     1       5.322  -3.553  -3.192  1.00  0.00     0.083 A 
ATOM     63  C   UNL     1       6.525  -3.640  -2.471  1.00  0.00     0.018 A 
ATOM     64  C   UNL     1       4.491  -4.690  -3.329  1.00  0.00     0.055 A 
ATOM     65  C   UNL     1       6.907  -4.840  -1.875  1.00  0.00     0.001 A 
ATOM     66  C   UNL     1       4.899  -5.886  -2.720  1.00  0.00     0.027 A 
ATOM     67  C   UNL     1       6.096  -5.962  -2.003  1.00  0.00     0.002 A 
BRANCH  64  68
ATOM     68  N   UNL     1       3.296  -4.612  -4.062  1.00  0.00    -0.323 N 
ATOM     69  H   UNL     1       2.939  -3.700  -4.165  1.00  0.00     0.170 HD
BRANCH  68  70
ATOM     70  C   UNL     1       2.535  -5.596  -4.664  1.00  0.00     0.233 A 
ATOM     71  N   UNL     1       2.044  -6.607  -3.973  1.00  0.00    -0.182 NA
ATOM     72  N   UNL     1       2.367  -5.414  -5.968  1.00  0.00    -0.176 NA
ATOM     73  C   UNL     1       1.316  -7.428  -4.708  1.00  0.00     0.228 A 
ATOM     74  C   UNL     1       1.705  -6.356  -6.614  1.00  0.00     0.233 A 
ATOM     75  Cl  UNL     1       0.602  -8.745  -3.888  1.00  0.00    -0.041 Cl
ATOM     76  N   UNL     1       1.113  -7.376  -6.012  1.00  0.00    -0.182 NA
BRANCH  74  77
ATOM     77  N   UNL     1       1.773  -6.289  -8.004  1.00  0.00    -0.324 N 
ATOM     78  H   UNL     1       2.210  -5.499  -8.397  1.00  0.00     0.170 HD
BRANCH  77  79
ATOM     79  C   UNL     1       1.273  -7.247  -8.885  1.00  0.00     0.041 A 
ATOM     80  C   UNL     1       2.144  -8.001  -9.674  1.00  0.00     0.028 A 
ATOM     81  C   UNL     1      -0.079  -7.591  -8.845  1.00  0.00     0.028 A 
ATOM     82  C   UNL     1       1.676  -9.130 -10.354  1.00  0.00     0.028 A 
ATOM     83  C   UNL     1      -0.555  -8.684  -9.558  1.00  0.00     0.028 A 
ATOM     84  C   UNL     1       0.324  -9.489 -10.287  1.00  0.00     0.044 A 
BRANCH  84  85
ATOM     85  N   UNL     1      -0.139 -10.711 -10.853  1.00  0.00    -0.308 N 
ATOM     86  C   UNL     1       0.590 -11.925 -10.465  1.00  0.00     0.154 C 
ATOM     87  C   UNL     1      -1.420 -10.797 -11.411  1.00  0.00     0.253 C 
ATOM     88  C   UNL     1       0.165 -13.157 -11.251  1.00  0.00     0.183 C 
ATOM     89  C   UNL     1      -1.896 -12.212 -11.769  1.00  0.00     0.260 C 
ATOM     90  O   UNL     1      -2.125  -9.827 -11.700  1.00  0.00    -0.272 OA
ATOM     91  O   UNL     1      -1.247 -13.313 -11.154  1.00  0.00    -0.370 OA
ENDBRANCH  84  85
ENDBRANCH  77  79
ENDBRANCH  74  77
ENDBRANCH  68  70
ENDBRANCH  64  68
ENDBRANCH  60  62
ENDBRANCH  59  60
ENDBRANCH  58  59
ENDBRANCH   1  58
TORSDOF 19
