REMARK SMILES CCSC(=S)N1[C@@H](C(=O)OCCOCCOC(=O)c2ccc(-c3c4nc(c(-c5ccccc5)c5ccc([nH]5)c(-c5ccccc5)c5nc(c(-c6ccccc6)c6ccc3[nH]6)C=C5)C=C4)cc2)CS[C@@H]1c1ccc(C)cc1
REMARK SMILES IDX 12 1 11 2 10 3 8 4 9 5 7 6 6 7 69 8 67 9 68 10 4 11 5 12
REMARK SMILES IDX 3 13 2 14 1 15 70 16 71 17 76 18 72 19 75 20 73 21 74 22
REMARK SMILES IDX 13 23 14 24 15 25 16 26 17 27 18 28 19 29 20 30 66 31 21 32
REMARK SMILES IDX 65 33 22 34 23 35 24 36 59 37 25 38 64 39 58 40 60 41 26 42
REMARK SMILES IDX 63 43 57 44 56 45 27 47 49 48 34 49 48 50 35 51 38 52 47 53
REMARK SMILES IDX 61 54 36 55 37 56 46 58 62 59 39 60 28 61 29 62 33 63 30 64
REMARK SMILES IDX 32 65 31 66 50 67 51 68 55 69 52 70 54 71 53 72 40 73 41 74
REMARK SMILES IDX 45 75 42 76 44 77 43 78
REMARK H PARENT 60 46 38 57
REMARK Flexibility Score: inf
ROOT
ATOM      1  C   UNL     1       3.402  -2.672  -3.472  1.00  0.00     0.202 C 
ENDROOT
BRANCH   1   2
ATOM      2  C   UNL     1       4.770  -2.036  -3.768  1.00  0.00     0.261 C 
BRANCH   2   3
ATOM      3  O   UNL     1       4.946  -0.671  -3.329  1.00  0.00    -0.462 OA
BRANCH   3   4
ATOM      4  C   UNL     1       4.416   0.301  -4.138  1.00  0.00     0.329 C 
ATOM      5  O   UNL     1       3.775   0.081  -5.156  1.00  0.00    -0.250 OA
BRANCH   4   6
ATOM      6  C   UNL     1       4.780   1.716  -3.620  1.00  0.00     0.205 C 
ATOM      7  N   UNL     1       3.647   2.629  -3.186  1.00  0.00    -0.327 N 
ATOM      8  C   UNL     1       3.503   3.805  -4.061  1.00  0.00     0.173 C 
ATOM      9  C   UNL     1       5.499   2.342  -4.832  1.00  0.00     0.109 C 
ATOM     10  S   UNL     1       4.206   3.290  -5.662  1.00  0.00    -0.129 SA
BRANCH   7  11
ATOM     11  C   UNL     1       3.013   2.643  -1.925  1.00  0.00     0.138 C 
ATOM     12  S   UNL     1       3.818   2.366  -0.472  1.00  0.00    -0.053 S 
BRANCH  11  13
ATOM     13  S   UNL     1       1.260   2.924  -2.052  1.00  0.00    -0.097 SA
BRANCH  13  14
ATOM     14  C   UNL     1       0.516   2.850  -0.384  1.00  0.00     0.074 C 
ATOM     15  C   UNL     1       0.215   1.465   0.179  1.00  0.00     0.016 C 
ENDBRANCH  13  14
ENDBRANCH  11  13
ENDBRANCH   7  11
BRANCH   8  16
ATOM     16  C   UNL     1       4.312   5.017  -3.577  1.00  0.00    -0.015 A 
ATOM     17  C   UNL     1       4.127   6.263  -4.197  1.00  0.00     0.007 A 
ATOM     18  C   UNL     1       5.350   4.911  -2.633  1.00  0.00     0.007 A 
ATOM     19  C   UNL     1       4.970   7.341  -3.905  1.00  0.00     0.004 A 
ATOM     20  C   UNL     1       6.177   5.988  -2.325  1.00  0.00     0.004 A 
ATOM     21  C   UNL     1       6.000   7.210  -2.967  1.00  0.00    -0.051 A 
ATOM     22  C   UNL     1       6.946   8.340  -2.701  1.00  0.00     0.044 C 
ENDBRANCH   8  16
ENDBRANCH   4   6
ENDBRANCH   3   4
ENDBRANCH   2   3
ENDBRANCH   1   2
BRANCH   1  23
ATOM     23  O   UNL     1       2.319  -1.888  -3.934  1.00  0.00    -0.374 OA
BRANCH  23  24
ATOM     24  C   UNL     1       1.593  -1.101  -2.996  1.00  0.00     0.202 C 
BRANCH  24  25
ATOM     25  C   UNL     1       2.336  -0.503  -1.814  1.00  0.00     0.261 C 
BRANCH  25  26
ATOM     26  O   UNL     1       2.917  -1.403  -0.892  1.00  0.00    -0.460 OA
BRANCH  26  27
ATOM     27  C   UNL     1       2.057  -1.953  -0.021  1.00  0.00     0.338 C 
ATOM     28  O   UNL     1       0.845  -1.860   0.027  1.00  0.00    -0.246 OA
BRANCH  27  29
ATOM     29  C   UNL     1       2.898  -2.770   0.837  1.00  0.00     0.060 A 
ATOM     30  C   UNL     1       2.865  -4.150   0.656  1.00  0.00     0.016 A 
ATOM     31  C   UNL     1       3.764  -2.149   1.745  1.00  0.00     0.016 A 
ATOM     32  C   UNL     1       3.682  -4.937   1.446  1.00  0.00     0.010 A 
ATOM     33  C   UNL     1       4.594  -2.940   2.523  1.00  0.00     0.010 A 
ATOM     34  C   UNL     1       4.524  -4.335   2.395  1.00  0.00    -0.014 A 
BRANCH  34  35
ATOM     35  C   UNL     1       5.244  -5.205   3.334  1.00  0.00     0.031 A 
ATOM     36  C   UNL     1       4.669  -5.409   4.700  1.00  0.00     0.074 A 
ATOM     37  C   UNL     1       6.338  -5.857   2.908  1.00  0.00     0.049 A 
ATOM     38  N   UNL     1       5.053  -6.230   5.639  1.00  0.00    -0.248 NA
ATOM     39  C   UNL     1       3.501  -4.584   5.055  1.00  0.00     0.031 C 
ATOM     40  C   UNL     1       6.938  -5.717   1.580  1.00  0.00     0.029 A 
ATOM     41  N   UNL     1       7.116  -6.788   3.536  1.00  0.00    -0.354 N 
ATOM     42  C   UNL     1       4.171  -6.026   6.692  1.00  0.00     0.074 A 
ATOM     43  C   UNL     1       3.260  -4.977   6.296  1.00  0.00     0.031 C 
ATOM     44  C   UNL     1       7.976  -6.563   1.481  1.00  0.00     0.029 A 
ATOM     45  C   UNL     1       8.125  -7.276   2.745  1.00  0.00     0.049 A 
ATOM     46  H   UNL     1       6.967  -7.080   4.464  1.00  0.00     0.167 HD
ATOM     47  C   UNL     1       4.125  -6.672   7.879  1.00  0.00     0.031 A 
ATOM     48  C   UNL     1       9.059  -8.203   3.022  1.00  0.00     0.031 A 
ATOM     49  C   UNL     1       5.063  -7.694   8.254  1.00  0.00     0.049 A 
ATOM     50  C   UNL     1       9.019  -8.866   4.370  1.00  0.00     0.074 A 
ATOM     51  C   UNL     1       5.127  -8.424   9.425  1.00  0.00     0.029 A 
ATOM     52  N   UNL     1       6.114  -8.122   7.452  1.00  0.00    -0.354 N 
ATOM     53  N   UNL     1       8.159  -8.695   5.347  1.00  0.00    -0.248 NA
ATOM     54  C   UNL     1      10.068  -9.852   4.651  1.00  0.00     0.031 C 
ATOM     55  C   UNL     1       6.251  -9.254   9.355  1.00  0.00     0.029 A 
ATOM     56  C   UNL     1       6.852  -9.085   8.115  1.00  0.00     0.049 A 
ATOM     57  H   UNL     1       6.305  -7.788   6.546  1.00  0.00     0.167 HD
ATOM     58  C   UNL     1       8.554  -9.562   6.356  1.00  0.00     0.074 A 
ATOM     59  C   UNL     1       9.716 -10.273   5.858  1.00  0.00     0.031 C 
ATOM     60  C   UNL     1       8.013  -9.755   7.585  1.00  0.00     0.031 A 
BRANCH  47  61
ATOM     61  C   UNL     1       3.060  -6.251   8.852  1.00  0.00    -0.014 A 
ATOM     62  C   UNL     1       1.703  -6.531   8.620  1.00  0.00     0.009 A 
ATOM     63  C   UNL     1       3.418  -5.555  10.016  1.00  0.00     0.009 A 
ATOM     64  C   UNL     1       0.726  -6.089   9.515  1.00  0.00     0.001 A 
ATOM     65  C   UNL     1       2.441  -5.138  10.923  1.00  0.00     0.001 A 
ATOM     66  C   UNL     1       1.096  -5.396  10.667  1.00  0.00     0.000 A 
ENDBRANCH  47  61
BRANCH  48  67
ATOM     67  C   UNL     1      10.090  -8.544   2.009  1.00  0.00    -0.014 A 
ATOM     68  C   UNL     1      10.099  -9.798   1.381  1.00  0.00     0.009 A 
ATOM     69  C   UNL     1      11.062  -7.598   1.645  1.00  0.00     0.009 A 
ATOM     70  C   UNL     1      11.072 -10.103   0.424  1.00  0.00     0.001 A 
ATOM     71  C   UNL     1      12.015  -7.895   0.668  1.00  0.00     0.001 A 
ATOM     72  C   UNL     1      12.024  -9.150   0.064  1.00  0.00     0.000 A 
ENDBRANCH  48  67
BRANCH  60  73
ATOM     73  C   UNL     1       8.676 -10.781   8.457  1.00  0.00    -0.014 A 
ATOM     74  C   UNL     1       9.920 -10.528   9.054  1.00  0.00     0.009 A 
ATOM     75  C   UNL     1       8.026 -11.997   8.714  1.00  0.00     0.009 A 
ATOM     76  C   UNL     1      10.519 -11.493   9.865  1.00  0.00     0.001 A 
ATOM     77  C   UNL     1       8.612 -12.946   9.551  1.00  0.00     0.001 A 
ATOM     78  C   UNL     1       9.862 -12.697  10.116  1.00  0.00     0.000 A 
ENDBRANCH  60  73
ENDBRANCH  34  35
ENDBRANCH  27  29
ENDBRANCH  26  27
ENDBRANCH  25  26
ENDBRANCH  24  25
ENDBRANCH  23  24
ENDBRANCH   1  23
TORSDOF 18
