REMARK SMILES Cc1cc2nc(SCC(=O)OCCOCCOC(=O)c3ccc(-c4c5nc(c(-c6ccccc6)c6ccc([nH]6)c(-c6ccccc6)c6nc(c(-c7ccccc7)c7ccc4[nH]7)C=C6)C=C5)cc3)n(CC(C)C)c(=O)c2[nH]1
REMARK SMILES IDX 13 1 12 2 11 3 9 4 10 5 8 6 7 7 6 8 1 9 2 10 3 11 76 12 4 13
REMARK SMILES IDX 75 14 5 16 73 17 68 18 74 19 69 20 70 21 71 22 72 23 14 24
REMARK SMILES IDX 15 25 16 26 17 27 18 28 19 29 20 30 21 31 67 32 22 33 66 34
REMARK SMILES IDX 23 35 24 36 25 37 60 38 26 39 65 40 59 41 61 42 27 43 64 44
REMARK SMILES IDX 58 45 57 46 28 48 50 49 35 50 49 51 36 52 39 53 48 54 62 55
REMARK SMILES IDX 37 56 38 57 47 59 63 60 40 61 29 62 30 63 34 64 31 65 33 66
REMARK SMILES IDX 32 67 51 68 52 69 56 70 53 71 55 72 54 73 41 74 42 75 46 76
REMARK SMILES IDX 43 77 45 78 44 79
REMARK H PARENT 76 15 61 47 39 58
REMARK Flexibility Score: inf
ROOT
ATOM      1  C   UNL     1       3.518  -8.905  -3.463  1.00  0.00     0.202 C 
ENDROOT
BRANCH   1   2
ATOM      2  C   UNL     1       2.421  -9.860  -3.964  1.00  0.00     0.261 C 
BRANCH   2   3
ATOM      3  O   UNL     1       1.082  -9.293  -3.876  1.00  0.00    -0.463 OA
BRANCH   3   4
ATOM      4  C   UNL     1       0.300  -9.741  -2.849  1.00  0.00     0.316 C 
ATOM      5  O   UNL     1       0.601 -10.687  -2.128  1.00  0.00    -0.251 OA
BRANCH   4   6
ATOM      6  C   UNL     1      -1.036  -9.030  -2.690  1.00  0.00     0.200 C 
BRANCH   6   7
ATOM      7  S   UNL     1      -1.105  -7.271  -2.907  1.00  0.00    -0.076 SA
BRANCH   7   8
ATOM      8  C   UNL     1      -0.868  -6.155  -1.560  1.00  0.00     0.172 A 
ATOM      9  C   UNL     1       0.565  -0.561  -0.233  1.00  0.00     0.064 C 
ATOM     10  C   UNL     1       0.030  -1.933  -0.438  1.00  0.00     0.014 A 
ATOM     11  C   UNL     1      -0.479  -2.548  -1.574  1.00  0.00     0.052 A 
ATOM     12  N   UNL     1       0.020  -2.870   0.580  1.00  0.00    -0.353 N 
ATOM     13  C   UNL     1      -0.685  -3.893  -1.233  1.00  0.00     0.097 A 
ATOM     14  C   UNL     1      -0.410  -4.070   0.079  1.00  0.00     0.131 A 
ATOM     15  H   UNL     1       0.281  -2.702   1.514  1.00  0.00     0.166 HD
ATOM     16  N   UNL     1      -1.006  -4.952  -2.061  1.00  0.00    -0.222 NA
ATOM     17  C   UNL     1      -0.494  -5.340   0.708  1.00  0.00     0.278 A 
ATOM     18  N   UNL     1      -0.533  -6.421  -0.207  1.00  0.00    -0.286 N 
ATOM     19  O   UNL     1      -0.512  -5.454   1.929  1.00  0.00    -0.267 OA
BRANCH  18  20
ATOM     20  C   UNL     1      -0.254  -7.718   0.445  1.00  0.00     0.131 C 
BRANCH  20  21
ATOM     21  C   UNL     1       1.228  -7.955   0.900  1.00  0.00     0.003 C 
ATOM     22  C   UNL     1       1.733  -7.209   2.135  1.00  0.00     0.009 C 
ATOM     23  C   UNL     1       1.528  -9.446   1.043  1.00  0.00     0.009 C 
ENDBRANCH  20  21
ENDBRANCH  18  20
ENDBRANCH   7   8
ENDBRANCH   6   7
ENDBRANCH   4   6
ENDBRANCH   3   4
ENDBRANCH   2   3
ENDBRANCH   1   2
BRANCH   1  24
ATOM     24  O   UNL     1       3.241  -8.351  -2.181  1.00  0.00    -0.374 OA
BRANCH  24  25
ATOM     25  C   UNL     1       2.212  -7.375  -2.241  1.00  0.00     0.202 C 
BRANCH  25  26
ATOM     26  C   UNL     1       2.598  -6.106  -1.513  1.00  0.00     0.261 C 
BRANCH  26  27
ATOM     27  O   UNL     1       3.011  -5.184  -2.480  1.00  0.00    -0.460 OA
BRANCH  27  28
ATOM     28  C   UNL     1       4.205  -5.422  -3.055  1.00  0.00     0.338 C 
ATOM     29  O   UNL     1       5.105  -6.146  -2.702  1.00  0.00    -0.246 OA
BRANCH  28  30
ATOM     30  C   UNL     1       4.217  -4.389  -4.080  1.00  0.00     0.060 A 
ATOM     31  C   UNL     1       5.341  -3.582  -4.046  1.00  0.00     0.016 A 
ATOM     32  C   UNL     1       2.982  -3.998  -4.647  1.00  0.00     0.016 A 
ATOM     33  C   UNL     1       5.161  -2.271  -4.396  1.00  0.00     0.010 A 
ATOM     34  C   UNL     1       2.794  -2.676  -4.946  1.00  0.00     0.010 A 
ATOM     35  C   UNL     1       3.877  -1.827  -4.773  1.00  0.00    -0.014 A 
BRANCH  35  36
ATOM     36  C   UNL     1       3.814  -0.511  -5.346  1.00  0.00     0.031 A 
ATOM     37  C   UNL     1       4.397  -0.546  -6.700  1.00  0.00     0.074 A 
ATOM     38  C   UNL     1       3.370   0.593  -4.739  1.00  0.00     0.049 A 
ATOM     39  N   UNL     1       5.632  -0.304  -6.978  1.00  0.00    -0.248 NA
ATOM     40  C   UNL     1       3.637  -1.195  -7.778  1.00  0.00     0.031 C 
ATOM     41  C   UNL     1       2.565   0.758  -3.535  1.00  0.00     0.029 A 
ATOM     42  N   UNL     1       3.563   1.862  -5.168  1.00  0.00    -0.354 N 
ATOM     43  C   UNL     1       5.765  -0.586  -8.323  1.00  0.00     0.074 A 
ATOM     44  C   UNL     1       4.585  -1.319  -8.707  1.00  0.00     0.031 C 
ATOM     45  C   UNL     1       2.171   2.055  -3.446  1.00  0.00     0.029 A 
ATOM     46  C   UNL     1       2.835   2.821  -4.491  1.00  0.00     0.049 A 
ATOM     47  H   UNL     1       4.175   2.084  -5.906  1.00  0.00     0.167 HD
ATOM     48  C   UNL     1       6.691   0.072  -9.066  1.00  0.00     0.031 A 
ATOM     49  C   UNL     1       2.783   4.131  -4.835  1.00  0.00     0.031 A 
ATOM     50  C   UNL     1       7.709   0.669  -8.235  1.00  0.00     0.049 A 
ATOM     51  C   UNL     1       4.018   4.418  -5.612  1.00  0.00     0.074 A 
ATOM     52  C   UNL     1       8.645   0.175  -7.346  1.00  0.00     0.029 A 
ATOM     53  N   UNL     1       7.548   1.999  -7.920  1.00  0.00    -0.354 N 
ATOM     54  N   UNL     1       5.212   4.397  -5.090  1.00  0.00    -0.248 NA
ATOM     55  C   UNL     1       3.971   4.294  -7.062  1.00  0.00     0.031 C 
ATOM     56  C   UNL     1       8.669   1.111  -6.270  1.00  0.00     0.029 A 
ATOM     57  C   UNL     1       7.796   2.156  -6.581  1.00  0.00     0.049 A 
ATOM     58  H   UNL     1       7.297   2.715  -8.548  1.00  0.00     0.167 HD
ATOM     59  C   UNL     1       6.020   3.837  -6.069  1.00  0.00     0.074 A 
ATOM     60  C   UNL     1       5.222   3.887  -7.293  1.00  0.00     0.031 C 
ATOM     61  C   UNL     1       7.144   3.138  -5.739  1.00  0.00     0.031 A 
BRANCH  48  62
ATOM     62  C   UNL     1       6.365   0.567 -10.447  1.00  0.00    -0.014 A 
ATOM     63  C   UNL     1       7.356   1.244 -11.172  1.00  0.00     0.009 A 
ATOM     64  C   UNL     1       5.048   0.643 -10.948  1.00  0.00     0.009 A 
ATOM     65  C   UNL     1       7.032   2.001 -12.303  1.00  0.00     0.001 A 
ATOM     66  C   UNL     1       4.727   1.362 -12.097  1.00  0.00     0.001 A 
ATOM     67  C   UNL     1       5.718   2.063 -12.761  1.00  0.00     0.000 A 
ENDBRANCH  48  62
BRANCH  49  68
ATOM     68  C   UNL     1       1.602   5.021  -4.892  1.00  0.00    -0.014 A 
ATOM     69  C   UNL     1       1.770   6.376  -5.231  1.00  0.00     0.009 A 
ATOM     70  C   UNL     1       0.299   4.495  -4.931  1.00  0.00     0.009 A 
ATOM     71  C   UNL     1       0.690   7.151  -5.668  1.00  0.00     0.001 A 
ATOM     72  C   UNL     1      -0.783   5.274  -5.357  1.00  0.00     0.001 A 
ATOM     73  C   UNL     1      -0.583   6.595  -5.749  1.00  0.00     0.000 A 
ENDBRANCH  49  68
BRANCH  61  74
ATOM     74  C   UNL     1       7.622   3.204  -4.309  1.00  0.00    -0.014 A 
ATOM     75  C   UNL     1       6.914   2.636  -3.235  1.00  0.00     0.009 A 
ATOM     76  C   UNL     1       8.917   3.688  -4.075  1.00  0.00     0.009 A 
ATOM     77  C   UNL     1       7.494   2.555  -1.963  1.00  0.00     0.001 A 
ATOM     78  C   UNL     1       9.501   3.592  -2.811  1.00  0.00     0.001 A 
ATOM     79  C   UNL     1       8.791   3.022  -1.756  1.00  0.00     0.000 A 
ENDBRANCH  61  74
ENDBRANCH  35  36
ENDBRANCH  28  30
ENDBRANCH  27  28
ENDBRANCH  26  27
ENDBRANCH  25  26
ENDBRANCH  24  25
ENDBRANCH   1  24
TORSDOF 18
