REMARK SMILES [NH3+][C@@H](CCCCC(=O)OCCOCCOC(=O)c1ccc(-c2c3nc(c(-c4ccccc4)c4ccc([nH]4)c(-c4ccccc4)c4nc(c(-c5ccccc5)c5ccc2[nH]5)C=C4)C=C3)cc1)c1ccc2[nH]c(=O)[nH]c2c1
REMARK SMILES IDX 10 1 9 2 7 3 8 4 6 5 5 6 4 7 3 8 2 9 1 10 66 14 67 15 75 16
REMARK SMILES IDX 68 17 74 18 69 19 73 20 70 21 71 22 72 25 11 26 12 27 13 28
REMARK SMILES IDX 14 29 15 30 16 31 17 32 18 33 19 34 65 35 20 36 64 37 21 38
REMARK SMILES IDX 22 39 23 40 58 41 24 42 63 43 57 44 59 45 25 46 62 47 56 48
REMARK SMILES IDX 55 49 26 51 48 52 33 53 47 54 34 55 37 56 46 57 60 58 35 59
REMARK SMILES IDX 36 60 45 62 61 63 38 64 27 65 28 66 32 67 29 68 31 69 30 70
REMARK SMILES IDX 49 71 50 72 54 73 51 74 53 75 52 76 39 77 40 78 44 79 41 80
REMARK SMILES IDX 43 81 42 82
REMARK H PARENT 1 11 1 12 1 13 73 23 70 24 59 50 37 61
REMARK Flexibility Score: inf
ROOT
ATOM      1  C   UNL     1       0.222  -5.732  -4.558  1.00  0.00     0.261 C 
ENDROOT
BRANCH   1   2
ATOM      2  O   UNL     1       0.117  -4.540  -3.764  1.00  0.00    -0.463 OA
BRANCH   2   3
ATOM      3  C   UNL     1      -0.979  -3.773  -3.975  1.00  0.00     0.305 C 
ATOM      4  O   UNL     1      -1.728  -3.862  -4.939  1.00  0.00    -0.252 OA
BRANCH   3   5
ATOM      5  C   UNL     1      -1.240  -2.827  -2.824  1.00  0.00     0.123 C 
BRANCH   5   6
ATOM      6  C   UNL     1      -0.424  -3.070  -1.548  1.00  0.00     0.012 C 
BRANCH   6   7
ATOM      7  C   UNL     1       0.872  -2.280  -1.355  1.00  0.00     0.007 C 
BRANCH   7   8
ATOM      8  C   UNL     1       0.984  -0.846  -1.893  1.00  0.00     0.070 C 
BRANCH   8   9
ATOM      9  C   UNL     1       0.435   0.344  -1.063  1.00  0.00     0.212 C 
BRANCH   9  10
ATOM     10  N   UNL     1       0.951   0.363   0.304  1.00  0.00    -0.351 N 
ATOM     11  H   UNL     1       1.962   0.223   0.288  1.00  0.00     0.345 HD
ATOM     12  H   UNL     1       0.513  -0.383   0.844  1.00  0.00     0.345 HD
ATOM     13  H   UNL     1       0.740   1.264   0.734  1.00  0.00     0.345 HD
ENDBRANCH   9  10
BRANCH   9  14
ATOM     14  C   UNL     1      -1.070   0.550  -1.086  1.00  0.00     0.011 A 
ATOM     15  C   UNL     1      -1.612   1.720  -1.693  1.00  0.00     0.012 A 
ATOM     16  C   UNL     1      -1.949  -0.368  -0.494  1.00  0.00     0.038 A 
ATOM     17  C   UNL     1      -2.995   1.949  -1.771  1.00  0.00     0.029 A 
ATOM     18  C   UNL     1      -3.299  -0.163  -0.646  1.00  0.00     0.067 A 
ATOM     19  C   UNL     1      -3.812   0.970  -1.263  1.00  0.00     0.066 A 
ATOM     20  N   UNL     1      -4.365  -0.968  -0.262  1.00  0.00    -0.306 N 
ATOM     21  N   UNL     1      -5.199   0.878  -1.240  1.00  0.00    -0.306 N 
ATOM     22  C   UNL     1      -5.557  -0.332  -0.631  1.00  0.00     0.323 A 
ATOM     23  H   UNL     1      -4.295  -1.838   0.194  1.00  0.00     0.171 HD
ATOM     24  H   UNL     1      -5.825   1.551  -1.593  1.00  0.00     0.171 HD
ATOM     25  O   UNL     1      -6.690  -0.757  -0.457  1.00  0.00    -0.248 OA
ENDBRANCH   9  14
ENDBRANCH   8   9
ENDBRANCH   7   8
ENDBRANCH   6   7
ENDBRANCH   5   6
ENDBRANCH   3   5
ENDBRANCH   2   3
ENDBRANCH   1   2
BRANCH   1  26
ATOM     26  C   UNL     1       0.137  -6.958  -3.645  1.00  0.00     0.202 C 
BRANCH  26  27
ATOM     27  O   UNL     1      -1.151  -7.285  -3.127  1.00  0.00    -0.374 OA
BRANCH  27  28
ATOM     28  C   UNL     1      -1.637  -6.547  -2.006  1.00  0.00     0.202 C 
BRANCH  28  29
ATOM     29  C   UNL     1      -0.992  -6.841  -0.641  1.00  0.00     0.261 C 
BRANCH  29  30
ATOM     30  O   UNL     1       0.396  -6.455  -0.579  1.00  0.00    -0.460 OA
BRANCH  30  31
ATOM     31  C   UNL     1       1.270  -7.482  -0.468  1.00  0.00     0.338 C 
ATOM     32  O   UNL     1       1.004  -8.668  -0.321  1.00  0.00    -0.246 OA
BRANCH  31  33
ATOM     33  C   UNL     1       2.643  -7.025  -0.748  1.00  0.00     0.060 A 
ATOM     34  C   UNL     1       3.316  -7.642  -1.810  1.00  0.00     0.016 A 
ATOM     35  C   UNL     1       3.302  -6.104   0.068  1.00  0.00     0.016 A 
ATOM     36  C   UNL     1       4.667  -7.388  -2.026  1.00  0.00     0.010 A 
ATOM     37  C   UNL     1       4.666  -5.857  -0.144  1.00  0.00     0.010 A 
ATOM     38  C   UNL     1       5.364  -6.532  -1.164  1.00  0.00    -0.014 A 
BRANCH  38  39
ATOM     39  C   UNL     1       6.846  -6.489  -1.238  1.00  0.00     0.031 A 
ATOM     40  C   UNL     1       7.652  -7.277  -0.239  1.00  0.00     0.074 A 
ATOM     41  C   UNL     1       7.472  -5.819  -2.223  1.00  0.00     0.049 A 
ATOM     42  N   UNL     1       8.951  -7.394  -0.127  1.00  0.00    -0.248 NA
ATOM     43  C   UNL     1       6.892  -8.037   0.766  1.00  0.00     0.031 C 
ATOM     44  C   UNL     1       6.810  -5.071  -3.291  1.00  0.00     0.029 A 
ATOM     45  N   UNL     1       8.811  -5.670  -2.486  1.00  0.00    -0.354 N 
ATOM     46  C   UNL     1       9.163  -8.228   0.964  1.00  0.00     0.074 A 
ATOM     47  C   UNL     1       7.862  -8.565   1.498  1.00  0.00     0.031 C 
ATOM     48  C   UNL     1       7.748  -4.545  -4.098  1.00  0.00     0.029 A 
ATOM     49  C   UNL     1       9.072  -4.887  -3.583  1.00  0.00     0.049 A 
ATOM     50  H   UNL     1       9.517  -6.085  -1.940  1.00  0.00     0.167 HD
ATOM     51  C   UNL     1      10.334  -8.678   1.475  1.00  0.00     0.031 A 
ATOM     52  C   UNL     1      10.246  -4.478  -4.104  1.00  0.00     0.031 A 
ATOM     53  C   UNL     1      11.631  -8.341   0.950  1.00  0.00     0.049 A 
ATOM     54  C   UNL     1      11.535  -4.920  -3.462  1.00  0.00     0.074 A 
ATOM     55  C   UNL     1      12.874  -8.764   1.389  1.00  0.00     0.029 A 
ATOM     56  N   UNL     1      11.853  -7.493  -0.123  1.00  0.00    -0.354 N 
ATOM     57  N   UNL     1      11.721  -5.724  -2.444  1.00  0.00    -0.248 NA
ATOM     58  C   UNL     1      12.778  -4.399  -4.051  1.00  0.00     0.031 C 
ATOM     59  C   UNL     1      13.850  -8.120   0.622  1.00  0.00     0.029 A 
ATOM     60  C   UNL     1      13.213  -7.351  -0.338  1.00  0.00     0.049 A 
ATOM     61  H   UNL     1      11.148  -7.057  -0.654  1.00  0.00     0.167 HD
ATOM     62  C   UNL     1      13.098  -5.830  -2.290  1.00  0.00     0.074 A 
ATOM     63  C   UNL     1      13.700  -5.020  -3.328  1.00  0.00     0.031 C 
ATOM     64  C   UNL     1      13.802  -6.540  -1.373  1.00  0.00     0.031 A 
BRANCH  51  65
ATOM     65  C   UNL     1      10.268  -9.553   2.698  1.00  0.00    -0.014 A 
ATOM     66  C   UNL     1       9.788 -10.870   2.635  1.00  0.00     0.009 A 
ATOM     67  C   UNL     1      10.732  -9.057   3.927  1.00  0.00     0.009 A 
ATOM     68  C   UNL     1       9.741 -11.660   3.787  1.00  0.00     0.001 A 
ATOM     69  C   UNL     1      10.712  -9.859   5.069  1.00  0.00     0.001 A 
ATOM     70  C   UNL     1      10.207 -11.156   5.000  1.00  0.00     0.000 A 
ENDBRANCH  51  65
BRANCH  52  71
ATOM     71  C   UNL     1      10.263  -3.579  -5.288  1.00  0.00    -0.014 A 
ATOM     72  C   UNL     1      10.752  -4.028  -6.524  1.00  0.00     0.009 A 
ATOM     73  C   UNL     1       9.814  -2.253  -5.179  1.00  0.00     0.009 A 
ATOM     74  C   UNL     1      10.813  -3.161  -7.618  1.00  0.00     0.001 A 
ATOM     75  C   UNL     1       9.847  -1.398  -6.282  1.00  0.00     0.001 A 
ATOM     76  C   UNL     1      10.355  -1.850  -7.498  1.00  0.00     0.000 A 
ENDBRANCH  52  71
BRANCH  64  77
ATOM     77  C   UNL     1      15.302  -6.505  -1.474  1.00  0.00    -0.014 A 
ATOM     78  C   UNL     1      16.034  -5.354  -1.145  1.00  0.00     0.009 A 
ATOM     79  C   UNL     1      15.997  -7.661  -1.865  1.00  0.00     0.009 A 
ATOM     80  C   UNL     1      17.427  -5.350  -1.241  1.00  0.00     0.001 A 
ATOM     81  C   UNL     1      17.391  -7.665  -1.929  1.00  0.00     0.001 A 
ATOM     82  C   UNL     1      18.105  -6.506  -1.627  1.00  0.00     0.000 A 
ENDBRANCH  64  77
ENDBRANCH  38  39
ENDBRANCH  31  33
ENDBRANCH  30  31
ENDBRANCH  29  30
ENDBRANCH  28  29
ENDBRANCH  27  28
ENDBRANCH  26  27
ENDBRANCH   1  26
TORSDOF 20
