REMARK SMILES O=C(OCCOCCOC(=O)[C@@H](Cc1c[nH]c2ccccc12)NC(=O)c1ccc(F)cc1F)c1ccc(-c2c3nc(c(-c4ccccc4)c4ccc([nH]4)c(-c4ccccc4)c4nc(c(-c5ccccc5)c5ccc2[nH]5)C=C4)C=C3)cc1
REMARK SMILES IDX 6 1 5 2 4 3 3 4 2 5 1 6 34 7 35 8 81 9 36 10 80 11 37 12
REMARK SMILES IDX 38 13 39 14 74 15 40 16 79 17 73 18 75 19 41 20 78 21 72 22
REMARK SMILES IDX 71 23 42 25 64 26 49 27 63 28 50 29 53 30 62 31 76 32 51 33
REMARK SMILES IDX 52 34 61 36 77 37 54 38 43 39 44 40 48 41 45 42 47 43 46 44
REMARK SMILES IDX 65 45 66 46 70 47 67 48 69 49 68 50 55 51 56 52 60 53 57 54
REMARK SMILES IDX 59 55 58 56 7 57 8 58 9 59 10 60 11 61 12 62 13 63 14 64
REMARK SMILES IDX 15 65 22 66 16 67 17 68 21 69 18 71 20 72 19 73 23 74 24 75
REMARK SMILES IDX 25 77 26 78 27 79 32 80 28 81 31 82 33 83 29 84 30 85
REMARK H PARENT 75 24 53 35 16 70 23 76
REMARK Flexibility Score: inf
ROOT
ATOM      1  O   UNL     1       3.965   1.487   0.728  1.00  0.00    -0.374 OA
ENDROOT
BRANCH   1   2
ATOM      2  C   UNL     1       4.376   1.146  -0.597  1.00  0.00     0.202 C 
BRANCH   2   3
ATOM      3  C   UNL     1       4.021  -0.263  -1.102  1.00  0.00     0.261 C 
BRANCH   3   4
ATOM      4  O   UNL     1       2.620  -0.555  -0.929  1.00  0.00    -0.460 OA
BRANCH   4   5
ATOM      5  C   UNL     1       2.037  -1.288   0.053  1.00  0.00     0.338 C 
ATOM      6  O   UNL     1       0.825  -1.486   0.013  1.00  0.00    -0.246 OA
BRANCH   5   7
ATOM      7  C   UNL     1       2.817  -1.878   1.177  1.00  0.00     0.060 A 
ATOM      8  C   UNL     1       4.003  -1.330   1.650  1.00  0.00     0.016 A 
ATOM      9  C   UNL     1       2.313  -3.010   1.836  1.00  0.00     0.016 A 
ATOM     10  C   UNL     1       4.738  -1.918   2.647  1.00  0.00     0.010 A 
ATOM     11  C   UNL     1       3.015  -3.582   2.908  1.00  0.00     0.010 A 
ATOM     12  C   UNL     1       4.243  -3.038   3.297  1.00  0.00    -0.014 A 
BRANCH  12  13
ATOM     13  C   UNL     1       5.151  -3.616   4.296  1.00  0.00     0.031 A 
ATOM     14  C   UNL     1       5.947  -4.820   3.909  1.00  0.00     0.074 A 
ATOM     15  C   UNL     1       5.455  -2.874   5.379  1.00  0.00     0.049 A 
ATOM     16  N   UNL     1       6.883  -5.434   4.576  1.00  0.00    -0.248 NA
ATOM     17  C   UNL     1       5.678  -5.390   2.575  1.00  0.00     0.031 C 
ATOM     18  C   UNL     1       4.846  -1.577   5.709  1.00  0.00     0.029 A 
ATOM     19  N   UNL     1       6.411  -3.044   6.340  1.00  0.00    -0.354 N 
ATOM     20  C   UNL     1       7.292  -6.480   3.762  1.00  0.00     0.074 A 
ATOM     21  C   UNL     1       6.514  -6.416   2.547  1.00  0.00     0.031 C 
ATOM     22  C   UNL     1       5.493  -1.042   6.755  1.00  0.00     0.029 A 
ATOM     23  C   UNL     1       6.490  -1.994   7.224  1.00  0.00     0.049 A 
ATOM     24  H   UNL     1       6.986  -3.841   6.395  1.00  0.00     0.167 HD
ATOM     25  C   UNL     1       8.228  -7.419   4.026  1.00  0.00     0.031 A 
ATOM     26  C   UNL     1       7.266  -1.843   8.312  1.00  0.00     0.031 A 
ATOM     27  C   UNL     1       8.968  -7.457   5.255  1.00  0.00     0.049 A 
ATOM     28  C   UNL     1       8.212  -2.962   8.641  1.00  0.00     0.074 A 
ATOM     29  C   UNL     1       9.835  -8.426   5.720  1.00  0.00     0.029 A 
ATOM     30  N   UNL     1       8.927  -6.454   6.216  1.00  0.00    -0.354 N 
ATOM     31  N   UNL     1       8.489  -4.037   7.940  1.00  0.00    -0.248 NA
ATOM     32  C   UNL     1       8.929  -2.867   9.916  1.00  0.00     0.031 C 
ATOM     33  C   UNL     1      10.290  -8.025   6.983  1.00  0.00     0.029 A 
ATOM     34  C   UNL     1       9.746  -6.783   7.278  1.00  0.00     0.049 A 
ATOM     35  H   UNL     1       8.392  -5.630   6.149  1.00  0.00     0.167 HD
ATOM     36  C   UNL     1       9.404  -4.755   8.693  1.00  0.00     0.074 A 
ATOM     37  C   UNL     1       9.668  -3.966   9.883  1.00  0.00     0.031 C 
ATOM     38  C   UNL     1       9.965  -5.964   8.443  1.00  0.00     0.031 A 
BRANCH  25  39
ATOM     39  C   UNL     1       8.397  -8.507   3.008  1.00  0.00    -0.014 A 
ATOM     40  C   UNL     1       9.060  -8.282   1.792  1.00  0.00     0.009 A 
ATOM     41  C   UNL     1       7.825  -9.766   3.248  1.00  0.00     0.009 A 
ATOM     42  C   UNL     1       9.118  -9.288   0.823  1.00  0.00     0.001 A 
ATOM     43  C   UNL     1       7.902 -10.775   2.287  1.00  0.00     0.001 A 
ATOM     44  C   UNL     1       8.539 -10.532   1.072  1.00  0.00     0.000 A 
ENDBRANCH  25  39
BRANCH  26  45
ATOM     45  C   UNL     1       7.099  -0.664   9.206  1.00  0.00    -0.014 A 
ATOM     46  C   UNL     1       8.145   0.243   9.429  1.00  0.00     0.009 A 
ATOM     47  C   UNL     1       5.875  -0.453   9.866  1.00  0.00     0.009 A 
ATOM     48  C   UNL     1       7.975   1.318  10.308  1.00  0.00     0.001 A 
ATOM     49  C   UNL     1       5.696   0.641  10.714  1.00  0.00     0.001 A 
ATOM     50  C   UNL     1       6.751   1.520  10.944  1.00  0.00     0.000 A 
ENDBRANCH  26  45
BRANCH  38  51
ATOM     51  C   UNL     1      10.917  -6.478   9.478  1.00  0.00    -0.014 A 
ATOM     52  C   UNL     1      10.449  -6.978  10.703  1.00  0.00     0.009 A 
ATOM     53  C   UNL     1      12.294  -6.483   9.212  1.00  0.00     0.009 A 
ATOM     54  C   UNL     1      11.350  -7.442  11.660  1.00  0.00     0.001 A 
ATOM     55  C   UNL     1      13.190  -6.973  10.161  1.00  0.00     0.001 A 
ATOM     56  C   UNL     1      12.718  -7.442  11.386  1.00  0.00     0.000 A 
ENDBRANCH  38  51
ENDBRANCH  12  13
ENDBRANCH   5   7
ENDBRANCH   4   5
ENDBRANCH   3   4
ENDBRANCH   2   3
ENDBRANCH   1   2
BRANCH   1  57
ATOM     57  C   UNL     1       2.591   1.859   0.896  1.00  0.00     0.202 C 
BRANCH  57  58
ATOM     58  C   UNL     1       2.478   3.340   1.249  1.00  0.00     0.261 C 
BRANCH  58  59
ATOM     59  O   UNL     1       2.918   4.096   0.114  1.00  0.00    -0.462 OA
BRANCH  59  60
ATOM     60  C   UNL     1       4.246   4.342   0.054  1.00  0.00     0.329 C 
ATOM     61  O   UNL     1       5.005   4.317   1.020  1.00  0.00    -0.250 OA
BRANCH  60  62
ATOM     62  C   UNL     1       4.711   4.763  -1.343  1.00  0.00     0.197 C 
BRANCH  62  63
ATOM     63  C   UNL     1       4.099   4.144  -2.623  1.00  0.00     0.074 C 
BRANCH  63  64
ATOM     64  C   UNL     1       2.621   3.903  -2.670  1.00  0.00    -0.020 A 
ATOM     65  C   UNL     1       1.982   2.675  -2.723  1.00  0.00     0.087 A 
ATOM     66  C   UNL     1       1.587   4.889  -2.681  1.00  0.00     0.003 A 
ATOM     67  N   UNL     1       0.636   2.877  -2.581  1.00  0.00    -0.361 N 
ATOM     68  C   UNL     1       0.369   4.222  -2.548  1.00  0.00     0.046 A 
ATOM     69  C   UNL     1       1.579   6.294  -2.760  1.00  0.00     0.010 A 
ATOM     70  H   UNL     1      -0.039   2.163  -2.512  1.00  0.00     0.166 HD
ATOM     71  C   UNL     1      -0.851   4.893  -2.417  1.00  0.00     0.026 A 
ATOM     72  C   UNL     1       0.369   6.981  -2.640  1.00  0.00     0.001 A 
ATOM     73  C   UNL     1      -0.825   6.289  -2.456  1.00  0.00     0.002 A 
ENDBRANCH  63  64
ENDBRANCH  62  63
BRANCH  62  74
ATOM     74  N   UNL     1       4.752   6.227  -1.370  1.00  0.00    -0.338 N 
ATOM     75  C   UNL     1       5.809   7.066  -1.138  1.00  0.00     0.254 C 
ATOM     76  H   UNL     1       3.900   6.670  -1.586  1.00  0.00     0.164 HD
ATOM     77  O   UNL     1       5.611   8.275  -1.023  1.00  0.00    -0.269 OA
BRANCH  75  78
ATOM     78  C   UNL     1       7.181   6.536  -1.054  1.00  0.00     0.075 A 
ATOM     79  C   UNL     1       7.716   5.750  -2.087  1.00  0.00     0.020 A 
ATOM     80  C   UNL     1       7.969   6.859   0.052  1.00  0.00     0.138 A 
ATOM     81  C   UNL     1       9.014   5.250  -1.972  1.00  0.00     0.040 A 
ATOM     82  C   UNL     1       9.271   6.379   0.158  1.00  0.00     0.079 A 
ATOM     83  F   UNL     1       7.487   7.618   1.045  1.00  0.00    -0.206 F 
ATOM     84  C   UNL     1       9.777   5.571  -0.852  1.00  0.00     0.126 A 
ATOM     85  F   UNL     1      11.024   5.093  -0.751  1.00  0.00    -0.207 F 
ENDBRANCH  75  78
ENDBRANCH  62  74
ENDBRANCH  60  62
ENDBRANCH  59  60
ENDBRANCH  58  59
ENDBRANCH  57  58
ENDBRANCH   1  57
TORSDOF 18
