REMARK SMILES CCSc1ccc(-c2cc(Cl)cc3c2O[C@@H](C(F)(F)F)C(C(=O)OCCOCCOC(=O)c2ccc(-c4c5nc(c(-c6ccccc6)c6ccc([nH]6)c(-c6ccccc6)c6nc(c(-c7ccccc7)c7ccc4[nH]7)C=C6)C=C5)cc2)=C3)cc1
REMARK SMILES IDX 26 1 25 2 24 3 22 4 23 5 21 6 8 7 9 8 14 9 10 10 13 11 15 12
REMARK SMILES IDX 11 13 12 14 81 15 16 16 7 17 4 18 5 19 83 20 6 21 82 22 3 23
REMARK SMILES IDX 2 24 1 25 17 26 18 27 19 28 20 29 27 30 28 31 29 32 30 33
REMARK SMILES IDX 31 34 32 35 33 36 34 37 80 38 35 39 79 40 36 41 37 42 38 43
REMARK SMILES IDX 73 44 39 45 78 46 72 47 74 48 40 49 77 50 71 51 70 52 41 54
REMARK SMILES IDX 63 55 48 56 62 57 49 58 52 59 61 60 75 61 50 62 51 63 60 65
REMARK SMILES IDX 76 66 53 67 42 68 43 69 47 70 44 71 46 72 45 73 64 74 65 75
REMARK SMILES IDX 69 76 66 77 68 78 67 79 54 80 55 81 59 82 56 83 58 84 57 85
REMARK H PARENT 74 53 52 64
REMARK Flexibility Score: inf
ROOT
ATOM      1  C   UNL     1      13.401   0.753   1.761  1.00  0.00     0.202 C 
ENDROOT
BRANCH   1   2
ATOM      2  C   UNL     1      13.659   2.250   1.998  1.00  0.00     0.261 C 
BRANCH   2   3
ATOM      3  O   UNL     1      12.634   2.885   2.777  1.00  0.00    -0.460 OA
BRANCH   3   4
ATOM      4  C   UNL     1      12.344   4.156   2.440  1.00  0.00     0.338 C 
ATOM      5  O   UNL     1      12.979   4.839   1.648  1.00  0.00    -0.246 OA
BRANCH   4   6
ATOM      6  C   UNL     1      11.051   4.611   3.007  1.00  0.00     0.087 C 
ATOM      7  C   UNL     1       7.842   1.992   2.609  1.00  0.00     0.026 A 
ATOM      8  C   UNL     1       8.186   1.179   1.505  1.00  0.00     0.033 A 
ATOM      9  C   UNL     1       8.744   3.049   2.871  1.00  0.00     0.135 A 
ATOM     10  C   UNL     1       9.094   1.619   0.542  1.00  0.00     0.042 A 
ATOM     11  C   UNL     1       9.454   3.618   1.798  1.00  0.00     0.019 A 
ATOM     12  O   UNL     1       9.322   3.172   4.152  1.00  0.00    -0.475 OA
ATOM     13  Cl  UNL     1       9.432   0.633  -0.822  1.00  0.00    -0.084 Cl
ATOM     14  C   UNL     1       9.649   2.886   0.634  1.00  0.00     0.032 A 
ATOM     15  C   UNL     1      10.185   4.884   2.017  1.00  0.00     0.027 C 
ATOM     16  C   UNL     1      10.405   4.184   4.308  1.00  0.00     0.316 C 
BRANCH   7  17
ATOM     17  C   UNL     1       6.339   2.095   2.795  1.00  0.00    -0.015 A 
ATOM     18  C   UNL     1       3.516   2.216   2.180  1.00  0.00     0.007 A 
ATOM     19  C   UNL     1       4.133   1.004   2.475  1.00  0.00     0.015 A 
ATOM     20  C   UNL     1       4.300   3.374   2.288  1.00  0.00     0.015 A 
ATOM     21  C   UNL     1       5.512   0.949   2.796  1.00  0.00     0.010 A 
ATOM     22  C   UNL     1       5.677   3.319   2.593  1.00  0.00     0.010 A 
BRANCH  18  23
ATOM     23  S   UNL     1       1.818   2.453   1.653  1.00  0.00    -0.126 SA
BRANCH  23  24
ATOM     24  C   UNL     1       1.081   0.790   1.443  1.00  0.00     0.071 C 
ATOM     25  C   UNL     1       1.273   0.229   0.043  1.00  0.00     0.016 C 
ENDBRANCH  23  24
ENDBRANCH  18  23
ENDBRANCH   7  17
BRANCH  16  26
ATOM     26  C   UNL     1      11.393   3.972   5.479  1.00  0.00     0.430 C 
ATOM     27  F   UNL     1      11.938   5.173   5.824  1.00  0.00    -0.167 F 
ATOM     28  F   UNL     1      10.772   3.504   6.586  1.00  0.00    -0.167 F 
ATOM     29  F   UNL     1      12.421   3.144   5.220  1.00  0.00    -0.167 F 
ENDBRANCH  16  26
ENDBRANCH   4   6
ENDBRANCH   3   4
ENDBRANCH   2   3
ENDBRANCH   1   2
BRANCH   1  30
ATOM     30  O   UNL     1      12.073   0.263   1.880  1.00  0.00    -0.374 OA
BRANCH  30  31
ATOM     31  C   UNL     1      11.452   0.295   3.163  1.00  0.00     0.202 C 
BRANCH  31  32
ATOM     32  C   UNL     1      12.010  -0.598   4.275  1.00  0.00     0.261 C 
BRANCH  32  33
ATOM     33  O   UNL     1      13.380  -0.323   4.603  1.00  0.00    -0.460 OA
BRANCH  33  34
ATOM     34  C   UNL     1      14.240  -1.325   4.312  1.00  0.00     0.338 C 
ATOM     35  O   UNL     1      13.981  -2.413   3.809  1.00  0.00    -0.246 OA
BRANCH  34  36
ATOM     36  C   UNL     1      15.620  -0.883   4.546  1.00  0.00     0.060 A 
ATOM     37  C   UNL     1      16.502  -0.868   3.458  1.00  0.00     0.016 A 
ATOM     38  C   UNL     1      16.067  -0.593   5.836  1.00  0.00     0.016 A 
ATOM     39  C   UNL     1      17.852  -0.596   3.665  1.00  0.00     0.010 A 
ATOM     40  C   UNL     1      17.422  -0.329   6.041  1.00  0.00     0.010 A 
ATOM     41  C   UNL     1      18.324  -0.361   4.962  1.00  0.00    -0.014 A 
BRANCH  41  42
ATOM     42  C   UNL     1      19.782  -0.280   5.210  1.00  0.00     0.031 A 
ATOM     43  C   UNL     1      20.492  -1.470   5.792  1.00  0.00     0.074 A 
ATOM     44  C   UNL     1      20.463   0.838   4.907  1.00  0.00     0.049 A 
ATOM     45  N   UNL     1      21.747  -1.599   6.138  1.00  0.00    -0.248 NA
ATOM     46  C   UNL     1      19.677  -2.675   6.017  1.00  0.00     0.031 C 
ATOM     47  C   UNL     1      19.890   2.038   4.300  1.00  0.00     0.029 A 
ATOM     48  N   UNL     1      21.789   1.144   5.077  1.00  0.00    -0.354 N 
ATOM     49  C   UNL     1      21.871  -2.892   6.630  1.00  0.00     0.074 A 
ATOM     50  C   UNL     1      20.558  -3.497   6.569  1.00  0.00     0.031 C 
ATOM     51  C   UNL     1      20.859   2.958   4.157  1.00  0.00     0.029 A 
ATOM     52  C   UNL     1      22.107   2.424   4.698  1.00  0.00     0.049 A 
ATOM     53  H   UNL     1      22.448   0.507   5.437  1.00  0.00     0.167 HD
ATOM     54  C   UNL     1      22.980  -3.521   7.085  1.00  0.00     0.031 A 
ATOM     55  C   UNL     1      23.269   3.098   4.802  1.00  0.00     0.031 A 
ATOM     56  C   UNL     1      24.280  -2.908   7.162  1.00  0.00     0.049 A 
ATOM     57  C   UNL     1      24.469   2.404   5.389  1.00  0.00     0.074 A 
ATOM     58  C   UNL     1      25.471  -3.461   7.599  1.00  0.00     0.029 A 
ATOM     59  N   UNL     1      24.555  -1.598   6.800  1.00  0.00    -0.354 N 
ATOM     60  N   UNL     1      24.581   1.174   5.830  1.00  0.00    -0.248 NA
ATOM     61  C   UNL     1      25.706   3.192   5.484  1.00  0.00     0.031 C 
ATOM     62  C   UNL     1      26.453  -2.466   7.561  1.00  0.00     0.029 A 
ATOM     63  C   UNL     1      25.891  -1.315   7.032  1.00  0.00     0.049 A 
ATOM     64  H   UNL     1      23.899  -0.963   6.432  1.00  0.00     0.167 HD
ATOM     65  C   UNL     1      25.905   1.031   6.226  1.00  0.00     0.074 A 
ATOM     66  C   UNL     1      26.560   2.295   5.957  1.00  0.00     0.031 C 
ATOM     67  C   UNL     1      26.526  -0.050   6.761  1.00  0.00     0.031 A 
BRANCH  54  68
ATOM     68  C   UNL     1      22.823  -4.936   7.573  1.00  0.00    -0.014 A 
ATOM     69  C   UNL     1      22.550  -5.990   6.687  1.00  0.00     0.009 A 
ATOM     70  C   UNL     1      22.975  -5.222   8.939  1.00  0.00     0.009 A 
ATOM     71  C   UNL     1      22.395  -7.294   7.165  1.00  0.00     0.001 A 
ATOM     72  C   UNL     1      22.851  -6.530   9.409  1.00  0.00     0.001 A 
ATOM     73  C   UNL     1      22.551  -7.564   8.524  1.00  0.00     0.000 A 
ENDBRANCH  54  68
BRANCH  55  74
ATOM     74  C   UNL     1      23.347   4.516   4.363  1.00  0.00    -0.014 A 
ATOM     75  C   UNL     1      24.113   4.881   3.246  1.00  0.00     0.009 A 
ATOM     76  C   UNL     1      22.660   5.516   5.069  1.00  0.00     0.009 A 
ATOM     77  C   UNL     1      24.210   6.221   2.862  1.00  0.00     0.001 A 
ATOM     78  C   UNL     1      22.733   6.850   4.664  1.00  0.00     0.001 A 
ATOM     79  C   UNL     1      23.516   7.203   3.567  1.00  0.00     0.000 A 
ENDBRANCH  55  74
BRANCH  67  80
ATOM     80  C   UNL     1      27.996   0.074   7.053  1.00  0.00    -0.014 A 
ATOM     81  C   UNL     1      28.472   0.875   8.102  1.00  0.00     0.009 A 
ATOM     82  C   UNL     1      28.917  -0.660   6.288  1.00  0.00     0.009 A 
ATOM     83  C   UNL     1      29.843   0.968   8.354  1.00  0.00     0.001 A 
ATOM     84  C   UNL     1      30.283  -0.592   6.564  1.00  0.00     0.001 A 
ATOM     85  C   UNL     1      30.746   0.230   7.590  1.00  0.00     0.000 A 
ENDBRANCH  67  80
ENDBRANCH  41  42
ENDBRANCH  34  36
ENDBRANCH  33  34
ENDBRANCH  32  33
ENDBRANCH  31  32
ENDBRANCH  30  31
ENDBRANCH   1  30
TORSDOF 18
