REMARK SMILES CC(C)SSC(=O)N1CCC[C@@H]1C(=O)OCCOCCOC(=O)c1ccc(-c2c3nc(c(-c4ccccc4)c4ccc([nH]4)c(-c4ccccc4)c4nc(c(-c5ccccc5)c5ccc2[nH]5)C=C4)C=C3)cc1
REMARK SMILES IDX 17 1 16 2 15 3 13 4 14 5 12 6 8 7 9 8 10 9 11 10 6 11 7 12
REMARK SMILES IDX 5 13 4 14 2 15 1 16 3 17 18 18 19 19 20 20 21 21 22 22 23 23
REMARK SMILES IDX 24 24 25 25 71 26 26 27 70 28 27 29 28 30 29 31 64 32 30 33
REMARK SMILES IDX 69 34 63 35 65 36 31 37 68 38 62 39 61 40 32 42 54 43 39 44
REMARK SMILES IDX 53 45 40 46 43 47 52 48 66 49 41 50 42 51 51 53 67 54 44 55
REMARK SMILES IDX 33 56 34 57 38 58 35 59 37 60 36 61 55 62 56 63 60 64 57 65
REMARK SMILES IDX 59 66 58 67 45 68 46 69 50 70 47 71 49 72 48 73
REMARK H PARENT 65 41 43 52
REMARK Flexibility Score: inf
ROOT
ATOM      1  C   UNL     1      -5.055  -4.928   4.441  1.00  0.00     0.202 C 
ENDROOT
BRANCH   1   2
ATOM      2  C   UNL     1      -4.241  -4.144   3.405  1.00  0.00     0.261 C 
BRANCH   2   3
ATOM      3  O   UNL     1      -4.304  -2.717   3.579  1.00  0.00    -0.462 OA
BRANCH   3   4
ATOM      4  C   UNL     1      -5.202  -2.087   2.768  1.00  0.00     0.328 C 
ATOM      5  O   UNL     1      -5.983  -2.663   2.018  1.00  0.00    -0.250 OA
BRANCH   4   6
ATOM      6  C   UNL     1      -5.199  -0.566   2.961  1.00  0.00     0.196 C 
ATOM      7  N   UNL     1      -3.934   0.049   2.576  1.00  0.00    -0.319 N 
ATOM      8  C   UNL     1      -3.517   1.041   3.546  1.00  0.00     0.121 C 
ATOM      9  C   UNL     1      -4.130   0.559   4.846  1.00  0.00     0.024 C 
ATOM     10  C   UNL     1      -5.427  -0.126   4.417  1.00  0.00     0.039 C 
BRANCH   7  11
ATOM     11  C   UNL     1      -3.489  -0.111   1.280  1.00  0.00     0.293 C 
ATOM     12  O   UNL     1      -4.166  -0.668   0.423  1.00  0.00    -0.261 OA
BRANCH  11  13
ATOM     13  S   UNL     1      -1.868   0.479   0.925  1.00  0.00     0.005 SA
BRANCH  13  14
ATOM     14  S   UNL     1      -1.217  -0.901  -0.474  1.00  0.00    -0.081 SA
BRANCH  14  15
ATOM     15  C   UNL     1       0.566  -1.184  -0.134  1.00  0.00     0.052 C 
ATOM     16  C   UNL     1       1.322   0.136  -0.024  1.00  0.00     0.020 C 
ATOM     17  C   UNL     1       0.823  -2.086   1.067  1.00  0.00     0.020 C 
ENDBRANCH  14  15
ENDBRANCH  13  14
ENDBRANCH  11  13
ENDBRANCH   7  11
ENDBRANCH   4   6
ENDBRANCH   3   4
ENDBRANCH   2   3
ENDBRANCH   1   2
BRANCH   1  18
ATOM     18  O   UNL     1      -6.476  -4.823   4.395  1.00  0.00    -0.374 OA
BRANCH  18  19
ATOM     19  C   UNL     1      -7.078  -3.658   4.949  1.00  0.00     0.202 C 
BRANCH  19  20
ATOM     20  C   UNL     1      -7.170  -3.582   6.478  1.00  0.00     0.261 C 
BRANCH  20  21
ATOM     21  O   UNL     1      -5.874  -3.553   7.103  1.00  0.00    -0.460 OA
BRANCH  21  22
ATOM     22  C   UNL     1      -5.564  -4.672   7.798  1.00  0.00     0.338 C 
ATOM     23  O   UNL     1      -6.290  -5.633   8.022  1.00  0.00    -0.246 OA
BRANCH  22  24
ATOM     24  C   UNL     1      -4.131  -4.687   8.138  1.00  0.00     0.060 A 
ATOM     25  C   UNL     1      -3.393  -5.815   7.756  1.00  0.00     0.016 A 
ATOM     26  C   UNL     1      -3.540  -3.673   8.893  1.00  0.00     0.016 A 
ATOM     27  C   UNL     1      -2.075  -5.963   8.180  1.00  0.00     0.010 A 
ATOM     28  C   UNL     1      -2.217  -3.827   9.325  1.00  0.00     0.010 A 
ATOM     29  C   UNL     1      -1.494  -4.991   9.005  1.00  0.00    -0.014 A 
BRANCH  29  30
ATOM     30  C   UNL     1      -0.191  -5.274   9.653  1.00  0.00     0.031 A 
ATOM     31  C   UNL     1      -0.172  -5.745  11.081  1.00  0.00     0.074 A 
ATOM     32  C   UNL     1       0.960  -5.157   8.968  1.00  0.00     0.049 A 
ATOM     33  N   UNL     1       0.851  -6.047  11.841  1.00  0.00    -0.248 NA
ATOM     34  C   UNL     1      -1.479  -5.896  11.741  1.00  0.00     0.031 C 
ATOM     35  C   UNL     1       1.073  -4.756   7.566  1.00  0.00     0.029 A 
ATOM     36  N   UNL     1       2.256  -5.366   9.367  1.00  0.00    -0.354 N 
ATOM     37  C   UNL     1       0.312  -6.414  13.069  1.00  0.00     0.074 A 
ATOM     38  C   UNL     1      -1.124  -6.268  12.961  1.00  0.00     0.031 C 
ATOM     39  C   UNL     1       2.372  -4.746   7.222  1.00  0.00     0.029 A 
ATOM     40  C   UNL     1       3.180  -5.108   8.385  1.00  0.00     0.049 A 
ATOM     41  H   UNL     1       2.499  -5.673  10.270  1.00  0.00     0.167 HD
ATOM     42  C   UNL     1       0.952  -6.840  14.184  1.00  0.00     0.031 A 
ATOM     43  C   UNL     1       4.525  -5.143   8.426  1.00  0.00     0.031 A 
ATOM     44  C   UNL     1       2.380  -6.975  14.297  1.00  0.00     0.049 A 
ATOM     45  C   UNL     1       5.219  -5.545   9.699  1.00  0.00     0.074 A 
ATOM     46  C   UNL     1       3.121  -7.418  15.378  1.00  0.00     0.029 A 
ATOM     47  N   UNL     1       3.284  -6.658  13.295  1.00  0.00    -0.354 N 
ATOM     48  N   UNL     1       4.698  -5.915  10.844  1.00  0.00    -0.248 NA
ATOM     49  C   UNL     1       6.689  -5.542   9.681  1.00  0.00     0.031 C 
ATOM     50  C   UNL     1       4.477  -7.313  15.050  1.00  0.00     0.029 A 
ATOM     51  C   UNL     1       4.577  -6.864  13.743  1.00  0.00     0.049 A 
ATOM     52  H   UNL     1       3.041  -6.335  12.397  1.00  0.00     0.167 HD
ATOM     53  C   UNL     1       5.773  -6.213  11.673  1.00  0.00     0.074 A 
ATOM     54  C   UNL     1       6.974  -5.994  10.894  1.00  0.00     0.031 C 
ATOM     55  C   UNL     1       5.765  -6.634  12.961  1.00  0.00     0.031 A 
BRANCH  42  56
ATOM     56  C   UNL     1       0.106  -7.150  15.387  1.00  0.00    -0.014 A 
ATOM     57  C   UNL     1      -0.725  -8.281  15.428  1.00  0.00     0.009 A 
ATOM     58  C   UNL     1       0.159  -6.306  16.508  1.00  0.00     0.009 A 
ATOM     59  C   UNL     1      -1.515  -8.538  16.551  1.00  0.00     0.001 A 
ATOM     60  C   UNL     1      -0.610  -6.581  17.640  1.00  0.00     0.001 A 
ATOM     61  C   UNL     1      -1.454  -7.690  17.657  1.00  0.00     0.000 A 
ENDBRANCH  42  56
BRANCH  43  62
ATOM     62  C   UNL     1       5.311  -4.766   7.222  1.00  0.00    -0.014 A 
ATOM     63  C   UNL     1       6.030  -5.733   6.504  1.00  0.00     0.009 A 
ATOM     64  C   UNL     1       5.349  -3.431   6.789  1.00  0.00     0.009 A 
ATOM     65  C   UNL     1       6.787  -5.366   5.388  1.00  0.00     0.001 A 
ATOM     66  C   UNL     1       6.083  -3.072   5.658  1.00  0.00     0.001 A 
ATOM     67  C   UNL     1       6.809  -4.038   4.963  1.00  0.00     0.000 A 
ENDBRANCH  43  62
BRANCH  55  68
ATOM     68  C   UNL     1       7.096  -6.916  13.603  1.00  0.00    -0.014 A 
ATOM     69  C   UNL     1       7.968  -5.877  13.963  1.00  0.00     0.009 A 
ATOM     70  C   UNL     1       7.463  -8.241  13.888  1.00  0.00     0.009 A 
ATOM     71  C   UNL     1       9.196  -6.162  14.564  1.00  0.00     0.001 A 
ATOM     72  C   UNL     1       8.677  -8.521  14.516  1.00  0.00     0.001 A 
ATOM     73  C   UNL     1       9.547  -7.483  14.844  1.00  0.00     0.000 A 
ENDBRANCH  55  68
ENDBRANCH  29  30
ENDBRANCH  22  24
ENDBRANCH  21  22
ENDBRANCH  20  21
ENDBRANCH  19  20
ENDBRANCH  18  19
ENDBRANCH   1  18
TORSDOF 18
