REMARK SMILES COc1ccc(-c2cccc(Cl)c2C(=O)OCCOCCOC(=O)c2ccc(-c3c4nc(c(-c5ccccc5)c5ccc([nH]5)c(-c5ccccc5)c5nc(c(-c6ccccc6)c6ccc3[nH]6)C=C5)C=C4)cc2)c(F)c1
REMARK SMILES IDX 19 1 18 2 17 3 16 4 14 5 15 6 13 7 7 8 8 9 9 10 11 11 10 12
REMARK SMILES IDX 12 13 6 14 3 15 4 16 75 17 5 18 73 19 74 20 2 21 1 22 20 23
REMARK SMILES IDX 21 24 22 25 23 26 24 27 25 28 26 29 72 30 27 31 71 32 28 33
REMARK SMILES IDX 29 34 30 35 65 36 31 37 70 38 64 39 66 40 32 41 69 42 63 43
REMARK SMILES IDX 62 44 33 46 55 47 40 48 54 49 41 50 44 51 53 52 67 53 42 54
REMARK SMILES IDX 43 55 52 57 68 58 45 59 34 60 35 61 39 62 36 63 38 64 37 65
REMARK SMILES IDX 56 66 57 67 61 68 58 69 60 70 59 71 46 72 47 73 51 74 48 75
REMARK SMILES IDX 50 76 49 77
REMARK H PARENT 66 45 44 56
REMARK Flexibility Score: inf
ROOT
ATOM      1  O   UNL     1       5.428   4.181  -2.008  1.00  0.00    -0.374 OA
ENDROOT
BRANCH   1   2
ATOM      2  C   UNL     1       5.531   5.357  -2.813  1.00  0.00     0.202 C 
BRANCH   2   3
ATOM      3  C   UNL     1       4.278   6.224  -2.938  1.00  0.00     0.261 C 
BRANCH   3   4
ATOM      4  O   UNL     1       3.993   6.857  -1.679  1.00  0.00    -0.460 OA
BRANCH   4   5
ATOM      5  C   UNL     1       2.681   6.926  -1.349  1.00  0.00     0.340 C 
ATOM      6  O   UNL     1       1.741   6.598  -2.054  1.00  0.00    -0.246 OA
BRANCH   5   7
ATOM      7  C   UNL     1       2.539   7.366   0.057  1.00  0.00     0.086 A 
ATOM      8  C   UNL     1       1.849   6.541   0.984  1.00  0.00     0.001 A 
ATOM      9  C   UNL     1       1.633   7.032   2.286  1.00  0.00     0.010 A 
ATOM     10  C   UNL     1       2.112   8.283   2.674  1.00  0.00     0.002 A 
ATOM     11  C   UNL     1       3.040   8.614   0.462  1.00  0.00     0.056 A 
ATOM     12  C   UNL     1       2.830   9.062   1.771  1.00  0.00     0.021 A 
ATOM     13  Cl  UNL     1       3.906   9.678  -0.594  1.00  0.00    -0.083 Cl
BRANCH   8  14
ATOM     14  C   UNL     1       1.411   5.169   0.676  1.00  0.00     0.019 A 
ATOM     15  C   UNL     1       0.669   2.525  -0.008  1.00  0.00     0.121 A 
ATOM     16  C   UNL     1       1.861   2.765   0.675  1.00  0.00     0.047 A 
ATOM     17  C   UNL     1      -0.168   3.600  -0.311  1.00  0.00     0.086 A 
ATOM     18  C   UNL     1       2.217   4.074   1.027  1.00  0.00     0.015 A 
ATOM     19  C   UNL     1       0.198   4.900   0.037  1.00  0.00     0.134 A 
ATOM     20  F   UNL     1      -0.647   5.903  -0.247  1.00  0.00    -0.206 F 
BRANCH  15  21
ATOM     21  O   UNL     1       0.220   1.306  -0.433  1.00  0.00    -0.497 OA
ATOM     22  C   UNL     1       0.962   0.162  -0.026  1.00  0.00     0.278 C 
ENDBRANCH  15  21
ENDBRANCH   8  14
ENDBRANCH   5   7
ENDBRANCH   4   5
ENDBRANCH   3   4
ENDBRANCH   2   3
ENDBRANCH   1   2
BRANCH   1  23
ATOM     23  C   UNL     1       5.207   4.355  -0.613  1.00  0.00     0.202 C 
BRANCH  23  24
ATOM     24  C   UNL     1       6.412   4.701   0.271  1.00  0.00     0.261 C 
BRANCH  24  25
ATOM     25  O   UNL     1       7.208   5.774  -0.237  1.00  0.00    -0.460 OA
BRANCH  25  26
ATOM     26  C   UNL     1       8.285   5.367  -0.950  1.00  0.00     0.338 C 
ATOM     27  O   UNL     1       8.666   4.220  -1.139  1.00  0.00    -0.246 OA
BRANCH  26  28
ATOM     28  C   UNL     1       8.883   6.527  -1.623  1.00  0.00     0.060 A 
ATOM     29  C   UNL     1       9.039   6.471  -3.014  1.00  0.00     0.016 A 
ATOM     30  C   UNL     1       9.331   7.629  -0.893  1.00  0.00     0.016 A 
ATOM     31  C   UNL     1       9.686   7.505  -3.681  1.00  0.00     0.010 A 
ATOM     32  C   UNL     1       9.991   8.659  -1.561  1.00  0.00     0.010 A 
ATOM     33  C   UNL     1      10.202   8.582  -2.950  1.00  0.00    -0.014 A 
BRANCH  33  34
ATOM     34  C   UNL     1      11.121   9.539  -3.600  1.00  0.00     0.031 A 
ATOM     35  C   UNL     1      12.599   9.365  -3.390  1.00  0.00     0.074 A 
ATOM     36  C   UNL     1      10.650  10.539  -4.363  1.00  0.00     0.049 A 
ATOM     37  N   UNL     1      13.588  10.124  -3.784  1.00  0.00    -0.248 NA
ATOM     38  C   UNL     1      13.014   8.177  -2.625  1.00  0.00     0.031 C 
ATOM     39  C   UNL     1       9.243  10.771  -4.683  1.00  0.00     0.029 A 
ATOM     40  N   UNL     1      11.315  11.555  -5.000  1.00  0.00    -0.354 N 
ATOM     41  C   UNL     1      14.740   9.514  -3.303  1.00  0.00     0.074 A 
ATOM     42  C   UNL     1      14.326   8.342  -2.563  1.00  0.00     0.031 C 
ATOM     43  C   UNL     1       9.149  11.868  -5.453  1.00  0.00     0.029 A 
ATOM     44  C   UNL     1      10.482  12.435  -5.642  1.00  0.00     0.049 A 
ATOM     45  H   UNL     1      12.296  11.643  -4.997  1.00  0.00     0.167 HD
ATOM     46  C   UNL     1      16.029   9.894  -3.467  1.00  0.00     0.031 A 
ATOM     47  C   UNL     1      10.766  13.583  -6.286  1.00  0.00     0.031 A 
ATOM     48  C   UNL     1      16.430  11.072  -4.189  1.00  0.00     0.049 A 
ATOM     49  C   UNL     1      12.199  14.038  -6.374  1.00  0.00     0.074 A 
ATOM     50  C   UNL     1      17.708  11.550  -4.418  1.00  0.00     0.029 A 
ATOM     51  N   UNL     1      15.553  11.961  -4.792  1.00  0.00    -0.354 N 
ATOM     52  N   UNL     1      13.284  13.452  -5.926  1.00  0.00    -0.248 NA
ATOM     53  C   UNL     1      12.447  15.312  -7.064  1.00  0.00     0.031 C 
ATOM     54  C   UNL     1      17.600  12.761  -5.109  1.00  0.00     0.029 A 
ATOM     55  C   UNL     1      16.260  12.999  -5.372  1.00  0.00     0.049 A 
ATOM     56  H   UNL     1      14.573  11.867  -4.805  1.00  0.00     0.167 HD
ATOM     57  C   UNL     1      14.343  14.264  -6.313  1.00  0.00     0.074 A 
ATOM     58  C   UNL     1      13.771  15.380  -7.037  1.00  0.00     0.031 C 
ATOM     59  C   UNL     1      15.671  14.097  -6.095  1.00  0.00     0.031 A 
BRANCH  46  60
ATOM     60  C   UNL     1      17.086   9.047  -2.816  1.00  0.00    -0.014 A 
ATOM     61  C   UNL     1      17.372   7.751  -3.274  1.00  0.00     0.009 A 
ATOM     62  C   UNL     1      17.816   9.559  -1.731  1.00  0.00     0.009 A 
ATOM     63  C   UNL     1      18.337   6.970  -2.632  1.00  0.00     0.001 A 
ATOM     64  C   UNL     1      18.802   8.789  -1.113  1.00  0.00     0.001 A 
ATOM     65  C   UNL     1      19.054   7.492  -1.556  1.00  0.00     0.000 A 
ENDBRANCH  46  60
BRANCH  47  66
ATOM     66  C   UNL     1       9.674  14.392  -6.886  1.00  0.00    -0.014 A 
ATOM     67  C   UNL     1       9.561  14.516  -8.279  1.00  0.00     0.009 A 
ATOM     68  C   UNL     1       8.744  15.056  -6.070  1.00  0.00     0.009 A 
ATOM     69  C   UNL     1       8.556  15.307  -8.841  1.00  0.00     0.001 A 
ATOM     70  C   UNL     1       7.721  15.821  -6.635  1.00  0.00     0.001 A 
ATOM     71  C   UNL     1       7.634  15.954  -8.020  1.00  0.00     0.000 A 
ENDBRANCH  47  66
BRANCH  59  72
ATOM     72  C   UNL     1      16.604  15.113  -6.696  1.00  0.00    -0.014 A 
ATOM     73  C   UNL     1      16.702  16.415  -6.184  1.00  0.00     0.009 A 
ATOM     74  C   UNL     1      17.440  14.735  -7.759  1.00  0.00     0.009 A 
ATOM     75  C   UNL     1      17.598  17.328  -6.746  1.00  0.00     0.001 A 
ATOM     76  C   UNL     1      18.357  15.638  -8.297  1.00  0.00     0.001 A 
ATOM     77  C   UNL     1      18.428  16.936  -7.796  1.00  0.00     0.000 A 
ENDBRANCH  59  72
ENDBRANCH  33  34
ENDBRANCH  26  28
ENDBRANCH  25  26
ENDBRANCH  24  25
ENDBRANCH  23  24
ENDBRANCH   1  23
TORSDOF 16
