REMARK SMILES Cc1cc(OC(F)(F)F)cc2c1O[C@H](C(F)(F)F)C(C(=O)OCCOCCOC(=O)c1ccc(-c3c4nc(c(-c5ccccc5)c5ccc([nH]5)c(-c5ccccc5)c5nc(c(-c6ccccc6)c6ccc3[nH]6)C=C5)C=C4)cc1)=C2
REMARK SMILES IDX 25 1 24 2 23 3 22 4 20 5 21 6 19 7 1 8 2 9 3 10 12 11 4 12
REMARK SMILES IDX 11 13 13 14 10 15 79 16 14 17 5 18 6 19 7 20 8 21 9 22 15 23
REMARK SMILES IDX 16 24 17 25 18 26 26 27 27 28 28 29 29 30 30 31 31 32 32 33
REMARK SMILES IDX 78 34 33 35 77 36 34 37 35 38 36 39 71 40 37 41 76 42 70 43
REMARK SMILES IDX 72 44 38 45 75 46 69 47 68 48 39 50 61 51 46 52 60 53 47 54
REMARK SMILES IDX 50 55 59 56 73 57 48 58 49 59 58 61 74 62 51 63 40 64 41 65
REMARK SMILES IDX 45 66 42 67 44 68 43 69 62 70 63 71 67 72 64 73 66 74 65 75
REMARK SMILES IDX 52 76 53 77 57 78 54 79 56 80 55 81
REMARK H PARENT 72 49 50 60
REMARK Flexibility Score: inf
ROOT
ATOM      1  O   UNL     1      -4.220   0.782  -7.327  1.00  0.00    -0.374 OA
ENDROOT
BRANCH   1   2
ATOM      2  C   UNL     1      -3.952  -0.549  -7.760  1.00  0.00     0.202 C 
BRANCH   2   3
ATOM      3  C   UNL     1      -2.490  -0.995  -7.695  1.00  0.00     0.261 C 
BRANCH   3   4
ATOM      4  O   UNL     1      -1.971  -0.898  -6.359  1.00  0.00    -0.460 OA
BRANCH   4   5
ATOM      5  C   UNL     1      -0.994   0.024  -6.200  1.00  0.00     0.338 C 
ATOM      6  O   UNL     1      -0.447   0.670  -7.081  1.00  0.00    -0.246 OA
BRANCH   5   7
ATOM      7  C   UNL     1      -0.736   0.242  -4.766  1.00  0.00     0.087 C 
ATOM      8  C   UNL     1       0.755  -0.109   0.147  1.00  0.00     0.048 C 
ATOM      9  C   UNL     1       0.462   0.995  -0.834  1.00  0.00    -0.005 A 
ATOM     10  C   UNL     1       0.766   2.320  -0.463  1.00  0.00     0.054 A 
ATOM     11  C   UNL     1      -0.020   0.734  -2.126  1.00  0.00     0.131 A 
ATOM     12  C   UNL     1       0.570   3.376  -1.353  1.00  0.00     0.130 A 
ATOM     13  C   UNL     1      -0.189   1.787  -3.027  1.00  0.00     0.021 A 
ATOM     14  O   UNL     1      -0.307  -0.564  -2.444  1.00  0.00    -0.475 OA
ATOM     15  C   UNL     1       0.082   3.101  -2.631  1.00  0.00     0.058 A 
ATOM     16  C   UNL     1      -0.570   1.518  -4.400  1.00  0.00     0.027 C 
ATOM     17  C   UNL     1      -0.638  -0.918  -3.816  1.00  0.00     0.316 C 
BRANCH  12  18
ATOM     18  O   UNL     1       0.820   4.697  -1.123  1.00  0.00    -0.406 OA
BRANCH  18  19
ATOM     19  C   UNL     1       1.513   5.043   0.063  1.00  0.00     0.573 C 
ATOM     20  F   UNL     1       0.780   4.747   1.157  1.00  0.00    -0.132 F 
ATOM     21  F   UNL     1       2.705   4.414   0.133  1.00  0.00    -0.132 F 
ATOM     22  F   UNL     1       1.740   6.375   0.057  1.00  0.00    -0.132 F 
ENDBRANCH  18  19
ENDBRANCH  12  18
BRANCH  17  23
ATOM     23  C   UNL     1       0.358  -1.991  -4.280  1.00  0.00     0.430 C 
ATOM     24  F   UNL     1       0.442  -3.001  -3.380  1.00  0.00    -0.167 F 
ATOM     25  F   UNL     1      -0.013  -2.554  -5.453  1.00  0.00    -0.167 F 
ATOM     26  F   UNL     1       1.603  -1.491  -4.445  1.00  0.00    -0.167 F 
ENDBRANCH  17  23
ENDBRANCH   5   7
ENDBRANCH   4   5
ENDBRANCH   3   4
ENDBRANCH   2   3
ENDBRANCH   1   2
BRANCH   1  27
ATOM     27  C   UNL     1      -4.331   1.011  -5.920  1.00  0.00     0.202 C 
BRANCH  27  28
ATOM     28  C   UNL     1      -5.606   0.495  -5.244  1.00  0.00     0.261 C 
BRANCH  28  29
ATOM     29  O   UNL     1      -5.604  -0.942  -5.126  1.00  0.00    -0.460 OA
BRANCH  29  30
ATOM     30  C   UNL     1      -6.592  -1.572  -5.800  1.00  0.00     0.338 C 
ATOM     31  O   UNL     1      -7.502  -1.063  -6.441  1.00  0.00    -0.246 OA
BRANCH  30  32
ATOM     32  C   UNL     1      -6.346  -3.022  -5.812  1.00  0.00     0.060 A 
ATOM     33  C   UNL     1      -6.147  -3.644  -7.051  1.00  0.00     0.016 A 
ATOM     34  C   UNL     1      -6.439  -3.775  -4.641  1.00  0.00     0.016 A 
ATOM     35  C   UNL     1      -6.086  -5.033  -7.130  1.00  0.00     0.010 A 
ATOM     36  C   UNL     1      -6.398  -5.170  -4.724  1.00  0.00     0.010 A 
ATOM     37  C   UNL     1      -6.261  -5.802  -5.973  1.00  0.00    -0.014 A 
BRANCH  37  38
ATOM     38  C   UNL     1      -6.481  -7.260  -6.096  1.00  0.00     0.031 A 
ATOM     39  C   UNL     1      -7.890  -7.774  -6.203  1.00  0.00     0.074 A 
ATOM     40  C   UNL     1      -5.444  -8.113  -6.147  1.00  0.00     0.049 A 
ATOM     41  N   UNL     1      -8.314  -9.008  -6.293  1.00  0.00    -0.248 NA
ATOM     42  C   UNL     1      -8.962  -6.764  -6.221  1.00  0.00     0.031 C 
ATOM     43  C   UNL     1      -4.033  -7.732  -6.118  1.00  0.00     0.029 A 
ATOM     44  N   UNL     1      -5.425  -9.481  -6.238  1.00  0.00    -0.354 N 
ATOM     45  C   UNL     1      -9.697  -8.922  -6.381  1.00  0.00     0.074 A 
ATOM     46  C   UNL     1     -10.046  -7.521  -6.314  1.00  0.00     0.031 C 
ATOM     47  C   UNL     1      -3.283  -8.845  -6.189  1.00  0.00     0.029 A 
ATOM     48  C   UNL     1      -4.160 -10.013  -6.240  1.00  0.00     0.049 A 
ATOM     49  H   UNL     1      -6.241 -10.029  -6.298  1.00  0.00     0.167 HD
ATOM     50  C   UNL     1     -10.596  -9.924  -6.512  1.00  0.00     0.031 A 
ATOM     51  C   UNL     1      -3.756 -11.298  -6.265  1.00  0.00     0.031 A 
ATOM     52  C   UNL     1     -10.255 -11.318  -6.564  1.00  0.00     0.049 A 
ATOM     53  C   UNL     1      -4.778 -12.399  -6.314  1.00  0.00     0.074 A 
ATOM     54  C   UNL     1     -11.103 -12.405  -6.688  1.00  0.00     0.029 A 
ATOM     55  N   UNL     1      -8.966 -11.816  -6.493  1.00  0.00    -0.354 N 
ATOM     56  N   UNL     1      -6.084 -12.307  -6.380  1.00  0.00    -0.248 NA
ATOM     57  C   UNL     1      -4.274 -13.781  -6.287  1.00  0.00     0.031 C 
ATOM     58  C   UNL     1     -10.327 -13.566  -6.651  1.00  0.00     0.029 A 
ATOM     59  C   UNL     1      -8.995 -13.198  -6.551  1.00  0.00     0.049 A 
ATOM     60  H   UNL     1      -8.151 -11.270  -6.414  1.00  0.00     0.167 HD
ATOM     61  C   UNL     1      -6.556 -13.613  -6.425  1.00  0.00     0.074 A 
ATOM     62  C   UNL     1      -5.398 -14.481  -6.379  1.00  0.00     0.031 C 
ATOM     63  C   UNL     1      -7.835 -14.048  -6.503  1.00  0.00     0.031 A 
BRANCH  50  64
ATOM     64  C   UNL     1     -12.047  -9.553  -6.593  1.00  0.00    -0.014 A 
ATOM     65  C   UNL     1     -12.595  -9.055  -7.784  1.00  0.00     0.009 A 
ATOM     66  C   UNL     1     -12.888  -9.780  -5.494  1.00  0.00     0.009 A 
ATOM     67  C   UNL     1     -13.962  -8.782  -7.869  1.00  0.00     0.001 A 
ATOM     68  C   UNL     1     -14.256  -9.523  -5.587  1.00  0.00     0.001 A 
ATOM     69  C   UNL     1     -14.791  -9.023  -6.774  1.00  0.00     0.000 A 
ENDBRANCH  50  64
BRANCH  51  70
ATOM     70  C   UNL     1      -2.305 -11.605  -6.242  1.00  0.00    -0.014 A 
ATOM     71  C   UNL     1      -1.649 -12.022  -7.408  1.00  0.00     0.009 A 
ATOM     72  C   UNL     1      -1.563 -11.446  -5.061  1.00  0.00     0.009 A 
ATOM     73  C   UNL     1      -0.275 -12.274  -7.393  1.00  0.00     0.001 A 
ATOM     74  C   UNL     1      -0.187 -11.681  -5.053  1.00  0.00     0.001 A 
ATOM     75  C   UNL     1       0.456 -12.097  -6.218  1.00  0.00     0.000 A 
ENDBRANCH  51  70
BRANCH  63  76
ATOM     76  C   UNL     1      -8.075 -15.528  -6.564  1.00  0.00    -0.014 A 
ATOM     77  C   UNL     1      -8.032 -16.312  -5.403  1.00  0.00     0.009 A 
ATOM     78  C   UNL     1      -8.470 -16.117  -7.776  1.00  0.00     0.009 A 
ATOM     79  C   UNL     1      -8.380 -17.664  -5.455  1.00  0.00     0.001 A 
ATOM     80  C   UNL     1      -8.835 -17.463  -7.820  1.00  0.00     0.001 A 
ATOM     81  C   UNL     1      -8.789 -18.235  -6.660  1.00  0.00     0.000 A 
ENDBRANCH  63  76
ENDBRANCH  37  38
ENDBRANCH  30  32
ENDBRANCH  29  30
ENDBRANCH  28  29
ENDBRANCH  27  28
ENDBRANCH   1  27
TORSDOF 17
