REMARK SMILES Cc1ccnc(C(=O)c2[nH]c3cc(Cl)c(F)cc3c2CC(=O)OCCOCCOC(=O)c2ccc(-c3c4nc(c(-c5ccccc5)c5ccc([nH]5)c(-c5ccccc5)c5nc(c(-c6ccccc6)c6ccc3[nH]6)C=C5)C=C4)cc2)c1
REMARK SMILES IDX 25 1 24 2 23 3 21 4 22 5 20 6 19 7 9 8 10 9 11 10 18 12
REMARK SMILES IDX 12 13 17 14 13 15 15 16 14 17 16 18 7 19 8 20 6 21 1 22 2 23
REMARK SMILES IDX 3 24 80 25 4 26 5 27 26 28 27 29 28 30 29 31 30 32 31 33
REMARK SMILES IDX 32 34 33 35 79 36 34 37 78 38 35 39 36 40 37 41 72 42 38 43
REMARK SMILES IDX 77 44 71 45 73 46 39 47 76 48 70 49 69 50 40 52 62 53 47 54
REMARK SMILES IDX 61 55 48 56 51 57 60 58 74 59 49 60 50 61 59 63 75 64 52 65
REMARK SMILES IDX 41 66 42 67 46 68 43 69 45 70 44 71 63 72 64 73 68 74 65 75
REMARK SMILES IDX 67 76 66 77 53 78 54 79 58 80 55 81 57 82 56 83
REMARK H PARENT 10 11 73 51 51 62
REMARK Flexibility Score: inf
ROOT
ATOM      1  C   UNL     1      -2.342  -0.580  -2.534  1.00  0.00     0.202 C 
ENDROOT
BRANCH   1   2
ATOM      2  C   UNL     1      -2.866  -2.000  -2.776  1.00  0.00     0.261 C 
BRANCH   2   3
ATOM      3  O   UNL     1      -1.839  -2.998  -2.484  1.00  0.00    -0.463 OA
BRANCH   3   4
ATOM      4  C   UNL     1      -0.775  -3.006  -3.328  1.00  0.00     0.310 C 
ATOM      5  O   UNL     1      -0.840  -2.539  -4.463  1.00  0.00    -0.252 OA
BRANCH   4   6
ATOM      6  C   UNL     1       0.542  -3.549  -2.760  1.00  0.00     0.161 C 
BRANCH   6   7
ATOM      7  C   UNL     1       0.723  -3.908  -1.280  1.00  0.00     0.000 A 
ATOM      8  C   UNL     1       1.563  -3.359  -0.264  1.00  0.00     0.093 A 
ATOM      9  N   UNL     1       1.605  -4.330   0.730  1.00  0.00    -0.351 N 
ATOM     10  C   UNL     1       0.739  -5.365   0.494  1.00  0.00     0.048 A 
ATOM     11  H   UNL     1       2.194  -4.280   1.517  1.00  0.00     0.167 HD
ATOM     12  C   UNL     1       0.130  -5.115  -0.730  1.00  0.00     0.007 A 
ATOM     13  C   UNL     1       0.488  -6.516   1.258  1.00  0.00     0.050 A 
ATOM     14  C   UNL     1      -0.816  -6.057  -1.202  1.00  0.00     0.051 A 
ATOM     15  C   UNL     1      -0.453  -7.428   0.770  1.00  0.00     0.078 A 
ATOM     16  C   UNL     1      -1.102  -7.192  -0.435  1.00  0.00     0.142 A 
ATOM     17  Cl  UNL     1      -0.787  -8.852   1.682  1.00  0.00    -0.081 Cl
ATOM     18  F   UNL     1      -2.013  -8.062  -0.899  1.00  0.00    -0.205 F 
BRANCH   8  19
ATOM     19  C   UNL     1       2.541  -2.245  -0.140  1.00  0.00     0.227 C 
ATOM     20  O   UNL     1       3.737  -2.512  -0.265  1.00  0.00    -0.285 OA
BRANCH  19  21
ATOM     21  C   UNL     1       2.220  -0.793   0.272  1.00  0.00     0.113 A 
ATOM     22  C   UNL     1      -0.540   1.442   1.596  1.00  0.00     0.044 C 
ATOM     23  C   UNL     1       0.833   0.995   1.153  1.00  0.00    -0.047 A 
ATOM     24  C   UNL     1       1.589   1.915   0.439  1.00  0.00     0.023 A 
ATOM     25  C   UNL     1       1.256  -0.365   1.196  1.00  0.00     0.036 A 
ATOM     26  C   UNL     1       2.663   1.437  -0.277  1.00  0.00     0.112 A 
ATOM     27  N   UNL     1       2.957   0.122  -0.416  1.00  0.00    -0.253 NA
ENDBRANCH  19  21
ENDBRANCH   8  19
ENDBRANCH   6   7
ENDBRANCH   4   6
ENDBRANCH   3   4
ENDBRANCH   2   3
ENDBRANCH   1   2
BRANCH   1  28
ATOM     28  O   UNL     1      -2.123  -0.412  -1.139  1.00  0.00    -0.374 OA
BRANCH  28  29
ATOM     29  C   UNL     1      -0.982  -1.131  -0.690  1.00  0.00     0.202 C 
BRANCH  29  30
ATOM     30  C   UNL     1      -1.298  -2.192   0.369  1.00  0.00     0.261 C 
BRANCH  30  31
ATOM     31  O   UNL     1      -2.155  -1.594   1.307  1.00  0.00    -0.460 OA
BRANCH  31  32
ATOM     32  C   UNL     1      -2.136  -1.864   2.625  1.00  0.00     0.338 C 
ATOM     33  O   UNL     1      -1.288  -2.400   3.306  1.00  0.00    -0.246 OA
BRANCH  32  34
ATOM     34  C   UNL     1      -3.441  -1.262   2.965  1.00  0.00     0.060 A 
ATOM     35  C   UNL     1      -4.465  -1.865   2.217  1.00  0.00     0.016 A 
ATOM     36  C   UNL     1      -3.367   0.136   3.112  1.00  0.00     0.016 A 
ATOM     37  C   UNL     1      -5.162  -1.062   1.337  1.00  0.00     0.010 A 
ATOM     38  C   UNL     1      -4.111   0.942   2.257  1.00  0.00     0.010 A 
ATOM     39  C   UNL     1      -4.956   0.335   1.328  1.00  0.00    -0.014 A 
BRANCH  39  40
ATOM     40  C   UNL     1      -5.973   1.077   0.599  1.00  0.00     0.031 A 
ATOM     41  C   UNL     1      -7.276   0.908   1.286  1.00  0.00     0.074 A 
ATOM     42  C   UNL     1      -5.901   1.841  -0.501  1.00  0.00     0.049 A 
ATOM     43  N   UNL     1      -8.267   0.175   0.904  1.00  0.00    -0.248 NA
ATOM     44  C   UNL     1      -7.368   1.418   2.663  1.00  0.00     0.031 C 
ATOM     45  C   UNL     1      -4.754   2.426  -1.186  1.00  0.00     0.029 A 
ATOM     46  N   UNL     1      -6.966   2.311  -1.211  1.00  0.00    -0.354 N 
ATOM     47  C   UNL     1      -9.164   0.196   1.960  1.00  0.00     0.074 A 
ATOM     48  C   UNL     1      -8.494   0.836   3.065  1.00  0.00     0.031 C 
ATOM     49  C   UNL     1      -5.203   3.351  -2.074  1.00  0.00     0.029 A 
ATOM     50  C   UNL     1      -6.659   3.305  -2.119  1.00  0.00     0.049 A 
ATOM     51  H   UNL     1      -7.880   1.968  -1.086  1.00  0.00     0.167 HD
ATOM     52  C   UNL     1     -10.463  -0.166   1.821  1.00  0.00     0.031 A 
ATOM     53  C   UNL     1      -7.567   4.070  -2.773  1.00  0.00     0.031 A 
ATOM     54  C   UNL     1     -10.697  -0.923   0.624  1.00  0.00     0.049 A 
ATOM     55  C   UNL     1      -8.869   3.355  -2.759  1.00  0.00     0.074 A 
ATOM     56  C   UNL     1     -10.291  -2.162   0.169  1.00  0.00     0.029 A 
ATOM     57  N   UNL     1     -11.153  -0.244  -0.480  1.00  0.00    -0.354 N 
ATOM     58  N   UNL     1      -9.103   2.257  -3.418  1.00  0.00    -0.248 NA
ATOM     59  C   UNL     1      -9.814   3.654  -1.694  1.00  0.00     0.031 C 
ATOM     60  C   UNL     1     -10.102  -2.000  -1.234  1.00  0.00     0.029 A 
ATOM     61  C   UNL     1     -10.425  -0.680  -1.558  1.00  0.00     0.049 A 
ATOM     62  H   UNL     1     -11.870   0.431  -0.495  1.00  0.00     0.167 HD
ATOM     63  C   UNL     1      -9.962   1.527  -2.608  1.00  0.00     0.074 A 
ATOM     64  C   UNL     1     -10.443   2.479  -1.612  1.00  0.00     0.031 C 
ATOM     65  C   UNL     1      -9.996   0.163  -2.655  1.00  0.00     0.031 A 
BRANCH  52  66
ATOM     66  C   UNL     1     -11.555   0.466   2.631  1.00  0.00    -0.014 A 
ATOM     67  C   UNL     1     -11.386   1.684   3.322  1.00  0.00     0.009 A 
ATOM     68  C   UNL     1     -12.862  -0.029   2.526  1.00  0.00     0.009 A 
ATOM     69  C   UNL     1     -12.455   2.366   3.900  1.00  0.00     0.001 A 
ATOM     70  C   UNL     1     -13.944   0.679   3.062  1.00  0.00     0.001 A 
ATOM     71  C   UNL     1     -13.740   1.873   3.750  1.00  0.00     0.000 A 
ENDBRANCH  52  66
BRANCH  53  72
ATOM     72  C   UNL     1      -7.493   5.520  -3.057  1.00  0.00    -0.014 A 
ATOM     73  C   UNL     1      -6.756   6.364  -2.207  1.00  0.00     0.009 A 
ATOM     74  C   UNL     1      -8.383   6.118  -3.964  1.00  0.00     0.009 A 
ATOM     75  C   UNL     1      -6.933   7.751  -2.230  1.00  0.00     0.001 A 
ATOM     76  C   UNL     1      -8.562   7.508  -3.986  1.00  0.00     0.001 A 
ATOM     77  C   UNL     1      -7.849   8.321  -3.108  1.00  0.00     0.000 A 
ENDBRANCH  53  72
BRANCH  65  78
ATOM     78  C   UNL     1      -9.264  -0.536  -3.777  1.00  0.00    -0.014 A 
ATOM     79  C   UNL     1      -9.957  -1.502  -4.524  1.00  0.00     0.009 A 
ATOM     80  C   UNL     1      -7.877  -0.412  -3.973  1.00  0.00     0.009 A 
ATOM     81  C   UNL     1      -9.284  -2.335  -5.421  1.00  0.00     0.001 A 
ATOM     82  C   UNL     1      -7.207  -1.228  -4.891  1.00  0.00     0.001 A 
ATOM     83  C   UNL     1      -7.910  -2.199  -5.603  1.00  0.00     0.000 A 
ENDBRANCH  65  78
ENDBRANCH  39  40
ENDBRANCH  32  34
ENDBRANCH  31  32
ENDBRANCH  30  31
ENDBRANCH  29  30
ENDBRANCH  28  29
ENDBRANCH   1  28
TORSDOF 17
