REMARK SMILES C[C@@H](Nc1cccc(C(=O)OCCOCCOC(=O)c2ccc(-c3c4nc(c(-c5ccccc5)c5ccc([nH]5)c(-c5ccccc5)c5nc(c(-c6ccccc6)c6ccc3[nH]6)C=C5)C=C4)cc2)c1)C1CC[NH+](C)CC1
REMARK SMILES IDX 13 1 12 2 11 3 9 4 10 5 8 6 4 7 5 8 68 9 6 10 7 11 3 12 2 14
REMARK SMILES IDX 1 15 69 16 70 17 75 18 71 19 74 20 72 21 73 22 14 24 15 25
REMARK SMILES IDX 16 26 17 27 18 28 19 29 20 30 21 31 67 32 22 33 66 34 23 35
REMARK SMILES IDX 24 36 25 37 60 38 26 39 65 40 59 41 61 42 27 43 64 44 58 45
REMARK SMILES IDX 57 46 28 48 50 49 35 50 49 51 36 52 39 53 48 54 62 55 37 56
REMARK SMILES IDX 38 57 47 59 63 60 40 61 29 62 30 63 34 64 31 65 33 66 32 67
REMARK SMILES IDX 51 68 52 69 56 70 53 71 55 72 54 73 41 74 42 75 46 76 43 77
REMARK SMILES IDX 45 78 44 79
REMARK H PARENT 3 13 72 23 61 47 39 58
REMARK Flexibility Score: inf
ROOT
ATOM      1  C   UNL     1      -4.504  -5.714  -4.413  1.00  0.00     0.202 C 
ENDROOT
BRANCH   1   2
ATOM      2  C   UNL     1      -4.259  -4.884  -3.153  1.00  0.00     0.261 C 
BRANCH   2   3
ATOM      3  O   UNL     1      -2.871  -4.840  -2.774  1.00  0.00    -0.460 OA
BRANCH   3   4
ATOM      4  C   UNL     1      -2.595  -5.475  -1.610  1.00  0.00     0.338 C 
ATOM      5  O   UNL     1      -3.401  -6.082  -0.917  1.00  0.00    -0.246 OA
BRANCH   4   6
ATOM      6  C   UNL     1      -1.171  -5.355  -1.208  1.00  0.00     0.062 A 
ATOM      7  C   UNL     1       0.513  -3.768  -0.545  1.00  0.00     0.035 A 
ATOM      8  C   UNL     1       0.967  -4.723   0.389  1.00  0.00     0.026 A 
ATOM      9  C   UNL     1      -0.446  -4.178  -1.463  1.00  0.00     0.041 A 
ATOM     10  C   UNL     1       0.387  -5.986   0.506  1.00  0.00     0.003 A 
ATOM     11  C   UNL     1      -0.729  -6.279  -0.256  1.00  0.00     0.016 A 
BRANCH   7  12
ATOM     12  N   UNL     1       0.908  -2.461  -0.355  1.00  0.00    -0.382 N 
ATOM     13  H   UNL     1       1.527  -2.343   0.402  1.00  0.00     0.160 HD
BRANCH  12  14
ATOM     14  C   UNL     1       0.592  -1.213  -1.054  1.00  0.00     0.079 C 
ATOM     15  C   UNL     1       1.708  -0.227  -0.617  1.00  0.00     0.031 C 
BRANCH  14  16
ATOM     16  C   UNL     1      -0.788  -0.514  -0.792  1.00  0.00     0.022 C 
ATOM     17  C   UNL     1      -1.099  -0.075   0.644  1.00  0.00     0.067 C 
ATOM     18  C   UNL     1      -2.057  -1.165  -1.353  1.00  0.00     0.067 C 
ATOM     19  C   UNL     1      -1.536  -1.242   1.515  1.00  0.00     0.262 C 
ATOM     20  C   UNL     1      -2.735  -2.169  -0.419  1.00  0.00     0.262 C 
ATOM     21  N   UNL     1      -2.756  -1.886   1.017  1.00  0.00    -0.337 N 
ATOM     22  C   UNL     1      -2.943  -3.158   1.742  1.00  0.00     0.332 C 
ATOM     23  H   UNL     1      -3.521  -1.230   1.176  1.00  0.00     0.347 HD
ENDBRANCH  14  16
ENDBRANCH  12  14
ENDBRANCH   7  12
ENDBRANCH   4   6
ENDBRANCH   3   4
ENDBRANCH   2   3
ENDBRANCH   1   2
BRANCH   1  24
ATOM     24  O   UNL     1      -4.246  -7.114  -4.401  1.00  0.00    -0.374 OA
BRANCH  24  25
ATOM     25  C   UNL     1      -2.979  -7.600  -3.986  1.00  0.00     0.202 C 
BRANCH  25  26
ATOM     26  C   UNL     1      -1.718  -7.267  -4.803  1.00  0.00     0.261 C 
BRANCH  26  27
ATOM     27  O   UNL     1      -1.701  -5.981  -5.432  1.00  0.00    -0.460 OA
BRANCH  27  28
ATOM     28  C   UNL     1      -2.127  -6.000  -6.715  1.00  0.00     0.338 C 
ATOM     29  O   UNL     1      -2.511  -6.973  -7.357  1.00  0.00    -0.246 OA
BRANCH  28  30
ATOM     30  C   UNL     1      -2.195  -4.635  -7.257  1.00  0.00     0.060 A 
ATOM     31  C   UNL     1      -3.417  -4.202  -7.786  1.00  0.00     0.016 A 
ATOM     32  C   UNL     1      -1.051  -3.841  -7.363  1.00  0.00     0.016 A 
ATOM     33  C   UNL     1      -3.488  -2.998  -8.479  1.00  0.00     0.010 A 
ATOM     34  C   UNL     1      -1.121  -2.637  -8.071  1.00  0.00     0.010 A 
ATOM     35  C   UNL     1      -2.330  -2.234  -8.669  1.00  0.00    -0.014 A 
BRANCH  35  36
ATOM     36  C   UNL     1      -2.349  -1.113  -9.639  1.00  0.00     0.031 A 
ATOM     37  C   UNL     1      -1.814  -1.347 -11.027  1.00  0.00     0.074 A 
ATOM     38  C   UNL     1      -2.879   0.077  -9.309  1.00  0.00     0.049 A 
ATOM     39  N   UNL     1      -1.693  -0.505 -12.021  1.00  0.00    -0.248 NA
ATOM     40  C   UNL     1      -1.360  -2.714 -11.337  1.00  0.00     0.031 C 
ATOM     41  C   UNL     1      -3.492   0.405  -8.022  1.00  0.00     0.029 A 
ATOM     42  N   UNL     1      -2.988   1.233 -10.039  1.00  0.00    -0.354 N 
ATOM     43  C   UNL     1      -1.153  -1.238 -13.072  1.00  0.00     0.074 A 
ATOM     44  C   UNL     1      -0.938  -2.584 -12.586  1.00  0.00     0.031 C 
ATOM     45  C   UNL     1      -3.908   1.684  -8.052  1.00  0.00     0.029 A 
ATOM     46  C   UNL     1      -3.557   2.271  -9.343  1.00  0.00     0.049 A 
ATOM     47  H   UNL     1      -2.687   1.312 -10.973  1.00  0.00     0.167 HD
ATOM     48  C   UNL     1      -0.872  -0.831 -14.332  1.00  0.00     0.031 A 
ATOM     49  C   UNL     1      -3.750   3.555  -9.702  1.00  0.00     0.031 A 
ATOM     50  C   UNL     1      -1.071   0.509 -14.812  1.00  0.00     0.049 A 
ATOM     51  C   UNL     1      -3.325   4.008 -11.075  1.00  0.00     0.074 A 
ATOM     52  C   UNL     1      -0.793   1.027 -16.065  1.00  0.00     0.029 A 
ATOM     53  N   UNL     1      -1.603   1.543 -14.059  1.00  0.00    -0.354 N 
ATOM     54  N   UNL     1      -2.808   3.307 -12.056  1.00  0.00    -0.248 NA
ATOM     55  C   UNL     1      -3.518   5.431 -11.392  1.00  0.00     0.031 C 
ATOM     56  C   UNL     1      -1.116   2.387 -16.056  1.00  0.00     0.029 A 
ATOM     57  C   UNL     1      -1.649   2.700 -14.816  1.00  0.00     0.049 A 
ATOM     58  H   UNL     1      -1.904   1.466 -13.124  1.00  0.00     0.167 HD
ATOM     59  C   UNL     1      -2.654   4.194 -13.115  1.00  0.00     0.074 A 
ATOM     60  C   UNL     1      -3.139   5.480 -12.661  1.00  0.00     0.031 C 
ATOM     61  C   UNL     1      -2.156   3.965 -14.354  1.00  0.00     0.031 A 
BRANCH  48  62
ATOM     62  C   UNL     1      -0.296  -1.845 -15.279  1.00  0.00    -0.014 A 
ATOM     63  C   UNL     1      -1.095  -2.863 -15.822  1.00  0.00     0.009 A 
ATOM     64  C   UNL     1       1.045  -1.746 -15.680  1.00  0.00     0.009 A 
ATOM     65  C   UNL     1      -0.556  -3.775 -16.733  1.00  0.00     0.001 A 
ATOM     66  C   UNL     1       1.575  -2.644 -16.609  1.00  0.00     0.001 A 
ATOM     67  C   UNL     1       0.776  -3.660 -17.130  1.00  0.00     0.000 A 
ENDBRANCH  48  62
BRANCH  49  68
ATOM     68  C   UNL     1      -4.343   4.526  -8.745  1.00  0.00    -0.014 A 
ATOM     69  C   UNL     1      -5.599   5.102  -8.991  1.00  0.00     0.009 A 
ATOM     70  C   UNL     1      -3.627   4.925  -7.605  1.00  0.00     0.009 A 
ATOM     71  C   UNL     1      -6.106   6.085  -8.138  1.00  0.00     0.001 A 
ATOM     72  C   UNL     1      -4.151   5.884  -6.736  1.00  0.00     0.001 A 
ATOM     73  C   UNL     1      -5.384   6.474  -7.011  1.00  0.00     0.000 A 
ENDBRANCH  49  68
BRANCH  61  74
ATOM     74  C   UNL     1      -2.171   5.109 -15.328  1.00  0.00    -0.014 A 
ATOM     75  C   UNL     1      -1.283   6.189 -15.205  1.00  0.00     0.009 A 
ATOM     76  C   UNL     1      -3.061   5.079 -16.414  1.00  0.00     0.009 A 
ATOM     77  C   UNL     1      -1.310   7.231 -16.134  1.00  0.00     0.001 A 
ATOM     78  C   UNL     1      -3.064   6.107 -17.356  1.00  0.00     0.001 A 
ATOM     79  C   UNL     1      -2.196   7.187 -17.210  1.00  0.00     0.000 A 
ENDBRANCH  61  74
ENDBRANCH  35  36
ENDBRANCH  28  30
ENDBRANCH  27  28
ENDBRANCH  26  27
ENDBRANCH  25  26
ENDBRANCH  24  25
ENDBRANCH   1  24
TORSDOF 17
