REMARK SMILES CC[C@@H](C)c1nc2cc(C(=O)OCCOCCOC(=O)c3ccc(-c4c5nc(c(-c6ccccc6)c6ccc([nH]6)c(-c6ccccc6)c6nc(c(-c7ccccc7)c7ccc4[nH]7)C=C6)C=C5)cc3)ccc2n1[C@@H](C)CC
REMARK SMILES IDX 15 1 14 2 13 3 12 4 10 5 11 6 9 7 5 8 6 9 72 10 7 11 71 12
REMARK SMILES IDX 8 13 70 14 69 15 3 16 4 17 2 18 1 19 73 20 74 21 75 22 76 23
REMARK SMILES IDX 16 24 17 25 18 26 19 27 20 28 21 29 22 30 68 31 23 32 67 33
REMARK SMILES IDX 24 34 25 35 26 36 61 37 27 38 66 39 60 40 62 41 28 42 65 43
REMARK SMILES IDX 59 44 58 45 29 47 51 48 36 49 50 50 37 51 40 52 49 53 63 54
REMARK SMILES IDX 38 55 39 56 48 58 64 59 41 60 30 61 31 62 35 63 32 64 34 65
REMARK SMILES IDX 33 66 52 67 53 68 57 69 54 70 56 71 55 72 42 73 43 74 47 75
REMARK SMILES IDX 44 76 46 77 45 78
REMARK H PARENT 62 46 40 57
REMARK Flexibility Score: inf
ROOT
ATOM      1  O   UNL     1      -2.157  -3.977   9.107  1.00  0.00    -0.374 OA
ENDROOT
BRANCH   1   2
ATOM      2  C   UNL     1      -1.910  -3.539  10.436  1.00  0.00     0.202 C 
BRANCH   2   3
ATOM      3  C   UNL     1      -0.769  -2.556  10.718  1.00  0.00     0.261 C 
BRANCH   3   4
ATOM      4  O   UNL     1      -0.742  -1.468   9.799  1.00  0.00    -0.460 OA
BRANCH   4   5
ATOM      5  C   UNL     1       0.216  -1.617   8.850  1.00  0.00     0.338 C 
ATOM      6  O   UNL     1       1.081  -2.463   8.808  1.00  0.00    -0.246 OA
BRANCH   5   7
ATOM      7  C   UNL     1      -0.029  -0.665   7.750  1.00  0.00     0.062 A 
ATOM      8  C   UNL     1       0.427   0.742   3.490  1.00  0.00     0.112 A 
ATOM      9  N   UNL     1       0.513  -0.427   4.106  1.00  0.00    -0.233 NA
ATOM     10  N   UNL     1      -0.010   1.706   4.398  1.00  0.00    -0.325 N 
ATOM     11  C   UNL     1       0.200  -0.229   5.408  1.00  0.00     0.090 A 
ATOM     12  C   UNL     1      -0.215   1.072   5.625  1.00  0.00     0.068 A 
ATOM     13  C   UNL     1       0.290  -1.126   6.469  1.00  0.00     0.046 A 
ATOM     14  C   UNL     1      -0.646   1.516   6.889  1.00  0.00     0.029 A 
ATOM     15  C   UNL     1      -0.537   0.620   7.958  1.00  0.00     0.018 A 
BRANCH   8  16
ATOM     16  C   UNL     1       0.931   0.833   2.050  1.00  0.00     0.052 C 
ATOM     17  C   UNL     1       0.562   2.048   1.223  1.00  0.00     0.016 C 
BRANCH  16  18
ATOM     18  C   UNL     1       0.501  -0.460   1.288  1.00  0.00     0.008 C 
ATOM     19  C   UNL     1       0.959  -0.532  -0.164  1.00  0.00     0.004 C 
ENDBRANCH  16  18
ENDBRANCH   8  16
BRANCH  10  20
ATOM     20  C   UNL     1      -0.101   3.160   4.295  1.00  0.00     0.085 C 
ATOM     21  C   UNL     1       1.277   3.809   4.127  1.00  0.00     0.031 C 
BRANCH  20  22
ATOM     22  C   UNL     1      -1.227   3.707   3.399  1.00  0.00     0.022 C 
ATOM     23  C   UNL     1      -2.572   3.028   3.633  1.00  0.00     0.006 C 
ENDBRANCH  20  22
ENDBRANCH  10  20
ENDBRANCH   5   7
ENDBRANCH   4   5
ENDBRANCH   3   4
ENDBRANCH   2   3
ENDBRANCH   1   2
BRANCH   1  24
ATOM     24  C   UNL     1      -2.797  -3.070   8.203  1.00  0.00     0.202 C 
BRANCH  24  25
ATOM     25  C   UNL     1      -4.226  -2.577   8.512  1.00  0.00     0.261 C 
BRANCH  25  26
ATOM     26  O   UNL     1      -4.263  -1.768   9.697  1.00  0.00    -0.460 OA
BRANCH  26  27
ATOM     27  C   UNL     1      -5.300  -2.028  10.542  1.00  0.00     0.338 C 
ATOM     28  O   UNL     1      -6.381  -2.511  10.266  1.00  0.00    -0.246 OA
BRANCH  27  29
ATOM     29  C   UNL     1      -4.701  -2.027  11.893  1.00  0.00     0.060 A 
ATOM     30  C   UNL     1      -3.884  -0.972  12.312  1.00  0.00     0.016 A 
ATOM     31  C   UNL     1      -4.669  -3.273  12.541  1.00  0.00     0.016 A 
ATOM     32  C   UNL     1      -2.959  -1.203  13.324  1.00  0.00     0.010 A 
ATOM     33  C   UNL     1      -3.705  -3.514  13.512  1.00  0.00     0.010 A 
ATOM     34  C   UNL     1      -2.825  -2.490  13.875  1.00  0.00    -0.014 A 
BRANCH  34  35
ATOM     35  C   UNL     1      -1.912  -2.667  15.008  1.00  0.00     0.031 A 
ATOM     36  C   UNL     1      -2.454  -2.052  16.250  1.00  0.00     0.074 A 
ATOM     37  C   UNL     1      -0.798  -3.432  15.032  1.00  0.00     0.049 A 
ATOM     38  N   UNL     1      -1.943  -1.111  16.973  1.00  0.00    -0.248 NA
ATOM     39  C   UNL     1      -3.819  -2.447  16.645  1.00  0.00     0.031 C 
ATOM     40  C   UNL     1      -0.313  -4.351  14.003  1.00  0.00     0.029 A 
ATOM     41  N   UNL     1       0.089  -3.634  16.055  1.00  0.00    -0.354 N 
ATOM     42  C   UNL     1      -2.851  -0.906  18.009  1.00  0.00     0.074 A 
ATOM     43  C   UNL     1      -4.051  -1.613  17.654  1.00  0.00     0.031 C 
ATOM     44  C   UNL     1       0.627  -5.170  14.530  1.00  0.00     0.029 A 
ATOM     45  C   UNL     1       0.896  -4.759  15.896  1.00  0.00     0.049 A 
ATOM     46  H   UNL     1       0.152  -3.037  16.835  1.00  0.00     0.167 HD
ATOM     47  C   UNL     1      -2.479  -0.378  19.205  1.00  0.00     0.031 A 
ATOM     48  C   UNL     1       1.664  -5.361  16.841  1.00  0.00     0.031 A 
ATOM     49  C   UNL     1      -1.233   0.330  19.114  1.00  0.00     0.049 A 
ATOM     50  C   UNL     1       1.870  -4.396  17.941  1.00  0.00     0.074 A 
ATOM     51  C   UNL     1      -0.794   1.440  18.425  1.00  0.00     0.029 A 
ATOM     52  N   UNL     1      -0.107  -0.331  19.537  1.00  0.00    -0.354 N 
ATOM     53  N   UNL     1       2.568  -3.304  17.833  1.00  0.00    -0.248 NA
ATOM     54  C   UNL     1       0.953  -4.448  19.067  1.00  0.00     0.031 C 
ATOM     55  C   UNL     1       0.556   1.150  18.080  1.00  0.00     0.029 A 
ATOM     56  C   UNL     1       0.889  -0.090  18.630  1.00  0.00     0.049 A 
ATOM     57  H   UNL     1      -0.030  -0.881  20.350  1.00  0.00     0.167 HD
ATOM     58  C   UNL     1       1.877  -2.373  18.592  1.00  0.00     0.074 A 
ATOM     59  C   UNL     1       0.956  -3.159  19.410  1.00  0.00     0.031 C 
ATOM     60  C   UNL     1       1.921  -1.045  18.282  1.00  0.00     0.031 A 
BRANCH  47  61
ATOM     61  C   UNL     1      -3.053  -0.857  20.517  1.00  0.00    -0.014 A 
ATOM     62  C   UNL     1      -3.811  -2.038  20.651  1.00  0.00     0.009 A 
ATOM     63  C   UNL     1      -2.611  -0.260  21.710  1.00  0.00     0.009 A 
ATOM     64  C   UNL     1      -4.112  -2.599  21.894  1.00  0.00     0.001 A 
ATOM     65  C   UNL     1      -2.871  -0.843  22.957  1.00  0.00     0.001 A 
ATOM     66  C   UNL     1      -3.620  -2.013  23.048  1.00  0.00     0.000 A 
ENDBRANCH  47  61
BRANCH  48  67
ATOM     67  C   UNL     1       1.882  -6.814  17.057  1.00  0.00    -0.014 A 
ATOM     68  C   UNL     1       0.892  -7.737  16.673  1.00  0.00     0.009 A 
ATOM     69  C   UNL     1       2.898  -7.271  17.916  1.00  0.00     0.009 A 
ATOM     70  C   UNL     1       0.885  -9.047  17.165  1.00  0.00     0.001 A 
ATOM     71  C   UNL     1       2.889  -8.584  18.412  1.00  0.00     0.001 A 
ATOM     72  C   UNL     1       1.874  -9.466  18.049  1.00  0.00     0.000 A 
ENDBRANCH  48  67
BRANCH  60  73
ATOM     73  C   UNL     1       2.957  -0.567  17.291  1.00  0.00    -0.014 A 
ATOM     74  C   UNL     1       3.762   0.521  17.664  1.00  0.00     0.009 A 
ATOM     75  C   UNL     1       3.026  -1.020  15.961  1.00  0.00     0.009 A 
ATOM     76  C   UNL     1       4.587   1.159  16.736  1.00  0.00     0.001 A 
ATOM     77  C   UNL     1       3.876  -0.399  15.038  1.00  0.00     0.001 A 
ATOM     78  C   UNL     1       4.643   0.700  15.423  1.00  0.00     0.000 A 
ENDBRANCH  60  73
ENDBRANCH  34  35
ENDBRANCH  27  29
ENDBRANCH  26  27
ENDBRANCH  25  26
ENDBRANCH  24  25
ENDBRANCH   1  24
TORSDOF 18
