REMARK SMILES C[C@@](COc1ccccc1)(NC(=O)CN1CSCC1=O)C(=O)OCCOCCOC(=O)c1ccc(-c2c3nc(c(-c4ccccc4)c4ccc([nH]4)c(-c4ccccc4)c4nc(c(-c5ccccc5)c5ccc2[nH]5)C=C4)C=C3)cc1
REMARK SMILES IDX 25 1 24 2 23 3 21 4 22 5 2 6 1 7 3 8 4 9 5 10 6 11 10 12
REMARK SMILES IDX 7 13 9 14 8 15 11 16 12 17 13 19 14 20 15 21 16 22 19 23
REMARK SMILES IDX 17 24 18 25 20 26 26 27 27 28 28 29 29 30 30 31 31 32 32 33
REMARK SMILES IDX 33 34 79 35 34 36 78 37 35 38 36 39 37 40 72 41 38 42 77 43
REMARK SMILES IDX 71 44 73 45 39 46 76 47 70 48 69 49 40 51 62 52 47 53 61 54
REMARK SMILES IDX 48 55 51 56 60 57 74 58 49 59 50 60 59 62 75 63 52 64 41 65
REMARK SMILES IDX 42 66 46 67 43 68 45 69 44 70 63 71 64 72 68 73 65 74 67 75
REMARK SMILES IDX 66 76 53 77 54 78 58 79 55 80 57 81 56 82
REMARK H PARENT 11 18 73 50 51 61
REMARK Flexibility Score: inf
ROOT
ATOM      1  C   UNL     1       1.910  -2.382  -4.301  1.00  0.00     0.202 C 
ENDROOT
BRANCH   1   2
ATOM      2  C   UNL     1       2.492  -3.239  -3.054  1.00  0.00     0.261 C 
BRANCH   2   3
ATOM      3  O   UNL     1       1.784  -3.126  -1.786  1.00  0.00    -0.461 OA
BRANCH   3   4
ATOM      4  C   UNL     1       2.313  -2.997  -0.542  1.00  0.00     0.335 C 
ATOM      5  O   UNL     1       3.476  -3.249  -0.268  1.00  0.00    -0.249 OA
BRANCH   4   6
ATOM      6  C   UNL     1       1.327  -2.161   0.360  1.00  0.00     0.169 C 
ATOM      7  C   UNL     1       1.935  -0.723   0.392  1.00  0.00     0.051 C 
BRANCH   6   8
ATOM      8  C   UNL     1       1.306  -2.597   1.861  1.00  0.00     0.269 C 
BRANCH   8   9
ATOM      9  O   UNL     1       0.182  -1.962   2.569  1.00  0.00    -0.491 OA
BRANCH   9  10
ATOM     10  C   UNL     1       0.398  -0.683   3.021  1.00  0.00     0.119 A 
ATOM     11  C   UNL     1       1.210  -0.437   4.123  1.00  0.00     0.046 A 
ATOM     12  C   UNL     1      -0.259   0.386   2.396  1.00  0.00     0.046 A 
ATOM     13  C   UNL     1       1.441   0.880   4.538  1.00  0.00     0.004 A 
ATOM     14  C   UNL     1       0.009   1.704   2.782  1.00  0.00     0.004 A 
ATOM     15  C   UNL     1       0.866   1.951   3.850  1.00  0.00     0.000 A 
ENDBRANCH   9  10
ENDBRANCH   8   9
ENDBRANCH   6   8
BRANCH   6  16
ATOM     16  N   UNL     1      -0.149  -2.204  -0.031  1.00  0.00    -0.336 N 
ATOM     17  C   UNL     1      -1.002  -2.399  -1.065  1.00  0.00     0.240 C 
ATOM     18  H   UNL     1      -0.684  -2.020   0.775  1.00  0.00     0.164 HD
ATOM     19  O   UNL     1      -2.178  -2.087  -0.830  1.00  0.00    -0.273 OA
BRANCH  17  20
ATOM     20  C   UNL     1      -0.628  -2.938  -2.446  1.00  0.00     0.220 C 
BRANCH  20  21
ATOM     21  N   UNL     1      -0.035  -1.857  -3.247  1.00  0.00    -0.323 N 
ATOM     22  C   UNL     1       1.142  -0.611  -2.404  1.00  0.00     0.190 C 
ATOM     23  C   UNL     1      -0.274  -1.603  -5.049  1.00  0.00     0.233 C 
ATOM     24  S   UNL     1       1.660   1.127  -3.883  1.00  0.00    -0.130 SA
ATOM     25  C   UNL     1       0.546   0.096  -5.684  1.00  0.00     0.171 C 
ATOM     26  O   UNL     1      -0.783  -2.375  -5.842  1.00  0.00    -0.274 OA
ENDBRANCH  20  21
ENDBRANCH  17  20
ENDBRANCH   6  16
ENDBRANCH   4   6
ENDBRANCH   3   4
ENDBRANCH   2   3
ENDBRANCH   1   2
BRANCH   1  27
ATOM     27  O   UNL     1       1.206  -0.889  -4.243  1.00  0.00    -0.374 OA
BRANCH  27  28
ATOM     28  C   UNL     1      -0.525  -0.009  -3.742  1.00  0.00     0.202 C 
BRANCH  28  29
ATOM     29  C   UNL     1      -2.182  -0.481  -4.002  1.00  0.00     0.261 C 
BRANCH  29  30
ATOM     30  O   UNL     1      -2.596  -1.873  -3.882  1.00  0.00    -0.460 OA
BRANCH  30  31
ATOM     31  C   UNL     1      -3.211  -2.538  -4.904  1.00  0.00     0.338 C 
ATOM     32  O   UNL     1      -3.737  -2.013  -5.870  1.00  0.00    -0.246 OA
BRANCH  31  33
ATOM     33  C   UNL     1      -3.089  -4.044  -4.736  1.00  0.00     0.060 A 
ATOM     34  C   UNL     1      -2.085  -4.804  -5.377  1.00  0.00     0.016 A 
ATOM     35  C   UNL     1      -4.038  -4.744  -3.994  1.00  0.00     0.016 A 
ATOM     36  C   UNL     1      -2.050  -6.210  -5.335  1.00  0.00     0.010 A 
ATOM     37  C   UNL     1      -4.023  -6.158  -3.970  1.00  0.00     0.010 A 
ATOM     38  C   UNL     1      -3.063  -6.907  -4.682  1.00  0.00    -0.014 A 
BRANCH  38  39
ATOM     39  C   UNL     1      -3.305  -8.359  -4.965  1.00  0.00     0.031 A 
ATOM     40  C   UNL     1      -4.399  -8.708  -5.952  1.00  0.00     0.074 A 
ATOM     41  C   UNL     1      -2.613  -9.367  -4.395  1.00  0.00     0.049 A 
ATOM     42  N   UNL     1      -4.931  -9.870  -6.239  1.00  0.00    -0.248 NA
ATOM     43  C   UNL     1      -4.971  -7.582  -6.708  1.00  0.00     0.031 C 
ATOM     44  C   UNL     1      -1.465  -9.224  -3.503  1.00  0.00     0.029 A 
ATOM     45  N   UNL     1      -2.803 -10.732  -4.474  1.00  0.00    -0.354 N 
ATOM     46  C   UNL     1      -5.923  -9.609  -7.180  1.00  0.00     0.074 A 
ATOM     47  C   UNL     1      -5.928  -8.179  -7.402  1.00  0.00     0.031 C 
ATOM     48  C   UNL     1      -1.073 -10.446  -3.096  1.00  0.00     0.029 A 
ATOM     49  C   UNL     1      -1.967 -11.460  -3.659  1.00  0.00     0.049 A 
ATOM     50  H   UNL     1      -3.476 -11.146  -5.061  1.00  0.00     0.167 HD
ATOM     51  C   UNL     1      -6.761 -10.471  -7.806  1.00  0.00     0.031 A 
ATOM     52  C   UNL     1      -1.944 -12.779  -3.369  1.00  0.00     0.031 A 
ATOM     53  C   UNL     1      -6.776 -11.894  -7.598  1.00  0.00     0.049 A 
ATOM     54  C   UNL     1      -2.959 -13.711  -3.993  1.00  0.00     0.074 A 
ATOM     55  C   UNL     1      -7.592 -12.842  -8.191  1.00  0.00     0.029 A 
ATOM     56  N   UNL     1      -5.938 -12.575  -6.731  1.00  0.00    -0.354 N 
ATOM     57  N   UNL     1      -3.899 -13.450  -4.867  1.00  0.00    -0.248 NA
ATOM     58  C   UNL     1      -2.904 -15.127  -3.585  1.00  0.00     0.031 C 
ATOM     59  C   UNL     1      -7.290 -14.090  -7.637  1.00  0.00     0.029 A 
ATOM     60  C   UNL     1      -6.236 -13.927  -6.754  1.00  0.00     0.049 A 
ATOM     61  H   UNL     1      -5.235 -12.159  -6.180  1.00  0.00     0.167 HD
ATOM     62  C   UNL     1      -4.517 -14.667  -5.142  1.00  0.00     0.074 A 
ATOM     63  C   UNL     1      -3.839 -15.671  -4.351  1.00  0.00     0.031 C 
ATOM     64  C   UNL     1      -5.552 -14.928  -5.977  1.00  0.00     0.031 A 
BRANCH  51  65
ATOM     65  C   UNL     1      -7.772  -9.888  -8.757  1.00  0.00    -0.014 A 
ATOM     66  C   UNL     1      -7.390  -9.355  -9.997  1.00  0.00     0.009 A 
ATOM     67  C   UNL     1      -9.135  -9.913  -8.419  1.00  0.00     0.009 A 
ATOM     68  C   UNL     1      -8.350  -8.827 -10.865  1.00  0.00     0.001 A 
ATOM     69  C   UNL     1     -10.095  -9.415  -9.303  1.00  0.00     0.001 A 
ATOM     70  C   UNL     1      -9.700  -8.864 -10.520  1.00  0.00     0.000 A 
ENDBRANCH  51  65
BRANCH  52  71
ATOM     71  C   UNL     1      -0.951 -13.326  -2.398  1.00  0.00    -0.014 A 
ATOM     72  C   UNL     1       0.042 -14.228  -2.816  1.00  0.00     0.009 A 
ATOM     73  C   UNL     1      -1.033 -13.004  -1.034  1.00  0.00     0.009 A 
ATOM     74  C   UNL     1       0.909 -14.813  -1.888  1.00  0.00     0.001 A 
ATOM     75  C   UNL     1      -0.143 -13.563  -0.113  1.00  0.00     0.001 A 
ATOM     76  C   UNL     1       0.820 -14.476  -0.539  1.00  0.00     0.000 A 
ENDBRANCH  52  71
BRANCH  64  77
ATOM     77  C   UNL     1      -5.985 -16.362  -6.137  1.00  0.00    -0.014 A 
ATOM     78  C   UNL     1      -6.651 -17.051  -5.111  1.00  0.00     0.009 A 
ATOM     79  C   UNL     1      -5.765 -17.019  -7.359  1.00  0.00     0.009 A 
ATOM     80  C   UNL     1      -7.055 -18.377  -5.295  1.00  0.00     0.001 A 
ATOM     81  C   UNL     1      -6.198 -18.332  -7.551  1.00  0.00     0.001 A 
ATOM     82  C   UNL     1      -6.833 -19.014  -6.516  1.00  0.00     0.000 A 
ENDBRANCH  64  77
ENDBRANCH  38  39
ENDBRANCH  31  33
ENDBRANCH  30  31
ENDBRANCH  29  30
ENDBRANCH  28  29
ENDBRANCH  27  28
ENDBRANCH   1  27
TORSDOF 20
