REMARK SMILES O=C(OCCOCCOC(=O)[C@@H]1CCCC[C@@H]1C(=O)Nc1cccc(Br)c1)c1ccc(-c2c3nc(c(-c4ccccc4)c4ccc([nH]4)c(-c4ccccc4)c4nc(c(-c5ccccc5)c5ccc2[nH]5)C=C4)C=C3)cc1
REMARK SMILES IDX 6 1 5 2 4 3 3 4 2 5 1 6 28 7 29 8 75 9 30 10 74 11 31 12
REMARK SMILES IDX 32 13 33 14 68 15 34 16 73 17 67 18 69 19 35 20 72 21 66 22
REMARK SMILES IDX 65 23 36 25 58 26 43 27 57 28 44 29 47 30 56 31 70 32 45 33
REMARK SMILES IDX 46 34 55 36 71 37 48 38 37 39 38 40 42 41 39 42 41 43 40 44
REMARK SMILES IDX 59 45 60 46 64 47 61 48 63 49 62 50 49 51 50 52 54 53 51 54
REMARK SMILES IDX 53 55 52 56 7 57 8 58 9 59 10 60 11 61 12 62 13 63 17 64
REMARK SMILES IDX 14 65 16 66 15 67 18 68 19 69 20 70 21 72 22 73 27 74 23 75
REMARK SMILES IDX 25 76 24 77 26 78
REMARK H PARENT 69 24 47 35 20 71
REMARK Flexibility Score: inf
ROOT
ATOM      1  O   UNL     1       3.726   0.896   1.134  1.00  0.00    -0.374 OA
ENDROOT
BRANCH   1   2
ATOM      2  C   UNL     1       4.164   1.403  -0.128  1.00  0.00     0.202 C 
BRANCH   2   3
ATOM      3  C   UNL     1       3.995   0.430  -1.297  1.00  0.00     0.261 C 
BRANCH   3   4
ATOM      4  O   UNL     1       2.646  -0.052  -1.361  1.00  0.00    -0.460 OA
BRANCH   4   5
ATOM      5  C   UNL     1       2.135  -1.124  -0.708  1.00  0.00     0.338 C 
ATOM      6  O   UNL     1       0.920  -1.310  -0.738  1.00  0.00    -0.246 OA
BRANCH   5   7
ATOM      7  C   UNL     1       2.976  -2.116   0.028  1.00  0.00     0.060 A 
ATOM      8  C   UNL     1       4.194  -1.829   0.643  1.00  0.00     0.016 A 
ATOM      9  C   UNL     1       2.461  -3.415   0.176  1.00  0.00     0.016 A 
ATOM     10  C   UNL     1       4.898  -2.769   1.354  1.00  0.00     0.010 A 
ATOM     11  C   UNL     1       3.153  -4.377   0.918  1.00  0.00     0.010 A 
ATOM     12  C   UNL     1       4.374  -4.041   1.508  1.00  0.00    -0.014 A 
BRANCH  12  13
ATOM     13  C   UNL     1       5.256  -4.987   2.192  1.00  0.00     0.031 A 
ATOM     14  C   UNL     1       6.056  -5.920   1.346  1.00  0.00     0.074 A 
ATOM     15  C   UNL     1       5.510  -4.793   3.500  1.00  0.00     0.049 A 
ATOM     16  N   UNL     1       6.932  -6.813   1.710  1.00  0.00    -0.248 NA
ATOM     17  C   UNL     1       5.869  -5.812  -0.114  1.00  0.00     0.031 C 
ATOM     18  C   UNL     1       4.907  -3.743   4.333  1.00  0.00     0.029 A 
ATOM     19  N   UNL     1       6.388  -5.416   4.339  1.00  0.00    -0.354 N 
ATOM     20  C   UNL     1       7.377  -7.392   0.531  1.00  0.00     0.074 A 
ATOM     21  C   UNL     1       6.680  -6.756  -0.562  1.00  0.00     0.031 C 
ATOM     22  C   UNL     1       5.455  -3.784   5.557  1.00  0.00     0.029 A 
ATOM     23  C   UNL     1       6.376  -4.909   5.615  1.00  0.00     0.049 A 
ATOM     24  H   UNL     1       6.972  -6.157   4.057  1.00  0.00     0.167 HD
ATOM     25  C   UNL     1       8.286  -8.382   0.392  1.00  0.00     0.031 A 
ATOM     26  C   UNL     1       7.011  -5.353   6.714  1.00  0.00     0.031 A 
ATOM     27  C   UNL     1       8.941  -8.993   1.513  1.00  0.00     0.049 A 
ATOM     28  C   UNL     1       7.893  -6.560   6.548  1.00  0.00     0.074 A 
ATOM     29  C   UNL     1       9.796 -10.076   1.534  1.00  0.00     0.029 A 
ATOM     30  N   UNL     1       8.806  -8.554   2.825  1.00  0.00    -0.354 N 
ATOM     31  N   UNL     1       8.229  -7.193   5.447  1.00  0.00    -0.248 NA
ATOM     32  C   UNL     1       8.469  -7.125   7.772  1.00  0.00     0.031 C 
ATOM     33  C   UNL     1      10.135 -10.327   2.868  1.00  0.00     0.029 A 
ATOM     34  C   UNL     1       9.547  -9.358   3.669  1.00  0.00     0.049 A 
ATOM     35  H   UNL     1       8.263  -7.784   3.110  1.00  0.00     0.167 HD
ATOM     36  C   UNL     1       9.069  -8.222   5.842  1.00  0.00     0.074 A 
ATOM     37  C   UNL     1       9.217  -8.102   7.281  1.00  0.00     0.031 C 
ATOM     38  C   UNL     1       9.658  -9.189   5.096  1.00  0.00     0.031 A 
BRANCH  25  39
ATOM     39  C   UNL     1       8.521  -8.902  -0.995  1.00  0.00    -0.014 A 
ATOM     40  C   UNL     1       9.225  -8.158  -1.955  1.00  0.00     0.009 A 
ATOM     41  C   UNL     1       7.990 -10.149  -1.357  1.00  0.00     0.009 A 
ATOM     42  C   UNL     1       9.367  -8.643  -3.258  1.00  0.00     0.001 A 
ATOM     43  C   UNL     1       8.156 -10.643  -2.651  1.00  0.00     0.001 A 
ATOM     44  C   UNL     1       8.836  -9.886  -3.603  1.00  0.00     0.000 A 
ENDBRANCH  25  39
BRANCH  26  45
ATOM     45  C   UNL     1       6.752  -4.750   8.050  1.00  0.00    -0.014 A 
ATOM     46  C   UNL     1       7.787  -4.187   8.811  1.00  0.00     0.009 A 
ATOM     47  C   UNL     1       5.460  -4.792   8.603  1.00  0.00     0.009 A 
ATOM     48  C   UNL     1       7.544  -3.726  10.109  1.00  0.00     0.001 A 
ATOM     49  C   UNL     1       5.211  -4.296   9.884  1.00  0.00     0.001 A 
ATOM     50  C   UNL     1       6.257  -3.780  10.644  1.00  0.00     0.000 A 
ENDBRANCH  26  45
BRANCH  38  51
ATOM     51  C   UNL     1      10.540 -10.152   5.834  1.00  0.00    -0.014 A 
ATOM     52  C   UNL     1      10.001 -11.114   6.702  1.00  0.00     0.009 A 
ATOM     53  C   UNL     1      11.927 -10.108   5.631  1.00  0.00     0.009 A 
ATOM     54  C   UNL     1      10.844 -11.986   7.390  1.00  0.00     0.001 A 
ATOM     55  C   UNL     1      12.763 -11.008   6.290  1.00  0.00     0.001 A 
ATOM     56  C   UNL     1      12.222 -11.936   7.178  1.00  0.00     0.000 A 
ENDBRANCH  38  51
ENDBRANCH  12  13
ENDBRANCH   5   7
ENDBRANCH   4   5
ENDBRANCH   3   4
ENDBRANCH   2   3
ENDBRANCH   1   2
BRANCH   1  57
ATOM     57  C   UNL     1       2.373   1.145   1.511  1.00  0.00     0.202 C 
BRANCH  57  58
ATOM     58  C   UNL     1       2.334   2.045   2.747  1.00  0.00     0.261 C 
BRANCH  58  59
ATOM     59  O   UNL     1       2.799   3.347   2.371  1.00  0.00    -0.463 OA
BRANCH  59  60
ATOM     60  C   UNL     1       4.153   3.445   2.241  1.00  0.00     0.309 C 
ATOM     61  O   UNL     1       4.965   2.668   2.723  1.00  0.00    -0.252 OA
BRANCH  60  62
ATOM     62  C   UNL     1       4.468   4.610   1.331  1.00  0.00     0.111 C 
ATOM     63  C   UNL     1       5.753   4.482   0.515  1.00  0.00     0.016 C 
ATOM     64  C   UNL     1       4.311   5.910   2.101  1.00  0.00     0.093 C 
ATOM     65  C   UNL     1       6.194   5.762  -0.199  1.00  0.00     0.001 C 
ATOM     66  C   UNL     1       4.520   7.104   1.181  1.00  0.00     0.014 C 
ATOM     67  C   UNL     1       5.865   7.087   0.484  1.00  0.00     0.001 C 
BRANCH  64  68
ATOM     68  C   UNL     1       4.822   6.029   3.558  1.00  0.00     0.228 C 
ATOM     69  O   UNL     1       4.168   6.731   4.342  1.00  0.00    -0.274 OA
ATOM     70  N   UNL     1       5.816   5.268   4.103  1.00  0.00    -0.326 N 
ATOM     71  H   UNL     1       5.655   5.032   5.046  1.00  0.00     0.169 HD
BRANCH  70  72
ATOM     72  C   UNL     1       7.018   4.754   3.598  1.00  0.00     0.042 A 
ATOM     73  C   UNL     1       7.878   5.510   2.808  1.00  0.00     0.026 A 
ATOM     74  C   UNL     1       7.394   3.455   3.956  1.00  0.00     0.041 A 
ATOM     75  C   UNL     1       9.016   4.927   2.238  1.00  0.00     0.003 A 
ATOM     76  C   UNL     1       8.508   2.862   3.359  1.00  0.00     0.020 A 
ATOM     77  C   UNL     1       9.312   3.587   2.483  1.00  0.00     0.016 A 
ATOM     78  Br  UNL     1       8.891   1.039   3.688  1.00  0.00    -0.051 Br
ENDBRANCH  70  72
ENDBRANCH  64  68
ENDBRANCH  60  62
ENDBRANCH  59  60
ENDBRANCH  58  59
ENDBRANCH  57  58
ENDBRANCH   1  57
TORSDOF 16
