REMARK SMILES Cc1ccc(S(=O)(=O)n2cc(C(=O)C(=O)NCC(=O)NCC(=O)OCCOCCOC(=O)c3ccc(-c4c5nc(c(-c6ccccc6)c6ccc([nH]6)c(-c6ccccc6)c6nc(c(-c7ccccc7)c7ccc4[nH]7)C=C6)C=C5)cc3)c3ccccc32)cc1
REMARK SMILES IDX 25 1 24 2 22 3 23 4 21 5 20 6 18 7 19 8 17 10 16 11 14 12
REMARK SMILES IDX 15 13 12 15 13 16 11 17 9 18 10 19 86 20 81 21 85 22 82 23
REMARK SMILES IDX 84 24 83 25 6 26 7 27 8 28 5 29 1 30 2 31 3 32 88 33 4 34
REMARK SMILES IDX 87 35 26 36 27 37 28 38 29 39 30 40 31 41 32 42 33 43 34 44
REMARK SMILES IDX 80 45 35 46 79 47 36 48 37 49 38 50 73 51 39 52 78 53 72 54
REMARK SMILES IDX 74 55 40 56 77 57 71 58 70 59 41 61 63 62 48 63 62 64 49 65
REMARK SMILES IDX 52 66 61 67 75 68 50 69 51 70 60 72 76 73 53 74 42 75 43 76
REMARK SMILES IDX 47 77 44 78 46 79 45 80 64 81 65 82 69 83 66 84 68 85 67 86
REMARK SMILES IDX 54 87 55 88 59 89 56 90 58 91 57 92
REMARK H PARENT 20 9 16 14 74 60 52 71
REMARK Flexibility Score: inf
ROOT
ATOM      1  C   UNL     1     -10.667   3.722   2.338  1.00  0.00     0.261 C 
ENDROOT
BRANCH   1   2
ATOM      2  O   UNL     1      -9.844   4.780   1.861  1.00  0.00    -0.462 OA
BRANCH   2   3
ATOM      3  C   UNL     1      -9.462   4.760   0.555  1.00  0.00     0.325 C 
ATOM      4  O   UNL     1      -9.479   3.794  -0.192  1.00  0.00    -0.250 OA
BRANCH   3   5
ATOM      5  C   UNL     1      -8.979   6.159   0.159  1.00  0.00     0.238 C 
BRANCH   5   6
ATOM      6  N   UNL     1      -9.365   7.147   1.174  1.00  0.00    -0.344 N 
ATOM      7  C   UNL     1      -8.719   7.422   2.349  1.00  0.00     0.239 C 
ATOM      8  O   UNL     1      -9.370   7.888   3.285  1.00  0.00    -0.273 OA
ATOM      9  H   UNL     1     -10.178   7.670   0.989  1.00  0.00     0.164 HD
BRANCH   7  10
ATOM     10  C   UNL     1      -7.231   7.096   2.482  1.00  0.00     0.216 C 
BRANCH  10  11
ATOM     11  N   UNL     1      -7.057   5.663   2.619  1.00  0.00    -0.340 N 
ATOM     12  C   UNL     1      -6.232   4.807   1.936  1.00  0.00     0.292 C 
ATOM     13  O   UNL     1      -6.468   3.611   2.012  1.00  0.00    -0.265 OA
ATOM     14  H   UNL     1      -7.618   5.240   3.309  1.00  0.00     0.164 HD
BRANCH  12  15
ATOM     15  C   UNL     1      -5.068   5.286   1.045  1.00  0.00     0.252 C 
ATOM     16  O   UNL     1      -4.880   6.488   0.894  1.00  0.00    -0.283 OA
BRANCH  15  17
ATOM     17  C   UNL     1      -4.245   4.296   0.340  1.00  0.00     0.054 A 
ATOM     18  N   UNL     1      -3.100   2.442  -0.155  1.00  0.00    -0.240 N 
ATOM     19  C   UNL     1      -3.795   3.088   0.838  1.00  0.00     0.117 A 
ATOM     20  C   UNL     1      -3.139   3.161  -1.329  1.00  0.00     0.065 A 
ATOM     21  C   UNL     1      -3.799   4.361  -1.021  1.00  0.00     0.012 A 
ATOM     22  C   UNL     1      -2.689   2.873  -2.628  1.00  0.00     0.028 A 
ATOM     23  C   UNL     1      -3.968   5.319  -2.041  1.00  0.00     0.011 A 
ATOM     24  C   UNL     1      -2.884   3.838  -3.619  1.00  0.00     0.002 A 
ATOM     25  C   UNL     1      -3.503   5.049  -3.330  1.00  0.00     0.001 A 
BRANCH  18  26
ATOM     26  S   UNL     1      -2.540   0.848  -0.006  1.00  0.00     0.268 S 
ATOM     27  O   UNL     1      -3.161   0.131  -1.086  1.00  0.00    -0.201 OA
ATOM     28  O   UNL     1      -2.700   0.540   1.411  1.00  0.00    -0.201 OA
BRANCH  26  29
ATOM     29  C   UNL     1      -0.813   0.717  -0.242  1.00  0.00     0.088 A 
ATOM     30  C   UNL     1       3.387  -0.018  -0.039  1.00  0.00     0.044 C 
ATOM     31  C   UNL     1       1.919   0.251  -0.168  1.00  0.00    -0.051 A 
ATOM     32  C   UNL     1       1.039  -0.831  -0.259  1.00  0.00     0.005 A 
ATOM     33  C   UNL     1       1.415   1.564  -0.148  1.00  0.00     0.005 A 
ATOM     34  C   UNL     1      -0.327  -0.600  -0.297  1.00  0.00     0.022 A 
ATOM     35  C   UNL     1       0.042   1.806  -0.182  1.00  0.00     0.022 A 
ENDBRANCH  26  29
ENDBRANCH  18  26
ENDBRANCH  15  17
ENDBRANCH  12  15
ENDBRANCH  10  11
ENDBRANCH   7  10
ENDBRANCH   5   6
ENDBRANCH   3   5
ENDBRANCH   2   3
ENDBRANCH   1   2
BRANCH   1  36
ATOM     36  C   UNL     1     -12.117   4.162   2.253  1.00  0.00     0.202 C 
BRANCH  36  37
ATOM     37  O   UNL     1     -12.586   3.947   0.925  1.00  0.00    -0.374 OA
BRANCH  37  38
ATOM     38  C   UNL     1     -13.851   4.540   0.628  1.00  0.00     0.202 C 
BRANCH  38  39
ATOM     39  C   UNL     1     -15.000   4.175   1.586  1.00  0.00     0.261 C 
BRANCH  39  40
ATOM     40  O   UNL     1     -15.272   2.765   1.504  1.00  0.00    -0.460 OA
BRANCH  40  41
ATOM     41  C   UNL     1     -15.002   2.057   2.631  1.00  0.00     0.338 C 
ATOM     42  O   UNL     1     -15.364   2.346   3.759  1.00  0.00    -0.246 OA
BRANCH  41  43
ATOM     43  C   UNL     1     -13.948   1.052   2.328  1.00  0.00     0.060 A 
ATOM     44  C   UNL     1     -13.322   0.363   3.381  1.00  0.00     0.016 A 
ATOM     45  C   UNL     1     -13.386   1.047   1.052  1.00  0.00     0.016 A 
ATOM     46  C   UNL     1     -12.075  -0.233   3.175  1.00  0.00     0.010 A 
ATOM     47  C   UNL     1     -12.112   0.562   0.887  1.00  0.00     0.010 A 
ATOM     48  C   UNL     1     -11.452  -0.079   1.939  1.00  0.00    -0.014 A 
BRANCH  48  49
ATOM     49  C   UNL     1     -10.066  -0.415   1.652  1.00  0.00     0.031 A 
ATOM     50  C   UNL     1      -9.730  -1.405   0.602  1.00  0.00     0.074 A 
ATOM     51  C   UNL     1      -9.094   0.345   2.195  1.00  0.00     0.049 A 
ATOM     52  N   UNL     1      -8.612  -2.047   0.548  1.00  0.00    -0.248 NA
ATOM     53  C   UNL     1     -10.655  -1.802  -0.457  1.00  0.00     0.031 C 
ATOM     54  C   UNL     1      -7.744   0.528   1.703  1.00  0.00     0.029 A 
ATOM     55  N   UNL     1      -9.104   1.019   3.403  1.00  0.00    -0.354 N 
ATOM     56  C   UNL     1      -8.534  -2.618  -0.704  1.00  0.00     0.074 A 
ATOM     57  C   UNL     1      -9.868  -2.542  -1.242  1.00  0.00     0.031 C 
ATOM     58  C   UNL     1      -6.981   1.013   2.692  1.00  0.00     0.029 A 
ATOM     59  C   UNL     1      -7.797   1.134   3.875  1.00  0.00     0.049 A 
ATOM     60  H   UNL     1      -9.906   1.363   3.858  1.00  0.00     0.167 HD
ATOM     61  C   UNL     1      -7.313  -2.905  -1.239  1.00  0.00     0.031 A 
ATOM     62  C   UNL     1      -7.457   0.740   5.129  1.00  0.00     0.031 A 
ATOM     63  C   UNL     1      -6.254  -2.501  -0.323  1.00  0.00     0.049 A 
ATOM     64  C   UNL     1      -6.521  -0.436   5.057  1.00  0.00     0.074 A 
ATOM     65  C   UNL     1      -5.596  -1.290  -0.267  1.00  0.00     0.029 A 
ATOM     66  N   UNL     1      -6.064  -3.120   0.914  1.00  0.00    -0.354 N 
ATOM     67  N   UNL     1      -6.404  -1.192   3.998  1.00  0.00    -0.248 NA
ATOM     68  C   UNL     1      -5.615  -0.834   6.122  1.00  0.00     0.031 C 
ATOM     69  C   UNL     1      -5.105  -1.148   1.043  1.00  0.00     0.029 A 
ATOM     70  C   UNL     1      -5.305  -2.312   1.747  1.00  0.00     0.049 A 
ATOM     71  H   UNL     1      -6.419  -4.004   1.161  1.00  0.00     0.167 HD
ATOM     72  C   UNL     1      -5.318  -2.016   4.134  1.00  0.00     0.074 A 
ATOM     73  C   UNL     1      -4.933  -1.831   5.527  1.00  0.00     0.031 C 
ATOM     74  C   UNL     1      -4.808  -2.711   3.066  1.00  0.00     0.031 A 
BRANCH  61  75
ATOM     75  C   UNL     1      -7.082  -3.118  -2.722  1.00  0.00    -0.014 A 
ATOM     76  C   UNL     1      -5.857  -2.732  -3.304  1.00  0.00     0.009 A 
ATOM     77  C   UNL     1      -8.041  -3.640  -3.606  1.00  0.00     0.009 A 
ATOM     78  C   UNL     1      -5.636  -2.784  -4.689  1.00  0.00     0.001 A 
ATOM     79  C   UNL     1      -7.843  -3.659  -4.996  1.00  0.00     0.001 A 
ATOM     80  C   UNL     1      -6.641  -3.224  -5.539  1.00  0.00     0.000 A 
ENDBRANCH  61  75
BRANCH  62  81
ATOM     81  C   UNL     1      -8.530   1.055   6.112  1.00  0.00    -0.014 A 
ATOM     82  C   UNL     1      -8.737   2.431   6.377  1.00  0.00     0.009 A 
ATOM     83  C   UNL     1      -9.599   0.172   6.316  1.00  0.00     0.009 A 
ATOM     84  C   UNL     1     -10.013   2.925   6.667  1.00  0.00     0.001 A 
ATOM     85  C   UNL     1     -10.875   0.674   6.618  1.00  0.00     0.001 A 
ATOM     86  C   UNL     1     -11.089   2.048   6.748  1.00  0.00     0.000 A 
ENDBRANCH  62  81
BRANCH  74  87
ATOM     87  C   UNL     1      -3.664  -3.704   3.085  1.00  0.00    -0.014 A 
ATOM     88  C   UNL     1      -2.808  -3.939   4.163  1.00  0.00     0.009 A 
ATOM     89  C   UNL     1      -3.412  -4.478   1.926  1.00  0.00     0.009 A 
ATOM     90  C   UNL     1      -1.865  -4.976   4.142  1.00  0.00     0.001 A 
ATOM     91  C   UNL     1      -2.473  -5.508   1.891  1.00  0.00     0.001 A 
ATOM     92  C   UNL     1      -1.719  -5.780   3.018  1.00  0.00     0.000 A 
ENDBRANCH  74  87
ENDBRANCH  48  49
ENDBRANCH  41  43
ENDBRANCH  40  41
ENDBRANCH  39  40
ENDBRANCH  38  39
ENDBRANCH  37  38
ENDBRANCH  36  37
ENDBRANCH   1  36
TORSDOF 21
