REMARK SMILES C[C@@H](C(=O)OCCOCCOC(=O)c1ccc(-c2c3nc(c(-c4ccccc4)c4ccc([nH]4)c(-c4ccccc4)c4nc(c(-c5ccccc5)c5ccc2[nH]5)C=C4)C=C3)cc1)c1ccc(C[C@H]2CCCC2=O)c(-c2ccccc2)c1
REMARK SMILES IDX 7 1 6 2 5 3 3 4 4 5 2 6 1 7 62 8 63 9 80 10 64 11 73 12
REMARK SMILES IDX 65 13 74 14 75 15 79 16 76 17 78 18 77 19 66 20 67 21 68 22
REMARK SMILES IDX 71 23 69 24 70 25 72 26 8 27 9 28 10 29 11 30 12 31 13 32
REMARK SMILES IDX 14 33 15 34 61 35 16 36 60 37 17 38 18 39 19 40 54 41 20 42
REMARK SMILES IDX 59 43 53 44 55 45 21 46 58 47 52 48 51 49 22 51 44 52 29 53
REMARK SMILES IDX 43 54 30 55 33 56 42 57 56 58 31 59 32 60 41 62 57 63 34 64
REMARK SMILES IDX 23 65 24 66 28 67 25 68 27 69 26 70 45 71 46 72 50 73 47 74
REMARK SMILES IDX 49 75 48 76 35 77 36 78 40 79 37 80 39 81 38 82
REMARK H PARENT 55 50 33 61
REMARK Flexibility Score: inf
ROOT
ATOM      1  C   UNL     1       2.302   4.228   1.937  1.00  0.00     0.202 C 
ENDROOT
BRANCH   1   2
ATOM      2  C   UNL     1       2.173   3.110   2.974  1.00  0.00     0.261 C 
BRANCH   2   3
ATOM      3  O   UNL     1       1.895   1.867   2.305  1.00  0.00    -0.463 OA
BRANCH   3   4
ATOM      4  C   UNL     1       0.989   1.058   2.912  1.00  0.00     0.313 C 
ATOM      5  O   UNL     1       0.592   1.211   4.062  1.00  0.00    -0.252 OA
BRANCH   4   6
ATOM      6  C   UNL     1       0.460  -0.034   1.975  1.00  0.00     0.126 C 
ATOM      7  C   UNL     1       1.158  -0.140   0.616  1.00  0.00     0.025 C 
BRANCH   6   8
ATOM      8  C   UNL     1      -1.048   0.064   1.793  1.00  0.00    -0.033 A 
ATOM      9  C   UNL     1      -1.702   1.287   1.633  1.00  0.00     0.005 A 
ATOM     10  C   UNL     1      -1.827  -1.098   1.794  1.00  0.00     0.013 A 
ATOM     11  C   UNL     1      -3.088   1.349   1.517  1.00  0.00     0.004 A 
ATOM     12  C   UNL     1      -3.240  -1.062   1.746  1.00  0.00    -0.015 A 
ATOM     13  C   UNL     1      -3.880   0.195   1.637  1.00  0.00    -0.039 A 
BRANCH  12  14
ATOM     14  C   UNL     1      -3.959  -2.344   1.871  1.00  0.00    -0.018 A 
ATOM     15  C   UNL     1      -4.830  -2.807   0.873  1.00  0.00     0.009 A 
ATOM     16  C   UNL     1      -3.754  -3.157   2.999  1.00  0.00     0.009 A 
ATOM     17  C   UNL     1      -5.506  -4.021   1.020  1.00  0.00     0.001 A 
ATOM     18  C   UNL     1      -4.413  -4.379   3.139  1.00  0.00     0.001 A 
ATOM     19  C   UNL     1      -5.297  -4.806   2.152  1.00  0.00     0.000 A 
ENDBRANCH  12  14
BRANCH  13  20
ATOM     20  C   UNL     1      -5.383   0.391   1.726  1.00  0.00     0.047 C 
BRANCH  20  21
ATOM     21  C   UNL     1      -5.921   0.981   3.040  1.00  0.00     0.060 C 
ATOM     22  C   UNL     1      -5.457   0.318   4.340  1.00  0.00     0.012 C 
ATOM     23  C   UNL     1      -5.504   2.419   3.256  1.00  0.00     0.136 C 
ATOM     24  C   UNL     1      -4.309   1.171   4.869  1.00  0.00     0.009 C 
ATOM     25  C   UNL     1      -4.666   2.602   4.494  1.00  0.00     0.076 C 
ATOM     26  O   UNL     1      -5.824   3.340   2.514  1.00  0.00    -0.299 OA
ENDBRANCH  20  21
ENDBRANCH  13  20
ENDBRANCH   6   8
ENDBRANCH   4   6
ENDBRANCH   3   4
ENDBRANCH   2   3
ENDBRANCH   1   2
BRANCH   1  27
ATOM     27  O   UNL     1       1.082   4.605   1.289  1.00  0.00    -0.374 OA
BRANCH  27  28
ATOM     28  C   UNL     1       0.600   3.735   0.266  1.00  0.00     0.202 C 
BRANCH  28  29
ATOM     29  C   UNL     1       1.186   3.933  -1.132  1.00  0.00     0.261 C 
BRANCH  29  30
ATOM     30  O   UNL     1       2.592   3.644  -1.154  1.00  0.00    -0.460 OA
BRANCH  30  31
ATOM     31  C   UNL     1       3.382   4.737  -1.236  1.00  0.00     0.338 C 
ATOM     32  O   UNL     1       3.034   5.896  -1.416  1.00  0.00    -0.246 OA
BRANCH  31  33
ATOM     33  C   UNL     1       4.767   4.375  -0.891  1.00  0.00     0.060 A 
ATOM     34  C   UNL     1       5.428   5.197   0.031  1.00  0.00     0.016 A 
ATOM     35  C   UNL     1       5.426   3.296  -1.486  1.00  0.00     0.016 A 
ATOM     36  C   UNL     1       6.772   4.984   0.314  1.00  0.00     0.010 A 
ATOM     37  C   UNL     1       6.779   3.088  -1.209  1.00  0.00     0.010 A 
ATOM     38  C   UNL     1       7.465   3.959  -0.342  1.00  0.00    -0.014 A 
BRANCH  38  39
ATOM     39  C   UNL     1       8.941   3.923  -0.253  1.00  0.00     0.031 A 
ATOM     40  C   UNL     1       9.744   4.556  -1.355  1.00  0.00     0.074 A 
ATOM     41  C   UNL     1       9.554   3.386   0.816  1.00  0.00     0.049 A 
ATOM     42  N   UNL     1      11.042   4.657  -1.482  1.00  0.00    -0.248 NA
ATOM     43  C   UNL     1       8.981   5.159  -2.461  1.00  0.00     0.031 C 
ATOM     44  C   UNL     1       8.880   2.791   1.969  1.00  0.00     0.029 A 
ATOM     45  N   UNL     1      10.889   3.262   1.102  1.00  0.00    -0.354 N 
ATOM     46  C   UNL     1      11.250   5.327  -2.681  1.00  0.00     0.074 A 
ATOM     47  C   UNL     1       9.950   5.585  -3.258  1.00  0.00     0.031 C 
ATOM     48  C   UNL     1       9.810   2.364   2.841  1.00  0.00     0.029 A 
ATOM     49  C   UNL     1      11.138   2.630   2.294  1.00  0.00     0.049 A 
ATOM     50  H   UNL     1      11.601   3.595   0.509  1.00  0.00     0.167 HD
ATOM     51  C   UNL     1      12.421   5.699  -3.249  1.00  0.00     0.031 A 
ATOM     52  C   UNL     1      12.308   2.294   2.869  1.00  0.00     0.031 A 
ATOM     53  C   UNL     1      13.714   5.433  -2.681  1.00  0.00     0.049 A 
ATOM     54  C   UNL     1      13.597   2.650   2.178  1.00  0.00     0.074 A 
ATOM     55  C   UNL     1      14.960   5.782  -3.171  1.00  0.00     0.029 A 
ATOM     56  N   UNL     1      13.925   4.744  -1.497  1.00  0.00    -0.354 N 
ATOM     57  N   UNL     1      13.781   3.305   1.058  1.00  0.00    -0.248 NA
ATOM     58  C   UNL     1      14.840   2.223   2.837  1.00  0.00     0.031 C 
ATOM     59  C   UNL     1      15.928   5.258  -2.308  1.00  0.00     0.029 A 
ATOM     60  C   UNL     1      15.283   4.631  -1.254  1.00  0.00     0.049 A 
ATOM     61  H   UNL     1      13.215   4.389  -0.915  1.00  0.00     0.167 HD
ATOM     62  C   UNL     1      15.158   3.394   0.891  1.00  0.00     0.074 A 
ATOM     63  C   UNL     1      15.761   2.735   2.032  1.00  0.00     0.031 C 
ATOM     64  C   UNL     1      15.861   3.971  -0.113  1.00  0.00     0.031 A 
BRANCH  51  65
ATOM     65  C   UNL     1      12.352   6.401  -4.575  1.00  0.00    -0.014 A 
ATOM     66  C   UNL     1      11.908   7.729  -4.676  1.00  0.00     0.009 A 
ATOM     67  C   UNL     1      12.762   5.730  -5.738  1.00  0.00     0.009 A 
ATOM     68  C   UNL     1      11.848   8.361  -5.921  1.00  0.00     0.001 A 
ATOM     69  C   UNL     1      12.724   6.372  -6.977  1.00  0.00     0.001 A 
ATOM     70  C   UNL     1      12.260   7.683  -7.069  1.00  0.00     0.000 A 
ENDBRANCH  51  65
BRANCH  52  71
ATOM     71  C   UNL     1      12.321   1.565   4.163  1.00  0.00    -0.014 A 
ATOM     72  C   UNL     1      12.768   2.193   5.335  1.00  0.00     0.009 A 
ATOM     73  C   UNL     1      11.903   0.226   4.228  1.00  0.00     0.009 A 
ATOM     74  C   UNL     1      12.818   1.487   6.540  1.00  0.00     0.001 A 
ATOM     75  C   UNL     1      11.929  -0.468   5.439  1.00  0.00     0.001 A 
ATOM     76  C   UNL     1      12.395   0.160   6.592  1.00  0.00     0.000 A 
ENDBRANCH  52  71
BRANCH  64  77
ATOM     77  C   UNL     1      17.360   3.946  -0.006  1.00  0.00    -0.014 A 
ATOM     78  C   UNL     1      18.086   2.765  -0.223  1.00  0.00     0.009 A 
ATOM     79  C   UNL     1      18.055   5.133   0.274  1.00  0.00     0.009 A 
ATOM     80  C   UNL     1      19.479   2.768  -0.132  1.00  0.00     0.001 A 
ATOM     81  C   UNL     1      19.449   5.138   0.338  1.00  0.00     0.001 A 
ATOM     82  C   UNL     1      20.159   3.954   0.144  1.00  0.00     0.000 A 
ENDBRANCH  64  77
ENDBRANCH  38  39
ENDBRANCH  31  33
ENDBRANCH  30  31
ENDBRANCH  29  30
ENDBRANCH  28  29
ENDBRANCH  27  28
ENDBRANCH   1  27
TORSDOF 18
