REMARK SMILES C[C@@H](C(=O)OCCOCCOC(=O)c1ccc(-c2c3nc(c(-c4ccccc4)c4ccc([nH]4)c(-c4ccccc4)c4nc(c(-c5ccccc5)c5ccc2[nH]5)C=C4)C=C3)cc1)c1ccc(C[C@@H]2CCC[C@@H]2O)cc1
REMARK SMILES IDX 7 1 6 2 5 3 3 4 4 5 2 6 1 7 62 8 63 9 74 10 64 11 73 12
REMARK SMILES IDX 65 13 66 14 67 15 68 16 71 17 69 18 70 19 72 20 8 22 9 23
REMARK SMILES IDX 10 24 11 25 12 26 13 27 14 28 15 29 61 30 16 31 60 32 17 33
REMARK SMILES IDX 18 34 19 35 54 36 20 37 59 38 53 39 55 40 21 41 58 42 52 43
REMARK SMILES IDX 51 44 22 46 44 47 29 48 43 49 30 50 33 51 42 52 56 53 31 54
REMARK SMILES IDX 32 55 41 57 57 58 34 59 23 60 24 61 28 62 25 63 27 64 26 65
REMARK SMILES IDX 45 66 46 67 50 68 47 69 49 70 48 71 35 72 36 73 40 74 37 75
REMARK SMILES IDX 39 76 38 77
REMARK H PARENT 72 21 55 45 33 56
REMARK Flexibility Score: inf
ROOT
ATOM      1  C   UNL     1     -11.092   1.233   9.603  1.00  0.00     0.202 C 
ENDROOT
BRANCH   1   2
ATOM      2  C   UNL     1      -9.957   2.247   9.776  1.00  0.00     0.261 C 
BRANCH   2   3
ATOM      3  O   UNL     1     -10.113   3.328   8.847  1.00  0.00    -0.463 OA
BRANCH   3   4
ATOM      4  C   UNL     1      -8.955   3.829   8.335  1.00  0.00     0.313 C 
ATOM      5  O   UNL     1      -7.846   3.619   8.814  1.00  0.00    -0.252 OA
BRANCH   4   6
ATOM      6  C   UNL     1      -9.184   4.569   7.016  1.00  0.00     0.126 C 
ATOM      7  C   UNL     1     -10.576   5.212   6.945  1.00  0.00     0.025 C 
BRANCH   6   8
ATOM      8  C   UNL     1      -8.843   3.747   5.769  1.00  0.00    -0.034 A 
ATOM      9  C   UNL     1      -8.325   2.443   5.835  1.00  0.00     0.005 A 
ATOM     10  C   UNL     1      -8.957   4.334   4.498  1.00  0.00     0.005 A 
ATOM     11  C   UNL     1      -7.875   1.781   4.688  1.00  0.00     0.004 A 
ATOM     12  C   UNL     1      -8.499   3.675   3.353  1.00  0.00     0.004 A 
ATOM     13  C   UNL     1      -7.901   2.414   3.444  1.00  0.00    -0.048 A 
BRANCH  13  14
ATOM     14  C   UNL     1      -7.229   1.801   2.240  1.00  0.00     0.041 C 
BRANCH  14  15
ATOM     15  C   UNL     1      -5.694   1.970   2.114  1.00  0.00     0.022 C 
ATOM     16  C   UNL     1      -4.875   1.286   3.215  1.00  0.00     0.007 C 
ATOM     17  C   UNL     1      -5.129   3.396   2.130  1.00  0.00     0.117 C 
ATOM     18  C   UNL     1      -4.505   2.372   4.229  1.00  0.00     0.003 C 
ATOM     19  C   UNL     1      -4.889   3.708   3.601  1.00  0.00     0.032 C 
BRANCH  17  20
ATOM     20  O   UNL     1      -5.959   4.354   1.507  1.00  0.00    -0.393 OA
ATOM     21  H   UNL     1      -6.814   4.387   1.963  1.00  0.00     0.210 HD
ENDBRANCH  17  20
ENDBRANCH  14  15
ENDBRANCH  13  14
ENDBRANCH   6   8
ENDBRANCH   4   6
ENDBRANCH   3   4
ENDBRANCH   2   3
ENDBRANCH   1   2
BRANCH   1  22
ATOM     22  O   UNL     1     -11.173   0.595   8.328  1.00  0.00    -0.374 OA
BRANCH  22  23
ATOM     23  C   UNL     1     -11.622   1.377   7.218  1.00  0.00     0.202 C 
BRANCH  23  24
ATOM     24  C   UNL     1     -13.114   1.733   7.183  1.00  0.00     0.261 C 
BRANCH  24  25
ATOM     25  O   UNL     1     -13.502   2.600   8.266  1.00  0.00    -0.460 OA
BRANCH  25  26
ATOM     26  C   UNL     1     -14.438   2.082   9.097  1.00  0.00     0.338 C 
ATOM     27  O   UNL     1     -15.030   1.018   8.980  1.00  0.00    -0.246 OA
BRANCH  26  28
ATOM     28  C   UNL     1     -14.562   2.906  10.312  1.00  0.00     0.060 A 
ATOM     29  C   UNL     1     -14.344   2.276  11.544  1.00  0.00     0.016 A 
ATOM     30  C   UNL     1     -14.991   4.234  10.260  1.00  0.00     0.016 A 
ATOM     31  C   UNL     1     -14.601   2.957  12.732  1.00  0.00     0.010 A 
ATOM     32  C   UNL     1     -15.259   4.913  11.455  1.00  0.00     0.010 A 
ATOM     33  C   UNL     1     -15.100   4.266  12.694  1.00  0.00    -0.014 A 
BRANCH  33  34
ATOM     34  C   UNL     1     -15.590   4.893  13.946  1.00  0.00     0.031 A 
ATOM     35  C   UNL     1     -17.062   4.863  14.254  1.00  0.00     0.074 A 
ATOM     36  C   UNL     1     -14.732   5.445  14.822  1.00  0.00     0.049 A 
ATOM     37  N   UNL     1     -17.703   5.348  15.287  1.00  0.00    -0.248 NA
ATOM     38  C   UNL     1     -17.926   4.192  13.269  1.00  0.00     0.031 C 
ATOM     39  C   UNL     1     -13.280   5.498  14.665  1.00  0.00     0.029 A 
ATOM     40  N   UNL     1     -14.966   6.067  16.023  1.00  0.00    -0.354 N 
ATOM     41  C   UNL     1     -19.042   5.044  15.077  1.00  0.00     0.074 A 
ATOM     42  C   UNL     1     -19.126   4.358  13.806  1.00  0.00     0.031 C 
ATOM     43  C   UNL     1     -12.751   6.127  15.730  1.00  0.00     0.029 A 
ATOM     44  C   UNL     1     -13.828   6.543  16.626  1.00  0.00     0.049 A 
ATOM     45  H   UNL     1     -15.864   6.162  16.415  1.00  0.00     0.167 HD
ATOM     46  C   UNL     1     -20.107   5.304  15.873  1.00  0.00     0.031 A 
ATOM     47  C   UNL     1     -13.675   7.249  17.762  1.00  0.00     0.031 A 
ATOM     48  C   UNL     1     -20.032   6.000  17.129  1.00  0.00     0.049 A 
ATOM     49  C   UNL     1     -14.883   7.597  18.590  1.00  0.00     0.074 A 
ATOM     50  C   UNL     1     -21.058   6.307  18.008  1.00  0.00     0.029 A 
ATOM     51  N   UNL     1     -18.867   6.505  17.682  1.00  0.00    -0.354 N 
ATOM     52  N   UNL     1     -16.141   7.286  18.389  1.00  0.00    -0.248 NA
ATOM     53  C   UNL     1     -14.647   8.389  19.806  1.00  0.00     0.031 C 
ATOM     54  C   UNL     1     -20.518   7.041  19.070  1.00  0.00     0.029 A 
ATOM     55  C   UNL     1     -19.149   7.143  18.878  1.00  0.00     0.049 A 
ATOM     56  H   UNL     1     -17.970   6.421  17.284  1.00  0.00     0.167 HD
ATOM     57  C   UNL     1     -16.840   7.821  19.463  1.00  0.00     0.074 A 
ATOM     58  C   UNL     1     -15.867   8.465  20.320  1.00  0.00     0.031 C 
ATOM     59  C   UNL     1     -18.171   7.781  19.718  1.00  0.00     0.031 A 
BRANCH  46  60
ATOM     60  C   UNL     1     -21.456   4.857  15.385  1.00  0.00    -0.014 A 
ATOM     61  C   UNL     1     -21.818   3.501  15.390  1.00  0.00     0.009 A 
ATOM     62  C   UNL     1     -22.388   5.809  14.944  1.00  0.00     0.009 A 
ATOM     63  C   UNL     1     -23.076   3.104  14.932  1.00  0.00     0.001 A 
ATOM     64  C   UNL     1     -23.654   5.412  14.511  1.00  0.00     0.001 A 
ATOM     65  C   UNL     1     -23.994   4.060  14.497  1.00  0.00     0.000 A 
ENDBRANCH  46  60
BRANCH  47  66
ATOM     66  C   UNL     1     -12.322   7.700  18.179  1.00  0.00    -0.014 A 
ATOM     67  C   UNL     1     -11.691   7.140  19.299  1.00  0.00     0.009 A 
ATOM     68  C   UNL     1     -11.663   8.713  17.463  1.00  0.00     0.009 A 
ATOM     69  C   UNL     1     -10.438   7.601  19.709  1.00  0.00     0.001 A 
ATOM     70  C   UNL     1     -10.399   9.153  17.859  1.00  0.00     0.001 A 
ATOM     71  C   UNL     1      -9.791   8.603  18.986  1.00  0.00     0.000 A 
ENDBRANCH  47  66
BRANCH  59  72
ATOM     72  C   UNL     1     -18.649   8.424  20.990  1.00  0.00    -0.014 A 
ATOM     73  C   UNL     1     -18.704   9.820  21.125  1.00  0.00     0.009 A 
ATOM     74  C   UNL     1     -19.090   7.619  22.052  1.00  0.00     0.009 A 
ATOM     75  C   UNL     1     -19.163  10.396  22.311  1.00  0.00     0.001 A 
ATOM     76  C   UNL     1     -19.573   8.198  23.227  1.00  0.00     0.001 A 
ATOM     77  C   UNL     1     -19.601   9.586  23.358  1.00  0.00     0.000 A 
ENDBRANCH  59  72
ENDBRANCH  33  34
ENDBRANCH  26  28
ENDBRANCH  25  26
ENDBRANCH  24  25
ENDBRANCH  23  24
ENDBRANCH  22  23
ENDBRANCH   1  22
TORSDOF 18
