REMARK SMILES O=C(OCCOCCOC(=O)[C@H]1CCO[C@H]1Cc1ccccc1)c1ccc(-c2c3nc(c(-c4ccccc4)c4ccc([nH]4)c(-c4ccccc4)c4nc(c(-c5ccccc5)c5ccc2[nH]5)C=C4)C=C3)cc1
REMARK SMILES IDX 6 1 5 2 4 3 3 4 2 5 1 6 24 7 25 8 71 9 26 10 70 11 27 12
REMARK SMILES IDX 28 13 29 14 64 15 30 16 69 17 63 18 65 19 31 20 68 21 62 22
REMARK SMILES IDX 61 23 32 25 54 26 39 27 53 28 40 29 43 30 52 31 66 32 41 33
REMARK SMILES IDX 42 34 51 36 67 37 44 38 33 39 34 40 38 41 35 42 37 43 36 44
REMARK SMILES IDX 55 45 56 46 60 47 57 48 59 49 58 50 45 51 46 52 50 53 47 54
REMARK SMILES IDX 49 55 48 56 7 57 8 58 9 59 10 60 11 61 12 62 13 63 16 64
REMARK SMILES IDX 14 65 15 66 17 67 18 68 19 69 23 70 20 71 22 72 21 73
REMARK H PARENT 65 24 43 35
REMARK Flexibility Score: inf
ROOT
ATOM      1  O   UNL     1       3.329  -1.296  -6.376  1.00  0.00    -0.374 OA
ENDROOT
BRANCH   1   2
ATOM      2  C   UNL     1       2.651  -1.781  -5.216  1.00  0.00     0.202 C 
BRANCH   2   3
ATOM      3  C   UNL     1       1.394  -2.623  -5.477  1.00  0.00     0.261 C 
BRANCH   3   4
ATOM      4  O   UNL     1       1.665  -3.726  -6.358  1.00  0.00    -0.460 OA
BRANCH   4   5
ATOM      5  C   UNL     1       1.606  -3.755  -7.712  1.00  0.00     0.338 C 
ATOM      6  O   UNL     1       1.921  -4.793  -8.291  1.00  0.00    -0.246 OA
BRANCH   5   7
ATOM      7  C   UNL     1       1.194  -2.586  -8.552  1.00  0.00     0.060 A 
ATOM      8  C   UNL     1       1.182  -1.262  -8.119  1.00  0.00     0.016 A 
ATOM      9  C   UNL     1       0.851  -2.833  -9.893  1.00  0.00     0.016 A 
ATOM     10  C   UNL     1       0.855  -0.217  -8.943  1.00  0.00     0.010 A 
ATOM     11  C   UNL     1       0.469  -1.785 -10.739  1.00  0.00     0.010 A 
ATOM     12  C   UNL     1       0.453  -0.480 -10.240  1.00  0.00    -0.014 A 
BRANCH  12  13
ATOM     13  C   UNL     1      -0.244   0.641 -10.870  1.00  0.00     0.031 A 
ATOM     14  C   UNL     1      -1.731   0.682 -10.695  1.00  0.00     0.074 A 
ATOM     15  C   UNL     1       0.470   1.710 -11.259  1.00  0.00     0.049 A 
ATOM     16  N   UNL     1      -2.583   1.598 -11.060  1.00  0.00    -0.248 NA
ATOM     17  C   UNL     1      -2.338  -0.450  -9.965  1.00  0.00     0.031 C 
ATOM     18  C   UNL     1       1.933   1.819 -11.192  1.00  0.00     0.029 A 
ATOM     19  N   UNL     1       0.063   2.933 -11.705  1.00  0.00    -0.354 N 
ATOM     20  C   UNL     1      -3.825   1.129 -10.650  1.00  0.00     0.074 A 
ATOM     21  C   UNL     1      -3.622  -0.136  -9.989  1.00  0.00     0.031 C 
ATOM     22  C   UNL     1       2.295   3.058 -11.564  1.00  0.00     0.029 A 
ATOM     23  C   UNL     1       1.101   3.792 -11.963  1.00  0.00     0.049 A 
ATOM     24  H   UNL     1      -0.883   3.175 -11.829  1.00  0.00     0.167 HD
ATOM     25  C   UNL     1      -5.030   1.706 -10.845  1.00  0.00     0.031 A 
ATOM     26  C   UNL     1       1.069   5.022 -12.501  1.00  0.00     0.031 A 
ATOM     27  C   UNL     1      -5.177   2.962 -11.524  1.00  0.00     0.049 A 
ATOM     28  C   UNL     1      -0.285   5.574 -12.855  1.00  0.00     0.074 A 
ATOM     29  C   UNL     1      -6.330   3.620 -11.897  1.00  0.00     0.029 A 
ATOM     30  N   UNL     1      -4.105   3.748 -11.933  1.00  0.00    -0.354 N 
ATOM     31  N   UNL     1      -1.473   5.074 -12.600  1.00  0.00    -0.248 NA
ATOM     32  C   UNL     1      -0.306   6.846 -13.581  1.00  0.00     0.031 C 
ATOM     33  C   UNL     1      -5.953   4.777 -12.589  1.00  0.00     0.029 A 
ATOM     34  C   UNL     1      -4.568   4.877 -12.578  1.00  0.00     0.049 A 
ATOM     35  H   UNL     1      -3.157   3.531 -11.784  1.00  0.00     0.167 HD
ATOM     36  C   UNL     1      -2.387   5.983 -13.109  1.00  0.00     0.074 A 
ATOM     37  C   UNL     1      -1.609   7.072 -13.673  1.00  0.00     0.031 C 
ATOM     38  C   UNL     1      -3.743   5.932 -13.114  1.00  0.00     0.031 A 
BRANCH  25  39
ATOM     39  C   UNL     1      -6.236   0.901 -10.453  1.00  0.00    -0.014 A 
ATOM     40  C   UNL     1      -6.576   0.658  -9.113  1.00  0.00     0.009 A 
ATOM     41  C   UNL     1      -7.001   0.298 -11.465  1.00  0.00     0.009 A 
ATOM     42  C   UNL     1      -7.626  -0.210  -8.796  1.00  0.00     0.001 A 
ATOM     43  C   UNL     1      -8.066  -0.545 -11.147  1.00  0.00     0.001 A 
ATOM     44  C   UNL     1      -8.369  -0.810  -9.813  1.00  0.00     0.000 A 
ENDBRANCH  25  39
BRANCH  26  45
ATOM     45  C   UNL     1       2.326   5.753 -12.809  1.00  0.00    -0.014 A 
ATOM     46  C   UNL     1       2.621   6.983 -12.202  1.00  0.00     0.009 A 
ATOM     47  C   UNL     1       3.240   5.228 -13.740  1.00  0.00     0.009 A 
ATOM     48  C   UNL     1       3.785   7.680 -12.542  1.00  0.00     0.001 A 
ATOM     49  C   UNL     1       4.417   5.910 -14.053  1.00  0.00     0.001 A 
ATOM     50  C   UNL     1       4.683   7.142 -13.463  1.00  0.00     0.000 A 
ENDBRANCH  26  45
BRANCH  38  51
ATOM     51  C   UNL     1      -4.453   7.120 -13.691  1.00  0.00    -0.014 A 
ATOM     52  C   UNL     1      -4.458   7.375 -15.070  1.00  0.00     0.009 A 
ATOM     53  C   UNL     1      -5.166   7.970 -12.831  1.00  0.00     0.009 A 
ATOM     54  C   UNL     1      -5.133   8.487 -15.573  1.00  0.00     0.001 A 
ATOM     55  C   UNL     1      -5.870   9.057 -13.341  1.00  0.00     0.001 A 
ATOM     56  C   UNL     1      -5.843   9.322 -14.709  1.00  0.00     0.000 A 
ENDBRANCH  38  51
ENDBRANCH  12  13
ENDBRANCH   5   7
ENDBRANCH   4   5
ENDBRANCH   3   4
ENDBRANCH   2   3
ENDBRANCH   1   2
BRANCH   1  57
ATOM     57  C   UNL     1       4.248  -2.196  -6.999  1.00  0.00     0.202 C 
BRANCH  57  58
ATOM     58  C   UNL     1       5.670  -1.743  -6.737  1.00  0.00     0.261 C 
BRANCH  58  59
ATOM     59  O   UNL     1       5.936  -1.972  -5.349  1.00  0.00    -0.463 OA
BRANCH  59  60
ATOM     60  C   UNL     1       5.634  -0.950  -4.506  1.00  0.00     0.311 C 
ATOM     61  O   UNL     1       5.288   0.182  -4.829  1.00  0.00    -0.252 OA
BRANCH  60  62
ATOM     62  C   UNL     1       5.727  -1.398  -3.076  1.00  0.00     0.131 C 
ATOM     63  C   UNL     1       5.107  -2.755  -2.800  1.00  0.00     0.046 C 
ATOM     64  C   UNL     1       7.139  -1.514  -2.510  1.00  0.00     0.136 C 
ATOM     65  C   UNL     1       5.772  -3.152  -1.513  1.00  0.00     0.161 C 
ATOM     66  O   UNL     1       7.096  -2.616  -1.562  1.00  0.00    -0.377 OA
BRANCH  64  67
ATOM     67  C   UNL     1       8.310  -1.798  -3.480  1.00  0.00     0.068 C 
BRANCH  67  68
ATOM     68  C   UNL     1       8.581  -0.764  -4.553  1.00  0.00    -0.045 A 
ATOM     69  C   UNL     1       8.846  -1.185  -5.867  1.00  0.00     0.004 A 
ATOM     70  C   UNL     1       8.497   0.611  -4.298  1.00  0.00     0.004 A 
ATOM     71  C   UNL     1       8.909  -0.264  -6.915  1.00  0.00     0.000 A 
ATOM     72  C   UNL     1       8.561   1.531  -5.347  1.00  0.00     0.000 A 
ATOM     73  C   UNL     1       8.745   1.093  -6.657  1.00  0.00     0.000 A 
ENDBRANCH  67  68
ENDBRANCH  64  67
ENDBRANCH  60  62
ENDBRANCH  59  60
ENDBRANCH  58  59
ENDBRANCH  57  58
ENDBRANCH   1  57
TORSDOF 16
