REMARK SMILES O=C(COC[C@@H]1CCCCO1)OCCOCCOC(=O)c1ccc(-c2c3nc(c(-c4ccccc4)c4ccc([nH]4)c(-c4ccccc4)c4nc(c(-c5ccccc5)c5ccc2[nH]5)C=C4)C=C3)cc1
REMARK SMILES IDX 14 1 13 2 12 3 2 4 1 5 3 6 4 7 5 8 6 9 7 10 11 11 8 12 10 13
REMARK SMILES IDX 9 14 15 15 16 16 17 17 18 18 19 19 20 20 21 21 22 22 68 23
REMARK SMILES IDX 23 24 67 25 24 26 25 27 26 28 61 29 27 30 66 31 60 32 62 33
REMARK SMILES IDX 28 34 65 35 59 36 58 37 29 39 51 40 36 41 50 42 37 43 40 44
REMARK SMILES IDX 49 45 63 46 38 47 39 48 48 50 64 51 41 52 30 53 31 54 35 55
REMARK SMILES IDX 32 56 34 57 33 58 52 59 53 60 57 61 54 62 56 63 55 64 42 65
REMARK SMILES IDX 43 66 47 67 44 68 46 69 45 70
REMARK H PARENT 62 38 40 49
REMARK Flexibility Score: inf
ROOT
ATOM      1  C   UNL     1       5.197  -1.229   0.368  1.00  0.00     0.202 C 
ENDROOT
BRANCH   1   2
ATOM      2  C   UNL     1       5.265   0.295   0.547  1.00  0.00     0.261 C 
BRANCH   2   3
ATOM      3  O   UNL     1       3.991   0.813   0.953  1.00  0.00    -0.462 OA
BRANCH   3   4
ATOM      4  C   UNL     1       2.968   0.644   0.087  1.00  0.00     0.332 C 
ATOM      5  O   UNL     1       1.870   0.274   0.491  1.00  0.00    -0.250 OA
BRANCH   4   6
ATOM      6  C   UNL     1       3.270   1.011  -1.377  1.00  0.00     0.282 C 
BRANCH   6   7
ATOM      7  O   UNL     1       3.625   2.364  -1.596  1.00  0.00    -0.367 OA
BRANCH   7   8
ATOM      8  C   UNL     1       2.587   3.278  -1.242  1.00  0.00     0.193 C 
BRANCH   8   9
ATOM      9  C   UNL     1       1.517   3.439  -2.344  1.00  0.00     0.144 C 
ATOM     10  C   UNL     1       0.506   4.526  -1.974  1.00  0.00     0.034 C 
ATOM     11  O   UNL     1       0.821   2.235  -2.694  1.00  0.00    -0.376 OA
ATOM     12  C   UNL     1      -0.448   4.054  -0.879  1.00  0.00     0.005 C 
ATOM     13  C   UNL     1      -0.073   1.730  -1.706  1.00  0.00     0.160 C 
ATOM     14  C   UNL     1      -1.115   2.748  -1.290  1.00  0.00     0.029 C 
ENDBRANCH   8   9
ENDBRANCH   7   8
ENDBRANCH   6   7
ENDBRANCH   4   6
ENDBRANCH   3   4
ENDBRANCH   2   3
ENDBRANCH   1   2
BRANCH   1  15
ATOM     15  O   UNL     1       4.805  -1.697  -0.925  1.00  0.00    -0.374 OA
BRANCH  15  16
ATOM     16  C   UNL     1       3.511  -2.290  -1.081  1.00  0.00     0.202 C 
BRANCH  16  17
ATOM     17  C   UNL     1       3.224  -3.669  -0.473  1.00  0.00     0.261 C 
BRANCH  17  18
ATOM     18  O   UNL     1       3.520  -3.741   0.922  1.00  0.00    -0.460 OA
BRANCH  18  19
ATOM     19  C   UNL     1       4.767  -4.190   1.192  1.00  0.00     0.338 C 
ATOM     20  O   UNL     1       5.595  -4.611   0.398  1.00  0.00    -0.246 OA
BRANCH  19  21
ATOM     21  C   UNL     1       5.084  -3.886   2.595  1.00  0.00     0.060 A 
ATOM     22  C   UNL     1       6.303  -3.247   2.858  1.00  0.00     0.016 A 
ATOM     23  C   UNL     1       4.216  -4.233   3.632  1.00  0.00     0.016 A 
ATOM     24  C   UNL     1       6.684  -2.990   4.165  1.00  0.00     0.010 A 
ATOM     25  C   UNL     1       4.612  -4.004   4.947  1.00  0.00     0.010 A 
ATOM     26  C   UNL     1       5.865  -3.423   5.212  1.00  0.00    -0.014 A 
BRANCH  26  27
ATOM     27  C   UNL     1       6.433  -3.485   6.571  1.00  0.00     0.031 A 
ATOM     28  C   UNL     1       6.985  -4.800   7.042  1.00  0.00     0.074 A 
ATOM     29  C   UNL     1       6.497  -2.385   7.338  1.00  0.00     0.049 A 
ATOM     30  N   UNL     1       7.502  -5.115   8.199  1.00  0.00    -0.248 NA
ATOM     31  C   UNL     1       6.947  -5.912   6.074  1.00  0.00     0.031 C 
ATOM     32  C   UNL     1       6.048  -1.050   6.946  1.00  0.00     0.029 A 
ATOM     33  N   UNL     1       6.970  -2.226   8.612  1.00  0.00    -0.354 N 
ATOM     34  C   UNL     1       7.838  -6.459   8.102  1.00  0.00     0.074 A 
ATOM     35  C   UNL     1       7.437  -6.911   6.790  1.00  0.00     0.031 C 
ATOM     36  C   UNL     1       6.259  -0.205   7.969  1.00  0.00     0.029 A 
ATOM     37  C   UNL     1       6.821  -0.950   9.093  1.00  0.00     0.049 A 
ATOM     38  H   UNL     1       7.377  -2.955   9.133  1.00  0.00     0.167 HD
ATOM     39  C   UNL     1       8.436  -7.245   9.027  1.00  0.00     0.031 A 
ATOM     40  C   UNL     1       7.087  -0.455  10.316  1.00  0.00     0.031 A 
ATOM     41  C   UNL     1       8.811  -6.787  10.337  1.00  0.00     0.049 A 
ATOM     42  C   UNL     1       7.664  -1.375  11.359  1.00  0.00     0.074 A 
ATOM     43  C   UNL     1       9.420  -7.493  11.357  1.00  0.00     0.029 A 
ATOM     44  N   UNL     1       8.602  -5.498  10.806  1.00  0.00    -0.354 N 
ATOM     45  N   UNL     1       7.993  -2.641  11.258  1.00  0.00    -0.248 NA
ATOM     46  C   UNL     1       7.916  -0.792  12.684  1.00  0.00     0.031 C 
ATOM     47  C   UNL     1       9.523  -6.648  12.467  1.00  0.00     0.029 A 
ATOM     48  C   UNL     1       9.046  -5.395  12.113  1.00  0.00     0.049 A 
ATOM     49  H   UNL     1       8.198  -4.766  10.287  1.00  0.00     0.167 HD
ATOM     50  C   UNL     1       8.521  -2.997  12.493  1.00  0.00     0.074 A 
ATOM     51  C   UNL     1       8.484  -1.806  13.319  1.00  0.00     0.031 C 
ATOM     52  C   UNL     1       8.997  -4.197  12.911  1.00  0.00     0.031 A 
BRANCH  39  53
ATOM     53  C   UNL     1       8.677  -8.683   8.662  1.00  0.00    -0.014 A 
ATOM     54  C   UNL     1       9.626  -9.044   7.691  1.00  0.00     0.009 A 
ATOM     55  C   UNL     1       7.955  -9.695   9.312  1.00  0.00     0.009 A 
ATOM     56  C   UNL     1       9.819 -10.386   7.355  1.00  0.00     0.001 A 
ATOM     57  C   UNL     1       8.173 -11.038   8.998  1.00  0.00     0.001 A 
ATOM     58  C   UNL     1       9.098 -11.382   8.013  1.00  0.00     0.000 A 
ENDBRANCH  39  53
BRANCH  40  59
ATOM     59  C   UNL     1       6.791   0.967  10.629  1.00  0.00    -0.014 A 
ATOM     60  C   UNL     1       7.827   1.874  10.898  1.00  0.00     0.009 A 
ATOM     61  C   UNL     1       5.463   1.421  10.682  1.00  0.00     0.009 A 
ATOM     62  C   UNL     1       7.538   3.196  11.247  1.00  0.00     0.001 A 
ATOM     63  C   UNL     1       5.179   2.752  10.998  1.00  0.00     0.001 A 
ATOM     64  C   UNL     1       6.216   3.634  11.292  1.00  0.00     0.000 A 
ENDBRANCH  40  59
BRANCH  52  65
ATOM     65  C   UNL     1       9.557  -4.264  14.304  1.00  0.00    -0.014 A 
ATOM     66  C   UNL     1       8.729  -4.180  15.434  1.00  0.00     0.009 A 
ATOM     67  C   UNL     1      10.937  -4.453  14.484  1.00  0.00     0.009 A 
ATOM     68  C   UNL     1       9.279  -4.241  16.716  1.00  0.00     0.001 A 
ATOM     69  C   UNL     1      11.478  -4.550  15.766  1.00  0.00     0.001 A 
ATOM     70  C   UNL     1      10.651  -4.431  16.881  1.00  0.00     0.000 A 
ENDBRANCH  52  65
ENDBRANCH  26  27
ENDBRANCH  19  21
ENDBRANCH  18  19
ENDBRANCH  17  18
ENDBRANCH  16  17
ENDBRANCH  15  16
ENDBRANCH   1  15
TORSDOF 17
