REMARK SMILES Cc1nn([C@H]2CCS(=O)(=O)C2)c(C)c1/C=C(\CC(=O)OCCOCCOC(=O)c1ccc(-c2c3nc(c(-c4ccccc4)c4ccc([nH]4)c(-c4ccccc4)c4nc(c(-c5ccccc5)c5ccc2[nH]5)C=C4)C=C3)cc1)c1nc2ccccc2s1
REMARK SMILES IDX 22 1 21 2 20 3 18 4 19 5 17 6 16 7 15 8 14 9 1 10 2 11 3 12
REMARK SMILES IDX 4 13 12 14 13 15 5 16 6 17 11 18 7 19 8 20 9 21 10 22 77 23
REMARK SMILES IDX 78 24 85 25 79 26 84 27 80 28 83 29 81 30 82 31 23 32 24 33
REMARK SMILES IDX 25 34 26 35 27 36 28 37 29 38 30 39 76 40 31 41 75 42 32 43
REMARK SMILES IDX 33 44 34 45 69 46 35 47 74 48 68 49 70 50 36 51 73 52 67 53
REMARK SMILES IDX 66 54 37 56 59 57 44 58 58 59 45 60 48 61 57 62 71 63 46 64
REMARK SMILES IDX 47 65 56 67 72 68 49 69 38 70 39 71 43 72 40 73 42 74 41 75
REMARK SMILES IDX 60 76 61 77 65 78 62 79 64 80 63 81 50 82 51 83 55 84 52 85
REMARK SMILES IDX 54 86 53 87
REMARK H PARENT 70 55 48 66
REMARK Flexibility Score: inf
ROOT
ATOM      1  C   UNL     1      -8.389   7.385   3.267  1.00  0.00     0.202 C 
ENDROOT
BRANCH   1   2
ATOM      2  C   UNL     1      -7.316   6.949   2.256  1.00  0.00     0.261 C 
BRANCH   2   3
ATOM      3  O   UNL     1      -7.175   5.510   2.121  1.00  0.00    -0.463 OA
BRANCH   3   4
ATOM      4  C   UNL     1      -6.001   5.021   2.572  1.00  0.00     0.310 C 
ATOM      5  O   UNL     1      -5.074   5.739   2.953  1.00  0.00    -0.252 OA
BRANCH   4   6
ATOM      6  C   UNL     1      -5.907   3.522   2.835  1.00  0.00     0.161 C 
BRANCH   6   7
ATOM      7  C   UNL     1      -6.361   2.288   2.074  1.00  0.00    -0.000 C 
ATOM      8  C   UNL     1      -5.643   1.738   1.057  1.00  0.00     0.019 C 
BRANCH   8   9
ATOM      9  C   UNL     1      -4.493   2.306   0.402  1.00  0.00     0.019 A 
ATOM     10  C   UNL     1      -4.787   1.442  -2.066  1.00  0.00     0.069 C 
ATOM     11  C   UNL     1      -4.184   2.266  -0.986  1.00  0.00     0.067 A 
ATOM     12  N   UNL     1      -3.165   3.088  -1.275  1.00  0.00    -0.177 NA
ATOM     13  N   UNL     1      -2.806   3.601  -0.081  1.00  0.00    -0.265 N 
ATOM     14  C   UNL     1      -3.355   2.881   0.958  1.00  0.00     0.043 A 
ATOM     15  C   UNL     1      -2.744   2.817   2.318  1.00  0.00     0.067 C 
BRANCH  13  16
ATOM     16  C   UNL     1      -1.889   4.735  -0.040  1.00  0.00     0.123 C 
ATOM     17  C   UNL     1      -2.123   5.744  -1.190  1.00  0.00     0.044 C 
ATOM     18  C   UNL     1      -2.000   5.598   1.218  1.00  0.00     0.164 C 
ATOM     19  C   UNL     1      -1.239   6.957  -0.923  1.00  0.00     0.139 C 
ATOM     20  S   UNL     1      -1.101   7.075   0.845  1.00  0.00     0.152 S 
ATOM     21  O   UNL     1       0.288   6.848   1.210  1.00  0.00    -0.229 OA
ATOM     22  O   UNL     1      -1.846   8.217   1.313  1.00  0.00    -0.229 OA
ENDBRANCH  13  16
ENDBRANCH   8   9
BRANCH   7  23
ATOM     23  C   UNL     1      -7.426   1.490   2.643  1.00  0.00     0.121 A 
ATOM     24  N   UNL     1      -8.712   1.735   2.538  1.00  0.00    -0.236 NA
ATOM     25  S   UNL     1      -7.075   0.250   3.808  1.00  0.00    -0.114 S 
ATOM     26  C   UNL     1      -9.404   1.248   3.635  1.00  0.00     0.082 A 
ATOM     27  C   UNL     1      -8.661   0.423   4.473  1.00  0.00     0.055 A 
ATOM     28  C   UNL     1     -10.717   1.603   4.016  1.00  0.00     0.030 A 
ATOM     29  C   UNL     1      -9.197  -0.079   5.671  1.00  0.00     0.021 A 
ATOM     30  C   UNL     1     -11.214   1.210   5.259  1.00  0.00     0.002 A 
ATOM     31  C   UNL     1     -10.463   0.371   6.071  1.00  0.00     0.002 A 
ENDBRANCH   7  23
ENDBRANCH   6   7
ENDBRANCH   4   6
ENDBRANCH   3   4
ENDBRANCH   2   3
ENDBRANCH   1   2
BRANCH   1  32
ATOM     32  O   UNL     1      -8.257   7.035   4.641  1.00  0.00    -0.374 OA
BRANCH  32  33
ATOM     33  C   UNL     1      -8.023   5.692   5.024  1.00  0.00     0.202 C 
BRANCH  33  34
ATOM     34  C   UNL     1      -9.011   4.603   4.609  1.00  0.00     0.261 C 
BRANCH  34  35
ATOM     35  O   UNL     1      -9.343   4.574   3.221  1.00  0.00    -0.460 OA
BRANCH  35  36
ATOM     36  C   UNL     1     -10.549   5.104   2.917  1.00  0.00     0.338 C 
ATOM     37  O   UNL     1     -11.237   5.792   3.656  1.00  0.00    -0.246 OA
BRANCH  36  38
ATOM     38  C   UNL     1     -11.058   4.573   1.635  1.00  0.00     0.060 A 
ATOM     39  C   UNL     1     -12.385   4.883   1.345  1.00  0.00     0.016 A 
ATOM     40  C   UNL     1     -10.421   3.507   1.000  1.00  0.00     0.016 A 
ATOM     41  C   UNL     1     -13.146   3.954   0.666  1.00  0.00     0.010 A 
ATOM     42  C   UNL     1     -11.194   2.533   0.395  1.00  0.00     0.010 A 
ATOM     43  C   UNL     1     -12.569   2.731   0.306  1.00  0.00    -0.014 A 
BRANCH  43  44
ATOM     44  C   UNL     1     -13.409   1.758  -0.367  1.00  0.00     0.031 A 
ATOM     45  C   UNL     1     -13.604   2.116  -1.788  1.00  0.00     0.074 A 
ATOM     46  C   UNL     1     -13.907   0.639   0.193  1.00  0.00     0.049 A 
ATOM     47  N   UNL     1     -14.661   2.627  -2.322  1.00  0.00    -0.248 NA
ATOM     48  C   UNL     1     -12.421   2.110  -2.664  1.00  0.00     0.031 C 
ATOM     49  C   UNL     1     -13.579   0.046   1.491  1.00  0.00     0.029 A 
ATOM     50  N   UNL     1     -14.772  -0.268  -0.345  1.00  0.00    -0.354 N 
ATOM     51  C   UNL     1     -14.339   2.817  -3.659  1.00  0.00     0.074 A 
ATOM     52  C   UNL     1     -12.908   2.699  -3.755  1.00  0.00     0.031 C 
ATOM     53  C   UNL     1     -14.056  -1.222   1.536  1.00  0.00     0.029 A 
ATOM     54  C   UNL     1     -14.836  -1.478   0.336  1.00  0.00     0.049 A 
ATOM     55  H   UNL     1     -15.307  -0.080  -1.150  1.00  0.00     0.167 HD
ATOM     56  C   UNL     1     -15.293   2.739  -4.624  1.00  0.00     0.031 A 
ATOM     57  C   UNL     1     -15.445  -2.616  -0.088  1.00  0.00     0.031 A 
ATOM     58  C   UNL     1     -16.618   2.829  -4.065  1.00  0.00     0.049 A 
ATOM     59  C   UNL     1     -16.417  -2.240  -1.137  1.00  0.00     0.074 A 
ATOM     60  C   UNL     1     -17.340   3.786  -3.385  1.00  0.00     0.029 A 
ATOM     61  N   UNL     1     -17.251   1.630  -3.844  1.00  0.00    -0.354 N 
ATOM     62  N   UNL     1     -17.497  -1.557  -0.897  1.00  0.00    -0.248 NA
ATOM     63  C   UNL     1     -15.981  -2.248  -2.524  1.00  0.00     0.031 C 
ATOM     64  C   UNL     1     -18.146   3.059  -2.459  1.00  0.00     0.029 A 
ATOM     65  C   UNL     1     -17.927   1.694  -2.657  1.00  0.00     0.049 A 
ATOM     66  H   UNL     1     -17.222   0.850  -4.444  1.00  0.00     0.167 HD
ATOM     67  C   UNL     1     -17.608  -0.689  -1.973  1.00  0.00     0.074 A 
ATOM     68  C   UNL     1     -16.732  -1.250  -2.999  1.00  0.00     0.031 C 
ATOM     69  C   UNL     1     -18.171   0.545  -1.812  1.00  0.00     0.031 A 
BRANCH  56  70
ATOM     70  C   UNL     1     -15.039   2.074  -5.958  1.00  0.00    -0.014 A 
ATOM     71  C   UNL     1     -16.093   2.017  -6.886  1.00  0.00     0.009 A 
ATOM     72  C   UNL     1     -13.926   1.250  -6.218  1.00  0.00     0.009 A 
ATOM     73  C   UNL     1     -16.064   1.125  -7.965  1.00  0.00     0.001 A 
ATOM     74  C   UNL     1     -13.875   0.389  -7.315  1.00  0.00     0.001 A 
ATOM     75  C   UNL     1     -14.959   0.305  -8.173  1.00  0.00     0.000 A 
ENDBRANCH  56  70
BRANCH  57  76
ATOM     76  C   UNL     1     -15.063  -4.027   0.141  1.00  0.00    -0.014 A 
ATOM     77  C   UNL     1     -15.982  -5.075  -0.045  1.00  0.00     0.009 A 
ATOM     78  C   UNL     1     -13.704  -4.367   0.263  1.00  0.00     0.009 A 
ATOM     79  C   UNL     1     -15.550  -6.408  -0.135  1.00  0.00     0.001 A 
ATOM     80  C   UNL     1     -13.273  -5.696   0.170  1.00  0.00     0.001 A 
ATOM     81  C   UNL     1     -14.195  -6.715  -0.041  1.00  0.00     0.000 A 
ENDBRANCH  57  76
BRANCH  69  82
ATOM     82  C   UNL     1     -18.934   0.797  -0.533  1.00  0.00    -0.014 A 
ATOM     83  C   UNL     1     -18.344   0.771   0.743  1.00  0.00     0.009 A 
ATOM     84  C   UNL     1     -20.275   1.193  -0.639  1.00  0.00     0.009 A 
ATOM     85  C   UNL     1     -19.089   1.103   1.881  1.00  0.00     0.001 A 
ATOM     86  C   UNL     1     -21.011   1.546   0.493  1.00  0.00     0.001 A 
ATOM     87  C   UNL     1     -20.420   1.494   1.754  1.00  0.00     0.000 A 
ENDBRANCH  69  82
ENDBRANCH  43  44
ENDBRANCH  36  38
ENDBRANCH  35  36
ENDBRANCH  34  35
ENDBRANCH  33  34
ENDBRANCH  32  33
ENDBRANCH   1  32
TORSDOF 18
