REMARK SMILES C=CC[N@@H+](CC(=O)OCCOCCOC(=O)c1ccc(-c2c3nc(c(-c4ccccc4)c4ccc([nH]4)c(-c4ccccc4)c4nc(c(-c5ccccc5)c5ccc2[nH]5)C=C4)C=C3)cc1)C[C@H]1CCC[C@H](C)C1
REMARK SMILES IDX 10 1 9 2 8 3 6 4 7 5 5 6 4 7 3 9 2 10 1 11 65 12 66 13 67 14
REMARK SMILES IDX 72 15 68 16 70 17 69 18 71 19 11 20 12 21 13 22 14 23 15 24
REMARK SMILES IDX 16 25 17 26 18 27 64 28 19 29 63 30 20 31 21 32 22 33 57 34
REMARK SMILES IDX 23 35 62 36 56 37 58 38 24 39 61 40 55 41 54 42 25 44 47 45
REMARK SMILES IDX 32 46 46 47 33 48 36 49 45 50 59 51 34 52 35 53 44 55 60 56
REMARK SMILES IDX 37 57 26 58 27 59 31 60 28 61 30 62 29 63 48 64 49 65 53 66
REMARK SMILES IDX 50 67 52 68 51 69 38 70 39 71 43 72 40 73 42 74 41 75
REMARK H PARENT 4 8 58 43 36 54
REMARK Flexibility Score: inf
ROOT
ATOM      1  C   UNL     1      -5.462  -1.607   0.765  1.00  0.00     0.202 C 
ENDROOT
BRANCH   1   2
ATOM      2  C   UNL     1      -4.767  -0.869  -0.391  1.00  0.00     0.261 C 
BRANCH   2   3
ATOM      3  O   UNL     1      -3.788   0.107   0.013  1.00  0.00    -0.459 OA
BRANCH   3   4
ATOM      4  C   UNL     1      -4.032   1.387  -0.396  1.00  0.00     0.361 C 
ATOM      5  O   UNL     1      -4.993   1.718  -1.086  1.00  0.00    -0.245 OA
BRANCH   4   6
ATOM      6  C   UNL     1      -3.065   2.428   0.170  1.00  0.00     0.386 C 
BRANCH   6   7
ATOM      7  N   UNL     1      -1.650   2.052   0.245  1.00  0.00    -0.322 N 
ATOM      8  H   UNL     1      -0.915   2.729   0.040  1.00  0.00     0.348 HD
BRANCH   7   9
ATOM      9  C   UNL     1      -1.076   1.407  -0.917  1.00  0.00     0.290 C 
BRANCH   9  10
ATOM     10  C   UNL     1       0.352   1.768  -1.221  1.00  0.00     0.025 C 
ATOM     11  C   UNL     1       1.273   0.881  -1.630  1.00  0.00     0.010 C 
ENDBRANCH   9  10
ENDBRANCH   7   9
BRANCH   7  12
ATOM     12  C   UNL     1      -0.983   2.180   1.536  1.00  0.00     0.266 C 
BRANCH  12  13
ATOM     13  C   UNL     1      -0.697   0.867   2.300  1.00  0.00     0.044 C 
ATOM     14  C   UNL     1       0.579   0.198   1.802  1.00  0.00     0.009 C 
ATOM     15  C   UNL     1      -0.543   1.098   3.820  1.00  0.00     0.012 C 
ATOM     16  C   UNL     1       0.666  -1.171   2.417  1.00  0.00     0.001 C 
ATOM     17  C   UNL     1      -0.018  -0.095   4.665  1.00  0.00    -0.014 C 
ATOM     18  C   UNL     1       0.813  -1.156   3.924  1.00  0.00     0.003 C 
ATOM     19  C   UNL     1      -1.102  -0.775   5.510  1.00  0.00     0.007 C 
ENDBRANCH  12  13
ENDBRANCH   7  12
ENDBRANCH   6   7
ENDBRANCH   4   6
ENDBRANCH   3   4
ENDBRANCH   2   3
ENDBRANCH   1   2
BRANCH   1  20
ATOM     20  O   UNL     1      -5.891  -0.829   1.874  1.00  0.00    -0.374 OA
BRANCH  20  21
ATOM     21  C   UNL     1      -4.873  -0.263   2.693  1.00  0.00     0.202 C 
BRANCH  21  22
ATOM     22  C   UNL     1      -3.871  -1.230   3.334  1.00  0.00     0.261 C 
BRANCH  22  23
ATOM     23  O   UNL     1      -3.109  -2.018   2.391  1.00  0.00    -0.460 OA
BRANCH  23  24
ATOM     24  C   UNL     1      -2.788  -3.274   2.796  1.00  0.00     0.338 C 
ATOM     25  O   UNL     1      -2.985  -3.767   3.901  1.00  0.00    -0.246 OA
BRANCH  24  26
ATOM     26  C   UNL     1      -2.182  -4.035   1.685  1.00  0.00     0.060 A 
ATOM     27  C   UNL     1      -2.978  -4.794   0.833  1.00  0.00     0.016 A 
ATOM     28  C   UNL     1      -0.798  -4.068   1.527  1.00  0.00     0.016 A 
ATOM     29  C   UNL     1      -2.378  -5.548  -0.188  1.00  0.00     0.010 A 
ATOM     30  C   UNL     1      -0.216  -4.698   0.423  1.00  0.00     0.010 A 
ATOM     31  C   UNL     1      -0.991  -5.483  -0.437  1.00  0.00    -0.014 A 
BRANCH  31  32
ATOM     32  C   UNL     1      -0.377  -6.243  -1.573  1.00  0.00     0.031 A 
ATOM     33  C   UNL     1       0.746  -7.239  -1.363  1.00  0.00     0.074 A 
ATOM     34  C   UNL     1      -0.827  -6.041  -2.829  1.00  0.00     0.049 A 
ATOM     35  N   UNL     1       1.297  -8.054  -2.233  1.00  0.00    -0.248 NA
ATOM     36  C   UNL     1       1.350  -7.316  -0.024  1.00  0.00     0.031 C 
ATOM     37  C   UNL     1      -1.835  -5.053  -3.218  1.00  0.00     0.029 A 
ATOM     38  N   UNL     1      -0.516  -6.675  -4.010  1.00  0.00    -0.354 N 
ATOM     39  C   UNL     1       2.310  -8.721  -1.551  1.00  0.00     0.074 A 
ATOM     40  C   UNL     1       2.345  -8.169  -0.216  1.00  0.00     0.031 C 
ATOM     41  C   UNL     1      -2.122  -5.204  -4.519  1.00  0.00     0.029 A 
ATOM     42  C   UNL     1      -1.287  -6.266  -5.073  1.00  0.00     0.049 A 
ATOM     43  H   UNL     1       0.190  -7.356  -4.087  1.00  0.00     0.167 HD
ATOM     44  C   UNL     1       3.119  -9.725  -1.974  1.00  0.00     0.031 A 
ATOM     45  C   UNL     1      -1.339  -6.699  -6.347  1.00  0.00     0.031 A 
ATOM     46  C   UNL     1       3.086 -10.303  -3.291  1.00  0.00     0.049 A 
ATOM     47  C   UNL     1      -0.442  -7.817  -6.796  1.00  0.00     0.074 A 
ATOM     48  C   UNL     1       3.798 -11.387  -3.775  1.00  0.00     0.029 A 
ATOM     49  N   UNL     1       2.307  -9.839  -4.338  1.00  0.00    -0.354 N 
ATOM     50  N   UNL     1       0.419  -8.515  -6.097  1.00  0.00    -0.248 NA
ATOM     51  C   UNL     1      -0.528  -8.209  -8.211  1.00  0.00     0.031 C 
ATOM     52  C   UNL     1       3.494 -11.543  -5.131  1.00  0.00     0.029 A 
ATOM     53  C   UNL     1       2.552 -10.588  -5.476  1.00  0.00     0.049 A 
ATOM     54  H   UNL     1       1.673  -9.087  -4.281  1.00  0.00     0.167 HD
ATOM     55  C   UNL     1       0.969  -9.433  -6.983  1.00  0.00     0.074 A 
ATOM     56  C   UNL     1       0.327  -9.221  -8.263  1.00  0.00     0.031 C 
ATOM     57  C   UNL     1       1.925 -10.364  -6.753  1.00  0.00     0.031 A 
BRANCH  44  58
ATOM     58  C   UNL     1       4.114 -10.280  -0.987  1.00  0.00    -0.014 A 
ATOM     59  C   UNL     1       3.694 -11.025   0.127  1.00  0.00     0.009 A 
ATOM     60  C   UNL     1       5.490 -10.098  -1.198  1.00  0.00     0.009 A 
ATOM     61  C   UNL     1       4.626 -11.537   1.032  1.00  0.00     0.001 A 
ATOM     62  C   UNL     1       6.422 -10.637  -0.308  1.00  0.00     0.001 A 
ATOM     63  C   UNL     1       5.989 -11.345   0.812  1.00  0.00     0.000 A 
ENDBRANCH  44  58
BRANCH  45  64
ATOM     64  C   UNL     1      -2.311  -6.090  -7.292  1.00  0.00    -0.014 A 
ATOM     65  C   UNL     1      -3.435  -6.814  -7.718  1.00  0.00     0.009 A 
ATOM     66  C   UNL     1      -2.129  -4.779  -7.760  1.00  0.00     0.009 A 
ATOM     67  C   UNL     1      -4.350  -6.243  -8.606  1.00  0.00     0.001 A 
ATOM     68  C   UNL     1      -3.061  -4.201  -8.625  1.00  0.00     0.001 A 
ATOM     69  C   UNL     1      -4.166  -4.935  -9.053  1.00  0.00     0.000 A 
ENDBRANCH  45  64
BRANCH  57  70
ATOM     70  C   UNL     1       2.343 -11.229  -7.908  1.00  0.00    -0.014 A 
ATOM     71  C   UNL     1       3.139 -10.713  -8.943  1.00  0.00     0.009 A 
ATOM     72  C   UNL     1       1.984 -12.585  -7.937  1.00  0.00     0.009 A 
ATOM     73  C   UNL     1       3.547 -11.534  -9.997  1.00  0.00     0.001 A 
ATOM     74  C   UNL     1       2.415 -13.409  -8.978  1.00  0.00     0.001 A 
ATOM     75  C   UNL     1       3.190 -12.882 -10.010  1.00  0.00     0.000 A 
ENDBRANCH  57  70
ENDBRANCH  31  32
ENDBRANCH  24  26
ENDBRANCH  23  24
ENDBRANCH  22  23
ENDBRANCH  21  22
ENDBRANCH  20  21
ENDBRANCH   1  20
TORSDOF 19
