REMARK SMILES CN(C)c1cc(C(F)(F)F)cc(-c2cccc(/C=C/C(=O)OCCOCCOC(=O)c3ccc(-c4c5nc(c(-c6ccccc6)c6ccc([nH]6)c(-c6ccccc6)c6nc(c(-c7ccccc7)c7ccc4[nH]7)C=C6)C=C5)cc3)c2)n1
REMARK SMILES IDX 24 1 23 2 22 3 20 4 21 5 19 6 18 7 17 8 13 9 14 10 79 11
REMARK SMILES IDX 15 12 16 13 12 14 4 15 5 16 80 17 6 18 11 19 2 20 1 21 3 22
REMARK SMILES IDX 7 23 8 24 9 25 10 26 25 27 26 28 27 29 28 30 29 31 30 32
REMARK SMILES IDX 31 33 32 34 78 35 33 36 77 37 34 38 35 39 36 40 71 41 37 42
REMARK SMILES IDX 76 43 70 44 72 45 38 46 75 47 69 48 68 49 39 51 61 52 46 53
REMARK SMILES IDX 60 54 47 55 50 56 59 57 73 58 48 59 49 60 58 62 74 63 51 64
REMARK SMILES IDX 40 65 41 66 45 67 42 68 44 69 43 70 62 71 63 72 67 73 64 74
REMARK SMILES IDX 66 75 65 76 52 77 53 78 57 79 54 80 56 81 55 82
REMARK H PARENT 72 50 50 61
REMARK Flexibility Score: inf
ROOT
ATOM      1  C   UNL     1      -1.701  -0.547  13.464  1.00  0.00     0.202 C 
ENDROOT
BRANCH   1   2
ATOM      2  C   UNL     1      -1.051  -1.897  13.155  1.00  0.00     0.261 C 
BRANCH   2   3
ATOM      3  O   UNL     1      -1.056  -2.161  11.741  1.00  0.00    -0.460 OA
BRANCH   3   4
ATOM      4  C   UNL     1      -1.807  -3.218  11.352  1.00  0.00     0.330 C 
ATOM      5  O   UNL     1      -2.371  -4.019  12.083  1.00  0.00    -0.247 OA
BRANCH   4   6
ATOM      6  C   UNL     1      -1.961  -3.289   9.885  1.00  0.00     0.094 C 
ATOM      7  C   UNL     1      -1.352  -2.503   8.983  1.00  0.00     0.015 C 
BRANCH   7   8
ATOM      8  C   UNL     1      -1.585  -2.615   7.531  1.00  0.00    -0.025 A 
ATOM      9  C   UNL     1      -0.726  -2.358   5.245  1.00  0.00     0.001 A 
ATOM     10  C   UNL     1      -1.980  -2.755   4.754  1.00  0.00     0.010 A 
ATOM     11  C   UNL     1      -0.550  -2.286   6.642  1.00  0.00     0.018 A 
ATOM     12  C   UNL     1      -3.022  -3.072   5.623  1.00  0.00     0.001 A 
ATOM     13  C   UNL     1      -2.827  -2.993   7.003  1.00  0.00     0.008 A 
BRANCH   9  14
ATOM     14  C   UNL     1       0.366  -2.038   4.316  1.00  0.00     0.073 A 
ATOM     15  C   UNL     1       1.023  -0.754   2.468  1.00  0.00     0.129 A 
ATOM     16  C   UNL     1       2.272  -1.370   2.480  1.00  0.00     0.060 A 
ATOM     17  N   UNL     1       0.089  -1.094   3.385  1.00  0.00    -0.231 NA
ATOM     18  C   UNL     1       2.576  -2.335   3.447  1.00  0.00     0.061 A 
ATOM     19  C   UNL     1       1.595  -2.676   4.379  1.00  0.00     0.042 A 
BRANCH  15  20
ATOM     20  N   UNL     1       0.727   0.244   1.549  1.00  0.00    -0.363 N 
ATOM     21  C   UNL     1       1.095   0.054   0.156  1.00  0.00     0.144 C 
ATOM     22  C   UNL     1      -0.437   1.067   1.844  1.00  0.00     0.144 C 
ENDBRANCH  15  20
BRANCH  18  23
ATOM     23  C   UNL     1       3.932  -2.979   3.510  1.00  0.00     0.416 C 
ATOM     24  F   UNL     1       4.568  -2.725   4.687  1.00  0.00    -0.166 F 
ATOM     25  F   UNL     1       3.870  -4.335   3.404  1.00  0.00    -0.166 F 
ATOM     26  F   UNL     1       4.781  -2.566   2.529  1.00  0.00    -0.166 F 
ENDBRANCH  18  23
ENDBRANCH   9  14
ENDBRANCH   7   8
ENDBRANCH   4   6
ENDBRANCH   3   4
ENDBRANCH   2   3
ENDBRANCH   1   2
BRANCH   1  27
ATOM     27  O   UNL     1      -3.087  -0.449  13.141  1.00  0.00    -0.374 OA
BRANCH  27  28
ATOM     28  C   UNL     1      -3.408  -0.129  11.785  1.00  0.00     0.202 C 
BRANCH  28  29
ATOM     29  C   UNL     1      -3.315   1.358  11.420  1.00  0.00     0.261 C 
BRANCH  29  30
ATOM     30  O   UNL     1      -1.949   1.815  11.403  1.00  0.00    -0.460 OA
BRANCH  30  31
ATOM     31  C   UNL     1      -1.620   2.680  12.390  1.00  0.00     0.338 C 
ATOM     32  O   UNL     1      -2.367   3.178  13.222  1.00  0.00    -0.246 OA
BRANCH  31  33
ATOM     33  C   UNL     1      -0.155   2.831  12.458  1.00  0.00     0.060 A 
ATOM     34  C   UNL     1       0.457   2.655  13.706  1.00  0.00     0.016 A 
ATOM     35  C   UNL     1       0.603   3.198  11.343  1.00  0.00     0.016 A 
ATOM     36  C   UNL     1       1.822   2.892  13.855  1.00  0.00     0.010 A 
ATOM     37  C   UNL     1       1.972   3.443  11.496  1.00  0.00     0.010 A 
ATOM     38  C   UNL     1       2.580   3.323  12.759  1.00  0.00    -0.014 A 
BRANCH  38  39
ATOM     39  C   UNL     1       3.975   3.780  12.967  1.00  0.00     0.031 A 
ATOM     40  C   UNL     1       4.255   5.254  13.077  1.00  0.00     0.074 A 
ATOM     41  C   UNL     1       4.981   2.894  13.083  1.00  0.00     0.049 A 
ATOM     42  N   UNL     1       5.398   5.871  13.239  1.00  0.00    -0.248 NA
ATOM     43  C   UNL     1       3.091   6.151  12.993  1.00  0.00     0.031 C 
ATOM     44  C   UNL     1       4.838   1.440  13.035  1.00  0.00     0.029 A 
ATOM     45  N   UNL     1       6.326   3.096  13.261  1.00  0.00    -0.354 N 
ATOM     46  C   UNL     1       5.093   7.226  13.268  1.00  0.00     0.074 A 
ATOM     47  C   UNL     1       3.663   7.343  13.081  1.00  0.00     0.031 C 
ATOM     48  C   UNL     1       6.052   0.879  13.173  1.00  0.00     0.029 A 
ATOM     49  C   UNL     1       7.057   1.934  13.288  1.00  0.00     0.049 A 
ATOM     50  H   UNL     1       6.729   3.989  13.360  1.00  0.00     0.167 HD
ATOM     51  C   UNL     1       5.927   8.279  13.439  1.00  0.00     0.031 A 
ATOM     52  C   UNL     1       8.387   1.744  13.377  1.00  0.00     0.031 A 
ATOM     53  C   UNL     1       7.350   8.168  13.614  1.00  0.00     0.049 A 
ATOM     54  C   UNL     1       9.301   2.934  13.495  1.00  0.00     0.074 A 
ATOM     55  C   UNL     1       8.275   9.178  13.816  1.00  0.00     0.029 A 
ATOM     56  N   UNL     1       8.055   6.975  13.600  1.00  0.00    -0.354 N 
ATOM     57  N   UNL     1       8.997   4.208  13.551  1.00  0.00    -0.248 NA
ATOM     58  C   UNL     1      10.743   2.656  13.568  1.00  0.00     0.031 C 
ATOM     59  C   UNL     1       9.547   8.599  13.870  1.00  0.00     0.029 A 
ATOM     60  C   UNL     1       9.407   7.225  13.759  1.00  0.00     0.049 A 
ATOM     61  H   UNL     1       7.654   6.083  13.492  1.00  0.00     0.167 HD
ATOM     62  C   UNL     1      10.205   4.881  13.693  1.00  0.00     0.074 A 
ATOM     63  C   UNL     1      11.245   3.874  13.727  1.00  0.00     0.031 C 
ATOM     64  C   UNL     1      10.431   6.214  13.789  1.00  0.00     0.031 A 
BRANCH  51  65
ATOM     65  C   UNL     1       5.319   9.653  13.409  1.00  0.00    -0.014 A 
ATOM     66  C   UNL     1       4.533  10.127  14.472  1.00  0.00     0.009 A 
ATOM     67  C   UNL     1       5.563  10.497  12.315  1.00  0.00     0.009 A 
ATOM     68  C   UNL     1       3.979  11.408  14.424  1.00  0.00     0.001 A 
ATOM     69  C   UNL     1       5.030  11.787  12.282  1.00  0.00     0.001 A 
ATOM     70  C   UNL     1       4.232  12.238  13.332  1.00  0.00     0.000 A 
ENDBRANCH  51  65
BRANCH  52  71
ATOM     71  C   UNL     1       8.945   0.367  13.336  1.00  0.00    -0.014 A 
ATOM     72  C   UNL     1       9.519  -0.208  14.480  1.00  0.00     0.009 A 
ATOM     73  C   UNL     1       8.920  -0.373  12.144  1.00  0.00     0.009 A 
ATOM     74  C   UNL     1      10.077  -1.488  14.423  1.00  0.00     0.001 A 
ATOM     75  C   UNL     1       9.454  -1.662  12.097  1.00  0.00     0.001 A 
ATOM     76  C   UNL     1      10.040  -2.215  13.234  1.00  0.00     0.000 A 
ENDBRANCH  52  71
BRANCH  64  77
ATOM     77  C   UNL     1      11.854   6.660  13.975  1.00  0.00    -0.014 A 
ATOM     78  C   UNL     1      12.779   6.610  12.920  1.00  0.00     0.009 A 
ATOM     79  C   UNL     1      12.263   7.180  15.214  1.00  0.00     0.009 A 
ATOM     80  C   UNL     1      14.092   7.043  13.113  1.00  0.00     0.001 A 
ATOM     81  C   UNL     1      13.568   7.638  15.395  1.00  0.00     0.001 A 
ATOM     82  C   UNL     1      14.484   7.561  14.347  1.00  0.00     0.000 A 
ENDBRANCH  64  77
ENDBRANCH  38  39
ENDBRANCH  31  33
ENDBRANCH  30  31
ENDBRANCH  29  30
ENDBRANCH  28  29
ENDBRANCH  27  28
ENDBRANCH   1  27
TORSDOF 18
