REMARK SMILES Cc1cccc(S(=O)(=O)Nc2cc(C(=O)OCCOCCOC(=O)c3ccc(-c4c5nc(c(-c6ccccc6)c6ccc([nH]6)c(-c6ccccc6)c6nc(c(-c7ccccc7)c7ccc4[nH]7)C=C6)C=C5)cc3)ccc2N2CCC[C@H](C[NH+]3CCCC3)C2)c1
REMARK SMILES IDX 18 1 17 2 16 3 14 4 15 5 13 6 11 7 12 8 75 9 74 10 73 11
REMARK SMILES IDX 10 12 7 14 8 15 9 16 6 17 1 18 2 19 3 20 88 21 4 22 5 23
REMARK SMILES IDX 76 24 77 25 87 26 78 27 80 28 79 29 81 30 82 31 83 32 86 33
REMARK SMILES IDX 84 35 85 36 19 37 20 38 21 39 22 40 23 41 24 42 25 43 26 44
REMARK SMILES IDX 72 45 27 46 71 47 28 48 29 49 30 50 65 51 31 52 70 53 64 54
REMARK SMILES IDX 66 55 32 56 69 57 63 58 62 59 33 61 55 62 40 63 54 64 41 65
REMARK SMILES IDX 44 66 53 67 67 68 42 69 43 70 52 72 68 73 45 74 34 75 35 76
REMARK SMILES IDX 39 77 36 78 38 79 37 80 56 81 57 82 61 83 58 84 60 85 59 86
REMARK SMILES IDX 46 87 47 88 51 89 48 90 50 91 49 92
REMARK H PARENT 10 13 82 34 66 60 44 71
REMARK Flexibility Score: inf
ROOT
ATOM      1  C   UNL     1       2.685   2.347  -4.634  1.00  0.00     0.202 C 
ENDROOT
BRANCH   1   2
ATOM      2  C   UNL     1       1.805   1.712  -3.641  1.00  0.00     0.261 C 
BRANCH   2   3
ATOM      3  O   UNL     1       1.983   2.284  -2.362  1.00  0.00    -0.460 OA
BRANCH   3   4
ATOM      4  C   UNL     1       3.103   2.675  -1.720  1.00  0.00     0.338 C 
ATOM      5  O   UNL     1       4.160   2.118  -1.512  1.00  0.00    -0.246 OA
BRANCH   4   6
ATOM      6  C   UNL     1       2.619   3.863  -1.015  1.00  0.00     0.062 A 
ATOM      7  C   UNL     1       0.515   4.527  -0.172  1.00  0.00     0.073 A 
ATOM      8  C   UNL     1       1.272   4.202  -1.245  1.00  0.00     0.044 A 
ATOM      9  C   UNL     1       1.181   5.091   0.924  1.00  0.00     0.061 A 
ATOM     10  C   UNL     1       2.583   4.954   1.059  1.00  0.00     0.029 A 
ATOM     11  C   UNL     1       3.305   4.248   0.126  1.00  0.00     0.018 A 
BRANCH   7  12
ATOM     12  N   UNL     1      -0.902   4.314  -0.280  1.00  0.00    -0.277 N 
ATOM     13  H   UNL     1      -1.478   5.091  -0.467  1.00  0.00     0.180 HD
BRANCH  12  14
ATOM     14  S   UNL     1      -1.655   2.748  -0.099  1.00  0.00     0.261 S 
ATOM     15  O   UNL     1      -2.686   2.726  -1.120  1.00  0.00    -0.201 OA
ATOM     16  O   UNL     1      -2.028   2.686   1.301  1.00  0.00    -0.201 OA
BRANCH  14  17
ATOM     17  C   UNL     1      -0.625   1.256  -0.421  1.00  0.00     0.088 A 
ATOM     18  C   UNL     1       3.886   0.219   1.111  1.00  0.00     0.044 C 
ATOM     19  C   UNL     1       2.649  -0.121   0.335  1.00  0.00    -0.050 A 
ATOM     20  C   UNL     1       1.643  -1.975  -0.078  1.00  0.00     0.003 A 
ATOM     21  C   UNL     1       1.342   1.440   0.191  1.00  0.00     0.025 A 
ATOM     22  C   UNL     1      -0.265  -2.253  -0.773  1.00  0.00     0.002 A 
ATOM     23  C   UNL     1      -1.547  -0.519  -0.867  1.00  0.00     0.022 A 
ENDBRANCH  14  17
ENDBRANCH  12  14
ENDBRANCH   7  12
BRANCH   9  24
ATOM     24  N   UNL     1       0.496   5.917   1.786  1.00  0.00    -0.369 N 
ATOM     25  C   UNL     1       0.937   7.310   1.797  1.00  0.00     0.116 C 
ATOM     26  C   UNL     1      -0.243   5.324   2.885  1.00  0.00     0.126 C 
ATOM     27  C   UNL     1       1.585   7.640   3.127  1.00  0.00     0.022 C 
ATOM     28  C   UNL     1       0.345   5.724   4.246  1.00  0.00     0.064 C 
ATOM     29  C   UNL     1       0.620   7.239   4.233  1.00  0.00     0.013 C 
BRANCH  28  30
ATOM     30  C   UNL     1       1.549   4.817   4.627  1.00  0.00     0.267 C 
BRANCH  30  31
ATOM     31  N   UNL     1       2.084   4.846   5.995  1.00  0.00    -0.335 N 
ATOM     32  C   UNL     1       1.103   4.542   7.036  1.00  0.00     0.262 C 
ATOM     33  C   UNL     1       2.764   6.076   6.399  1.00  0.00     0.262 C 
ATOM     34  H   UNL     1       2.777   4.100   5.927  1.00  0.00     0.348 HD
ATOM     35  C   UNL     1       0.629   5.893   7.533  1.00  0.00     0.067 C 
ATOM     36  C   UNL     1       1.871   6.762   7.433  1.00  0.00     0.067 C 
ENDBRANCH  30  31
ENDBRANCH  28  30
ENDBRANCH   9  24
ENDBRANCH   4   6
ENDBRANCH   3   4
ENDBRANCH   2   3
ENDBRANCH   1   2
BRANCH   1  37
ATOM     37  O   UNL     1       3.951   2.478  -4.039  1.00  0.00    -0.374 OA
BRANCH  37  38
ATOM     38  C   UNL     1       4.695   3.632  -4.333  1.00  0.00     0.202 C 
BRANCH  38  39
ATOM     39  C   UNL     1       4.894   3.655  -5.838  1.00  0.00     0.261 C 
BRANCH  39  40
ATOM     40  O   UNL     1       5.532   2.391  -6.224  1.00  0.00    -0.460 OA
BRANCH  40  41
ATOM     41  C   UNL     1       4.727   1.353  -6.633  1.00  0.00     0.338 C 
ATOM     42  O   UNL     1       3.861   1.464  -7.491  1.00  0.00    -0.246 OA
BRANCH  41  43
ATOM     43  C   UNL     1       4.781   0.167  -5.663  1.00  0.00     0.060 A 
ATOM     44  C   UNL     1       3.776  -0.817  -5.667  1.00  0.00     0.016 A 
ATOM     45  C   UNL     1       5.468   0.330  -4.474  1.00  0.00     0.016 A 
ATOM     46  C   UNL     1       3.278  -1.345  -4.437  1.00  0.00     0.010 A 
ATOM     47  C   UNL     1       4.825  -0.040  -3.273  1.00  0.00     0.010 A 
ATOM     48  C   UNL     1       3.615  -0.772  -3.205  1.00  0.00    -0.014 A 
BRANCH  48  49
ATOM     49  C   UNL     1       3.003  -1.075  -1.792  1.00  0.00     0.031 A 
ATOM     50  C   UNL     1       4.252  -1.970  -1.052  1.00  0.00     0.074 A 
ATOM     51  C   UNL     1       1.706  -0.508  -1.014  1.00  0.00     0.049 A 
ATOM     52  N   UNL     1       4.370  -2.345   0.191  1.00  0.00    -0.248 NA
ATOM     53  C   UNL     1       5.511  -2.340  -1.760  1.00  0.00     0.031 C 
ATOM     54  C   UNL     1       1.250  -0.639   1.116  1.00  0.00     0.029 A 
ATOM     55  N   UNL     1       0.828   0.312  -1.153  1.00  0.00    -0.354 N 
ATOM     56  C   UNL     1       5.713  -2.604   0.496  1.00  0.00     0.074 A 
ATOM     57  C   UNL     1       6.378  -2.607  -0.773  1.00  0.00     0.031 C 
ATOM     58  C   UNL     1       0.512   0.197   1.856  1.00  0.00     0.029 A 
ATOM     59  C   UNL     1       0.203  -0.040   0.565  1.00  0.00     0.049 A 
ATOM     60  H   UNL     1       0.555   0.919  -1.878  1.00  0.00     0.167 HD
ATOM     61  C   UNL     1       6.129  -2.703   1.802  1.00  0.00     0.031 A 
ATOM     62  C   UNL     1      -0.450  -0.997   0.239  1.00  0.00     0.031 A 
ATOM     63  C   UNL     1       4.969  -2.722   2.713  1.00  0.00     0.049 A 
ATOM     64  C   UNL     1      -0.725  -2.276   1.480  1.00  0.00     0.074 A 
ATOM     65  C   UNL     1       4.503  -1.913   3.733  1.00  0.00     0.029 A 
ATOM     66  N   UNL     1       3.939  -3.614   2.452  1.00  0.00    -0.354 N 
ATOM     67  N   UNL     1       0.135  -2.432   2.478  1.00  0.00    -0.248 NA
ATOM     68  C   UNL     1      -1.490  -3.516   1.274  1.00  0.00     0.031 C 
ATOM     69  C   UNL     1       3.131  -2.260   3.980  1.00  0.00     0.029 A 
ATOM     70  C   UNL     1       2.799  -3.361   3.208  1.00  0.00     0.049 A 
ATOM     71  H   UNL     1       4.008  -4.349   1.800  1.00  0.00     0.167 HD
ATOM     72  C   UNL     1       0.448  -3.767   2.560  1.00  0.00     0.074 A 
ATOM     73  C   UNL     1      -0.656  -4.405   1.845  1.00  0.00     0.031 C 
ATOM     74  C   UNL     1       1.649  -4.266   3.021  1.00  0.00     0.031 A 
BRANCH  61  75
ATOM     75  C   UNL     1       7.575  -2.690   2.360  1.00  0.00    -0.014 A 
ATOM     76  C   UNL     1       7.749  -2.651   3.767  1.00  0.00     0.009 A 
ATOM     77  C   UNL     1       8.783  -2.666   1.633  1.00  0.00     0.009 A 
ATOM     78  C   UNL     1       9.002  -2.560   4.403  1.00  0.00     0.001 A 
ATOM     79  C   UNL     1      10.053  -2.596   2.267  1.00  0.00     0.001 A 
ATOM     80  C   UNL     1      10.162  -2.532   3.651  1.00  0.00     0.000 A 
ENDBRANCH  61  75
BRANCH  62  81
ATOM     81  C   UNL     1      -0.276  -0.977  -1.993  1.00  0.00    -0.014 A 
ATOM     82  C   UNL     1      -0.946   0.107  -2.966  1.00  0.00     0.009 A 
ATOM     83  C   UNL     1       0.235  -2.001  -2.979  1.00  0.00     0.009 A 
ATOM     84  C   UNL     1      -0.936   0.185  -4.372  1.00  0.00     0.001 A 
ATOM     85  C   UNL     1       0.188  -1.906  -4.404  1.00  0.00     0.001 A 
ATOM     86  C   UNL     1      -0.299  -0.796  -5.083  1.00  0.00     0.000 A 
ENDBRANCH  62  81
BRANCH  74  87
ATOM     87  C   UNL     1       1.881  -5.742   3.319  1.00  0.00    -0.014 A 
ATOM     88  C   UNL     1       0.843  -6.674   3.398  1.00  0.00     0.009 A 
ATOM     89  C   UNL     1       3.154  -6.211   3.729  1.00  0.00     0.009 A 
ATOM     90  C   UNL     1       1.053  -7.993   3.803  1.00  0.00     0.001 A 
ATOM     91  C   UNL     1       3.368  -7.519   4.170  1.00  0.00     0.001 A 
ATOM     92  C   UNL     1       2.311  -8.412   4.206  1.00  0.00     0.000 A 
ENDBRANCH  74  87
ENDBRANCH  48  49
ENDBRANCH  41  43
ENDBRANCH  40  41
ENDBRANCH  39  40
ENDBRANCH  38  39
ENDBRANCH  37  38
ENDBRANCH   1  37
TORSDOF 20
