REMARK SMILES CCCC[C@H](C(=O)OCCOCCOC(=O)c1ccc(-c2c3nc(c(-c4ccccc4)c4ccc([nH]4)c(-c4ccccc4)c4nc(c(-c5ccccc5)c5ccc2[nH]5)C=C4)C=C3)cc1)[C@H](C)O
REMARK SMILES IDX 10 1 9 2 8 3 6 4 7 5 5 6 4 7 3 8 2 9 1 10 65 11 66 12 67 13
REMARK SMILES IDX 11 15 12 16 13 17 14 18 15 19 16 20 17 21 18 22 64 23 19 24
REMARK SMILES IDX 63 25 20 26 21 27 22 28 57 29 23 30 62 31 56 32 58 33 24 34
REMARK SMILES IDX 61 35 55 36 54 37 25 39 47 40 32 41 46 42 33 43 36 44 45 45
REMARK SMILES IDX 59 46 34 47 35 48 44 50 60 51 37 52 26 53 27 54 31 55 28 56
REMARK SMILES IDX 30 57 29 58 48 59 49 60 53 61 50 62 52 63 51 64 38 65 39 66
REMARK SMILES IDX 43 67 40 68 42 69 41 70
REMARK H PARENT 67 14 58 38 36 49
REMARK Flexibility Score: inf
ROOT
ATOM      1  C   UNL     1      -0.469  -1.877   0.205  1.00  0.00     0.202 C 
ENDROOT
BRANCH   1   2
ATOM      2  C   UNL     1      -0.391  -2.243  -1.278  1.00  0.00     0.261 C 
BRANCH   2   3
ATOM      3  O   UNL     1      -0.206  -1.099  -2.139  1.00  0.00    -0.463 OA
BRANCH   3   4
ATOM      4  C   UNL     1      -1.194  -0.881  -3.046  1.00  0.00     0.311 C 
ATOM      5  O   UNL     1      -2.320  -1.365  -2.989  1.00  0.00    -0.252 OA
BRANCH   4   6
ATOM      6  C   UNL     1      -0.748   0.018  -4.178  1.00  0.00     0.127 C 
BRANCH   6   7
ATOM      7  C   UNL     1      -0.948  -0.754  -5.503  1.00  0.00     0.018 C 
BRANCH   7   8
ATOM      8  C   UNL     1       0.282  -1.547  -5.970  1.00  0.00     0.001 C 
BRANCH   8   9
ATOM      9  C   UNL     1       0.888  -2.545  -4.982  1.00  0.00    -0.003 C 
ATOM     10  C   UNL     1      -0.023  -3.712  -4.640  1.00  0.00     0.004 C 
ENDBRANCH   8   9
ENDBRANCH   7   8
ENDBRANCH   6   7
BRANCH   6  11
ATOM     11  C   UNL     1      -1.567   1.326  -4.165  1.00  0.00     0.125 C 
ATOM     12  C   UNL     1      -1.247   2.249  -2.990  1.00  0.00     0.039 C 
BRANCH  11  13
ATOM     13  O   UNL     1      -2.975   1.108  -4.231  1.00  0.00    -0.393 OA
ATOM     14  H   UNL     1      -3.271   0.657  -3.425  1.00  0.00     0.210 HD
ENDBRANCH  11  13
ENDBRANCH   6  11
ENDBRANCH   4   6
ENDBRANCH   3   4
ENDBRANCH   2   3
ENDBRANCH   1   2
BRANCH   1  15
ATOM     15  O   UNL     1      -1.723  -1.417   0.705  1.00  0.00    -0.374 OA
BRANCH  15  16
ATOM     16  C   UNL     1      -2.270  -0.225   0.157  1.00  0.00     0.202 C 
BRANCH  16  17
ATOM     17  C   UNL     1      -1.665   1.104   0.622  1.00  0.00     0.261 C 
BRANCH  17  18
ATOM     18  O   UNL     1      -0.230   1.124   0.577  1.00  0.00    -0.460 OA
BRANCH  18  19
ATOM     19  C   UNL     1       0.347   1.050   1.797  1.00  0.00     0.338 C 
ATOM     20  O   UNL     1      -0.216   1.061   2.888  1.00  0.00    -0.246 OA
BRANCH  19  21
ATOM     21  C   UNL     1       1.793   0.807   1.690  1.00  0.00     0.060 A 
ATOM     22  C   UNL     1       2.305  -0.282   2.406  1.00  0.00     0.016 A 
ATOM     23  C   UNL     1       2.648   1.696   1.034  1.00  0.00     0.016 A 
ATOM     24  C   UNL     1       3.679  -0.439   2.542  1.00  0.00     0.010 A 
ATOM     25  C   UNL     1       4.033   1.539   1.177  1.00  0.00     0.010 A 
ATOM     26  C   UNL     1       4.548   0.504   1.977  1.00  0.00    -0.014 A 
BRANCH  26  27
ATOM     27  C   UNL     1       5.967   0.490   2.407  1.00  0.00     0.031 A 
ATOM     28  C   UNL     1       6.395   1.400   3.529  1.00  0.00     0.074 A 
ATOM     29  C   UNL     1       6.838  -0.387   1.878  1.00  0.00     0.049 A 
ATOM     30  N   UNL     1       7.550   1.474   4.140  1.00  0.00    -0.248 NA
ATOM     31  C   UNL     1       5.386   2.346   4.032  1.00  0.00     0.031 C 
ATOM     32  C   UNL     1       6.537  -1.341   0.813  1.00  0.00     0.029 A 
ATOM     33  N   UNL     1       8.153  -0.625   2.185  1.00  0.00    -0.354 N 
ATOM     34  C   UNL     1       7.406   2.469   5.099  1.00  0.00     0.074 A 
ATOM     35  C   UNL     1       6.065   2.995   4.967  1.00  0.00     0.031 C 
ATOM     36  C   UNL     1       7.638  -2.070   0.559  1.00  0.00     0.029 A 
ATOM     37  C   UNL     1       8.720  -1.624   1.435  1.00  0.00     0.049 A 
ATOM     38  H   UNL     1       8.644  -0.127   2.878  1.00  0.00     0.167 HD
ATOM     39  C   UNL     1       8.303   2.901   6.016  1.00  0.00     0.031 A 
ATOM     40  C   UNL     1       9.970  -2.125   1.454  1.00  0.00     0.031 A 
ATOM     41  C   UNL     1       9.640   2.388   6.147  1.00  0.00     0.049 A 
ATOM     42  C   UNL     1      10.961  -1.600   2.458  1.00  0.00     0.074 A 
ATOM     43  C   UNL     1      10.621   2.755   7.052  1.00  0.00     0.029 A 
ATOM     44  N   UNL     1      10.184   1.399   5.345  1.00  0.00    -0.354 N 
ATOM     45  N   UNL     1      10.798  -0.686   3.383  1.00  0.00    -0.248 NA
ATOM     46  C   UNL     1      12.306  -2.195   2.431  1.00  0.00     0.031 C 
ATOM     47  C   UNL     1      11.775   2.017   6.768  1.00  0.00     0.029 A 
ATOM     48  C   UNL     1      11.494   1.155   5.720  1.00  0.00     0.049 A 
ATOM     49  H   UNL     1       9.710   0.937   4.616  1.00  0.00     0.167 HD
ATOM     50  C   UNL     1      12.006  -0.617   4.066  1.00  0.00     0.074 A 
ATOM     51  C   UNL     1      12.887  -1.593   3.459  1.00  0.00     0.031 C 
ATOM     52  C   UNL     1      12.356   0.180   5.105  1.00  0.00     0.031 A 
BRANCH  39  53
ATOM     53  C   UNL     1       7.872   4.009   6.935  1.00  0.00    -0.014 A 
ATOM     54  C   UNL     1       6.968   3.776   7.983  1.00  0.00     0.009 A 
ATOM     55  C   UNL     1       8.403   5.297   6.768  1.00  0.00     0.009 A 
ATOM     56  C   UNL     1       6.583   4.819   8.829  1.00  0.00     0.001 A 
ATOM     57  C   UNL     1       8.034   6.332   7.629  1.00  0.00     0.001 A 
ATOM     58  C   UNL     1       7.120   6.094   8.654  1.00  0.00     0.000 A 
ENDBRANCH  39  53
BRANCH  40  59
ATOM     59  C   UNL     1      10.361  -3.187   0.492  1.00  0.00    -0.014 A 
ATOM     60  C   UNL     1      10.609  -4.498   0.927  1.00  0.00     0.009 A 
ATOM     61  C   UNL     1      10.515  -2.882  -0.869  1.00  0.00     0.009 A 
ATOM     62  C   UNL     1      11.031  -5.474   0.022  1.00  0.00     0.001 A 
ATOM     63  C   UNL     1      10.910  -3.867  -1.776  1.00  0.00     0.001 A 
ATOM     64  C   UNL     1      11.178  -5.160  -1.328  1.00  0.00     0.000 A 
ENDBRANCH  40  59
BRANCH  52  65
ATOM     65  C   UNL     1      13.736   0.002   5.672  1.00  0.00    -0.014 A 
ATOM     66  C   UNL     1      14.873   0.440   4.976  1.00  0.00     0.009 A 
ATOM     67  C   UNL     1      13.896  -0.591   6.934  1.00  0.00     0.009 A 
ATOM     68  C   UNL     1      16.146   0.251   5.516  1.00  0.00     0.001 A 
ATOM     69  C   UNL     1      15.168  -0.753   7.484  1.00  0.00     0.001 A 
ATOM     70  C   UNL     1      16.293  -0.342   6.770  1.00  0.00     0.000 A 
ENDBRANCH  52  65
ENDBRANCH  26  27
ENDBRANCH  19  21
ENDBRANCH  18  19
ENDBRANCH  17  18
ENDBRANCH  16  17
ENDBRANCH  15  16
ENDBRANCH   1  15
TORSDOF 19
