REMARK SMILES CC[C@H](Oc1ccccc1/C=C1/SC(=S)N(NC(=O)c2ccc(C)cc2)C1=O)C(=O)OCCOCCOC(=O)c1ccc(-c2c3nc(c(-c4ccccc4)c4ccc([nH]4)c(-c4ccccc4)c4nc(c(-c5ccccc5)c5ccc2[nH]5)C=C4)C=C3)cc1
REMARK SMILES IDX 32 1 31 2 29 3 30 4 3 5 2 6 1 7 4 8 5 9 6 10 10 11 7 12 9 13
REMARK SMILES IDX 8 14 11 15 12 16 13 17 27 18 14 19 16 20 28 21 15 22 17 23
REMARK SMILES IDX 18 24 19 26 20 27 21 28 26 29 22 30 25 31 23 32 24 33 33 34
REMARK SMILES IDX 34 35 35 36 36 37 37 38 38 39 39 40 40 41 41 42 87 43 42 44
REMARK SMILES IDX 86 45 43 46 44 47 45 48 80 49 46 50 85 51 79 52 81 53 47 54
REMARK SMILES IDX 84 55 78 56 77 57 48 59 70 60 55 61 69 62 56 63 59 64 68 65
REMARK SMILES IDX 82 66 57 67 58 68 67 70 83 71 60 72 49 73 50 74 54 75 51 76
REMARK SMILES IDX 53 77 52 78 71 79 72 80 76 81 73 82 75 83 74 84 61 85 62 86
REMARK SMILES IDX 66 87 63 88 65 89 64 90
REMARK H PARENT 17 25 81 58 59 69
REMARK Flexibility Score: inf
ROOT
ATOM      1  C   UNL     1       1.217  -2.522   5.164  1.00  0.00     0.261 C 
ENDROOT
BRANCH   1   2
ATOM      2  O   UNL     1       1.069  -1.386   4.295  1.00  0.00    -0.461 OA
BRANCH   2   3
ATOM      3  C   UNL     1       2.160  -0.985   3.578  1.00  0.00     0.347 C 
ATOM      4  O   UNL     1       3.285  -1.438   3.744  1.00  0.00    -0.248 OA
BRANCH   3   5
ATOM      5  C   UNL     1       1.785   0.065   2.470  1.00  0.00     0.282 C 
BRANCH   5   6
ATOM      6  C   UNL     1       1.068   1.256   3.146  1.00  0.00     0.054 C 
ATOM      7  C   UNL     1      -0.300   1.007   3.782  1.00  0.00     0.008 C 
ENDBRANCH   5   6
BRANCH   5   8
ATOM      8  O   UNL     1       1.400  -0.535   1.200  1.00  0.00    -0.478 OA
BRANCH   8   9
ATOM      9  C   UNL     1       0.464  -0.214   0.248  1.00  0.00     0.127 A 
ATOM     10  C   UNL     1      -0.496   0.786   0.446  1.00  0.00     0.047 A 
ATOM     11  C   UNL     1       0.376  -1.040  -0.953  1.00  0.00     0.018 A 
ATOM     12  C   UNL     1      -1.550   0.986  -0.447  1.00  0.00     0.004 A 
ATOM     13  C   UNL     1      -0.715  -0.821  -1.823  1.00  0.00     0.012 A 
ATOM     14  C   UNL     1      -1.668   0.178  -1.568  1.00  0.00     0.001 A 
BRANCH  11  15
ATOM     15  C   UNL     1       1.391  -2.120  -1.334  1.00  0.00     0.033 C 
ATOM     16  C   UNL     1       1.323  -3.479  -1.485  1.00  0.00     0.083 C 
ATOM     17  S   UNL     1       2.707  -4.533  -1.433  1.00  0.00    -0.052 SA
ATOM     18  C   UNL     1       0.161  -4.425  -1.229  1.00  0.00     0.285 C 
ATOM     19  C   UNL     1       1.882  -5.690  -0.316  1.00  0.00     0.168 C 
ATOM     20  N   UNL     1       0.570  -5.303  -0.132  1.00  0.00    -0.198 N 
ATOM     21  O   UNL     1      -0.826  -4.333  -1.947  1.00  0.00    -0.266 OA
ATOM     22  S   UNL     1       2.658  -7.002   0.348  1.00  0.00    -0.050 S 
BRANCH  20  23
ATOM     23  N   UNL     1      -0.245  -5.847   1.299  1.00  0.00    -0.255 N 
ATOM     24  C   UNL     1      -1.264  -5.388   2.441  1.00  0.00     0.270 C 
ATOM     25  H   UNL     1       0.015  -6.781   1.470  1.00  0.00     0.192 HD
ATOM     26  O   UNL     1      -1.328  -6.236   3.357  1.00  0.00    -0.267 OA
BRANCH  24  27
ATOM     27  C   UNL     1      -2.317  -4.009   2.797  1.00  0.00     0.041 A 
ATOM     28  C   UNL     1      -2.475  -3.613   4.136  1.00  0.00     0.014 A 
ATOM     29  C   UNL     1      -3.008  -3.064   1.949  1.00  0.00     0.014 A 
ATOM     30  C   UNL     1      -3.034  -2.329   4.511  1.00  0.00     0.004 A 
ATOM     31  C   UNL     1      -3.542  -1.818   2.275  1.00  0.00     0.004 A 
ATOM     32  C   UNL     1      -3.536  -1.411   3.574  1.00  0.00    -0.051 A 
ATOM     33  C   UNL     1      -4.018  -0.016   3.834  1.00  0.00     0.044 C 
ENDBRANCH  24  27
ENDBRANCH  20  23
ENDBRANCH  11  15
ENDBRANCH   8   9
ENDBRANCH   5   8
ENDBRANCH   3   5
ENDBRANCH   2   3
ENDBRANCH   1   2
BRANCH   1  34
ATOM     34  C   UNL     1       0.944  -3.906   4.519  1.00  0.00     0.202 C 
BRANCH  34  35
ATOM     35  O   UNL     1       0.854  -4.053   3.091  1.00  0.00    -0.374 OA
BRANCH  35  36
ATOM     36  C   UNL     1       0.147  -3.024   2.405  1.00  0.00     0.202 C 
BRANCH  36  37
ATOM     37  C   UNL     1      -0.500  -3.198   0.978  1.00  0.00     0.261 C 
BRANCH  37  38
ATOM     38  O   UNL     1      -1.698  -4.225   0.398  1.00  0.00    -0.460 OA
BRANCH  38  39
ATOM     39  C   UNL     1      -2.281  -5.378  -0.163  1.00  0.00     0.338 C 
ATOM     40  O   UNL     1      -1.802  -6.368  -0.658  1.00  0.00    -0.246 OA
BRANCH  39  41
ATOM     41  C   UNL     1      -3.702  -5.427   0.251  1.00  0.00     0.060 A 
ATOM     42  C   UNL     1      -4.036  -6.113   1.437  1.00  0.00     0.016 A 
ATOM     43  C   UNL     1      -4.618  -4.607  -0.397  1.00  0.00     0.016 A 
ATOM     44  C   UNL     1      -5.240  -5.843   2.076  1.00  0.00     0.010 A 
ATOM     45  C   UNL     1      -5.847  -4.387   0.209  1.00  0.00     0.010 A 
ATOM     46  C   UNL     1      -6.153  -4.995   1.446  1.00  0.00    -0.014 A 
BRANCH  46  47
ATOM     47  C   UNL     1      -7.567  -5.036   1.846  1.00  0.00     0.031 A 
ATOM     48  C   UNL     1      -8.390  -6.065   1.134  1.00  0.00     0.074 A 
ATOM     49  C   UNL     1      -8.099  -4.159   2.710  1.00  0.00     0.049 A 
ATOM     50  N   UNL     1      -9.684  -6.171   1.037  1.00  0.00    -0.248 NA
ATOM     51  C   UNL     1      -7.636  -7.090   0.384  1.00  0.00     0.031 C 
ATOM     52  C   UNL     1      -7.364  -3.172   3.501  1.00  0.00     0.029 A 
ATOM     53  N   UNL     1      -9.412  -3.948   3.039  1.00  0.00    -0.354 N 
ATOM     54  C   UNL     1      -9.893  -7.238   0.172  1.00  0.00     0.074 A 
ATOM     55  C   UNL     1      -8.604  -7.738  -0.235  1.00  0.00     0.031 C 
ATOM     56  C   UNL     1      -8.246  -2.441   4.210  1.00  0.00     0.029 A 
ATOM     57  C   UNL     1      -9.601  -2.879   3.880  1.00  0.00     0.049 A 
ATOM     58  H   UNL     1     -10.149  -4.508   2.705  1.00  0.00     0.167 HD
ATOM     59  C   UNL     1     -11.067  -7.745  -0.257  1.00  0.00     0.031 A 
ATOM     60  C   UNL     1     -10.751  -2.312   4.293  1.00  0.00     0.031 A 
ATOM     61  C   UNL     1     -12.335  -7.225   0.156  1.00  0.00     0.049 A 
ATOM     62  C   UNL     1     -12.053  -2.875   3.775  1.00  0.00     0.074 A 
ATOM     63  C   UNL     1     -13.600  -7.649  -0.196  1.00  0.00     0.029 A 
ATOM     64  N   UNL     1     -12.486  -6.155   1.027  1.00  0.00    -0.354 N 
ATOM     65  N   UNL     1     -12.254  -3.876   2.950  1.00  0.00    -0.248 NA
ATOM     66  C   UNL     1     -13.285  -2.225   4.242  1.00  0.00     0.031 C 
ATOM     67  C   UNL     1     -14.521  -6.809   0.438  1.00  0.00     0.029 A 
ATOM     68  C   UNL     1     -13.828  -5.898   1.222  1.00  0.00     0.049 A 
ATOM     69  H   UNL     1     -11.747  -5.655   1.443  1.00  0.00     0.167 HD
ATOM     70  C   UNL     1     -13.632  -3.998   2.824  1.00  0.00     0.074 A 
ATOM     71  C   UNL     1     -14.217  -2.972   3.665  1.00  0.00     0.031 C 
ATOM     72  C   UNL     1     -14.357  -4.872   2.083  1.00  0.00     0.031 A 
BRANCH  59  73
ATOM     73  C   UNL     1     -10.997  -8.865  -1.252  1.00  0.00    -0.014 A 
ATOM     74  C   UNL     1     -10.526 -10.138  -0.890  1.00  0.00     0.009 A 
ATOM     75  C   UNL     1     -11.358  -8.627  -2.586  1.00  0.00     0.009 A 
ATOM     76  C   UNL     1     -10.378 -11.136  -1.854  1.00  0.00     0.001 A 
ATOM     77  C   UNL     1     -11.240  -9.637  -3.541  1.00  0.00     0.001 A 
ATOM     78  C   UNL     1     -10.740 -10.886  -3.177  1.00  0.00     0.000 A 
ENDBRANCH  59  73
BRANCH  60  79
ATOM     79  C   UNL     1     -10.738  -1.147   5.216  1.00  0.00    -0.014 A 
ATOM     80  C   UNL     1     -11.201  -1.282   6.535  1.00  0.00     0.009 A 
ATOM     81  C   UNL     1     -10.293   0.113   4.785  1.00  0.00     0.009 A 
ATOM     82  C   UNL     1     -11.244  -0.178   7.391  1.00  0.00     0.001 A 
ATOM     83  C   UNL     1     -10.312   1.210   5.652  1.00  0.00     0.001 A 
ATOM     84  C   UNL     1     -10.797   1.065   6.950  1.00  0.00     0.000 A 
ENDBRANCH  60  79
BRANCH  72  85
ATOM     85  C   UNL     1     -15.851  -4.791   2.196  1.00  0.00    -0.014 A 
ATOM     86  C   UNL     1     -16.574  -3.762   1.576  1.00  0.00     0.009 A 
ATOM     87  C   UNL     1     -16.544  -5.807   2.873  1.00  0.00     0.009 A 
ATOM     88  C   UNL     1     -17.967  -3.738   1.657  1.00  0.00     0.001 A 
ATOM     89  C   UNL     1     -17.937  -5.795   2.926  1.00  0.00     0.001 A 
ATOM     90  C   UNL     1     -18.646  -4.757   2.326  1.00  0.00     0.000 A 
ENDBRANCH  72  85
ENDBRANCH  46  47
ENDBRANCH  39  41
ENDBRANCH  38  39
ENDBRANCH  37  38
ENDBRANCH  36  37
ENDBRANCH  35  36
ENDBRANCH  34  35
ENDBRANCH   1  34
TORSDOF 20
