REMARK SMILES Cc1nnc(N[C@@H]2CCCCC[C@@H]2C(=O)OCCOCCOC(=O)c2ccc(-c3c4nc(c(-c5ccccc5)c5ccc([nH]5)c(-c5ccccc5)c5nc(c(-c6ccccc6)c6ccc3[nH]6)C=C5)C=C4)cc2)s1
REMARK SMILES IDX 18 1 17 2 16 3 14 4 15 5 13 6 7 7 6 8 5 10 1 11 2 12 3 13
REMARK SMILES IDX 73 14 4 15 8 16 12 18 11 19 10 20 9 21 19 23 20 24 21 25
REMARK SMILES IDX 22 26 23 27 24 28 25 29 26 30 72 31 27 32 71 33 28 34 29 35
REMARK SMILES IDX 30 36 65 37 31 38 70 39 64 40 66 41 32 42 69 43 63 44 62 45
REMARK SMILES IDX 33 47 55 48 40 49 54 50 41 51 44 52 53 53 67 54 42 55 43 56
REMARK SMILES IDX 52 58 68 59 45 60 34 61 35 62 39 63 36 64 38 65 37 66 56 67
REMARK SMILES IDX 57 68 61 69 58 70 60 71 59 72 46 73 47 74 51 75 48 76 50 77
REMARK SMILES IDX 49 78
REMARK H PARENT 6 9 66 46 44 57
REMARK Flexibility Score: 90.00
ROOT
ATOM      1  C   UNL     1       2.227  -0.388  -4.071  1.00  0.00     0.202 C 
ENDROOT
BRANCH   1   2
ATOM      2  C   UNL     1       3.537  -0.315  -3.284  1.00  0.00     0.261 C 
BRANCH   2   3
ATOM      3  O   UNL     1       3.385   0.617  -2.195  1.00  0.00    -0.463 OA
BRANCH   3   4
ATOM      4  C   UNL     1       4.277   1.628  -2.097  1.00  0.00     0.311 C 
ATOM      5  O   UNL     1       5.246   1.775  -2.833  1.00  0.00    -0.252 OA
BRANCH   4   6
ATOM      6  C   UNL     1       3.901   2.655  -1.036  1.00  0.00     0.121 C 
BRANCH   6   7
ATOM      7  C   UNL     1       3.570   2.125   0.374  1.00  0.00     0.095 C 
BRANCH   7   8
ATOM      8  N   UNL     1       2.884   0.843   0.434  1.00  0.00    -0.356 N 
ATOM      9  H   UNL     1       3.495   0.072   0.470  1.00  0.00     0.163 HD
BRANCH   8  10
ATOM     10  C   UNL     1       1.575   0.494   0.450  1.00  0.00     0.205 A 
ATOM     11  C   UNL     1      -2.233   0.282   0.971  1.00  0.00     0.081 C 
ATOM     12  C   UNL     1      -0.780   0.150   0.702  1.00  0.00     0.116 A 
ATOM     13  N   UNL     1      -0.121  -0.985   0.672  1.00  0.00    -0.142 NA
ATOM     14  S   UNL     1       0.198   1.525   0.410  1.00  0.00    -0.080 S 
ATOM     15  N   UNL     1       1.232  -0.780   0.512  1.00  0.00    -0.120 NA
ENDBRANCH   8  10
ENDBRANCH   7   8
BRANCH   7  16
ATOM     16  C   UNL     1       3.003   3.169   1.353  1.00  0.00     0.026 CG0
ATOM     17  G   UNL     1       3.702   4.529   1.302  1.00  0.00     0.000 G0
ENDBRANCH   7  16
ENDBRANCH   6   7
BRANCH   6  18
ATOM     18  C   UNL     1       2.931   3.705  -1.597  1.00  0.00     0.017 C 
BRANCH  18  19
ATOM     19  C   UNL     1       3.296   5.133  -1.184  1.00  0.00     0.001 C 
BRANCH  19  20
ATOM     20  C   UNL     1       3.069   5.480   0.284  1.00  0.00     0.000 C 
BRANCH  20  21
ATOM     21  C   UNL     1       3.702   4.529   1.302  1.00  0.00     0.002 CG0
ATOM     22  G   UNL     1       3.003   3.169   1.353  1.00  0.00     0.000 G0
ENDBRANCH  20  21
ENDBRANCH  19  20
ENDBRANCH  18  19
ENDBRANCH   6  18
ENDBRANCH   4   6
ENDBRANCH   3   4
ENDBRANCH   2   3
ENDBRANCH   1   2
BRANCH   1  23
ATOM     23  O   UNL     1       1.989   0.753  -4.904  1.00  0.00    -0.374 OA
BRANCH  23  24
ATOM     24  C   UNL     1       1.455   1.894  -4.233  1.00  0.00     0.202 C 
BRANCH  24  25
ATOM     25  C   UNL     1      -0.068   2.012  -4.286  1.00  0.00     0.261 C 
BRANCH  25  26
ATOM     26  O   UNL     1      -0.684   0.938  -3.559  1.00  0.00    -0.460 OA
BRANCH  26  27
ATOM     27  C   UNL     1      -1.062  -0.111  -4.325  1.00  0.00     0.338 C 
ATOM     28  O   UNL     1      -1.065  -0.177  -5.547  1.00  0.00    -0.246 OA
BRANCH  27  29
ATOM     29  C   UNL     1      -1.359  -1.267  -3.463  1.00  0.00     0.060 A 
ATOM     30  C   UNL     1      -0.857  -2.515  -3.843  1.00  0.00     0.016 A 
ATOM     31  C   UNL     1      -2.159  -1.141  -2.328  1.00  0.00     0.016 A 
ATOM     32  C   UNL     1      -1.213  -3.655  -3.124  1.00  0.00     0.010 A 
ATOM     33  C   UNL     1      -2.489  -2.280  -1.591  1.00  0.00     0.010 A 
ATOM     34  C   UNL     1      -2.067  -3.551  -2.018  1.00  0.00    -0.014 A 
BRANCH  34  35
ATOM     35  C   UNL     1      -2.665  -4.779  -1.434  1.00  0.00     0.031 A 
ATOM     36  C   UNL     1      -4.126  -5.064  -1.671  1.00  0.00     0.074 A 
ATOM     37  C   UNL     1      -1.915  -5.662  -0.751  1.00  0.00     0.049 A 
ATOM     38  N   UNL     1      -4.839  -6.108  -1.327  1.00  0.00    -0.248 NA
ATOM     39  C   UNL     1      -4.894  -4.022  -2.373  1.00  0.00     0.031 C 
ATOM     40  C   UNL     1      -0.494  -5.509  -0.442  1.00  0.00     0.029 A 
ATOM     41  N   UNL     1      -2.248  -6.881  -0.215  1.00  0.00    -0.354 N 
ATOM     42  C   UNL     1      -6.133  -5.836  -1.754  1.00  0.00     0.074 A 
ATOM     43  C   UNL     1      -6.123  -4.506  -2.318  1.00  0.00     0.031 C 
ATOM     44  C   UNL     1      -0.063  -6.619   0.182  1.00  0.00     0.029 A 
ATOM     45  C   UNL     1      -1.182  -7.545   0.340  1.00  0.00     0.049 A 
ATOM     46  H   UNL     1      -3.163  -7.245  -0.229  1.00  0.00     0.167 HD
ATOM     47  C   UNL     1      -7.232  -6.628  -1.714  1.00  0.00     0.031 A 
ATOM     48  C   UNL     1      -1.115  -8.770   0.895  1.00  0.00     0.031 A 
ATOM     49  C   UNL     1      -7.248  -7.957  -1.168  1.00  0.00     0.049 A 
ATOM     50  C   UNL     1      -2.351  -9.629   0.951  1.00  0.00     0.074 A 
ATOM     51  C   UNL     1      -8.299  -8.856  -1.108  1.00  0.00     0.029 A 
ATOM     52  N   UNL     1      -6.154  -8.579  -0.586  1.00  0.00    -0.354 N 
ATOM     53  N   UNL     1      -3.557  -9.380   0.501  1.00  0.00    -0.248 NA
ATOM     54  C   UNL     1      -2.203 -10.950   1.577  1.00  0.00     0.031 C 
ATOM     55  C   UNL     1      -7.851 -10.006  -0.448  1.00  0.00     0.029 A 
ATOM     56  C   UNL     1      -6.506  -9.845  -0.151  1.00  0.00     0.049 A 
ATOM     57  H   UNL     1      -5.259  -8.179  -0.495  1.00  0.00     0.167 HD
ATOM     58  C   UNL     1      -4.301 -10.527   0.754  1.00  0.00     0.074 A 
ATOM     59  C   UNL     1      -3.406 -11.474   1.387  1.00  0.00     0.031 C 
ATOM     60  C   UNL     1      -5.606 -10.777   0.478  1.00  0.00     0.031 A 
BRANCH  47  61
ATOM     61  C   UNL     1      -8.506  -6.046  -2.266  1.00  0.00    -0.014 A 
ATOM     62  C   UNL     1      -8.652  -5.771  -3.637  1.00  0.00     0.009 A 
ATOM     63  C   UNL     1      -9.564  -5.735  -1.399  1.00  0.00     0.009 A 
ATOM     64  C   UNL     1      -9.800  -5.136  -4.115  1.00  0.00     0.001 A 
ATOM     65  C   UNL     1     -10.727  -5.134  -1.885  1.00  0.00     0.001 A 
ATOM     66  C   UNL     1     -10.836  -4.819  -3.239  1.00  0.00     0.000 A 
ENDBRANCH  47  61
BRANCH  48  67
ATOM     67  C   UNL     1       0.185  -9.291   1.393  1.00  0.00    -0.014 A 
ATOM     68  C   UNL     1       0.845 -10.320   0.701  1.00  0.00     0.009 A 
ATOM     69  C   UNL     1       0.769  -8.775   2.559  1.00  0.00     0.009 A 
ATOM     70  C   UNL     1       2.050 -10.837   1.181  1.00  0.00     0.001 A 
ATOM     71  C   UNL     1       1.988  -9.276   3.022  1.00  0.00     0.001 A 
ATOM     72  C   UNL     1       2.623 -10.312   2.338  1.00  0.00     0.000 A 
ENDBRANCH  48  67
BRANCH  60  73
ATOM     73  C   UNL     1      -6.128 -12.149   0.811  1.00  0.00    -0.014 A 
ATOM     74  C   UNL     1      -6.314 -12.564   2.139  1.00  0.00     0.009 A 
ATOM     75  C   UNL     1      -6.457 -13.033  -0.229  1.00  0.00     0.009 A 
ATOM     76  C   UNL     1      -6.776 -13.853   2.418  1.00  0.00     0.001 A 
ATOM     77  C   UNL     1      -6.949 -14.308   0.052  1.00  0.00     0.001 A 
ATOM     78  C   UNL     1      -7.095 -14.722   1.375  1.00  0.00     0.000 A 
ENDBRANCH  60  73
ENDBRANCH  34  35
ENDBRANCH  27  29
ENDBRANCH  26  27
ENDBRANCH  25  26
ENDBRANCH  24  25
ENDBRANCH  23  24
ENDBRANCH   1  23
TORSDOF 16
