REMARK SMILES O=C(OCCOCCOC(=O)c1ncoc1-c1cc(F)cc(F)c1)c1ccc(-c2c3nc(c(-c4ccccc4)c4ccc([nH]4)c(-c4ccccc4)c4nc(c(-c5ccccc5)c5ccc2[nH]5)C=C4)C=C3)cc1
REMARK SMILES IDX 5 1 4 2 3 3 2 4 1 5 25 6 26 7 72 8 27 9 71 10 28 11 29 12
REMARK SMILES IDX 30 13 65 14 31 15 70 16 64 17 66 18 32 19 69 20 63 21 62 22
REMARK SMILES IDX 33 24 55 25 40 26 54 27 41 28 44 29 53 30 67 31 42 32 43 33
REMARK SMILES IDX 52 35 68 36 45 37 34 38 35 39 39 40 36 41 38 42 37 43 56 44
REMARK SMILES IDX 57 45 61 46 58 47 60 48 59 49 46 50 47 51 51 52 48 53 50 54
REMARK SMILES IDX 49 55 6 56 7 57 8 58 9 59 10 60 11 61 12 62 13 63 16 64
REMARK SMILES IDX 14 65 15 66 17 67 18 68 24 69 19 70 22 71 20 72 21 73 23 74
REMARK H PARENT 66 23 44 34
REMARK Flexibility Score: inf
ROOT
ATOM      1  C   UNL     1       3.897  -1.519   0.363  1.00  0.00     0.202 C 
ENDROOT
BRANCH   1   2
ATOM      2  C   UNL     1       3.547  -0.287   1.198  1.00  0.00     0.261 C 
BRANCH   2   3
ATOM      3  O   UNL     1       2.165   0.050   1.006  1.00  0.00    -0.460 OA
BRANCH   3   4
ATOM      4  C   UNL     1       1.667   0.974   0.152  1.00  0.00     0.338 C 
ATOM      5  O   UNL     1       0.447   1.094   0.051  1.00  0.00    -0.246 OA
BRANCH   4   6
ATOM      6  C   UNL     1       2.523   1.923  -0.621  1.00  0.00     0.060 A 
ATOM      7  C   UNL     1       3.738   1.598  -1.232  1.00  0.00     0.016 A 
ATOM      8  C   UNL     1       2.000   3.208  -0.833  1.00  0.00     0.016 A 
ATOM      9  C   UNL     1       4.433   2.517  -2.006  1.00  0.00     0.010 A 
ATOM     10  C   UNL     1       2.675   4.129  -1.637  1.00  0.00     0.010 A 
ATOM     11  C   UNL     1       3.894   3.779  -2.227  1.00  0.00    -0.014 A 
BRANCH  11  12
ATOM     12  C   UNL     1       4.635   4.739  -3.056  1.00  0.00     0.031 A 
ATOM     13  C   UNL     1       5.372   5.848  -2.384  1.00  0.00     0.074 A 
ATOM     14  C   UNL     1       4.663   4.577  -4.390  1.00  0.00     0.049 A 
ATOM     15  N   UNL     1       5.940   6.897  -2.910  1.00  0.00    -0.248 NA
ATOM     16  C   UNL     1       5.484   5.759  -0.919  1.00  0.00     0.031 C 
ATOM     17  C   UNL     1       4.068   3.453  -5.117  1.00  0.00     0.029 A 
ATOM     18  N   UNL     1       5.213   5.359  -5.369  1.00  0.00    -0.354 N 
ATOM     19  C   UNL     1       6.435   7.623  -1.837  1.00  0.00     0.074 A 
ATOM     20  C   UNL     1       6.120   6.885  -0.633  1.00  0.00     0.031 C 
ATOM     21  C   UNL     1       4.284   3.622  -6.431  1.00  0.00     0.029 A 
ATOM     22  C   UNL     1       4.962   4.896  -6.636  1.00  0.00     0.049 A 
ATOM     23  H   UNL     1       5.735   6.172  -5.182  1.00  0.00     0.167 HD
ATOM     24  C   UNL     1       7.069   8.818  -1.864  1.00  0.00     0.031 A 
ATOM     25  C   UNL     1       5.208   5.472  -7.827  1.00  0.00     0.031 A 
ATOM     26  C   UNL     1       7.341   9.535  -3.079  1.00  0.00     0.049 A 
ATOM     27  C   UNL     1       5.850   6.831  -7.835  1.00  0.00     0.074 A 
ATOM     28  C   UNL     1       7.911  10.783  -3.244  1.00  0.00     0.029 A 
ATOM     29  N   UNL     1       7.054   9.049  -4.349  1.00  0.00    -0.354 N 
ATOM     30  N   UNL     1       6.246   7.558  -6.817  1.00  0.00    -0.248 NA
ATOM     31  C   UNL     1       6.061   7.457  -9.145  1.00  0.00     0.031 C 
ATOM     32  C   UNL     1       7.935  11.067  -4.615  1.00  0.00     0.029 A 
ATOM     33  C   UNL     1       7.424   9.976  -5.304  1.00  0.00     0.049 A 
ATOM     34  H   UNL     1       6.646   8.174  -4.539  1.00  0.00     0.167 HD
ATOM     35  C   UNL     1       6.765   8.724  -7.360  1.00  0.00     0.074 A 
ATOM     36  C   UNL     1       6.643   8.599  -8.801  1.00  0.00     0.031 C 
ATOM     37  C   UNL     1       7.290   9.803  -6.729  1.00  0.00     0.031 A 
BRANCH  24  38
ATOM     38  C   UNL     1       7.395   9.434  -0.536  1.00  0.00    -0.014 A 
ATOM     39  C   UNL     1       8.421   8.930   0.279  1.00  0.00     0.009 A 
ATOM     40  C   UNL     1       6.607  10.494  -0.060  1.00  0.00     0.009 A 
ATOM     41  C   UNL     1       8.617   9.443   1.564  1.00  0.00     0.001 A 
ATOM     42  C   UNL     1       6.822  11.021   1.215  1.00  0.00     0.001 A 
ATOM     43  C   UNL     1       7.816  10.485   2.031  1.00  0.00     0.000 A 
ENDBRANCH  24  38
BRANCH  25  44
ATOM     44  C   UNL     1       4.786   4.790  -9.077  1.00  0.00    -0.014 A 
ATOM     45  C   UNL     1       5.734   4.238  -9.950  1.00  0.00     0.009 A 
ATOM     46  C   UNL     1       3.422   4.644  -9.380  1.00  0.00     0.009 A 
ATOM     47  C   UNL     1       5.325   3.557 -11.101  1.00  0.00     0.001 A 
ATOM     48  C   UNL     1       3.015   3.941 -10.516  1.00  0.00     0.001 A 
ATOM     49  C   UNL     1       3.967   3.402 -11.378  1.00  0.00     0.000 A 
ENDBRANCH  25  44
BRANCH  37  50
ATOM     50  C   UNL     1       7.804  10.911  -7.598  1.00  0.00    -0.014 A 
ATOM     51  C   UNL     1       6.928  11.832  -8.189  1.00  0.00     0.009 A 
ATOM     52  C   UNL     1       9.188  11.074  -7.758  1.00  0.00     0.009 A 
ATOM     53  C   UNL     1       7.432  12.894  -8.940  1.00  0.00     0.001 A 
ATOM     54  C   UNL     1       9.689  12.148  -8.493  1.00  0.00     0.001 A 
ATOM     55  C   UNL     1       8.811  13.054  -9.086  1.00  0.00     0.000 A 
ENDBRANCH  37  50
ENDBRANCH  11  12
ENDBRANCH   4   6
ENDBRANCH   3   4
ENDBRANCH   2   3
ENDBRANCH   1   2
BRANCH   1  56
ATOM     56  O   UNL     1       3.517  -1.379  -1.003  1.00  0.00    -0.374 OA
BRANCH  56  57
ATOM     57  C   UNL     1       2.432  -2.197  -1.433  1.00  0.00     0.202 C 
BRANCH  57  58
ATOM     58  C   UNL     1       2.961  -3.337  -2.307  1.00  0.00     0.261 C 
BRANCH  58  59
ATOM     59  O   UNL     1       3.697  -4.272  -1.500  1.00  0.00    -0.458 OA
BRANCH  59  60
ATOM     60  C   UNL     1       5.031  -4.013  -1.331  1.00  0.00     0.361 C 
ATOM     61  O   UNL     1       5.677  -3.200  -1.970  1.00  0.00    -0.244 OA
BRANCH  60  62
ATOM     62  C   UNL     1       5.560  -4.739  -0.184  1.00  0.00     0.194 A 
ATOM     63  N   UNL     1       5.057  -5.950   0.272  1.00  0.00    -0.209 NA
ATOM     64  C   UNL     1       6.527  -4.290   0.700  1.00  0.00     0.169 A 
ATOM     65  C   UNL     1       5.737  -6.178   1.370  1.00  0.00     0.309 A 
ATOM     66  O   UNL     1       6.636  -5.214   1.705  1.00  0.00    -0.443 OA
BRANCH  64  67
ATOM     67  C   UNL     1       7.307  -3.080   0.878  1.00  0.00     0.026 A 
ATOM     68  C   UNL     1       7.020  -2.223   1.952  1.00  0.00     0.051 A 
ATOM     69  C   UNL     1       8.309  -2.718  -0.026  1.00  0.00     0.051 A 
ATOM     70  C   UNL     1       7.695  -1.013   2.081  1.00  0.00     0.126 A 
ATOM     71  C   UNL     1       8.996  -1.516   0.147  1.00  0.00     0.126 A 
ATOM     72  F   UNL     1       7.355  -0.175   3.070  1.00  0.00    -0.207 F 
ATOM     73  C   UNL     1       8.690  -0.650   1.188  1.00  0.00     0.078 A 
ATOM     74  F   UNL     1       9.965  -1.184  -0.716  1.00  0.00    -0.207 F 
ENDBRANCH  64  67
ENDBRANCH  60  62
ENDBRANCH  59  60
ENDBRANCH  58  59
ENDBRANCH  57  58
ENDBRANCH  56  57
ENDBRANCH   1  56
TORSDOF 15
