REMARK SMILES CC[C@@H](NS(=O)(=O)c1cc(C)ccc1C)C(=O)OCCOCCOC(=O)c1ccc(-c2c3nc(c(-c4ccccc4)c4ccc([nH]4)c(-c4ccccc4)c4nc(c(-c5ccccc5)c5ccc2[nH]5)C=C4)C=C3)cc1
REMARK SMILES IDX 20 1 19 2 18 3 16 4 17 5 3 6 2 7 1 8 4 9 5 11 6 12 7 13 8 14
REMARK SMILES IDX 9 15 14 16 10 17 13 18 15 19 11 20 12 21 21 22 22 23 23 24
REMARK SMILES IDX 24 25 25 26 26 27 27 28 28 29 74 30 29 31 73 32 30 33 31 34
REMARK SMILES IDX 32 35 67 36 33 37 72 38 66 39 68 40 34 41 71 42 65 43 64 44
REMARK SMILES IDX 35 46 57 47 42 48 56 49 43 50 46 51 55 52 69 53 44 54 45 55
REMARK SMILES IDX 54 57 70 58 47 59 36 60 37 61 41 62 38 63 40 64 39 65 58 66
REMARK SMILES IDX 59 67 63 68 60 69 62 70 61 71 48 72 49 73 53 74 50 75 52 76
REMARK SMILES IDX 51 77
REMARK H PARENT 4 10 68 45 46 56
REMARK Flexibility Score: inf
ROOT
ATOM      1  C   UNL     1       1.261   0.416   4.183  1.00  0.00     0.202 C 
ENDROOT
BRANCH   1   2
ATOM      2  C   UNL     1      -0.059   0.600   3.349  1.00  0.00     0.261 C 
BRANCH   2   3
ATOM      3  O   UNL     1      -0.059   1.598   2.342  1.00  0.00    -0.462 OA
BRANCH   3   4
ATOM      4  C   UNL     1       0.875   1.452   1.382  1.00  0.00     0.324 C 
ATOM      5  O   UNL     1       1.997   0.993   1.543  1.00  0.00    -0.250 OA
BRANCH   4   6
ATOM      6  C   UNL     1       0.174   1.539   0.063  1.00  0.00     0.179 C 
BRANCH   6   7
ATOM      7  C   UNL     1      -0.136   0.048  -0.204  1.00  0.00     0.028 C 
ATOM      8  C   UNL     1       0.817  -0.525  -1.240  1.00  0.00     0.006 C 
ENDBRANCH   6   7
BRANCH   6   9
ATOM      9  N   UNL     1      -1.107   2.369   0.118  1.00  0.00    -0.197 NA
ATOM     10  H   UNL     1      -1.562   2.195   1.014  1.00  0.00     0.142 HD
BRANCH   9  11
ATOM     11  S   UNL     1      -0.857   4.054  -0.039  1.00  0.00     0.241 S 
ATOM     12  O   UNL     1       0.572   4.229  -0.035  1.00  0.00    -0.207 OA
ATOM     13  O   UNL     1      -1.657   4.414  -1.190  1.00  0.00    -0.207 OA
BRANCH  11  14
ATOM     14  C   UNL     1      -1.510   4.964   1.362  1.00  0.00     0.085 A 
ATOM     15  C   UNL     1      -2.349   4.372   2.316  1.00  0.00     0.025 A 
ATOM     16  C   UNL     1      -1.152   6.327   1.515  1.00  0.00    -0.031 A 
ATOM     17  C   UNL     1      -2.809   5.127   3.423  1.00  0.00    -0.050 A 
ATOM     18  C   UNL     1      -1.635   7.066   2.607  1.00  0.00     0.005 A 
ATOM     19  C   UNL     1      -0.254   7.092   0.595  1.00  0.00     0.046 C 
ATOM     20  C   UNL     1      -3.633   4.504   4.514  1.00  0.00     0.044 C 
ATOM     21  C   UNL     1      -2.458   6.475   3.549  1.00  0.00     0.004 A 
ENDBRANCH  11  14
ENDBRANCH   9  11
ENDBRANCH   6   9
ENDBRANCH   4   6
ENDBRANCH   3   4
ENDBRANCH   2   3
ENDBRANCH   1   2
BRANCH   1  22
ATOM     22  O   UNL     1       1.536  -0.920   4.514  1.00  0.00    -0.374 OA
BRANCH  22  23
ATOM     23  C   UNL     1       0.348  -1.558   4.916  1.00  0.00     0.202 C 
BRANCH  23  24
ATOM     24  C   UNL     1      -0.627  -0.830   5.918  1.00  0.00     0.261 C 
BRANCH  24  25
ATOM     25  O   UNL     1      -0.814   0.712   6.218  1.00  0.00    -0.460 OA
BRANCH  25  26
ATOM     26  C   UNL     1      -0.913   2.050   6.433  1.00  0.00     0.338 C 
ATOM     27  O   UNL     1      -1.794   2.461   7.188  1.00  0.00    -0.246 OA
BRANCH  26  28
ATOM     28  C   UNL     1      -0.044   3.131   5.790  1.00  0.00     0.060 A 
ATOM     29  C   UNL     1      -0.157   4.516   5.907  1.00  0.00     0.016 A 
ATOM     30  C   UNL     1       0.524   2.887   4.585  1.00  0.00     0.016 A 
ATOM     31  C   UNL     1       0.513   5.366   4.930  1.00  0.00     0.010 A 
ATOM     32  C   UNL     1       1.667   3.534   4.165  1.00  0.00     0.010 A 
ATOM     33  C   UNL     1       1.423   4.835   3.952  1.00  0.00    -0.014 A 
BRANCH  33  34
ATOM     34  C   UNL     1       2.248   5.613   2.988  1.00  0.00     0.031 A 
ATOM     35  C   UNL     1       2.594   6.874   3.616  1.00  0.00     0.074 A 
ATOM     36  C   UNL     1       2.858   5.337   1.795  1.00  0.00     0.049 A 
ATOM     37  N   UNL     1       1.989   8.003   3.491  1.00  0.00    -0.248 NA
ATOM     38  C   UNL     1       3.530   6.764   4.750  1.00  0.00     0.031 C 
ATOM     39  C   UNL     1       3.081   4.016   1.223  1.00  0.00     0.029 A 
ATOM     40  N   UNL     1       3.395   6.169   0.804  1.00  0.00    -0.354 N 
ATOM     41  C   UNL     1       2.704   8.826   4.334  1.00  0.00     0.074 A 
ATOM     42  C   UNL     1       3.386   7.976   5.282  1.00  0.00     0.031 C 
ATOM     43  C   UNL     1       3.659   4.099   0.008  1.00  0.00     0.029 A 
ATOM     44  C   UNL     1       3.928   5.488  -0.313  1.00  0.00     0.049 A 
ATOM     45  H   UNL     1       3.400   7.150   0.881  1.00  0.00     0.167 HD
ATOM     46  C   UNL     1       3.099  10.033   3.863  1.00  0.00     0.031 A 
ATOM     47  C   UNL     1       4.571   5.964  -1.424  1.00  0.00     0.031 A 
ATOM     48  C   UNL     1       2.308  10.487   2.749  1.00  0.00     0.049 A 
ATOM     49  C   UNL     1       4.367   7.431  -1.504  1.00  0.00     0.074 A 
ATOM     50  C   UNL     1       1.033  10.973   2.578  1.00  0.00     0.029 A 
ATOM     51  N   UNL     1       2.753  10.083   1.515  1.00  0.00    -0.354 N 
ATOM     52  N   UNL     1       3.284   8.011  -1.931  1.00  0.00    -0.248 NA
ATOM     53  C   UNL     1       5.301   8.303  -0.799  1.00  0.00     0.031 C 
ATOM     54  C   UNL     1       0.724  10.833   1.194  1.00  0.00     0.029 A 
ATOM     55  C   UNL     1       1.817  10.284   0.525  1.00  0.00     0.049 A 
ATOM     56  H   UNL     1       3.643   9.692   1.356  1.00  0.00     0.167 HD
ATOM     57  C   UNL     1       3.199   9.179  -1.192  1.00  0.00     0.074 A 
ATOM     58  C   UNL     1       4.526   9.374  -0.624  1.00  0.00     0.031 C 
ATOM     59  C   UNL     1       1.998   9.704  -0.810  1.00  0.00     0.031 A 
BRANCH  46  60
ATOM     60  C   UNL     1       4.516  10.478   4.069  1.00  0.00    -0.014 A 
ATOM     61  C   UNL     1       4.825  11.830   3.926  1.00  0.00     0.009 A 
ATOM     62  C   UNL     1       5.597   9.570   4.161  1.00  0.00     0.009 A 
ATOM     63  C   UNL     1       6.158  12.251   3.884  1.00  0.00     0.001 A 
ATOM     64  C   UNL     1       6.923   9.989   4.170  1.00  0.00     0.001 A 
ATOM     65  C   UNL     1       7.203  11.335   4.014  1.00  0.00     0.000 A 
ENDBRANCH  46  60
BRANCH  47  66
ATOM     66  C   UNL     1       5.491   5.260  -2.389  1.00  0.00    -0.014 A 
ATOM     67  C   UNL     1       5.979   5.881  -3.559  1.00  0.00     0.009 A 
ATOM     68  C   UNL     1       6.075   4.020  -2.068  1.00  0.00     0.009 A 
ATOM     69  C   UNL     1       7.018   5.308  -4.325  1.00  0.00     0.001 A 
ATOM     70  C   UNL     1       7.084   3.431  -2.843  1.00  0.00     0.001 A 
ATOM     71  C   UNL     1       7.575   4.086  -3.961  1.00  0.00     0.000 A 
ENDBRANCH  47  66
BRANCH  59  72
ATOM     72  C   UNL     1       0.784   9.497  -1.699  1.00  0.00    -0.014 A 
ATOM     73  C   UNL     1       0.413   8.267  -2.268  1.00  0.00     0.009 A 
ATOM     74  C   UNL     1      -0.090  10.580  -1.903  1.00  0.00     0.009 A 
ATOM     75  C   UNL     1      -0.813   8.102  -2.926  1.00  0.00     0.001 A 
ATOM     76  C   UNL     1      -1.318  10.420  -2.554  1.00  0.00     0.001 A 
ATOM     77  C   UNL     1      -1.687   9.175  -3.053  1.00  0.00     0.000 A 
ENDBRANCH  59  72
ENDBRANCH  33  34
ENDBRANCH  26  28
ENDBRANCH  25  26
ENDBRANCH  24  25
ENDBRANCH  23  24
ENDBRANCH  22  23
ENDBRANCH   1  22
TORSDOF 18
