REMARK SMILES Cc1ccc(Nc2c(Cl)cc(Cl)cc2Cl)c(CC(=O)OCCOCCOC(=O)c2ccc(-c3c4nc(c(-c5ccccc5)c5ccc([nH]5)c(-c5ccccc5)c5nc(c(-c6ccccc6)c6ccc3[nH]6)C=C5)C=C4)cc2)c1
REMARK SMILES IDX 22 1 21 2 20 3 18 4 19 5 17 6 16 7 1 8 2 9 3 10 77 11 4 12
REMARK SMILES IDX 5 13 6 14 7 16 8 17 14 18 9 19 10 20 13 21 15 22 11 23 12 24
REMARK SMILES IDX 23 25 24 26 25 27 26 28 27 29 28 30 29 31 30 32 76 33 31 34
REMARK SMILES IDX 75 35 32 36 33 37 34 38 69 39 35 40 74 41 68 42 70 43 36 44
REMARK SMILES IDX 73 45 67 46 66 47 37 49 59 50 44 51 58 52 45 53 48 54 57 55
REMARK SMILES IDX 71 56 46 57 47 58 56 60 72 61 49 62 38 63 39 64 43 65 40 66
REMARK SMILES IDX 42 67 41 68 60 69 61 70 65 71 62 72 64 73 63 74 50 75 51 76
REMARK SMILES IDX 55 77 52 78 54 79 53 80
REMARK H PARENT 6 15 70 48 48 59
REMARK Flexibility Score: inf
ROOT
ATOM      1  C   UNL     1      -1.583   1.265  -3.158  1.00  0.00     0.202 C 
ENDROOT
BRANCH   1   2
ATOM      2  C   UNL     1      -1.147   2.390  -2.237  1.00  0.00     0.261 C 
BRANCH   2   3
ATOM      3  O   UNL     1      -1.134   2.012  -0.870  1.00  0.00    -0.463 OA
BRANCH   3   4
ATOM      4  C   UNL     1      -2.048   2.578  -0.022  1.00  0.00     0.310 C 
ATOM      5  O   UNL     1      -2.900   3.408  -0.307  1.00  0.00    -0.252 OA
BRANCH   4   6
ATOM      6  C   UNL     1      -1.846   2.048   1.388  1.00  0.00     0.160 C 
BRANCH   6   7
ATOM      7  C   UNL     1      -1.162   0.693   1.331  1.00  0.00    -0.013 A 
ATOM      8  C   UNL     1       2.360  -0.201   0.137  1.00  0.00     0.044 C 
ATOM      9  C   UNL     1       0.930  -0.340   0.569  1.00  0.00    -0.051 A 
ATOM     10  C   UNL     1       0.235  -1.528   0.377  1.00  0.00     0.005 A 
ATOM     11  C   UNL     1       0.243   0.741   1.114  1.00  0.00     0.009 A 
ATOM     12  C   UNL     1      -1.136  -1.608   0.667  1.00  0.00     0.026 A 
ATOM     13  C   UNL     1      -1.881  -0.501   1.121  1.00  0.00     0.042 A 
BRANCH  13  14
ATOM     14  N   UNL     1      -3.290  -0.583   1.312  1.00  0.00    -0.353 N 
ATOM     15  H   UNL     1      -3.748   0.274   1.470  1.00  0.00     0.167 HD
BRANCH  14  16
ATOM     16  C   UNL     1      -4.126  -1.736   1.304  1.00  0.00     0.076 A 
ATOM     17  C   UNL     1      -3.776  -2.928   1.966  1.00  0.00     0.067 A 
ATOM     18  C   UNL     1      -5.273  -1.790   0.480  1.00  0.00     0.067 A 
ATOM     19  Cl  UNL     1      -2.650  -2.936   3.285  1.00  0.00    -0.082 Cl
ATOM     20  C   UNL     1      -4.389  -4.144   1.651  1.00  0.00     0.043 A 
ATOM     21  C   UNL     1      -5.855  -3.010   0.116  1.00  0.00     0.043 A 
ATOM     22  Cl  UNL     1      -6.082  -0.352  -0.039  1.00  0.00    -0.082 Cl
ATOM     23  C   UNL     1      -5.381  -4.186   0.680  1.00  0.00     0.044 A 
ATOM     24  Cl  UNL     1      -6.066  -5.694   0.225  1.00  0.00    -0.084 Cl
ENDBRANCH  14  16
ENDBRANCH  13  14
ENDBRANCH   6   7
ENDBRANCH   4   6
ENDBRANCH   3   4
ENDBRANCH   2   3
ENDBRANCH   1   2
BRANCH   1  25
ATOM     25  O   UNL     1      -2.960   1.014  -2.961  1.00  0.00    -0.374 OA
BRANCH  25  26
ATOM     26  C   UNL     1      -3.253  -0.065  -2.097  1.00  0.00     0.202 C 
BRANCH  26  27
ATOM     27  C   UNL     1      -3.611  -1.310  -2.908  1.00  0.00     0.261 C 
BRANCH  27  28
ATOM     28  O   UNL     1      -4.816  -1.092  -3.673  1.00  0.00    -0.460 OA
BRANCH  28  29
ATOM     29  C   UNL     1      -4.599  -0.572  -4.912  1.00  0.00     0.338 C 
ATOM     30  O   UNL     1      -3.924  -1.108  -5.787  1.00  0.00    -0.246 OA
BRANCH  29  31
ATOM     31  C   UNL     1      -5.054   0.845  -4.963  1.00  0.00     0.060 A 
ATOM     32  C   UNL     1      -4.476   1.690  -5.928  1.00  0.00     0.016 A 
ATOM     33  C   UNL     1      -5.673   1.382  -3.835  1.00  0.00     0.016 A 
ATOM     34  C   UNL     1      -4.312   3.047  -5.650  1.00  0.00     0.010 A 
ATOM     35  C   UNL     1      -5.379   2.688  -3.506  1.00  0.00     0.010 A 
ATOM     36  C   UNL     1      -4.659   3.513  -4.386  1.00  0.00    -0.014 A 
BRANCH  36  37
ATOM     37  C   UNL     1      -4.229   4.788  -3.816  1.00  0.00     0.031 A 
ATOM     38  C   UNL     1      -5.248   5.725  -3.317  1.00  0.00     0.074 A 
ATOM     39  C   UNL     1      -2.930   5.001  -3.506  1.00  0.00     0.049 A 
ATOM     40  N   UNL     1      -4.972   6.913  -2.917  1.00  0.00    -0.248 NA
ATOM     41  C   UNL     1      -6.682   5.442  -3.287  1.00  0.00     0.031 C 
ATOM     42  C   UNL     1      -2.367   5.885  -2.479  1.00  0.00     0.029 A 
ATOM     43  N   UNL     1      -1.803   4.466  -4.106  1.00  0.00    -0.354 N 
ATOM     44  C   UNL     1      -6.062   7.375  -2.232  1.00  0.00     0.074 A 
ATOM     45  C   UNL     1      -7.142   6.503  -2.617  1.00  0.00     0.031 C 
ATOM     46  C   UNL     1      -1.040   5.999  -2.663  1.00  0.00     0.029 A 
ATOM     47  C   UNL     1      -0.720   5.324  -3.908  1.00  0.00     0.049 A 
ATOM     48  H   UNL     1      -1.770   3.614  -4.596  1.00  0.00     0.167 HD
ATOM     49  C   UNL     1      -5.867   8.360  -1.317  1.00  0.00     0.031 A 
ATOM     50  C   UNL     1      -0.019   5.835  -4.957  1.00  0.00     0.031 A 
ATOM     51  C   UNL     1      -4.504   8.913  -1.404  1.00  0.00     0.049 A 
ATOM     52  C   UNL     1      -0.312   7.321  -5.067  1.00  0.00     0.074 A 
ATOM     53  C   UNL     1      -3.391   8.908  -0.581  1.00  0.00     0.029 A 
ATOM     54  N   UNL     1      -4.040   9.324  -2.653  1.00  0.00    -0.354 N 
ATOM     55  N   UNL     1      -1.157   7.937  -4.282  1.00  0.00    -0.248 NA
ATOM     56  C   UNL     1       0.265   8.231  -6.047  1.00  0.00     0.031 C 
ATOM     57  C   UNL     1      -2.257   9.298  -1.368  1.00  0.00     0.029 A 
ATOM     58  C   UNL     1      -2.685   9.590  -2.653  1.00  0.00     0.049 A 
ATOM     59  H   UNL     1      -4.615   9.415  -3.447  1.00  0.00     0.167 HD
ATOM     60  C   UNL     1      -1.251   9.255  -4.594  1.00  0.00     0.074 A 
ATOM     61  C   UNL     1      -0.374   9.382  -5.752  1.00  0.00     0.031 C 
ATOM     62  C   UNL     1      -2.051  10.103  -3.873  1.00  0.00     0.031 A 
BRANCH  49  63
ATOM     63  C   UNL     1      -6.865   8.720  -0.241  1.00  0.00    -0.014 A 
ATOM     64  C   UNL     1      -6.585   9.783   0.633  1.00  0.00     0.009 A 
ATOM     65  C   UNL     1      -8.056   8.011   0.020  1.00  0.00     0.009 A 
ATOM     66  C   UNL     1      -7.443  10.120   1.692  1.00  0.00     0.001 A 
ATOM     67  C   UNL     1      -8.934   8.361   1.055  1.00  0.00     0.001 A 
ATOM     68  C   UNL     1      -8.623   9.415   1.898  1.00  0.00     0.000 A 
ENDBRANCH  49  63
BRANCH  50  69
ATOM     69  C   UNL     1       0.146   4.804  -6.035  1.00  0.00    -0.014 A 
ATOM     70  C   UNL     1       0.955   3.692  -5.687  1.00  0.00     0.009 A 
ATOM     71  C   UNL     1      -0.860   4.607  -6.998  1.00  0.00     0.009 A 
ATOM     72  C   UNL     1       0.632   2.399  -6.115  1.00  0.00     0.001 A 
ATOM     73  C   UNL     1      -1.168   3.305  -7.433  1.00  0.00     0.001 A 
ATOM     74  C   UNL     1      -0.461   2.201  -6.951  1.00  0.00     0.000 A 
ENDBRANCH  50  69
BRANCH  62  75
ATOM     75  C   UNL     1      -2.356  11.521  -4.286  1.00  0.00    -0.014 A 
ATOM     76  C   UNL     1      -1.470  12.337  -4.993  1.00  0.00     0.009 A 
ATOM     77  C   UNL     1      -3.596  12.099  -3.933  1.00  0.00     0.009 A 
ATOM     78  C   UNL     1      -1.861  13.600  -5.454  1.00  0.00     0.001 A 
ATOM     79  C   UNL     1      -3.982  13.367  -4.361  1.00  0.00     0.001 A 
ATOM     80  C   UNL     1      -3.123  14.106  -5.155  1.00  0.00     0.000 A 
ENDBRANCH  62  75
ENDBRANCH  36  37
ENDBRANCH  29  31
ENDBRANCH  28  29
ENDBRANCH  27  28
ENDBRANCH  26  27
ENDBRANCH  25  26
ENDBRANCH   1  25
TORSDOF 17
