REMARK SMILES O=C(Cn1nc(C(=O)OCCOCCOC(=O)c2ccc(-c3c4nc(c(-c5ccccc5)c5ccc([nH]5)c(-c5ccccc5)c5nc(c(-c6ccccc6)c6ccc3[nH]6)C=C5)C=C4)cc2)c2ccccc2c1=O)Nc1ccc2c(c1)C(=O)c1ccccc1C2=O
REMARK SMILES IDX 11 1 10 2 9 3 7 4 8 5 6 6 4 7 5 8 72 9 71 10 73 11 66 12
REMARK SMILES IDX 70 13 67 14 69 15 68 16 3 17 2 18 1 19 74 20 75 22 76 23
REMARK SMILES IDX 80 24 77 25 79 26 78 27 81 28 89 29 82 30 83 31 88 32 90 33
REMARK SMILES IDX 84 34 87 35 85 36 86 37 12 38 13 39 14 40 15 41 16 42 17 43
REMARK SMILES IDX 18 44 19 45 65 46 20 47 64 48 21 49 22 50 23 51 58 52 24 53
REMARK SMILES IDX 63 54 57 55 59 56 25 57 62 58 56 59 55 60 26 62 48 63 33 64
REMARK SMILES IDX 47 65 34 66 37 67 46 68 60 69 35 70 36 71 45 73 61 74 38 75
REMARK SMILES IDX 27 76 28 77 32 78 29 79 31 80 30 81 49 82 50 83 54 84 51 85
REMARK SMILES IDX 53 86 52 87 39 88 40 89 44 90 41 91 43 92 42 93
REMARK H PARENT 74 21 59 61 37 72
REMARK Flexibility Score: inf
ROOT
ATOM      1  C   UNL     1       7.187  -2.220  -6.293  1.00  0.00     0.202 C 
ENDROOT
BRANCH   1   2
ATOM      2  C   UNL     1       7.792  -1.891  -4.927  1.00  0.00     0.261 C 
BRANCH   2   3
ATOM      3  O   UNL     1       6.713  -1.554  -4.045  1.00  0.00    -0.458 OA
BRANCH   3   4
ATOM      4  C   UNL     1       6.992  -0.666  -3.073  1.00  0.00     0.359 C 
ATOM      5  O   UNL     1       8.072  -0.267  -2.686  1.00  0.00    -0.244 OA
BRANCH   4   6
ATOM      6  C   UNL     1       5.671  -0.026  -2.690  1.00  0.00     0.176 A 
ATOM      7  N   UNL     1       3.579  -0.224  -1.734  1.00  0.00    -0.219 N 
ATOM      8  N   UNL     1       4.855  -0.712  -1.941  1.00  0.00    -0.161 NA
ATOM      9  C   UNL     1       3.085   0.917  -2.370  1.00  0.00     0.275 A 
ATOM     10  C   UNL     1       4.063   1.760  -3.080  1.00  0.00     0.051 A 
ATOM     11  O   UNL     1       1.908   1.259  -2.328  1.00  0.00    -0.267 OA
ATOM     12  C   UNL     1       5.356   1.290  -3.267  1.00  0.00     0.022 A 
ATOM     13  C   UNL     1       3.693   3.017  -3.575  1.00  0.00     0.014 A 
ATOM     14  C   UNL     1       6.281   2.057  -3.990  1.00  0.00     0.011 A 
ATOM     15  C   UNL     1       4.618   3.788  -4.281  1.00  0.00     0.001 A 
ATOM     16  C   UNL     1       5.907   3.303  -4.497  1.00  0.00     0.001 A 
BRANCH   7  17
ATOM     17  C   UNL     1       2.627  -1.125  -1.053  1.00  0.00     0.248 C 
BRANCH  17  18
ATOM     18  C   UNL     1       1.951  -0.506   0.183  1.00  0.00     0.246 C 
ATOM     19  O   UNL     1       0.915  -0.958   0.664  1.00  0.00    -0.273 OA
ATOM     20  N   UNL     1       2.696   0.500   0.761  1.00  0.00    -0.324 N 
ATOM     21  H   UNL     1       3.675   0.478   0.657  1.00  0.00     0.169 HD
BRANCH  20  22
ATOM     22  C   UNL     1       2.126   1.554   1.489  1.00  0.00     0.042 A 
ATOM     23  C   UNL     1       2.309   1.595   2.874  1.00  0.00     0.027 A 
ATOM     24  C   UNL     1       1.855   2.720   0.774  1.00  0.00     0.039 A 
ATOM     25  C   UNL     1       2.370   2.830   3.528  1.00  0.00     0.015 A 
ATOM     26  C   UNL     1       1.977   3.946   1.414  1.00  0.00     0.036 A 
ATOM     27  C   UNL     1       2.303   4.002   2.768  1.00  0.00     0.034 A 
ATOM     28  C   UNL     1       2.096   5.150   0.576  1.00  0.00     0.194 C 
ATOM     29  C   UNL     1       2.879   5.257   3.303  1.00  0.00     0.194 C 
ATOM     30  O   UNL     1       1.474   5.280  -0.468  1.00  0.00    -0.289 OA
ATOM     31  C   UNL     1       3.147   6.097   0.978  1.00  0.00     0.034 A 
ATOM     32  C   UNL     1       3.550   6.135   2.314  1.00  0.00     0.034 A 
ATOM     33  O   UNL     1       2.926   5.486   4.502  1.00  0.00    -0.289 OA
ATOM     34  C   UNL     1       3.840   6.808  -0.004  1.00  0.00     0.013 A 
ATOM     35  C   UNL     1       4.673   6.880   2.677  1.00  0.00     0.013 A 
ATOM     36  C   UNL     1       4.980   7.524   0.355  1.00  0.00     0.001 A 
ATOM     37  C   UNL     1       5.397   7.556   1.690  1.00  0.00     0.001 A 
ENDBRANCH  20  22
ENDBRANCH  17  18
ENDBRANCH   7  17
ENDBRANCH   4   6
ENDBRANCH   3   4
ENDBRANCH   2   3
ENDBRANCH   1   2
BRANCH   1  38
ATOM     38  O   UNL     1       6.708  -1.046  -6.961  1.00  0.00    -0.374 OA
BRANCH  38  39
ATOM     39  C   UNL     1       5.346  -0.687  -6.702  1.00  0.00     0.202 C 
BRANCH  39  40
ATOM     40  C   UNL     1       4.345  -1.404  -7.613  1.00  0.00     0.261 C 
BRANCH  40  41
ATOM     41  O   UNL     1       4.114  -2.736  -7.120  1.00  0.00    -0.460 OA
BRANCH  41  42
ATOM     42  C   UNL     1       4.527  -3.747  -7.920  1.00  0.00     0.338 C 
ATOM     43  O   UNL     1       4.967  -3.652  -9.053  1.00  0.00    -0.246 OA
BRANCH  42  44
ATOM     44  C   UNL     1       4.522  -5.017  -7.154  1.00  0.00     0.060 A 
ATOM     45  C   UNL     1       3.627  -5.258  -6.104  1.00  0.00     0.016 A 
ATOM     46  C   UNL     1       5.461  -5.992  -7.511  1.00  0.00     0.016 A 
ATOM     47  C   UNL     1       3.661  -6.484  -5.431  1.00  0.00     0.010 A 
ATOM     48  C   UNL     1       5.497  -7.212  -6.836  1.00  0.00     0.010 A 
ATOM     49  C   UNL     1       4.587  -7.471  -5.802  1.00  0.00    -0.014 A 
BRANCH  49  50
ATOM     50  C   UNL     1       4.521  -8.824  -5.208  1.00  0.00     0.031 A 
ATOM     51  C   UNL     1       5.393  -9.220  -4.058  1.00  0.00     0.074 A 
ATOM     52  C   UNL     1       3.680  -9.719  -5.756  1.00  0.00     0.049 A 
ATOM     53  N   UNL     1       5.409 -10.349  -3.395  1.00  0.00    -0.248 NA
ATOM     54  C   UNL     1       6.375  -8.230  -3.593  1.00  0.00     0.031 C 
ATOM     55  C   UNL     1       2.804  -9.459  -6.901  1.00  0.00     0.029 A 
ATOM     56  N   UNL     1       3.429 -11.026  -5.428  1.00  0.00    -0.354 N 
ATOM     57  C   UNL     1       6.387 -10.203  -2.422  1.00  0.00     0.074 A 
ATOM     58  C   UNL     1       6.967  -8.887  -2.603  1.00  0.00     0.031 C 
ATOM     59  C   UNL     1       2.107 -10.572  -7.176  1.00  0.00     0.029 A 
ATOM     60  C   UNL     1       2.489 -11.619  -6.233  1.00  0.00     0.049 A 
ATOM     61  H   UNL     1       3.878 -11.493  -4.688  1.00  0.00     0.167 HD
ATOM     62  C   UNL     1       6.756 -11.082  -1.460  1.00  0.00     0.031 A 
ATOM     63  C   UNL     1       1.981 -12.864  -6.210  1.00  0.00     0.031 A 
ATOM     64  C   UNL     1       6.196 -12.398  -1.295  1.00  0.00     0.049 A 
ATOM     65  C   UNL     1       2.428 -13.828  -5.154  1.00  0.00     0.074 A 
ATOM     66  C   UNL     1       6.474 -13.335  -0.314  1.00  0.00     0.029 A 
ATOM     67  N   UNL     1       5.259 -12.969  -2.140  1.00  0.00    -0.354 N 
ATOM     68  N   UNL     1       3.293 -13.645  -4.188  1.00  0.00    -0.248 NA
ATOM     69  C   UNL     1       1.815 -15.164  -5.174  1.00  0.00     0.031 C 
ATOM     70  C   UNL     1       5.729 -14.488  -0.586  1.00  0.00     0.029 A 
ATOM     71  C   UNL     1       4.965 -14.255  -1.717  1.00  0.00     0.049 A 
ATOM     72  H   UNL     1       4.862 -12.527  -2.925  1.00  0.00     0.167 HD
ATOM     73  C   UNL     1       3.312 -14.832  -3.470  1.00  0.00     0.074 A 
ATOM     74  C   UNL     1       2.374 -15.729  -4.112  1.00  0.00     0.031 C 
ATOM     75  C   UNL     1       4.037 -15.141  -2.369  1.00  0.00     0.031 A 
BRANCH  62  76
ATOM     76  C   UNL     1       7.818 -10.646  -0.495  1.00  0.00    -0.014 A 
ATOM     77  C   UNL     1       9.117 -11.167  -0.594  1.00  0.00     0.009 A 
ATOM     78  C   UNL     1       7.508  -9.776   0.561  1.00  0.00     0.009 A 
ATOM     79  C   UNL     1      10.088 -10.822   0.347  1.00  0.00     0.001 A 
ATOM     80  C   UNL     1       8.486  -9.422   1.492  1.00  0.00     0.001 A 
ATOM     81  C   UNL     1       9.773  -9.948   1.387  1.00  0.00     0.000 A 
ENDBRANCH  62  76
BRANCH  63  82
ATOM     82  C   UNL     1       0.947 -13.240  -7.201  1.00  0.00    -0.014 A 
ATOM     83  C   UNL     1       1.305 -13.553  -8.521  1.00  0.00     0.009 A 
ATOM     84  C   UNL     1      -0.408 -13.232  -6.841  1.00  0.00     0.009 A 
ATOM     85  C   UNL     1       0.320 -13.845  -9.466  1.00  0.00     0.001 A 
ATOM     86  C   UNL     1      -1.389 -13.538  -7.785  1.00  0.00     0.001 A 
ATOM     87  C   UNL     1      -1.025 -13.839  -9.097  1.00  0.00     0.000 A 
ENDBRANCH  63  82
BRANCH  75  88
ATOM     88  C   UNL     1       3.835 -16.503  -1.774  1.00  0.00    -0.014 A 
ATOM     89  C   UNL     1       3.066 -16.647  -0.609  1.00  0.00     0.009 A 
ATOM     90  C   UNL     1       4.448 -17.632  -2.335  1.00  0.00     0.009 A 
ATOM     91  C   UNL     1       2.913 -17.900  -0.015  1.00  0.00     0.001 A 
ATOM     92  C   UNL     1       4.281 -18.887  -1.746  1.00  0.00     0.001 A 
ATOM     93  C   UNL     1       3.518 -19.020  -0.586  1.00  0.00     0.000 A 
ENDBRANCH  75  88
ENDBRANCH  49  50
ENDBRANCH  42  44
ENDBRANCH  41  42
ENDBRANCH  40  41
ENDBRANCH  39  40
ENDBRANCH  38  39
ENDBRANCH   1  38
TORSDOF 17
