REMARK SMILES O=C(OCCOCCOC(=O)[C@@H]1C[C@@H]1C(=O)N1CC2(CCCC2)c2c(F)cccc21)c1ccc(-c2c3nc(c(-c4ccccc4)c4ccc([nH]4)c(-c4ccccc4)c4nc(c(-c5ccccc5)c5ccc2[nH]5)C=C4)C=C3)cc1
REMARK SMILES IDX 6 1 5 2 4 3 3 4 2 5 1 6 31 7 32 8 78 9 33 10 77 11 34 12
REMARK SMILES IDX 35 13 36 14 71 15 37 16 76 17 70 18 72 19 38 20 75 21 69 22
REMARK SMILES IDX 68 23 39 25 61 26 46 27 60 28 47 29 50 30 59 31 73 32 48 33
REMARK SMILES IDX 49 34 58 36 74 37 51 38 40 39 41 40 45 41 42 42 44 43 43 44
REMARK SMILES IDX 62 45 63 46 67 47 64 48 66 49 65 50 52 51 53 52 57 53 54 54
REMARK SMILES IDX 56 55 55 56 7 57 8 58 9 59 10 60 11 61 12 62 13 63 14 64
REMARK SMILES IDX 15 65 16 66 17 67 18 68 30 69 19 70 24 71 29 72 20 73 23 74
REMARK SMILES IDX 25 75 28 76 21 77 22 78 26 79 27 80
REMARK H PARENT 72 24 50 35
REMARK Flexibility Score: inf
ROOT
ATOM      1  O   UNL     1       4.252   1.111   1.296  1.00  0.00    -0.374 OA
ENDROOT
BRANCH   1   2
ATOM      2  C   UNL     1       4.516   1.622  -0.012  1.00  0.00     0.202 C 
BRANCH   2   3
ATOM      3  C   UNL     1       4.442   0.581  -1.129  1.00  0.00     0.261 C 
BRANCH   3   4
ATOM      4  O   UNL     1       3.110   0.064  -1.284  1.00  0.00    -0.460 OA
BRANCH   4   5
ATOM      5  C   UNL     1       2.559  -1.080  -0.825  1.00  0.00     0.338 C 
ATOM      6  O   UNL     1       1.486  -1.435  -1.313  1.00  0.00    -0.246 OA
BRANCH   5   7
ATOM      7  C   UNL     1       3.121  -1.919   0.287  1.00  0.00     0.060 A 
ATOM      8  C   UNL     1       4.346  -1.733   0.926  1.00  0.00     0.016 A 
ATOM      9  C   UNL     1       2.307  -2.977   0.745  1.00  0.00     0.016 A 
ATOM     10  C   UNL     1       4.741  -2.531   1.993  1.00  0.00     0.010 A 
ATOM     11  C   UNL     1       2.709  -3.811   1.794  1.00  0.00     0.010 A 
ATOM     12  C   UNL     1       3.937  -3.587   2.412  1.00  0.00    -0.014 A 
BRANCH  12  13
ATOM     13  C   UNL     1       4.510  -4.508   3.402  1.00  0.00     0.031 A 
ATOM     14  C   UNL     1       5.483  -5.536   2.917  1.00  0.00     0.074 A 
ATOM     15  C   UNL     1       4.293  -4.304   4.711  1.00  0.00     0.049 A 
ATOM     16  N   UNL     1       6.269  -6.314   3.608  1.00  0.00    -0.248 NA
ATOM     17  C   UNL     1       5.623  -5.672   1.455  1.00  0.00     0.031 C 
ATOM     18  C   UNL     1       3.447  -3.251   5.271  1.00  0.00     0.029 A 
ATOM     19  N   UNL     1       4.802  -4.952   5.804  1.00  0.00    -0.354 N 
ATOM     20  C   UNL     1       7.022  -7.003   2.670  1.00  0.00     0.074 A 
ATOM     21  C   UNL     1       6.591  -6.570   1.360  1.00  0.00     0.031 C 
ATOM     22  C   UNL     1       3.503  -3.319   6.612  1.00  0.00     0.029 A 
ATOM     23  C   UNL     1       4.373  -4.427   6.997  1.00  0.00     0.049 A 
ATOM     24  H   UNL     1       5.415  -5.719   5.741  1.00  0.00     0.167 HD
ATOM     25  C   UNL     1       7.989  -7.919   2.889  1.00  0.00     0.031 A 
ATOM     26  C   UNL     1       4.656  -4.806   8.258  1.00  0.00     0.031 A 
ATOM     27  C   UNL     1       8.356  -8.387   4.194  1.00  0.00     0.049 A 
ATOM     28  C   UNL     1       5.617  -5.941   8.473  1.00  0.00     0.074 A 
ATOM     29  C   UNL     1       9.279  -9.358   4.530  1.00  0.00     0.029 A 
ATOM     30  N   UNL     1       7.791  -7.931   5.375  1.00  0.00    -0.354 N 
ATOM     31  N   UNL     1       6.323  -6.595   7.582  1.00  0.00    -0.248 NA
ATOM     32  C   UNL     1       5.820  -6.396   9.855  1.00  0.00     0.031 C 
ATOM     33  C   UNL     1       9.229  -9.532   5.915  1.00  0.00     0.029 A 
ATOM     34  C   UNL     1       8.315  -8.631   6.443  1.00  0.00     0.049 A 
ATOM     35  H   UNL     1       7.118  -7.215   5.442  1.00  0.00     0.167 HD
ATOM     36  C   UNL     1       7.062  -7.530   8.291  1.00  0.00     0.074 A 
ATOM     37  C   UNL     1       6.720  -7.359   9.689  1.00  0.00     0.031 C 
ATOM     38  C   UNL     1       7.947  -8.443   7.824  1.00  0.00     0.031 A 
BRANCH  25  39
ATOM     39  C   UNL     1       8.661  -8.511   1.690  1.00  0.00    -0.014 A 
ATOM     40  C   UNL     1       9.650  -7.803   0.991  1.00  0.00     0.009 A 
ATOM     41  C   UNL     1       8.314  -9.803   1.269  1.00  0.00     0.009 A 
ATOM     42  C   UNL     1      10.271  -8.377  -0.120  1.00  0.00     0.001 A 
ATOM     43  C   UNL     1       8.948 -10.379   0.168  1.00  0.00     0.001 A 
ATOM     44  C   UNL     1       9.923  -9.665  -0.528  1.00  0.00     0.000 A 
ENDBRANCH  25  39
BRANCH  26  45
ATOM     45  C   UNL     1       4.000  -4.100   9.386  1.00  0.00    -0.014 A 
ATOM     46  C   UNL     1       4.707  -3.175  10.166  1.00  0.00     0.009 A 
ATOM     47  C   UNL     1       2.628  -4.285   9.628  1.00  0.00     0.009 A 
ATOM     48  C   UNL     1       4.051  -2.443  11.159  1.00  0.00     0.001 A 
ATOM     49  C   UNL     1       1.972  -3.540  10.609  1.00  0.00     0.001 A 
ATOM     50  C   UNL     1       2.683  -2.618  11.373  1.00  0.00     0.000 A 
ENDBRANCH  26  45
BRANCH  38  51
ATOM     51  C   UNL     1       8.620  -9.347   8.813  1.00  0.00    -0.014 A 
ATOM     52  C   UNL     1       7.970 -10.497   9.281  1.00  0.00     0.009 A 
ATOM     53  C   UNL     1       9.974  -9.143   9.126  1.00  0.00     0.009 A 
ATOM     54  C   UNL     1       8.671 -11.438  10.036  1.00  0.00     0.001 A 
ATOM     55  C   UNL     1      10.675 -10.094   9.866  1.00  0.00     0.001 A 
ATOM     56  C   UNL     1      10.024 -11.242  10.316  1.00  0.00     0.000 A 
ENDBRANCH  38  51
ENDBRANCH  12  13
ENDBRANCH   5   7
ENDBRANCH   4   5
ENDBRANCH   3   4
ENDBRANCH   2   3
ENDBRANCH   1   2
BRANCH   1  57
ATOM     57  C   UNL     1       2.911   1.323   1.766  1.00  0.00     0.202 C 
BRANCH  57  58
ATOM     58  C   UNL     1       2.866   2.437   2.817  1.00  0.00     0.261 C 
BRANCH  58  59
ATOM     59  O   UNL     1       3.214   3.681   2.197  1.00  0.00    -0.463 OA
BRANCH  59  60
ATOM     60  C   UNL     1       4.517   4.030   2.269  1.00  0.00     0.309 C 
ATOM     61  O   UNL     1       5.298   3.716   3.149  1.00  0.00    -0.252 OA
BRANCH  60  62
ATOM     62  C   UNL     1       4.993   4.746   1.060  1.00  0.00     0.112 C 
ATOM     63  C   UNL     1       4.779   6.221   0.888  1.00  0.00     0.030 C 
ATOM     64  C   UNL     1       4.148   5.253  -0.091  1.00  0.00     0.094 C 
BRANCH  64  65
ATOM     65  C   UNL     1       2.664   5.176  -0.187  1.00  0.00     0.231 C 
ATOM     66  O   UNL     1       2.059   4.117  -0.080  1.00  0.00    -0.274 OA
BRANCH  65  67
ATOM     67  N   UNL     1       2.068   6.365  -0.526  1.00  0.00    -0.311 N 
ATOM     68  C   UNL     1       1.009   6.969   0.284  1.00  0.00     0.137 C 
ATOM     69  C   UNL     1       1.860   6.739  -1.863  1.00  0.00     0.050 A 
ATOM     70  C   UNL     1       0.373   8.100  -0.574  1.00  0.00     0.018 C 
ATOM     71  C   UNL     1       0.907   7.751  -1.938  1.00  0.00     0.020 A 
ATOM     72  C   UNL     1       2.434   6.190  -3.001  1.00  0.00     0.027 A 
ATOM     73  C   UNL     1      -1.163   8.084  -0.466  1.00  0.00     0.014 C 
ATOM     74  C   UNL     1       0.808   9.511  -0.114  1.00  0.00     0.014 C 
ATOM     75  C   UNL     1       0.571   8.278  -3.172  1.00  0.00     0.129 A 
ATOM     76  C   UNL     1       2.069   6.707  -4.246  1.00  0.00     0.005 A 
ATOM     77  C   UNL     1      -1.471   9.153   0.569  1.00  0.00     0.001 C 
ATOM     78  C   UNL     1      -0.486  10.253   0.215  1.00  0.00     0.001 C 
ATOM     79  F   UNL     1      -0.310   9.282  -3.266  1.00  0.00    -0.207 F 
ATOM     80  C   UNL     1       1.148   7.760  -4.330  1.00  0.00     0.040 A 
ENDBRANCH  65  67
ENDBRANCH  64  65
ENDBRANCH  60  62
ENDBRANCH  59  60
ENDBRANCH  58  59
ENDBRANCH  57  58
ENDBRANCH   1  57
TORSDOF 16
