REMARK SMILES COc1cccc(NC(=O)NC2(C(=O)OCCOCCOC(=O)c3ccc(-c4c5nc(c(-c6ccccc6)c6ccc([nH]6)c(-c6ccccc6)c6nc(c(-c7ccccc7)c7ccc4[nH]7)C=C6)C=C5)cc3)CCCCC2)c1
REMARK SMILES IDX 17 1 16 2 15 3 13 4 14 5 12 6 72 7 76 8 73 9 75 10 74 11
REMARK SMILES IDX 11 12 8 13 9 14 10 16 7 18 3 19 4 20 77 21 5 22 6 23 2 24
REMARK SMILES IDX 1 25 18 26 19 27 20 28 21 29 22 30 23 31 24 32 25 33 71 34
REMARK SMILES IDX 26 35 70 36 27 37 28 38 29 39 64 40 30 41 69 42 63 43 65 44
REMARK SMILES IDX 31 45 68 46 62 47 61 48 32 50 54 51 39 52 53 53 40 54 43 55
REMARK SMILES IDX 52 56 66 57 41 58 42 59 51 61 67 62 44 63 33 64 34 65 38 66
REMARK SMILES IDX 35 67 37 68 36 69 55 70 56 71 60 72 57 73 59 74 58 75 45 76
REMARK SMILES IDX 46 77 50 78 47 79 49 80 48 81
REMARK H PARENT 8 15 11 17 65 49 43 60
REMARK Flexibility Score: inf
ROOT
ATOM      1  C   UNL     1       1.461   3.505   1.810  1.00  0.00     0.202 C 
ENDROOT
BRANCH   1   2
ATOM      2  C   UNL     1       1.493   2.416   2.868  1.00  0.00     0.261 C 
BRANCH   2   3
ATOM      3  O   UNL     1       1.053   2.647   4.218  1.00  0.00    -0.461 OA
BRANCH   3   4
ATOM      4  C   UNL     1       2.078   2.543   5.090  1.00  0.00     0.331 C 
ATOM      5  O   UNL     1       3.191   3.009   4.842  1.00  0.00    -0.249 OA
BRANCH   4   6
ATOM      6  C   UNL     1       1.807   1.858   6.449  1.00  0.00     0.139 C 
ATOM      7  C   UNL     1       0.670   0.936   6.888  1.00  0.00     0.040 C 
ATOM      8  C   UNL     1       1.692   3.086   7.417  1.00  0.00     0.040 C 
ATOM      9  C   UNL     1      -0.734   1.494   6.841  1.00  0.00     0.003 C 
ATOM     10  C   UNL     1       0.289   3.734   7.351  1.00  0.00     0.003 C 
ATOM     11  C   UNL     1      -0.833   2.754   7.680  1.00  0.00     0.000 C 
BRANCH   6  12
ATOM     12  N   UNL     1       3.075   1.075   6.650  1.00  0.00    -0.322 N 
ATOM     13  N   UNL     1       3.533  -0.166   4.629  1.00  0.00    -0.308 N 
ATOM     14  C   UNL     1       3.806   0.208   5.904  1.00  0.00     0.320 C 
ATOM     15  H   UNL     1       4.328  -0.105   4.052  1.00  0.00     0.171 HD
ATOM     16  O   UNL     1       4.921  -0.080   6.355  1.00  0.00    -0.248 OA
ATOM     17  H   UNL     1       3.470   1.228   7.538  1.00  0.00     0.166 HD
BRANCH  13  18
ATOM     18  C   UNL     1       2.404  -0.620   3.917  1.00  0.00     0.046 A 
ATOM     19  C   UNL     1       1.181  -0.634   1.816  1.00  0.00     0.120 A 
ATOM     20  C   UNL     1       0.020  -1.011   2.482  1.00  0.00     0.046 A 
ATOM     21  C   UNL     1       2.389  -0.487   2.517  1.00  0.00     0.072 A 
ATOM     22  C   UNL     1       0.094  -1.347   3.829  1.00  0.00     0.006 A 
ATOM     23  C   UNL     1       1.301  -1.196   4.524  1.00  0.00     0.026 A 
BRANCH  19  24
ATOM     24  O   UNL     1       1.029  -0.090   0.566  1.00  0.00    -0.497 OA
ATOM     25  C   UNL     1       1.557  -0.927  -0.454  1.00  0.00     0.278 C 
ENDBRANCH  19  24
ENDBRANCH  13  18
ENDBRANCH   6  12
ENDBRANCH   4   6
ENDBRANCH   3   4
ENDBRANCH   2   3
ENDBRANCH   1   2
BRANCH   1  26
ATOM     26  O   UNL     1       2.591   4.330   1.571  1.00  0.00    -0.374 OA
BRANCH  26  27
ATOM     27  C   UNL     1       3.217   5.014   2.640  1.00  0.00     0.202 C 
BRANCH  27  28
ATOM     28  C   UNL     1       2.393   5.988   3.501  1.00  0.00     0.261 C 
BRANCH  28  29
ATOM     29  O   UNL     1       0.970   5.823   3.440  1.00  0.00    -0.460 OA
BRANCH  29  30
ATOM     30  C   UNL     1       0.377   6.492   2.417  1.00  0.00     0.338 C 
ATOM     31  O   UNL     1       0.902   7.255   1.627  1.00  0.00    -0.246 OA
BRANCH  30  32
ATOM     32  C   UNL     1      -1.022   6.033   2.276  1.00  0.00     0.060 A 
ATOM     33  C   UNL     1      -1.401   5.447   1.059  1.00  0.00     0.016 A 
ATOM     34  C   UNL     1      -1.958   6.233   3.290  1.00  0.00     0.016 A 
ATOM     35  C   UNL     1      -2.730   5.101   0.833  1.00  0.00     0.010 A 
ATOM     36  C   UNL     1      -3.300   5.925   3.047  1.00  0.00     0.010 A 
ATOM     37  C   UNL     1      -3.695   5.402   1.801  1.00  0.00    -0.014 A 
BRANCH  37  38
ATOM     38  C   UNL     1      -5.121   5.414   1.400  1.00  0.00     0.031 A 
ATOM     39  C   UNL     1      -5.699   6.712   0.900  1.00  0.00     0.074 A 
ATOM     40  C   UNL     1      -5.873   4.301   1.420  1.00  0.00     0.049 A 
ATOM     41  N   UNL     1      -6.918   6.982   0.508  1.00  0.00    -0.248 NA
ATOM     42  C   UNL     1      -4.775   7.857   0.829  1.00  0.00     0.031 C 
ATOM     43  C   UNL     1      -5.412   2.970   1.811  1.00  0.00     0.029 A 
ATOM     44  N   UNL     1      -7.194   4.122   1.097  1.00  0.00    -0.354 N 
ATOM     45  C   UNL     1      -6.907   8.326   0.155  1.00  0.00     0.074 A 
ATOM     46  C   UNL     1      -5.571   8.822   0.394  1.00  0.00     0.031 C 
ATOM     47  C   UNL     1      -6.442   2.110   1.713  1.00  0.00     0.029 A 
ATOM     48  C   UNL     1      -7.637   2.836   1.285  1.00  0.00     0.049 A 
ATOM     49  H   UNL     1      -7.770   4.846   0.761  1.00  0.00     0.167 HD
ATOM     50  C   UNL     1      -7.921   9.083  -0.326  1.00  0.00     0.031 A 
ATOM     51  C   UNL     1      -8.872   2.315   1.149  1.00  0.00     0.031 A 
ATOM     52  C   UNL     1      -9.252   8.597  -0.558  1.00  0.00     0.049 A 
ATOM     53  C   UNL     1     -10.005   3.201   0.700  1.00  0.00     0.074 A 
ATOM     54  C   UNL     1     -10.346   9.284  -1.055  1.00  0.00     0.029 A 
ATOM     55  N   UNL     1      -9.673   7.303  -0.299  1.00  0.00    -0.354 N 
ATOM     56  N   UNL     1      -9.981   4.465   0.354  1.00  0.00    -0.248 NA
ATOM     57  C   UNL     1     -11.338   2.583   0.622  1.00  0.00     0.031 C 
ATOM     58  C   UNL     1     -11.444   8.418  -1.044  1.00  0.00     0.029 A 
ATOM     59  C   UNL     1     -11.019   7.178  -0.595  1.00  0.00     0.049 A 
ATOM     60  H   UNL     1      -9.099   6.579   0.043  1.00  0.00     0.167 HD
ATOM     61  C   UNL     1     -11.284   4.785  -0.010  1.00  0.00     0.074 A 
ATOM     62  C   UNL     1     -12.070   3.580   0.145  1.00  0.00     0.031 C 
ATOM     63  C   UNL     1     -11.784   5.970  -0.437  1.00  0.00     0.031 A 
BRANCH  50  64
ATOM     64  C   UNL     1      -7.635  10.534  -0.586  1.00  0.00    -0.014 A 
ATOM     65  C   UNL     1      -6.860  10.943  -1.683  1.00  0.00     0.009 A 
ATOM     66  C   UNL     1      -8.178  11.508   0.267  1.00  0.00     0.009 A 
ATOM     67  C   UNL     1      -6.612  12.300  -1.903  1.00  0.00     0.001 A 
ATOM     68  C   UNL     1      -7.949  12.863   0.029  1.00  0.00     0.001 A 
ATOM     69  C   UNL     1      -7.161  13.258  -1.050  1.00  0.00     0.000 A 
ENDBRANCH  50  64
BRANCH  51  70
ATOM     70  C   UNL     1      -9.122   0.886   1.476  1.00  0.00    -0.014 A 
ATOM     71  C   UNL     1      -9.455  -0.034   0.471  1.00  0.00     0.009 A 
ATOM     72  C   UNL     1      -9.066   0.445   2.808  1.00  0.00     0.009 A 
ATOM     73  C   UNL     1      -9.755  -1.360   0.797  1.00  0.00     0.001 A 
ATOM     74  C   UNL     1      -9.339  -0.887   3.127  1.00  0.00     0.001 A 
ATOM     75  C   UNL     1      -9.693  -1.785   2.123  1.00  0.00     0.000 A 
ENDBRANCH  51  70
BRANCH  63  76
ATOM     76  C   UNL     1     -13.241   6.013  -0.804  1.00  0.00    -0.014 A 
ATOM     77  C   UNL     1     -14.242   5.983   0.179  1.00  0.00     0.009 A 
ATOM     78  C   UNL     1     -13.614   6.133  -2.152  1.00  0.00     0.009 A 
ATOM     79  C   UNL     1     -15.589   6.042  -0.185  1.00  0.00     0.001 A 
ATOM     80  C   UNL     1     -14.959   6.220  -2.511  1.00  0.00     0.001 A 
ATOM     81  C   UNL     1     -15.946   6.165  -1.528  1.00  0.00     0.000 A 
ENDBRANCH  63  76
ENDBRANCH  37  38
ENDBRANCH  30  32
ENDBRANCH  29  30
ENDBRANCH  28  29
ENDBRANCH  27  28
ENDBRANCH  26  27
ENDBRANCH   1  26
TORSDOF 17
