REMARK SMILES COc1ccc(N2C(=O)/C(=C\c3ccc(-c4ccc(Cl)c(C(=O)OCCOCCOC(=O)c5ccc(-c6c7nc(c(-c8ccccc8)c8ccc([nH]8)c(-c8ccccc8)c8nc(c(-c9ccccc9)c9ccc6[nH]9)C=C8)C=C7)cc5)c4)o3)SC2=S)cc1
REMARK SMILES IDX 26 1 25 2 24 3 22 4 23 5 21 6 16 7 17 8 81 9 18 10 19 11
REMARK SMILES IDX 20 12 15 13 12 14 13 15 82 16 14 17 11 18 7 19 8 20 84 21
REMARK SMILES IDX 9 22 10 23 83 24 85 25 6 26 3 27 4 28 87 29 5 30 86 31 2 32
REMARK SMILES IDX 1 33 27 34 28 35 29 36 30 37 31 38 32 39 33 40 34 41 80 42
REMARK SMILES IDX 35 43 79 44 36 45 37 46 38 47 73 48 39 49 78 50 72 51 74 52
REMARK SMILES IDX 40 53 77 54 71 55 70 56 41 58 63 59 48 60 62 61 49 62 52 63
REMARK SMILES IDX 61 64 75 65 50 66 51 67 60 69 76 70 53 71 42 72 43 73 47 74
REMARK SMILES IDX 44 75 46 76 45 77 64 78 65 79 69 80 66 81 68 82 67 83 54 84
REMARK SMILES IDX 55 85 59 86 56 87 58 88 57 89
REMARK H PARENT 74 57 52 68
REMARK Flexibility Score: inf
ROOT
ATOM      1  C   UNL     1      -5.141  13.935   4.683  1.00  0.00     0.202 C 
ENDROOT
BRANCH   1   2
ATOM      2  C   UNL     1      -4.939  12.455   5.023  1.00  0.00     0.261 C 
BRANCH   2   3
ATOM      3  O   UNL     1      -4.465  11.726   3.882  1.00  0.00    -0.460 OA
BRANCH   3   4
ATOM      4  C   UNL     1      -5.274  10.725   3.446  1.00  0.00     0.339 C 
ATOM      5  O   UNL     1      -6.244  10.266   4.021  1.00  0.00    -0.246 OA
BRANCH   4   6
ATOM      6  C   UNL     1      -4.824  10.323   2.095  1.00  0.00     0.079 A 
ATOM      7  C   UNL     1      -2.966   9.737   0.624  1.00  0.00     0.018 A 
ATOM      8  C   UNL     1      -3.874   9.560  -0.425  1.00  0.00     0.013 A 
ATOM      9  C   UNL     1      -3.452  10.127   1.879  1.00  0.00     0.029 A 
ATOM     10  C   UNL     1      -5.243   9.768  -0.220  1.00  0.00     0.022 A 
ATOM     11  C   UNL     1      -5.722  10.151   1.038  1.00  0.00     0.055 A 
ATOM     12  Cl  UNL     1      -7.415  10.462   1.179  1.00  0.00    -0.083 Cl
BRANCH   7  13
ATOM     13  C   UNL     1      -1.546   9.463   0.472  1.00  0.00     0.134 A 
ATOM     14  C   UNL     1       0.338   9.291  -0.681  1.00  0.00     0.128 A 
ATOM     15  C   UNL     1       0.607   8.918   0.631  1.00  0.00     0.051 A 
ATOM     16  O   UNL     1      -0.986   9.665  -0.755  1.00  0.00    -0.457 OA
ATOM     17  C   UNL     1      -0.595   9.008   1.357  1.00  0.00     0.051 A 
BRANCH  14  18
ATOM     18  C   UNL     1       1.230   9.257  -1.785  1.00  0.00     0.068 C 
ATOM     19  N   UNL     1       1.925   5.748  -2.526  1.00  0.00    -0.261 N 
ATOM     20  C   UNL     1       1.125   6.735  -1.959  1.00  0.00     0.270 C 
ATOM     21  C   UNL     1       2.967   6.185  -3.329  1.00  0.00     0.152 C 
ATOM     22  O   UNL     1       0.141   6.552  -1.253  1.00  0.00    -0.268 OA
ATOM     23  C   UNL     1       1.642   8.091  -2.305  1.00  0.00     0.084 C 
ATOM     24  S   UNL     1       2.936   7.953  -3.429  1.00  0.00    -0.054 SA
ATOM     25  S   UNL     1       4.083   5.308  -4.212  1.00  0.00    -0.051 S 
BRANCH  19  26
ATOM     26  C   UNL     1       1.609   4.384  -2.250  1.00  0.00     0.051 A 
ATOM     27  C   UNL     1       0.874   1.769  -1.513  1.00  0.00     0.119 A 
ATOM     28  C   UNL     1      -0.079   2.643  -2.026  1.00  0.00     0.048 A 
ATOM     29  C   UNL     1       2.201   2.184  -1.399  1.00  0.00     0.048 A 
ATOM     30  C   UNL     1       0.281   3.944  -2.375  1.00  0.00     0.030 A 
ATOM     31  C   UNL     1       2.569   3.485  -1.770  1.00  0.00     0.030 A 
BRANCH  27  32
ATOM     32  O   UNL     1       0.425   0.516  -1.203  1.00  0.00    -0.497 OA
ATOM     33  C   UNL     1       0.944  -0.009   0.015  1.00  0.00     0.278 C 
ENDBRANCH  27  32
ENDBRANCH  19  26
ENDBRANCH  14  18
ENDBRANCH   7  13
ENDBRANCH   4   6
ENDBRANCH   3   4
ENDBRANCH   2   3
ENDBRANCH   1   2
BRANCH   1  34
ATOM     34  O   UNL     1      -6.078  14.252   3.656  1.00  0.00    -0.374 OA
BRANCH  34  35
ATOM     35  C   UNL     1      -5.704  13.994   2.303  1.00  0.00     0.202 C 
BRANCH  35  36
ATOM     36  C   UNL     1      -4.700  14.948   1.641  1.00  0.00     0.261 C 
BRANCH  36  37
ATOM     37  O   UNL     1      -3.430  14.995   2.312  1.00  0.00    -0.460 OA
BRANCH  37  38
ATOM     38  C   UNL     1      -3.209  16.135   3.012  1.00  0.00     0.338 C 
ATOM     39  O   UNL     1      -3.934  17.111   3.094  1.00  0.00    -0.246 OA
BRANCH  38  40
ATOM     40  C   UNL     1      -1.997  15.986   3.837  1.00  0.00     0.060 A 
ATOM     41  C   UNL     1      -2.124  16.171   5.220  1.00  0.00     0.016 A 
ATOM     42  C   UNL     1      -0.747  15.759   3.259  1.00  0.00     0.016 A 
ATOM     43  C   UNL     1      -0.991  16.170   6.029  1.00  0.00     0.010 A 
ATOM     44  C   UNL     1       0.390  15.767   4.073  1.00  0.00     0.010 A 
ATOM     45  C   UNL     1       0.277  16.005   5.455  1.00  0.00    -0.014 A 
BRANCH  45  46
ATOM     46  C   UNL     1       1.491  16.211   6.280  1.00  0.00     0.031 A 
ATOM     47  C   UNL     1       2.256  17.500   6.151  1.00  0.00     0.074 A 
ATOM     48  C   UNL     1       1.900  15.267   7.146  1.00  0.00     0.049 A 
ATOM     49  N   UNL     1       3.366  17.867   6.738  1.00  0.00    -0.248 NA
ATOM     50  C   UNL     1       1.694  18.507   5.237  1.00  0.00     0.031 C 
ATOM     51  C   UNL     1       1.220  13.998   7.397  1.00  0.00     0.029 A 
ATOM     52  N   UNL     1       2.995  15.234   7.973  1.00  0.00    -0.354 N 
ATOM     53  C   UNL     1       3.644  19.140   6.255  1.00  0.00     0.074 A 
ATOM     54  C   UNL     1       2.604  19.468   5.304  1.00  0.00     0.031 C 
ATOM     55  C   UNL     1       1.917  13.306   8.314  1.00  0.00     0.029 A 
ATOM     56  C   UNL     1       3.110  14.065   8.683  1.00  0.00     0.049 A 
ATOM     57  H   UNL     1       3.636  15.977   8.049  1.00  0.00     0.167 HD
ATOM     58  C   UNL     1       4.670  19.964   6.577  1.00  0.00     0.031 A 
ATOM     59  C   UNL     1       4.080  13.645   9.517  1.00  0.00     0.031 A 
ATOM     60  C   UNL     1       5.711  19.630   7.513  1.00  0.00     0.049 A 
ATOM     61  C   UNL     1       5.256  14.543   9.794  1.00  0.00     0.074 A 
ATOM     62  C   UNL     1       6.784  20.403   7.920  1.00  0.00     0.029 A 
ATOM     63  N   UNL     1       5.815  18.419   8.179  1.00  0.00    -0.354 N 
ATOM     64  N   UNL     1       5.495  15.754   9.350  1.00  0.00    -0.248 NA
ATOM     65  C   UNL     1       6.293  14.018  10.694  1.00  0.00     0.031 C 
ATOM     66  C   UNL     1       7.574  19.635   8.782  1.00  0.00     0.029 A 
ATOM     67  C   UNL     1       6.953  18.411   8.969  1.00  0.00     0.049 A 
ATOM     68  H   UNL     1       5.175  17.675   8.103  1.00  0.00     0.167 HD
ATOM     69  C   UNL     1       6.690  16.147   9.943  1.00  0.00     0.074 A 
ATOM     70  C   UNL     1       7.118  15.051  10.787  1.00  0.00     0.031 C 
ATOM     71  C   UNL     1       7.369  17.312   9.803  1.00  0.00     0.031 A 
BRANCH  58  72
ATOM     72  C   UNL     1       4.737  21.294   5.878  1.00  0.00    -0.014 A 
ATOM     73  C   UNL     1       3.805  22.311   6.141  1.00  0.00     0.009 A 
ATOM     74  C   UNL     1       5.772  21.545   4.962  1.00  0.00     0.009 A 
ATOM     75  C   UNL     1       3.887  23.536   5.474  1.00  0.00     0.001 A 
ATOM     76  C   UNL     1       5.869  22.781   4.321  1.00  0.00     0.001 A 
ATOM     77  C   UNL     1       4.921  23.771   4.569  1.00  0.00     0.000 A 
ENDBRANCH  58  72
BRANCH  59  78
ATOM     78  C   UNL     1       3.996  12.296  10.138  1.00  0.00    -0.014 A 
ATOM     79  C   UNL     1       3.802  12.154  11.520  1.00  0.00     0.009 A 
ATOM     80  C   UNL     1       4.128  11.141   9.350  1.00  0.00     0.009 A 
ATOM     81  C   UNL     1       3.769  10.885  12.103  1.00  0.00     0.001 A 
ATOM     82  C   UNL     1       4.061   9.873   9.931  1.00  0.00     0.001 A 
ATOM     83  C   UNL     1       3.893   9.746  11.309  1.00  0.00     0.000 A 
ENDBRANCH  59  78
BRANCH  71  84
ATOM     84  C   UNL     1       8.626  17.482  10.613  1.00  0.00    -0.014 A 
ATOM     85  C   UNL     1       9.793  16.760  10.320  1.00  0.00     0.009 A 
ATOM     86  C   UNL     1       8.652  18.416  11.662  1.00  0.00     0.009 A 
ATOM     87  C   UNL     1      10.948  16.944  11.084  1.00  0.00     0.001 A 
ATOM     88  C   UNL     1       9.817  18.622  12.402  1.00  0.00     0.001 A 
ATOM     89  C   UNL     1      10.961  17.878  12.119  1.00  0.00     0.000 A 
ENDBRANCH  71  84
ENDBRANCH  45  46
ENDBRANCH  38  40
ENDBRANCH  37  38
ENDBRANCH  36  37
ENDBRANCH  35  36
ENDBRANCH  34  35
ENDBRANCH   1  34
TORSDOF 18
