REMARK SMILES O=C(OCCOCCOC(=O)[C@H]1[NH2+]CC[C@H]1c1cccc(Oc2ccccc2)c1)c1ccc(-c2c3nc(c(-c4ccccc4)c4ccc([nH]4)c(-c4ccccc4)c4nc(c(-c5ccccc5)c5ccc2[nH]5)C=C4)C=C3)cc1
REMARK SMILES IDX 7 1 6 2 5 3 4 4 3 5 2 6 1 7 30 8 31 9 77 10 32 11 76 12
REMARK SMILES IDX 33 13 34 14 35 15 70 16 36 17 75 18 69 19 71 20 37 21 74 22
REMARK SMILES IDX 68 23 67 24 38 26 60 27 45 28 59 29 46 30 49 31 58 32 72 33
REMARK SMILES IDX 47 34 48 35 57 37 73 38 50 39 39 40 40 41 44 42 41 43 43 44
REMARK SMILES IDX 42 45 61 46 62 47 66 48 63 49 65 50 64 51 51 52 52 53 56 54
REMARK SMILES IDX 53 55 55 56 54 57 8 58 9 59 10 60 11 61 12 62 13 63 16 64
REMARK SMILES IDX 14 65 15 68 17 69 18 70 29 71 19 72 21 73 20 74 22 75 23 76
REMARK SMILES IDX 24 77 28 78 25 79 27 80 26 81
REMARK H PARENT 71 25 49 36 13 66 13 67
REMARK Flexibility Score: inf
ROOT
ATOM      1  C   UNL     1       3.449  -0.737   1.131  1.00  0.00     0.202 C 
ENDROOT
BRANCH   1   2
ATOM      2  O   UNL     1       4.828  -0.445   0.903  1.00  0.00    -0.374 OA
BRANCH   2   3
ATOM      3  C   UNL     1       5.148   0.939   0.757  1.00  0.00     0.202 C 
BRANCH   3   4
ATOM      4  C   UNL     1       4.678   1.615  -0.547  1.00  0.00     0.261 C 
BRANCH   4   5
ATOM      5  O   UNL     1       3.260   1.476  -0.777  1.00  0.00    -0.460 OA
BRANCH   5   6
ATOM      6  C   UNL     1       2.622   0.642  -1.636  1.00  0.00     0.338 C 
ATOM      7  O   UNL     1       1.416   0.793  -1.825  1.00  0.00    -0.246 OA
BRANCH   6   8
ATOM      8  C   UNL     1       3.286  -0.529  -2.291  1.00  0.00     0.060 A 
ATOM      9  C   UNL     1       4.488  -1.077  -1.855  1.00  0.00     0.016 A 
ATOM     10  C   UNL     1       2.596  -1.210  -3.308  1.00  0.00     0.016 A 
ATOM     11  C   UNL     1       4.952  -2.292  -2.287  1.00  0.00     0.010 A 
ATOM     12  C   UNL     1       3.095  -2.413  -3.824  1.00  0.00     0.010 A 
ATOM     13  C   UNL     1       4.262  -2.957  -3.281  1.00  0.00    -0.014 A 
BRANCH  13  14
ATOM     14  C   UNL     1       4.957  -4.128  -3.804  1.00  0.00     0.031 A 
ATOM     15  C   UNL     1       5.904  -3.899  -4.935  1.00  0.00     0.074 A 
ATOM     16  C   UNL     1       4.933  -5.267  -3.091  1.00  0.00     0.049 A 
ATOM     17  N   UNL     1       6.628  -4.761  -5.586  1.00  0.00    -0.248 NA
ATOM     18  C   UNL     1       6.089  -2.498  -5.368  1.00  0.00     0.031 C 
ATOM     19  C   UNL     1       4.227  -5.456  -1.817  1.00  0.00     0.029 A 
ATOM     20  N   UNL     1       5.551  -6.463  -3.310  1.00  0.00    -0.354 N 
ATOM     21  C   UNL     1       7.312  -4.018  -6.537  1.00  0.00     0.074 A 
ATOM     22  C   UNL     1       6.958  -2.632  -6.357  1.00  0.00     0.031 C 
ATOM     23  C   UNL     1       4.435  -6.711  -1.385  1.00  0.00     0.029 A 
ATOM     24  C   UNL     1       5.220  -7.422  -2.385  1.00  0.00     0.049 A 
ATOM     25  H   UNL     1       6.172  -6.623  -4.057  1.00  0.00     0.167 HD
ATOM     26  C   UNL     1       8.132  -4.485  -7.501  1.00  0.00     0.031 A 
ATOM     27  C   UNL     1       5.474  -8.742  -2.410  1.00  0.00     0.031 A 
ATOM     28  C   UNL     1       8.429  -5.881  -7.642  1.00  0.00     0.049 A 
ATOM     29  C   UNL     1       6.250  -9.260  -3.592  1.00  0.00     0.074 A 
ATOM     30  C   UNL     1       9.168  -6.515  -8.619  1.00  0.00     0.029 A 
ATOM     31  N   UNL     1       7.979  -6.860  -6.765  1.00  0.00    -0.354 N 
ATOM     32  N   UNL     1       6.829  -8.583  -4.559  1.00  0.00    -0.248 NA
ATOM     33  C   UNL     1       6.386 -10.715  -3.710  1.00  0.00     0.031 C 
ATOM     34  C   UNL     1       9.103  -7.889  -8.372  1.00  0.00     0.029 A 
ATOM     35  C   UNL     1       8.384  -8.103  -7.202  1.00  0.00     0.049 A 
ATOM     36  H   UNL     1       7.450  -6.691  -5.952  1.00  0.00     0.167 HD
ATOM     37  C   UNL     1       7.406  -9.527  -5.394  1.00  0.00     0.074 A 
ATOM     38  C   UNL     1       7.135 -10.822  -4.798  1.00  0.00     0.031 C 
ATOM     39  C   UNL     1       8.085  -9.355  -6.555  1.00  0.00     0.031 A 
BRANCH  26  40
ATOM     40  C   UNL     1       8.613  -3.507  -8.528  1.00  0.00    -0.014 A 
ATOM     41  C   UNL     1       9.605  -2.555  -8.252  1.00  0.00     0.009 A 
ATOM     42  C   UNL     1       8.030  -3.531  -9.805  1.00  0.00     0.009 A 
ATOM     43  C   UNL     1       9.989  -1.635  -9.231  1.00  0.00     0.001 A 
ATOM     44  C   UNL     1       8.431  -2.628 -10.788  1.00  0.00     0.001 A 
ATOM     45  C   UNL     1       9.407  -1.676 -10.499  1.00  0.00     0.000 A 
ENDBRANCH  26  40
BRANCH  27  46
ATOM     46  C   UNL     1       4.880  -9.663  -1.401  1.00  0.00    -0.014 A 
ATOM     47  C   UNL     1       5.685 -10.487  -0.601  1.00  0.00     0.009 A 
ATOM     48  C   UNL     1       3.483  -9.775  -1.284  1.00  0.00     0.009 A 
ATOM     49  C   UNL     1       5.106 -11.432   0.254  1.00  0.00     0.001 A 
ATOM     50  C   UNL     1       2.906 -10.692  -0.403  1.00  0.00     0.001 A 
ATOM     51  C   UNL     1       3.719 -11.534   0.352  1.00  0.00     0.000 A 
ENDBRANCH  27  46
BRANCH  39  52
ATOM     52  C   UNL     1       8.591 -10.595  -7.226  1.00  0.00    -0.014 A 
ATOM     53  C   UNL     1       7.715 -11.467  -7.888  1.00  0.00     0.009 A 
ATOM     54  C   UNL     1       9.971 -10.846  -7.258  1.00  0.00     0.009 A 
ATOM     55  C   UNL     1       8.214 -12.586  -8.553  1.00  0.00     0.001 A 
ATOM     56  C   UNL     1      10.469 -11.944  -7.955  1.00  0.00     0.001 A 
ATOM     57  C   UNL     1       9.589 -12.817  -8.594  1.00  0.00     0.000 A 
ENDBRANCH  39  52
ENDBRANCH  13  14
ENDBRANCH   6   8
ENDBRANCH   5   6
ENDBRANCH   4   5
ENDBRANCH   3   4
ENDBRANCH   2   3
ENDBRANCH   1   2
BRANCH   1  58
ATOM     58  C   UNL     1       3.340  -1.473   2.429  1.00  0.00     0.261 C 
BRANCH  58  59
ATOM     59  O   UNL     1       3.655  -0.483   3.389  1.00  0.00    -0.459 OA
BRANCH  59  60
ATOM     60  C   UNL     1       4.715  -0.660   4.209  1.00  0.00     0.365 C 
ATOM     61  O   UNL     1       5.432  -1.637   4.283  1.00  0.00    -0.245 OA
BRANCH  60  62
ATOM     62  C   UNL     1       4.816   0.601   5.051  1.00  0.00     0.301 C 
ATOM     63  N   UNL     1       4.783   1.821   4.179  1.00  0.00    -0.334 N 
ATOM     64  C   UNL     1       3.654   0.819   6.048  1.00  0.00     0.095 C 
ATOM     65  C   UNL     1       4.416   2.927   5.062  1.00  0.00     0.262 C 
ATOM     66  H   UNL     1       4.090   1.710   3.439  1.00  0.00     0.347 HD
ATOM     67  H   UNL     1       5.681   1.984   3.724  1.00  0.00     0.347 HD
ATOM     68  C   UNL     1       3.924   2.301   6.367  1.00  0.00     0.076 C 
BRANCH  64  69
ATOM     69  C   UNL     1       2.228   0.487   5.551  1.00  0.00    -0.034 A 
ATOM     70  C   UNL     1       1.321   1.470   5.131  1.00  0.00     0.004 A 
ATOM     71  C   UNL     1       1.814  -0.870   5.433  1.00  0.00     0.051 A 
ATOM     72  C   UNL     1       0.082   1.124   4.581  1.00  0.00     0.004 A 
ATOM     73  C   UNL     1       0.601  -1.226   4.812  1.00  0.00     0.127 A 
ATOM     74  C   UNL     1      -0.271  -0.215   4.410  1.00  0.00     0.047 A 
BRANCH  73  75
ATOM     75  O   UNL     1       0.150  -2.524   4.626  1.00  0.00    -0.457 OA
BRANCH  75  76
ATOM     76  C   UNL     1       0.987  -3.423   3.999  1.00  0.00     0.127 A 
ATOM     77  C   UNL     1       0.794  -3.740   2.647  1.00  0.00     0.047 A 
ATOM     78  C   UNL     1       1.970  -4.093   4.726  1.00  0.00     0.047 A 
ATOM     79  C   UNL     1       1.657  -4.641   2.006  1.00  0.00     0.004 A 
ATOM     80  C   UNL     1       2.833  -4.985   4.086  1.00  0.00     0.004 A 
ATOM     81  C   UNL     1       2.687  -5.250   2.724  1.00  0.00     0.000 A 
ENDBRANCH  75  76
ENDBRANCH  73  75
ENDBRANCH  64  69
ENDBRANCH  60  62
ENDBRANCH  59  60
ENDBRANCH  58  59
ENDBRANCH   1  58
TORSDOF 17
