REMARK SMILES C=CC[NH2+][C@]1(C(=O)OCCOCCOC(=O)c2ccc(-c3c4nc(c(-c5ccccc5)c5ccc([nH]5)c(-c5ccccc5)c5nc(c(-c6ccccc6)c6ccc3[nH]6)C=C5)C=C4)cc2)CCCCC1(C)C
REMARK SMILES IDX 10 1 9 2 8 3 6 4 7 5 5 6 65 7 69 8 66 9 68 10 70 11 71 12
REMARK SMILES IDX 67 13 4 14 3 17 2 18 1 19 11 20 12 21 13 22 14 23 15 24
REMARK SMILES IDX 16 25 17 26 18 27 64 28 19 29 63 30 20 31 21 32 22 33 57 34
REMARK SMILES IDX 23 35 62 36 56 37 58 38 24 39 61 40 55 41 54 42 25 44 47 45
REMARK SMILES IDX 32 46 46 47 33 48 36 49 45 50 59 51 34 52 35 53 44 55 60 56
REMARK SMILES IDX 37 57 26 58 27 59 31 60 28 61 30 62 29 63 48 64 49 65 53 66
REMARK SMILES IDX 50 67 52 68 51 69 38 70 39 71 43 72 40 73 42 74 41 75
REMARK H PARENT 4 15 4 16 58 43 36 54
REMARK Flexibility Score: inf
ROOT
ATOM      1  C   UNL     1       1.159   1.377   2.523  1.00  0.00     0.202 C 
ENDROOT
BRANCH   1   2
ATOM      2  C   UNL     1       0.259   1.122   1.304  1.00  0.00     0.261 C 
BRANCH   2   3
ATOM      3  O   UNL     1      -1.152   1.306   1.504  1.00  0.00    -0.459 OA
BRANCH   3   4
ATOM      4  C   UNL     1      -1.836   0.125   1.674  1.00  0.00     0.368 C 
ATOM      5  O   UNL     1      -1.263  -0.951   1.786  1.00  0.00    -0.245 OA
BRANCH   4   6
ATOM      6  C   UNL     1      -3.418   0.348   1.700  1.00  0.00     0.199 C 
ATOM      7  C   UNL     1      -3.773   1.146   0.412  1.00  0.00     0.082 C 
ATOM      8  C   UNL     1      -4.139  -1.083   1.673  1.00  0.00     0.031 C 
ATOM      9  C   UNL     1      -3.440   0.386  -0.871  1.00  0.00     0.007 C 
ATOM     10  C   UNL     1      -3.761  -1.821   0.350  1.00  0.00     0.013 C 
ATOM     11  C   UNL     1      -3.750  -1.967   2.887  1.00  0.00     0.018 C 
ATOM     12  C   UNL     1      -5.690  -1.024   1.708  1.00  0.00     0.018 C 
ATOM     13  C   UNL     1      -4.068  -1.001  -0.904  1.00  0.00     0.001 C 
BRANCH   6  14
ATOM     14  N   UNL     1      -3.679   1.181   2.920  1.00  0.00    -0.328 N 
ATOM     15  H   UNL     1      -3.517   0.584   3.731  1.00  0.00     0.347 HD
ATOM     16  H   UNL     1      -3.052   1.979   2.815  1.00  0.00     0.347 HD
BRANCH  14  17
ATOM     17  C   UNL     1      -4.996   1.783   3.085  1.00  0.00     0.289 C 
BRANCH  17  18
ATOM     18  C   UNL     1      -5.061   2.455   4.426  1.00  0.00     0.025 C 
ATOM     19  C   UNL     1      -5.559   3.681   4.638  1.00  0.00     0.010 C 
ENDBRANCH  17  18
ENDBRANCH  14  17
ENDBRANCH   6  14
ENDBRANCH   4   6
ENDBRANCH   3   4
ENDBRANCH   2   3
ENDBRANCH   1   2
BRANCH   1  20
ATOM     20  O   UNL     1       0.741   0.950   3.810  1.00  0.00    -0.374 OA
BRANCH  20  21
ATOM     21  C   UNL     1      -0.401   1.568   4.395  1.00  0.00     0.202 C 
BRANCH  21  22
ATOM     22  C   UNL     1      -0.375   3.085   4.626  1.00  0.00     0.261 C 
BRANCH  22  23
ATOM     23  O   UNL     1      -0.224   3.844   3.409  1.00  0.00    -0.460 OA
BRANCH  23  24
ATOM     24  C   UNL     1       0.838   4.683   3.399  1.00  0.00     0.338 C 
ATOM     25  O   UNL     1       1.616   4.911   4.321  1.00  0.00    -0.246 OA
BRANCH  24  26
ATOM     26  C   UNL     1       1.084   5.200   2.045  1.00  0.00     0.060 A 
ATOM     27  C   UNL     1       2.320   4.910   1.451  1.00  0.00     0.016 A 
ATOM     28  C   UNL     1       0.185   6.071   1.426  1.00  0.00     0.016 A 
ATOM     29  C   UNL     1       2.684   5.530   0.258  1.00  0.00     0.010 A 
ATOM     30  C   UNL     1       0.559   6.703   0.234  1.00  0.00     0.010 A 
ATOM     31  C   UNL     1       1.825   6.466  -0.331  1.00  0.00    -0.014 A 
BRANCH  31  32
ATOM     32  C   UNL     1       2.331   7.315  -1.436  1.00  0.00     0.031 A 
ATOM     33  C   UNL     1       2.881   8.678  -1.114  1.00  0.00     0.074 A 
ATOM     34  C   UNL     1       2.348   6.864  -2.702  1.00  0.00     0.049 A 
ATOM     35  N   UNL     1       3.377   9.584  -1.919  1.00  0.00    -0.248 NA
ATOM     36  C   UNL     1       2.874   9.071   0.304  1.00  0.00     0.031 C 
ATOM     37  C   UNL     1       1.892   5.545  -3.137  1.00  0.00     0.029 A 
ATOM     38  N   UNL     1       2.770   7.475  -3.856  1.00  0.00    -0.354 N 
ATOM     39  C   UNL     1       3.740  10.650  -1.107  1.00  0.00     0.074 A 
ATOM     40  C   UNL     1       3.383  10.293   0.249  1.00  0.00     0.031 C 
ATOM     41  C   UNL     1       2.054   5.448  -4.468  1.00  0.00     0.029 A 
ATOM     42  C   UNL     1       2.598   6.704  -4.979  1.00  0.00     0.049 A 
ATOM     43  H   UNL     1       3.160   8.379  -3.876  1.00  0.00     0.167 HD
ATOM     44  C   UNL     1       4.325  11.821  -1.455  1.00  0.00     0.031 A 
ATOM     45  C   UNL     1       2.838   6.988  -6.273  1.00  0.00     0.031 A 
ATOM     46  C   UNL     1       4.666  12.189  -2.803  1.00  0.00     0.049 A 
ATOM     47  C   UNL     1       3.413   8.328  -6.645  1.00  0.00     0.074 A 
ATOM     48  C   UNL     1       5.263  13.354  -3.255  1.00  0.00     0.029 A 
ATOM     49  N   UNL     1       4.431  11.400  -3.917  1.00  0.00    -0.354 N 
ATOM     50  N   UNL     1       3.767   9.321  -5.866  1.00  0.00    -0.248 NA
ATOM     51  C   UNL     1       3.628   8.581  -8.078  1.00  0.00     0.031 C 
ATOM     52  C   UNL     1       5.346  13.287  -4.650  1.00  0.00     0.029 A 
ATOM     53  C   UNL     1       4.848  12.060  -5.059  1.00  0.00     0.049 A 
ATOM     54  H   UNL     1       4.028  10.502  -3.898  1.00  0.00     0.167 HD
ATOM     55  C   UNL     1       4.266  10.306  -6.709  1.00  0.00     0.074 A 
ATOM     56  C   UNL     1       4.182   9.786  -8.058  1.00  0.00     0.031 C 
ATOM     57  C   UNL     1       4.753  11.531  -6.394  1.00  0.00     0.031 A 
BRANCH  44  58
ATOM     58  C   UNL     1       4.603  12.804  -0.354  1.00  0.00    -0.014 A 
ATOM     59  C   UNL     1       5.644  12.593   0.563  1.00  0.00     0.009 A 
ATOM     60  C   UNL     1       3.826  13.968  -0.246  1.00  0.00     0.009 A 
ATOM     61  C   UNL     1       5.881  13.514   1.586  1.00  0.00     0.001 A 
ATOM     62  C   UNL     1       4.080  14.898   0.763  1.00  0.00     0.001 A 
ATOM     63  C   UNL     1       5.101  14.666   1.683  1.00  0.00     0.000 A 
ENDBRANCH  44  58
BRANCH  45  64
ATOM     64  C   UNL     1       2.512   5.989  -7.323  1.00  0.00    -0.014 A 
ATOM     65  C   UNL     1       3.529   5.321  -8.019  1.00  0.00     0.009 A 
ATOM     66  C   UNL     1       1.173   5.710  -7.641  1.00  0.00     0.009 A 
ATOM     67  C   UNL     1       3.212   4.408  -9.028  1.00  0.00     0.001 A 
ATOM     68  C   UNL     1       0.860   4.779  -8.633  1.00  0.00     0.001 A 
ATOM     69  C   UNL     1       1.879   4.134  -9.331  1.00  0.00     0.000 A 
ENDBRANCH  45  64
BRANCH  57  70
ATOM     70  C   UNL     1       5.258  12.382  -7.525  1.00  0.00    -0.014 A 
ATOM     71  C   UNL     1       4.372  13.015  -8.409  1.00  0.00     0.009 A 
ATOM     72  C   UNL     1       6.638  12.586  -7.678  1.00  0.00     0.009 A 
ATOM     73  C   UNL     1       4.861  13.814  -9.445  1.00  0.00     0.001 A 
ATOM     74  C   UNL     1       7.123  13.405  -8.699  1.00  0.00     0.001 A 
ATOM     75  C   UNL     1       6.234  14.012  -9.586  1.00  0.00     0.000 A 
ENDBRANCH  57  70
ENDBRANCH  31  32
ENDBRANCH  24  26
ENDBRANCH  23  24
ENDBRANCH  22  23
ENDBRANCH  21  22
ENDBRANCH  20  21
ENDBRANCH   1  20
TORSDOF 17
