REMARK SMILES O=C(Cn1c(-c2nc(-c3ccc(C(F)(F)F)cc3)no2)cc2ccccc21)OCCOCCOC(=O)c1ccc(-c2c3nc(c(-c4ccccc4)c4ccc([nH]4)c(-c4ccccc4)c4nc(c(-c5ccccc5)c5ccc2[nH]5)C=C4)C=C3)cc1
REMARK SMILES IDX 30 1 29 2 28 3 2 4 1 5 3 6 4 7 5 8 27 9 21 10 22 11 26 12
REMARK SMILES IDX 23 13 25 14 24 15 6 16 7 17 20 18 8 19 19 20 9 21 10 22
REMARK SMILES IDX 18 23 11 24 17 25 12 26 13 27 14 28 15 29 16 30 31 31 32 32
REMARK SMILES IDX 33 33 34 34 35 35 36 36 37 37 38 38 84 39 39 40 83 41 40 42
REMARK SMILES IDX 41 43 42 44 77 45 43 46 82 47 76 48 78 49 44 50 81 51 75 52
REMARK SMILES IDX 74 53 45 55 67 56 52 57 66 58 53 59 56 60 65 61 79 62 54 63
REMARK SMILES IDX 55 64 64 66 80 67 57 68 46 69 47 70 51 71 48 72 50 73 49 74
REMARK SMILES IDX 68 75 69 76 73 77 70 78 72 79 71 80 58 81 59 82 63 83 60 84
REMARK SMILES IDX 62 85 61 86
REMARK H PARENT 78 54 56 65
REMARK Flexibility Score: inf
ROOT
ATOM      1  C   UNL     1       4.811  -1.049   0.291  1.00  0.00     0.202 C 
ENDROOT
BRANCH   1   2
ATOM      2  C   UNL     1       4.137   0.316   0.451  1.00  0.00     0.261 C 
BRANCH   2   3
ATOM      3  O   UNL     1       2.708   0.321   0.519  1.00  0.00    -0.462 OA
BRANCH   3   4
ATOM      4  C   UNL     1       1.871   0.233  -0.539  1.00  0.00     0.326 C 
ATOM      5  O   UNL     1       0.659   0.150  -0.333  1.00  0.00    -0.250 OA
BRANCH   4   6
ATOM      6  C   UNL     1       2.416   0.101  -1.934  1.00  0.00     0.245 C 
BRANCH   6   7
ATOM      7  N   UNL     1       3.375   1.105  -2.383  1.00  0.00    -0.325 N 
ATOM      8  C   UNL     1       3.287   2.469  -2.184  1.00  0.00     0.109 A 
ATOM      9  C   UNL     1       4.593   0.798  -2.985  1.00  0.00     0.049 A 
ATOM     10  C   UNL     1       4.366   3.049  -2.821  1.00  0.00     0.042 A 
ATOM     11  C   UNL     1       5.212   2.013  -3.293  1.00  0.00     0.000 A 
ATOM     12  C   UNL     1       5.230  -0.431  -3.243  1.00  0.00     0.027 A 
ATOM     13  C   UNL     1       6.483   2.005  -3.901  1.00  0.00     0.010 A 
ATOM     14  C   UNL     1       6.505  -0.413  -3.818  1.00  0.00     0.002 A 
ATOM     15  C   UNL     1       7.121   0.787  -4.154  1.00  0.00     0.001 A 
BRANCH   8  16
ATOM     16  C   UNL     1       2.401   3.107  -1.260  1.00  0.00     0.274 A 
ATOM     17  N   UNL     1       1.087   3.162  -1.324  1.00  0.00    -0.185 NA
ATOM     18  O   UNL     1       2.894   3.627  -0.095  1.00  0.00    -0.332 OA
ATOM     19  C   UNL     1       0.755   3.792  -0.133  1.00  0.00     0.202 A 
ATOM     20  N   UNL     1       1.816   4.056   0.647  1.00  0.00    -0.057 NA
BRANCH  19  21
ATOM     21  C   UNL     1      -0.593   4.207   0.254  1.00  0.00     0.023 A 
ATOM     22  C   UNL     1      -0.746   5.146   1.290  1.00  0.00     0.013 A 
ATOM     23  C   UNL     1      -1.744   3.715  -0.372  1.00  0.00     0.013 A 
ATOM     24  C   UNL     1      -2.007   5.589   1.690  1.00  0.00     0.014 A 
ATOM     25  C   UNL     1      -3.016   4.156   0.033  1.00  0.00     0.014 A 
ATOM     26  C   UNL     1      -3.159   5.099   1.065  1.00  0.00     0.056 A 
BRANCH  26  27
ATOM     27  C   UNL     1      -4.509   5.595   1.527  1.00  0.00     0.416 C 
ATOM     28  F   UNL     1      -4.759   5.281   2.830  1.00  0.00    -0.166 F 
ATOM     29  F   UNL     1      -4.619   6.951   1.447  1.00  0.00    -0.166 F 
ATOM     30  F   UNL     1      -5.554   5.093   0.814  1.00  0.00    -0.166 F 
ENDBRANCH  26  27
ENDBRANCH  19  21
ENDBRANCH   8  16
ENDBRANCH   6   7
ENDBRANCH   4   6
ENDBRANCH   3   4
ENDBRANCH   2   3
ENDBRANCH   1   2
BRANCH   1  31
ATOM     31  O   UNL     1       4.071  -2.137  -0.241  1.00  0.00    -0.374 OA
BRANCH  31  32
ATOM     32  C   UNL     1       2.973  -2.665   0.511  1.00  0.00     0.202 C 
BRANCH  32  33
ATOM     33  C   UNL     1       3.159  -3.113   1.971  1.00  0.00     0.261 C 
BRANCH  33  34
ATOM     34  O   UNL     1       3.689  -2.071   2.797  1.00  0.00    -0.460 OA
BRANCH  34  35
ATOM     35  C   UNL     1       4.713  -2.441   3.612  1.00  0.00     0.338 C 
ATOM     36  O   UNL     1       5.039  -3.572   3.938  1.00  0.00    -0.246 OA
BRANCH  35  37
ATOM     37  C   UNL     1       5.603  -1.268   3.687  1.00  0.00     0.060 A 
ATOM     38  C   UNL     1       5.091   0.004   3.953  1.00  0.00     0.016 A 
ATOM     39  C   UNL     1       6.892  -1.438   3.154  1.00  0.00     0.016 A 
ATOM     40  C   UNL     1       5.847   1.116   3.598  1.00  0.00     0.010 A 
ATOM     41  C   UNL     1       7.621  -0.326   2.757  1.00  0.00     0.010 A 
ATOM     42  C   UNL     1       7.083   0.948   2.948  1.00  0.00    -0.014 A 
BRANCH  42  43
ATOM     43  C   UNL     1       7.895   2.139   2.698  1.00  0.00     0.031 A 
ATOM     44  C   UNL     1       8.404   2.763   3.955  1.00  0.00     0.074 A 
ATOM     45  C   UNL     1       8.337   2.566   1.498  1.00  0.00     0.049 A 
ATOM     46  N   UNL     1       8.240   3.973   4.378  1.00  0.00    -0.248 NA
ATOM     47  C   UNL     1       9.096   1.878   4.908  1.00  0.00     0.031 C 
ATOM     48  C   UNL     1       8.228   1.920   0.188  1.00  0.00     0.029 A 
ATOM     49  N   UNL     1       9.111   3.660   1.233  1.00  0.00    -0.354 N 
ATOM     50  C   UNL     1       8.904   4.044   5.600  1.00  0.00     0.074 A 
ATOM     51  C   UNL     1       9.308   2.702   5.931  1.00  0.00     0.031 C 
ATOM     52  C   UNL     1       9.110   2.497  -0.666  1.00  0.00     0.029 A 
ATOM     53  C   UNL     1       9.734   3.634  -0.008  1.00  0.00     0.049 A 
ATOM     54  H   UNL     1       9.217   4.404   1.868  1.00  0.00     0.167 HD
ATOM     55  C   UNL     1       9.226   5.221   6.200  1.00  0.00     0.031 A 
ATOM     56  C   UNL     1      10.746   4.441  -0.417  1.00  0.00     0.031 A 
ATOM     57  C   UNL     1       8.471   6.324   5.680  1.00  0.00     0.049 A 
ATOM     58  C   UNL     1      10.753   5.638   0.456  1.00  0.00     0.074 A 
ATOM     59  C   UNL     1       7.129   6.651   5.660  1.00  0.00     0.029 A 
ATOM     60  N   UNL     1       9.063   7.125   4.734  1.00  0.00    -0.354 N 
ATOM     61  N   UNL     1       9.802   6.526   0.473  1.00  0.00    -0.248 NA
ATOM     62  C   UNL     1      11.619   5.621   1.624  1.00  0.00     0.031 C 
ATOM     63  C   UNL     1       6.916   7.232   4.378  1.00  0.00     0.029 A 
ATOM     64  C   UNL     1       8.149   7.278   3.723  1.00  0.00     0.049 A 
ATOM     65  H   UNL     1       9.966   7.513   4.774  1.00  0.00     0.167 HD
ATOM     66  C   UNL     1       9.677   6.881   1.807  1.00  0.00     0.074 A 
ATOM     67  C   UNL     1      10.877   6.356   2.455  1.00  0.00     0.031 C 
ATOM     68  C   UNL     1       8.489   7.320   2.318  1.00  0.00     0.031 A 
BRANCH  55  69
ATOM     69  C   UNL     1      10.449   5.403   7.057  1.00  0.00    -0.014 A 
ATOM     70  C   UNL     1      11.543   4.517   7.023  1.00  0.00     0.009 A 
ATOM     71  C   UNL     1      10.639   6.617   7.738  1.00  0.00     0.009 A 
ATOM     72  C   UNL     1      12.761   4.815   7.639  1.00  0.00     0.001 A 
ATOM     73  C   UNL     1      11.872   6.939   8.319  1.00  0.00     0.001 A 
ATOM     74  C   UNL     1      12.932   6.038   8.268  1.00  0.00     0.000 A 
ENDBRANCH  55  69
BRANCH  56  75
ATOM     75  C   UNL     1      11.946   4.069  -1.207  1.00  0.00    -0.014 A 
ATOM     76  C   UNL     1      12.467   2.766  -1.111  1.00  0.00     0.009 A 
ATOM     77  C   UNL     1      12.758   5.054  -1.794  1.00  0.00     0.009 A 
ATOM     78  C   UNL     1      13.763   2.466  -1.544  1.00  0.00     0.001 A 
ATOM     79  C   UNL     1      14.057   4.753  -2.230  1.00  0.00     0.001 A 
ATOM     80  C   UNL     1      14.565   3.463  -2.089  1.00  0.00     0.000 A 
ENDBRANCH  56  75
BRANCH  68  81
ATOM     81  C   UNL     1       7.345   7.586   1.365  1.00  0.00    -0.014 A 
ATOM     82  C   UNL     1       6.663   8.808   1.468  1.00  0.00     0.009 A 
ATOM     83  C   UNL     1       6.801   6.592   0.531  1.00  0.00     0.009 A 
ATOM     84  C   UNL     1       5.465   9.023   0.781  1.00  0.00     0.001 A 
ATOM     85  C   UNL     1       5.613   6.816  -0.175  1.00  0.00     0.001 A 
ATOM     86  C   UNL     1       4.940   8.028  -0.039  1.00  0.00     0.000 A 
ENDBRANCH  68  81
ENDBRANCH  42  43
ENDBRANCH  35  37
ENDBRANCH  34  35
ENDBRANCH  33  34
ENDBRANCH  32  33
ENDBRANCH  31  32
ENDBRANCH   1  31
TORSDOF 18
