REMARK SMILES CC[C@@H](C(=O)OCCOCCOC(=O)c1ccc(-c2c3nc(c(-c4ccccc4)c4ccc([nH]4)c(-c4ccccc4)c4nc(c(-c5ccccc5)c5ccc2[nH]5)C=C4)C=C3)cc1)N1CCN(Cc2cccc(C)c2)C(=O)C1=O
REMARK SMILES IDX 8 1 7 2 6 3 4 4 5 5 3 6 2 7 1 8 63 9 64 10 77 11 65 12 75 13
REMARK SMILES IDX 78 14 66 15 76 16 67 17 68 18 69 19 74 20 70 21 72 22 71 23
REMARK SMILES IDX 73 24 9 25 10 26 11 27 12 28 13 29 14 30 15 31 16 32 62 33
REMARK SMILES IDX 17 34 61 35 18 36 19 37 20 38 55 39 21 40 60 41 54 42 56 43
REMARK SMILES IDX 22 44 59 45 53 46 52 47 23 49 45 50 30 51 44 52 31 53 34 54
REMARK SMILES IDX 43 55 57 56 32 57 33 58 42 60 58 61 35 62 24 63 25 64 29 65
REMARK SMILES IDX 26 66 28 67 27 68 46 69 47 70 51 71 48 72 50 73 49 74 36 75
REMARK SMILES IDX 37 76 41 77 38 78 40 79 39 80
REMARK H PARENT 56 48 34 59
REMARK Flexibility Score: inf
ROOT
ATOM      1  C   UNL     1      -0.750  -1.063   4.193  1.00  0.00     0.202 C 
ENDROOT
BRANCH   1   2
ATOM      2  C   UNL     1       0.706  -1.534   4.114  1.00  0.00     0.261 C 
BRANCH   2   3
ATOM      3  O   UNL     1       1.195  -1.552   2.761  1.00  0.00    -0.462 OA
BRANCH   3   4
ATOM      4  C   UNL     1       1.139  -2.762   2.143  1.00  0.00     0.328 C 
ATOM      5  O   UNL     1       0.744  -3.785   2.690  1.00  0.00    -0.250 OA
BRANCH   4   6
ATOM      6  C   UNL     1       1.615  -2.686   0.669  1.00  0.00     0.195 C 
BRANCH   6   7
ATOM      7  C   UNL     1       1.121  -1.451  -0.125  1.00  0.00     0.034 C 
ATOM      8  C   UNL     1       1.690  -0.097   0.268  1.00  0.00     0.007 C 
ENDBRANCH   6   7
BRANCH   6   9
ATOM      9  N   UNL     1       1.185  -3.957   0.014  1.00  0.00    -0.319 N 
ATOM     10  C   UNL     1      -0.043  -4.058  -0.759  1.00  0.00     0.142 C 
ATOM     11  C   UNL     1       1.827  -5.154   0.387  1.00  0.00     0.312 C 
ATOM     12  C   UNL     1       0.119  -5.143  -1.818  1.00  0.00     0.142 C 
ATOM     13  C   UNL     1       1.139  -6.497  -0.052  1.00  0.00     0.312 C 
ATOM     14  O   UNL     1       2.886  -5.174   1.003  1.00  0.00    -0.263 OA
ATOM     15  N   UNL     1       0.321  -6.436  -1.191  1.00  0.00    -0.328 N 
ATOM     16  O   UNL     1       1.360  -7.530   0.568  1.00  0.00    -0.263 OA
BRANCH  15  17
ATOM     17  C   UNL     1       0.002  -7.671  -1.909  1.00  0.00     0.155 C 
BRANCH  17  18
ATOM     18  C   UNL     1      -1.432  -7.793  -2.377  1.00  0.00    -0.028 A 
ATOM     19  C   UNL     1      -2.336  -8.615  -1.692  1.00  0.00     0.005 A 
ATOM     20  C   UNL     1      -1.889  -7.095  -3.508  1.00  0.00     0.009 A 
ATOM     21  C   UNL     1      -3.661  -8.723  -2.120  1.00  0.00     0.001 A 
ATOM     22  C   UNL     1      -3.235  -7.127  -3.890  1.00  0.00    -0.051 A 
ATOM     23  C   UNL     1      -4.113  -7.971  -3.205  1.00  0.00     0.003 A 
ATOM     24  C   UNL     1      -3.729  -6.272  -5.019  1.00  0.00     0.044 C 
ENDBRANCH  17  18
ENDBRANCH  15  17
ENDBRANCH   6   9
ENDBRANCH   4   6
ENDBRANCH   3   4
ENDBRANCH   2   3
ENDBRANCH   1   2
BRANCH   1  25
ATOM     25  O   UNL     1      -1.746  -1.946   3.678  1.00  0.00    -0.374 OA
BRANCH  25  26
ATOM     26  C   UNL     1      -1.970  -1.940   2.270  1.00  0.00     0.202 C 
BRANCH  26  27
ATOM     27  C   UNL     1      -2.841  -0.804   1.725  1.00  0.00     0.261 C 
BRANCH  27  28
ATOM     28  O   UNL     1      -2.183   0.469   1.862  1.00  0.00    -0.460 OA
BRANCH  28  29
ATOM     29  C   UNL     1      -2.738   1.283   2.788  1.00  0.00     0.338 C 
ATOM     30  O   UNL     1      -3.783   1.103   3.401  1.00  0.00    -0.246 OA
BRANCH  29  31
ATOM     31  C   UNL     1      -1.818   2.385   3.124  1.00  0.00     0.060 A 
ATOM     32  C   UNL     1      -1.587   2.624   4.485  1.00  0.00     0.016 A 
ATOM     33  C   UNL     1      -1.269   3.223   2.151  1.00  0.00     0.016 A 
ATOM     34  C   UNL     1      -0.880   3.754   4.884  1.00  0.00     0.010 A 
ATOM     35  C   UNL     1      -0.563   4.362   2.554  1.00  0.00     0.010 A 
ATOM     36  C   UNL     1      -0.417   4.660   3.922  1.00  0.00    -0.014 A 
BRANCH  36  37
ATOM     37  C   UNL     1       0.020   6.006   4.364  1.00  0.00     0.031 A 
ATOM     38  C   UNL     1      -0.964   7.144   4.281  1.00  0.00     0.074 A 
ATOM     39  C   UNL     1       1.236   6.204   4.900  1.00  0.00     0.049 A 
ATOM     40  N   UNL     1      -0.816   8.397   4.631  1.00  0.00    -0.248 NA
ATOM     41  C   UNL     1      -2.293   6.825   3.733  1.00  0.00     0.031 C 
ATOM     42  C   UNL     1       2.257   5.176   5.090  1.00  0.00     0.029 A 
ATOM     43  N   UNL     1       1.811   7.348   5.393  1.00  0.00    -0.354 N 
ATOM     44  C   UNL     1      -2.027   9.014   4.340  1.00  0.00     0.074 A 
ATOM     45  C   UNL     1      -2.886   8.009   3.755  1.00  0.00     0.031 C 
ATOM     46  C   UNL     1       3.337   5.737   5.662  1.00  0.00     0.029 A 
ATOM     47  C   UNL     1       3.092   7.165   5.853  1.00  0.00     0.049 A 
ATOM     48  H   UNL     1       1.350   8.217   5.415  1.00  0.00     0.167 HD
ATOM     49  C   UNL     1      -2.398  10.299   4.549  1.00  0.00     0.031 A 
ATOM     50  C   UNL     1       3.969   8.053   6.359  1.00  0.00     0.031 A 
ATOM     51  C   UNL     1      -1.546  11.304   5.124  1.00  0.00     0.049 A 
ATOM     52  C   UNL     1       3.558   9.494   6.514  1.00  0.00     0.074 A 
ATOM     53  C   UNL     1      -1.830  12.634   5.378  1.00  0.00     0.029 A 
ATOM     54  N   UNL     1      -0.239  11.088   5.532  1.00  0.00    -0.354 N 
ATOM     55  N   UNL     1       2.407  10.061   6.246  1.00  0.00    -0.248 NA
ATOM     56  C   UNL     1       4.570  10.414   7.054  1.00  0.00     0.031 C 
ATOM     57  C   UNL     1      -0.677  13.236   5.895  1.00  0.00     0.029 A 
ATOM     58  C   UNL     1       0.304  12.265   6.016  1.00  0.00     0.049 A 
ATOM     59  H   UNL     1       0.233  10.225   5.484  1.00  0.00     0.167 HD
ATOM     60  C   UNL     1       2.545  11.393   6.616  1.00  0.00     0.074 A 
ATOM     61  C   UNL     1       3.887  11.546   7.138  1.00  0.00     0.031 C 
ATOM     62  C   UNL     1       1.641  12.401   6.534  1.00  0.00     0.031 A 
BRANCH  49  63
ATOM     63  C   UNL     1      -3.782  10.695   4.117  1.00  0.00    -0.014 A 
ATOM     64  C   UNL     1      -4.918  10.260   4.818  1.00  0.00     0.009 A 
ATOM     65  C   UNL     1      -3.949  11.533   3.004  1.00  0.00     0.009 A 
ATOM     66  C   UNL     1      -6.196  10.628   4.390  1.00  0.00     0.001 A 
ATOM     67  C   UNL     1      -5.226  11.922   2.595  1.00  0.00     0.001 A 
ATOM     68  C   UNL     1      -6.348  11.462   3.283  1.00  0.00     0.000 A 
ENDBRANCH  49  63
BRANCH  50  69
ATOM     69  C   UNL     1       5.333   7.614   6.750  1.00  0.00    -0.014 A 
ATOM     70  C   UNL     1       5.720   7.587   8.099  1.00  0.00     0.009 A 
ATOM     71  C   UNL     1       6.268   7.247   5.769  1.00  0.00     0.009 A 
ATOM     72  C   UNL     1       7.022   7.228   8.454  1.00  0.00     0.001 A 
ATOM     73  C   UNL     1       7.561   6.862   6.130  1.00  0.00     0.001 A 
ATOM     74  C   UNL     1       7.940   6.862   7.471  1.00  0.00     0.000 A 
ENDBRANCH  50  69
BRANCH  62  75
ATOM     75  C   UNL     1       2.058  13.745   7.064  1.00  0.00    -0.014 A 
ATOM     76  C   UNL     1       2.992  14.542   6.385  1.00  0.00     0.009 A 
ATOM     77  C   UNL     1       1.480  14.232   8.247  1.00  0.00     0.009 A 
ATOM     78  C   UNL     1       3.368  15.784   6.903  1.00  0.00     0.001 A 
ATOM     79  C   UNL     1       1.835  15.485   8.746  1.00  0.00     0.001 A 
ATOM     80  C   UNL     1       2.787  16.255   8.080  1.00  0.00     0.000 A 
ENDBRANCH  62  75
ENDBRANCH  36  37
ENDBRANCH  29  31
ENDBRANCH  28  29
ENDBRANCH  27  28
ENDBRANCH  26  27
ENDBRANCH  25  26
ENDBRANCH   1  25
TORSDOF 18
