REMARK SMILES O=C(OCCOCCOC(=O)c1cc(=O)[nH]c2c(Br)cccc12)c1ccc(-c2c3nc(c(-c4ccccc4)c4ccc([nH]4)c(-c4ccccc4)c4nc(c(-c5ccccc5)c5ccc2[nH]5)C=C4)C=C3)cc1
REMARK SMILES IDX 5 1 4 2 3 3 2 4 1 5 24 6 25 7 71 8 26 9 70 10 27 11 28 12
REMARK SMILES IDX 29 13 64 14 30 15 69 16 63 17 65 18 31 19 68 20 62 21 61 22
REMARK SMILES IDX 32 24 54 25 39 26 53 27 40 28 43 29 52 30 66 31 41 32 42 33
REMARK SMILES IDX 51 35 67 36 44 37 33 38 34 39 38 40 35 41 37 42 36 43 55 44
REMARK SMILES IDX 56 45 60 46 57 47 59 48 58 49 45 50 46 51 50 52 47 53 49 54
REMARK SMILES IDX 48 55 6 56 7 57 8 58 9 59 10 60 11 61 12 62 13 63 23 64
REMARK SMILES IDX 14 65 17 66 22 67 15 68 16 69 18 70 21 71 19 73 20 74
REMARK H PARENT 65 23 43 34 16 72
REMARK Flexibility Score: inf
ROOT
ATOM      1  C   UNL     1       4.005  -0.423  -1.241  1.00  0.00     0.202 C 
ENDROOT
BRANCH   1   2
ATOM      2  C   UNL     1       4.014  -1.410  -0.078  1.00  0.00     0.261 C 
BRANCH   2   3
ATOM      3  O   UNL     1       2.768  -1.456   0.628  1.00  0.00    -0.460 OA
BRANCH   3   4
ATOM      4  C   UNL     1       2.205  -0.537   1.445  1.00  0.00     0.338 C 
ATOM      5  O   UNL     1       1.030  -0.717   1.770  1.00  0.00    -0.246 OA
BRANCH   4   6
ATOM      6  C   UNL     1       2.896   0.679   2.002  1.00  0.00     0.060 A 
ATOM      7  C   UNL     1       2.075   1.582   2.708  1.00  0.00     0.016 A 
ATOM      8  C   UNL     1       4.257   0.991   1.908  1.00  0.00     0.016 A 
ATOM      9  C   UNL     1       2.591   2.749   3.276  1.00  0.00     0.010 A 
ATOM     10  C   UNL     1       4.778   2.168   2.453  1.00  0.00     0.010 A 
ATOM     11  C   UNL     1       3.948   3.046   3.146  1.00  0.00    -0.014 A 
BRANCH  11  12
ATOM     12  C   UNL     1       4.536   4.194   3.856  1.00  0.00     0.031 A 
ATOM     13  C   UNL     1       4.714   5.513   3.177  1.00  0.00     0.074 A 
ATOM     14  C   UNL     1       4.932   4.000   5.126  1.00  0.00     0.049 A 
ATOM     15  N   UNL     1       5.058   6.659   3.703  1.00  0.00    -0.248 NA
ATOM     16  C   UNL     1       4.484   5.556   1.725  1.00  0.00     0.031 C 
ATOM     17  C   UNL     1       4.848   2.722   5.840  1.00  0.00     0.029 A 
ATOM     18  N   UNL     1       5.471   4.862   6.041  1.00  0.00    -0.354 N 
ATOM     19  C   UNL     1       5.056   7.569   2.655  1.00  0.00     0.074 A 
ATOM     20  C   UNL     1       4.726   6.833   1.453  1.00  0.00     0.031 C 
ATOM     21  C   UNL     1       5.296   2.892   7.092  1.00  0.00     0.029 A 
ATOM     22  C   UNL     1       5.689   4.286   7.268  1.00  0.00     0.049 A 
ATOM     23  H   UNL     1       5.682   5.803   5.839  1.00  0.00     0.167 HD
ATOM     24  C   UNL     1       5.297   8.899   2.712  1.00  0.00     0.031 A 
ATOM     25  C   UNL     1       6.116   4.833   8.420  1.00  0.00     0.031 A 
ATOM     26  C   UNL     1       5.662   9.590   3.923  1.00  0.00     0.049 A 
ATOM     27  C   UNL     1       6.351   6.314   8.462  1.00  0.00     0.074 A 
ATOM     28  C   UNL     1       5.889  10.942   4.109  1.00  0.00     0.029 A 
ATOM     29  N   UNL     1       5.863   8.976   5.151  1.00  0.00    -0.354 N 
ATOM     30  N   UNL     1       6.236   7.190   7.492  1.00  0.00    -0.248 NA
ATOM     31  C   UNL     1       6.729   6.890   9.758  1.00  0.00     0.031 C 
ATOM     32  C   UNL     1       6.281  11.138   5.436  1.00  0.00     0.029 A 
ATOM     33  C   UNL     1       6.232   9.919   6.094  1.00  0.00     0.049 A 
ATOM     34  H   UNL     1       5.760   8.012   5.325  1.00  0.00     0.167 HD
ATOM     35  C   UNL     1       6.491   8.426   8.067  1.00  0.00     0.074 A 
ATOM     36  C   UNL     1       6.761   8.185   9.471  1.00  0.00     0.031 C 
ATOM     37  C   UNL     1       6.493   9.650   7.486  1.00  0.00     0.031 A 
BRANCH  24  38
ATOM     38  C   UNL     1       5.162   9.708   1.452  1.00  0.00    -0.014 A 
ATOM     39  C   UNL     1       6.290  10.321   0.883  1.00  0.00     0.009 A 
ATOM     40  C   UNL     1       3.899   9.966   0.895  1.00  0.00     0.009 A 
ATOM     41  C   UNL     1       6.155  11.190  -0.203  1.00  0.00     0.001 A 
ATOM     42  C   UNL     1       3.769  10.817  -0.205  1.00  0.00     0.001 A 
ATOM     43  C   UNL     1       4.895  11.437  -0.746  1.00  0.00     0.000 A 
ENDBRANCH  24  38
BRANCH  25  44
ATOM     44  C   UNL     1       6.218   3.978   9.630  1.00  0.00    -0.014 A 
ATOM     45  C   UNL     1       7.215   2.994   9.729  1.00  0.00     0.009 A 
ATOM     46  C   UNL     1       5.258   4.077  10.647  1.00  0.00     0.009 A 
ATOM     47  C   UNL     1       7.234   2.113  10.813  1.00  0.00     0.001 A 
ATOM     48  C   UNL     1       5.296   3.212  11.743  1.00  0.00     0.001 A 
ATOM     49  C   UNL     1       6.277   2.224  11.820  1.00  0.00     0.000 A 
ENDBRANCH  25  44
BRANCH  37  50
ATOM     50  C   UNL     1       6.772  10.833   8.367  1.00  0.00    -0.014 A 
ATOM     51  C   UNL     1       5.742  11.746   8.646  1.00  0.00     0.009 A 
ATOM     52  C   UNL     1       8.065  11.095   8.843  1.00  0.00     0.009 A 
ATOM     53  C   UNL     1       6.003  12.904   9.377  1.00  0.00     0.001 A 
ATOM     54  C   UNL     1       8.317  12.241   9.599  1.00  0.00     0.001 A 
ATOM     55  C   UNL     1       7.288  13.148   9.858  1.00  0.00     0.000 A 
ENDBRANCH  37  50
ENDBRANCH  11  12
ENDBRANCH   4   6
ENDBRANCH   3   4
ENDBRANCH   2   3
ENDBRANCH   1   2
BRANCH   1  56
ATOM     56  O   UNL     1       3.539   0.874  -0.889  1.00  0.00    -0.374 OA
BRANCH  56  57
ATOM     57  C   UNL     1       2.500   1.373  -1.737  1.00  0.00     0.202 C 
BRANCH  57  58
ATOM     58  C   UNL     1       3.035   2.012  -3.024  1.00  0.00     0.261 C 
BRANCH  58  59
ATOM     59  O   UNL     1       3.583   1.006  -3.895  1.00  0.00    -0.460 OA
BRANCH  59  60
ATOM     60  C   UNL     1       4.938   0.963  -4.021  1.00  0.00     0.339 C 
ATOM     61  O   UNL     1       5.735   1.760  -3.554  1.00  0.00    -0.246 OA
BRANCH  60  62
ATOM     62  C   UNL     1       5.312  -0.327  -4.661  1.00  0.00     0.074 A 
ATOM     63  C   UNL     1       4.646  -0.654  -5.780  1.00  0.00     0.088 A 
ATOM     64  C   UNL     1       6.260  -1.288  -4.054  1.00  0.00     0.014 A 
ATOM     65  C   UNL     1       4.795  -1.985  -6.398  1.00  0.00     0.249 A 
ATOM     66  C   UNL     1       6.298  -2.596  -4.566  1.00  0.00     0.063 A 
ATOM     67  C   UNL     1       7.071  -0.983  -2.950  1.00  0.00     0.011 A 
ATOM     68  O   UNL     1       4.211  -2.259  -7.439  1.00  0.00    -0.270 OA
ATOM     69  N   UNL     1       5.566  -2.888  -5.728  1.00  0.00    -0.321 N 
ATOM     70  C   UNL     1       7.061  -3.588  -3.933  1.00  0.00     0.042 A 
ATOM     71  C   UNL     1       7.824  -1.974  -2.314  1.00  0.00     0.002 A 
ATOM     72  H   UNL     1       5.612  -3.806  -6.082  1.00  0.00     0.170 HD
ATOM     73  Br  UNL     1       7.094  -5.374  -4.572  1.00  0.00    -0.049 Br
ATOM     74  C   UNL     1       7.806  -3.281  -2.795  1.00  0.00     0.018 A 
ENDBRANCH  60  62
ENDBRANCH  59  60
ENDBRANCH  58  59
ENDBRANCH  57  58
ENDBRANCH  56  57
ENDBRANCH   1  56
TORSDOF 14
