REMARK SMILES CC(=O)N[C@@H](C)C(=O)N1CCC[C@H]1C(=O)OCCOCCOC(=O)c1ccc(-c2c3nc(c(-c4ccccc4)c4ccc([nH]4)c(-c4ccccc4)c4nc(c(-c5ccccc5)c5ccc2[nH]5)C=C4)C=C3)cc1
REMARK SMILES IDX 18 1 17 2 16 3 14 4 15 5 13 6 9 7 10 8 11 9 12 10 7 11 8 12
REMARK SMILES IDX 5 13 6 14 4 15 1 16 2 17 3 18 19 20 20 21 21 22 22 23 23 24
REMARK SMILES IDX 24 25 25 26 26 27 72 28 27 29 71 30 28 31 29 32 30 33 65 34
REMARK SMILES IDX 31 35 70 36 64 37 66 38 32 39 69 40 63 41 62 42 33 44 55 45
REMARK SMILES IDX 40 46 54 47 41 48 44 49 53 50 67 51 42 52 43 53 52 55 68 56
REMARK SMILES IDX 45 57 34 58 35 59 39 60 36 61 38 62 37 63 56 64 57 65 61 66
REMARK SMILES IDX 58 67 60 68 59 69 46 70 47 71 51 72 48 73 50 74 49 75
REMARK H PARENT 4 19 66 43 44 54
REMARK Flexibility Score: inf
ROOT
ATOM      1  C   UNL     1      -2.775   7.865  -0.077  1.00  0.00     0.202 C 
ENDROOT
BRANCH   1   2
ATOM      2  C   UNL     1      -1.315   8.321  -0.092  1.00  0.00     0.261 C 
BRANCH   2   3
ATOM      3  O   UNL     1      -0.647   7.761  -1.234  1.00  0.00    -0.462 OA
BRANCH   3   4
ATOM      4  C   UNL     1       0.548   7.156  -0.984  1.00  0.00     0.328 C 
ATOM      5  O   UNL     1       1.158   7.282   0.070  1.00  0.00    -0.250 OA
BRANCH   4   6
ATOM      6  C   UNL     1       1.010   6.271  -2.172  1.00  0.00     0.195 C 
ATOM      7  N   UNL     1       0.861   4.793  -2.099  1.00  0.00    -0.327 N 
ATOM      8  C   UNL     1       0.358   4.265  -3.358  1.00  0.00     0.120 C 
ATOM      9  C   UNL     1       0.518   5.398  -4.356  1.00  0.00     0.024 C 
ATOM     10  C   UNL     1       0.324   6.636  -3.502  1.00  0.00     0.039 C 
BRANCH   7  11
ATOM     11  C   UNL     1       1.430   4.082  -1.061  1.00  0.00     0.245 C 
ATOM     12  O   UNL     1       1.853   4.671  -0.062  1.00  0.00    -0.272 OA
BRANCH  11  13
ATOM     13  C   UNL     1       1.795   2.581  -1.200  1.00  0.00     0.168 C 
ATOM     14  C   UNL     1       3.113   2.503  -1.975  1.00  0.00     0.041 C 
BRANCH  13  15
ATOM     15  N   UNL     1       0.817   1.650  -1.758  1.00  0.00    -0.345 N 
ATOM     16  C   UNL     1       1.009  -0.037   0.041  1.00  0.00     0.114 C 
ATOM     17  C   UNL     1       0.466   0.420  -1.284  1.00  0.00     0.217 C 
ATOM     18  O   UNL     1      -0.292  -0.278  -1.955  1.00  0.00    -0.275 OA
ATOM     19  H   UNL     1       0.355   1.947  -2.575  1.00  0.00     0.164 HD
ENDBRANCH  13  15
ENDBRANCH  11  13
ENDBRANCH   7  11
ENDBRANCH   4   6
ENDBRANCH   3   4
ENDBRANCH   2   3
ENDBRANCH   1   2
BRANCH   1  20
ATOM     20  O   UNL     1      -2.987   6.469   0.140  1.00  0.00    -0.374 OA
BRANCH  20  21
ATOM     21  C   UNL     1      -2.699   5.581  -0.939  1.00  0.00     0.202 C 
BRANCH  21  22
ATOM     22  C   UNL     1      -3.765   5.481  -2.037  1.00  0.00     0.261 C 
BRANCH  22  23
ATOM     23  O   UNL     1      -3.967   6.728  -2.727  1.00  0.00    -0.460 OA
BRANCH  23  24
ATOM     24  C   UNL     1      -5.152   7.330  -2.468  1.00  0.00     0.338 C 
ATOM     25  O   UNL     1      -6.075   6.896  -1.791  1.00  0.00    -0.246 OA
BRANCH  24  26
ATOM     26  C   UNL     1      -5.147   8.710  -2.987  1.00  0.00     0.060 A 
ATOM     27  C   UNL     1      -5.460   9.741  -2.092  1.00  0.00     0.016 A 
ATOM     28  C   UNL     1      -4.912   8.988  -4.335  1.00  0.00     0.016 A 
ATOM     29  C   UNL     1      -5.577  11.052  -2.549  1.00  0.00     0.010 A 
ATOM     30  C   UNL     1      -5.040  10.303  -4.794  1.00  0.00     0.010 A 
ATOM     31  C   UNL     1      -5.400  11.336  -3.909  1.00  0.00    -0.014 A 
BRANCH  31  32
ATOM     32  C   UNL     1      -5.708  12.693  -4.424  1.00  0.00     0.031 A 
ATOM     33  C   UNL     1      -7.036  12.945  -5.082  1.00  0.00     0.074 A 
ATOM     34  C   UNL     1      -4.819  13.694  -4.290  1.00  0.00     0.049 A 
ATOM     35  N   UNL     1      -7.495  14.044  -5.625  1.00  0.00    -0.248 NA
ATOM     36  C   UNL     1      -7.972  11.810  -5.135  1.00  0.00     0.031 C 
ATOM     37  C   UNL     1      -3.518  13.589  -3.630  1.00  0.00     0.029 A 
ATOM     38  N   UNL     1      -4.881  14.999  -4.708  1.00  0.00    -0.354 N 
ATOM     39  C   UNL     1      -8.764  13.731  -6.096  1.00  0.00     0.074 A 
ATOM     40  C   UNL     1      -8.997  12.336  -5.791  1.00  0.00     0.031 C 
ATOM     41  C   UNL     1      -2.902  14.783  -3.691  1.00  0.00     0.029 A 
ATOM     42  C   UNL     1      -3.748  15.722  -4.423  1.00  0.00     0.049 A 
ATOM     43  H   UNL     1      -5.663  15.381  -5.169  1.00  0.00     0.167 HD
ATOM     44  C   UNL     1      -9.656  14.534  -6.723  1.00  0.00     0.031 A 
ATOM     45  C   UNL     1      -3.424  16.991  -4.737  1.00  0.00     0.031 A 
ATOM     46  C   UNL     1      -9.426  15.920  -7.026  1.00  0.00     0.049 A 
ATOM     47  C   UNL     1      -4.402  17.834  -5.511  1.00  0.00     0.074 A 
ATOM     48  C   UNL     1     -10.288  16.825  -7.622  1.00  0.00     0.029 A 
ATOM     49  N   UNL     1      -8.247  16.599  -6.769  1.00  0.00    -0.354 N 
ATOM     50  N   UNL     1      -5.614  17.538  -5.912  1.00  0.00    -0.248 NA
ATOM     51  C   UNL     1      -3.962  19.189  -5.878  1.00  0.00     0.031 C 
ATOM     52  C   UNL     1      -9.607  18.037  -7.780  1.00  0.00     0.029 A 
ATOM     53  C   UNL     1      -8.342  17.901  -7.231  1.00  0.00     0.049 A 
ATOM     54  H   UNL     1      -7.458  16.214  -6.323  1.00  0.00     0.167 HD
ATOM     55  C   UNL     1      -6.091  18.677  -6.550  1.00  0.00     0.074 A 
ATOM     56  C   UNL     1      -5.043  19.673  -6.473  1.00  0.00     0.031 C 
ATOM     57  C   UNL     1      -7.291  18.880  -7.147  1.00  0.00     0.031 A 
BRANCH  44  58
ATOM     58  C   UNL     1     -10.956  13.922  -7.161  1.00  0.00    -0.014 A 
ATOM     59  C   UNL     1     -11.964  13.605  -6.237  1.00  0.00     0.009 A 
ATOM     60  C   UNL     1     -11.196  13.713  -8.528  1.00  0.00     0.009 A 
ATOM     61  C   UNL     1     -13.177  13.068  -6.673  1.00  0.00     0.001 A 
ATOM     62  C   UNL     1     -12.418  13.199  -8.963  1.00  0.00     0.001 A 
ATOM     63  C   UNL     1     -13.405  12.870  -8.035  1.00  0.00     0.000 A 
ENDBRANCH  44  58
BRANCH  45  64
ATOM     64  C   UNL     1      -2.101  17.546  -4.348  1.00  0.00    -0.014 A 
ATOM     65  C   UNL     1      -2.008  18.563  -3.386  1.00  0.00     0.009 A 
ATOM     66  C   UNL     1      -0.927  17.088  -4.968  1.00  0.00     0.009 A 
ATOM     67  C   UNL     1      -0.770  19.130  -3.073  1.00  0.00     0.001 A 
ATOM     68  C   UNL     1       0.312  17.637  -4.632  1.00  0.00     0.001 A 
ATOM     69  C   UNL     1       0.389  18.664  -3.693  1.00  0.00     0.000 A 
ENDBRANCH  45  64
BRANCH  57  70
ATOM     70  C   UNL     1      -7.548  20.238  -7.736  1.00  0.00    -0.014 A 
ATOM     71  C   UNL     1      -6.925  20.643  -8.927  1.00  0.00     0.009 A 
ATOM     72  C   UNL     1      -8.460  21.105  -7.114  1.00  0.00     0.009 A 
ATOM     73  C   UNL     1      -7.191  21.903  -9.467  1.00  0.00     0.001 A 
ATOM     74  C   UNL     1      -8.745  22.352  -7.672  1.00  0.00     0.001 A 
ATOM     75  C   UNL     1      -8.104  22.753  -8.843  1.00  0.00     0.000 A 
ENDBRANCH  57  70
ENDBRANCH  31  32
ENDBRANCH  24  26
ENDBRANCH  23  24
ENDBRANCH  22  23
ENDBRANCH  21  22
ENDBRANCH  20  21
ENDBRANCH   1  20
TORSDOF 17
