REMARK SMILES CCn1nc(C(=O)OCCOCCOC(=O)c2ccc(-c3c4nc(c(-c5ccccc5)c5ccc([nH]5)c(-c5ccccc5)c5nc(c(-c6ccccc6)c6ccc3[nH]6)C=C5)C=C4)cc2)c2c1CC[C@H]([NH2+]Cc1nn(CC)c3ccccc13)C2
REMARK SMILES IDX 10 1 9 2 8 3 6 4 7 5 5 6 3 7 4 8 66 9 65 10 67 11 83 12
REMARK SMILES IDX 68 13 69 14 2 15 1 16 70 17 71 20 72 21 73 22 82 23 74 24
REMARK SMILES IDX 77 25 81 26 78 27 80 28 79 29 75 30 76 31 11 32 12 33 13 34
REMARK SMILES IDX 14 35 15 36 16 37 17 38 18 39 64 40 19 41 63 42 20 43 21 44
REMARK SMILES IDX 22 45 57 46 23 47 62 48 56 49 58 50 24 51 61 52 55 53 54 54
REMARK SMILES IDX 25 56 47 57 32 58 46 59 33 60 36 61 45 62 59 63 34 64 35 65
REMARK SMILES IDX 44 67 60 68 37 69 26 70 27 71 31 72 28 73 30 74 29 75 48 76
REMARK SMILES IDX 49 77 53 78 50 79 52 80 51 81 38 82 39 83 43 84 40 85 42 86
REMARK SMILES IDX 41 87
REMARK H PARENT 70 18 70 19 58 55 36 66
REMARK Flexibility Score: inf
ROOT
ATOM      1  C   UNL     1       1.015   7.884   1.690  1.00  0.00     0.202 C 
ENDROOT
BRANCH   1   2
ATOM      2  C   UNL     1       0.110   6.817   2.291  1.00  0.00     0.261 C 
BRANCH   2   3
ATOM      3  O   UNL     1       0.793   5.568   2.561  1.00  0.00    -0.458 OA
BRANCH   3   4
ATOM      4  C   UNL     1       0.114   4.440   2.155  1.00  0.00     0.359 C 
ATOM      5  O   UNL     1      -0.989   4.491   1.622  1.00  0.00    -0.244 OA
BRANCH   4   6
ATOM      6  C   UNL     1       0.825   3.163   2.386  1.00  0.00     0.174 A 
ATOM      7  N   UNL     1       1.183   1.055   2.183  1.00  0.00    -0.269 N 
ATOM      8  N   UNL     1       0.516   2.088   1.638  1.00  0.00    -0.165 NA
ATOM      9  C   UNL     1       1.966   1.427   3.235  1.00  0.00     0.043 A 
ATOM     10  C   UNL     1       1.767   2.781   3.381  1.00  0.00     0.014 A 
ATOM     11  C   UNL     1       2.779   0.567   4.137  1.00  0.00     0.062 C 
ATOM     12  C   UNL     1       2.247   3.521   4.560  1.00  0.00     0.105 C 
ATOM     13  C   UNL     1       3.038   1.275   5.491  1.00  0.00     0.072 C 
ATOM     14  C   UNL     1       3.339   2.805   5.391  1.00  0.00     0.187 C 
BRANCH   7  15
ATOM     15  C   UNL     1       0.895  -0.272   1.670  1.00  0.00     0.141 C 
ATOM     16  C   UNL     1       1.161  -0.376   0.177  1.00  0.00     0.029 C 
ENDBRANCH   7  15
BRANCH  14  17
ATOM     17  N   UNL     1       3.457   3.323   6.783  1.00  0.00    -0.338 N 
ATOM     18  H   UNL     1       4.199   2.798   7.245  1.00  0.00     0.346 HD
ATOM     19  H   UNL     1       2.530   3.204   7.191  1.00  0.00     0.346 HD
BRANCH  17  20
ATOM     20  C   UNL     1       3.765   4.765   6.938  1.00  0.00     0.320 C 
BRANCH  20  21
ATOM     21  C   UNL     1       2.560   5.676   6.805  1.00  0.00     0.124 A 
ATOM     22  N   UNL     1       1.315   5.196   6.643  1.00  0.00    -0.171 NA
ATOM     23  C   UNL     1       2.522   7.098   6.826  1.00  0.00     0.029 A 
ATOM     24  N   UNL     1       0.602   6.251   6.198  1.00  0.00    -0.265 N 
ATOM     25  C   UNL     1       1.336   7.414   6.167  1.00  0.00     0.069 A 
ATOM     26  C   UNL     1       3.338   8.148   7.281  1.00  0.00     0.012 A 
ATOM     27  C   UNL     1       1.029   8.707   5.732  1.00  0.00     0.028 A 
ATOM     28  C   UNL     1       2.938   9.467   7.022  1.00  0.00     0.001 A 
ATOM     29  C   UNL     1       1.844   9.737   6.200  1.00  0.00     0.002 A 
BRANCH  24  30
ATOM     30  C   UNL     1      -0.849   6.183   6.232  1.00  0.00     0.141 C 
ATOM     31  C   UNL     1      -1.521   5.362   5.148  1.00  0.00     0.029 C 
ENDBRANCH  24  30
ENDBRANCH  20  21
ENDBRANCH  17  20
ENDBRANCH  14  17
ENDBRANCH   4   6
ENDBRANCH   3   4
ENDBRANCH   2   3
ENDBRANCH   1   2
BRANCH   1  32
ATOM     32  O   UNL     1       1.343   7.744   0.308  1.00  0.00    -0.374 OA
BRANCH  32  33
ATOM     33  C   UNL     1       1.760   6.470  -0.169  1.00  0.00     0.202 C 
BRANCH  33  34
ATOM     34  C   UNL     1       3.157   6.000   0.224  1.00  0.00     0.261 C 
BRANCH  34  35
ATOM     35  O   UNL     1       3.487   6.272   1.579  1.00  0.00    -0.460 OA
BRANCH  35  36
ATOM     36  C   UNL     1       4.050   7.495   1.754  1.00  0.00     0.338 C 
ATOM     37  O   UNL     1       4.111   8.396   0.938  1.00  0.00    -0.246 OA
BRANCH  36  38
ATOM     38  C   UNL     1       4.780   7.519   3.043  1.00  0.00     0.060 A 
ATOM     39  C   UNL     1       5.564   8.667   3.181  1.00  0.00     0.016 A 
ATOM     40  C   UNL     1       5.217   6.268   3.499  1.00  0.00     0.016 A 
ATOM     41  C   UNL     1       6.919   8.482   3.305  1.00  0.00     0.010 A 
ATOM     42  C   UNL     1       6.571   6.077   3.602  1.00  0.00     0.010 A 
ATOM     43  C   UNL     1       7.399   7.171   3.373  1.00  0.00    -0.014 A 
BRANCH  43  44
ATOM     44  C   UNL     1       8.811   6.972   3.158  1.00  0.00     0.031 A 
ATOM     45  C   UNL     1       9.630   7.205   4.356  1.00  0.00     0.074 A 
ATOM     46  C   UNL     1       9.313   6.520   1.996  1.00  0.00     0.049 A 
ATOM     47  N   UNL     1      10.472   8.158   4.565  1.00  0.00    -0.248 NA
ATOM     48  C   UNL     1       9.357   6.352   5.521  1.00  0.00     0.031 C 
ATOM     49  C   UNL     1       8.605   5.941   0.852  1.00  0.00     0.029 A 
ATOM     50  N   UNL     1      10.620   6.367   1.665  1.00  0.00    -0.354 N 
ATOM     51  C   UNL     1      10.958   7.942   5.846  1.00  0.00     0.074 A 
ATOM     52  C   UNL     1      10.111   6.942   6.445  1.00  0.00     0.031 C 
ATOM     53  C   UNL     1       9.498   5.276   0.081  1.00  0.00     0.029 A 
ATOM     54  C   UNL     1      10.835   5.492   0.616  1.00  0.00     0.049 A 
ATOM     55  H   UNL     1      11.349   6.838   2.129  1.00  0.00     0.167 HD
ATOM     56  C   UNL     1      12.162   8.425   6.250  1.00  0.00     0.031 A 
ATOM     57  C   UNL     1      12.017   4.904   0.310  1.00  0.00     0.031 A 
ATOM     58  C   UNL     1      12.671   9.433   5.359  1.00  0.00     0.049 A 
ATOM     59  C   UNL     1      13.097   5.686   0.971  1.00  0.00     0.074 A 
ATOM     60  C   UNL     1      12.229  10.674   4.942  1.00  0.00     0.029 A 
ATOM     61  N   UNL     1      13.630   9.051   4.449  1.00  0.00    -0.354 N 
ATOM     62  N   UNL     1      13.415   6.903   0.630  1.00  0.00    -0.248 NA
ATOM     63  C   UNL     1      13.510   5.293   2.312  1.00  0.00     0.031 C 
ATOM     64  C   UNL     1      12.587  10.749   3.564  1.00  0.00     0.029 A 
ATOM     65  C   UNL     1      13.261   9.571   3.234  1.00  0.00     0.049 A 
ATOM     66  H   UNL     1      14.429   8.506   4.634  1.00  0.00     0.167 HD
ATOM     67  C   UNL     1      13.675   7.558   1.828  1.00  0.00     0.074 A 
ATOM     68  C   UNL     1      13.815   6.493   2.819  1.00  0.00     0.031 C 
ATOM     69  C   UNL     1      13.465   8.902   1.967  1.00  0.00     0.031 A 
BRANCH  56  70
ATOM     70  C   UNL     1      13.036   7.705   7.239  1.00  0.00    -0.014 A 
ATOM     71  C   UNL     1      14.210   8.331   7.683  1.00  0.00     0.009 A 
ATOM     72  C   UNL     1      12.884   6.339   7.550  1.00  0.00     0.009 A 
ATOM     73  C   UNL     1      15.204   7.609   8.354  1.00  0.00     0.001 A 
ATOM     74  C   UNL     1      13.850   5.628   8.262  1.00  0.00     0.001 A 
ATOM     75  C   UNL     1      15.024   6.258   8.640  1.00  0.00     0.000 A 
ENDBRANCH  56  70
BRANCH  57  76
ATOM     76  C   UNL     1      12.208   3.527  -0.198  1.00  0.00    -0.014 A 
ATOM     77  C   UNL     1      13.425   3.119  -0.762  1.00  0.00     0.009 A 
ATOM     78  C   UNL     1      11.254   2.529   0.085  1.00  0.00     0.009 A 
ATOM     79  C   UNL     1      13.678   1.763  -1.020  1.00  0.00     0.001 A 
ATOM     80  C   UNL     1      11.502   1.179  -0.177  1.00  0.00     0.001 A 
ATOM     81  C   UNL     1      12.721   0.794  -0.721  1.00  0.00     0.000 A 
ENDBRANCH  57  76
BRANCH  69  82
ATOM     82  C   UNL     1      13.121   9.698   0.731  1.00  0.00    -0.014 A 
ATOM     83  C   UNL     1      11.972   9.440  -0.038  1.00  0.00     0.009 A 
ATOM     84  C   UNL     1      13.871  10.847   0.437  1.00  0.00     0.009 A 
ATOM     85  C   UNL     1      11.602  10.288  -1.086  1.00  0.00     0.001 A 
ATOM     86  C   UNL     1      13.490  11.706  -0.597  1.00  0.00     0.001 A 
ATOM     87  C   UNL     1      12.359  11.424  -1.361  1.00  0.00     0.000 A 
ENDBRANCH  69  82
ENDBRANCH  43  44
ENDBRANCH  36  38
ENDBRANCH  35  36
ENDBRANCH  34  35
ENDBRANCH  33  34
ENDBRANCH  32  33
ENDBRANCH   1  32
TORSDOF 19
