REMARK SMILES NC(=O)CC[C@@H](C(=O)OCCOCCOC(=O)c1ccc(-c2c3nc(c(-c4ccccc4)c4ccc([nH]4)c(-c4ccccc4)c4nc(c(-c5ccccc5)c5ccc2[nH]5)C=C4)C=C3)cc1)N1C(=O)/C(=C/c2ccc(C=O)cc2)SC1=S
REMARK SMILES IDX 11 1 10 2 9 3 7 4 8 5 6 6 5 7 4 8 2 9 1 10 3 13 66 14 67 15
REMARK SMILES IDX 80 16 68 17 69 18 79 19 81 20 70 21 71 22 72 23 78 24 73 25
REMARK SMILES IDX 77 26 74 27 75 28 76 29 12 30 13 31 14 32 15 33 16 34 17 35
REMARK SMILES IDX 18 36 19 37 65 38 20 39 64 40 21 41 22 42 23 43 58 44 24 45
REMARK SMILES IDX 63 46 57 47 59 48 25 49 62 50 56 51 55 52 26 54 48 55 33 56
REMARK SMILES IDX 47 57 34 58 37 59 46 60 60 61 35 62 36 63 45 65 61 66 38 67
REMARK SMILES IDX 27 68 28 69 32 70 29 71 31 72 30 73 49 74 50 75 54 76 51 77
REMARK SMILES IDX 53 78 52 79 39 80 40 81 44 82 41 83 43 84 42 85
REMARK H PARENT 1 11 1 12 59 53 37 64
REMARK Flexibility Score: inf
ROOT
ATOM      1  C   UNL     1       4.848  -2.759   1.864  1.00  0.00     0.202 C 
ENDROOT
BRANCH   1   2
ATOM      2  C   UNL     1       4.477  -1.308   1.541  1.00  0.00     0.261 C 
BRANCH   2   3
ATOM      3  O   UNL     1       3.448  -1.244   0.529  1.00  0.00    -0.462 OA
BRANCH   3   4
ATOM      4  C   UNL     1       3.868  -0.921  -0.723  1.00  0.00     0.329 C 
ATOM      5  O   UNL     1       5.014  -0.576  -0.988  1.00  0.00    -0.250 OA
BRANCH   4   6
ATOM      6  C   UNL     1       2.732  -1.018  -1.769  1.00  0.00     0.202 C 
BRANCH   6   7
ATOM      7  C   UNL     1       1.732  -2.182  -1.589  1.00  0.00     0.047 C 
BRANCH   7   8
ATOM      8  C   UNL     1       0.794  -2.172  -0.379  1.00  0.00     0.102 C 
BRANCH   8   9
ATOM      9  C   UNL     1      -0.035  -0.922  -0.284  1.00  0.00     0.217 C 
ATOM     10  N   UNL     1       0.500   0.063   0.487  1.00  0.00    -0.370 N 
ATOM     11  H   UNL     1       0.020   0.914   0.601  1.00  0.00     0.159 HD
ATOM     12  H   UNL     1       1.367  -0.077   0.931  1.00  0.00     0.159 HD
ATOM     13  O   UNL     1      -1.092  -0.771  -0.883  1.00  0.00    -0.275 OA
ENDBRANCH   8   9
ENDBRANCH   7   8
ENDBRANCH   6   7
BRANCH   6  14
ATOM     14  N   UNL     1       3.454  -0.996  -3.085  1.00  0.00    -0.278 N 
ATOM     15  C   UNL     1       3.841   0.268  -3.537  1.00  0.00     0.266 C 
ATOM     16  C   UNL     1       3.979  -2.060  -3.798  1.00  0.00     0.149 C 
ATOM     17  O   UNL     1       3.492   1.337  -3.053  1.00  0.00    -0.268 OA
ATOM     18  C   UNL     1       4.756   0.161  -4.702  1.00  0.00     0.081 C 
ATOM     19  S   UNL     1       5.077  -1.486  -5.040  1.00  0.00    -0.054 SA
ATOM     20  S   UNL     1       3.716  -3.701  -3.684  1.00  0.00    -0.052 S 
ATOM     21  C   UNL     1       5.237   1.223  -5.366  1.00  0.00     0.029 C 
BRANCH  21  22
ATOM     22  C   UNL     1       6.085   1.133  -6.563  1.00  0.00    -0.024 A 
ATOM     23  C   UNL     1       7.370   1.686  -6.566  1.00  0.00     0.009 A 
ATOM     24  C   UNL     1       5.617   0.477  -7.713  1.00  0.00     0.009 A 
ATOM     25  C   UNL     1       8.188   1.555  -7.694  1.00  0.00     0.012 A 
ATOM     26  C   UNL     1       6.435   0.330  -8.834  1.00  0.00     0.012 A 
ATOM     27  C   UNL     1       7.721   0.869  -8.819  1.00  0.00     0.014 A 
BRANCH  27  28
ATOM     28  C   UNL     1       8.579   0.701 -10.008  1.00  0.00     0.260 C 
ATOM     29  O   UNL     1       9.704   1.179 -10.074  1.00  0.00    -0.298 OA
ENDBRANCH  27  28
ENDBRANCH  21  22
ENDBRANCH   6  14
ENDBRANCH   4   6
ENDBRANCH   3   4
ENDBRANCH   2   3
ENDBRANCH   1   2
BRANCH   1  30
ATOM     30  O   UNL     1       5.684  -3.408   0.905  1.00  0.00    -0.374 OA
BRANCH  30  31
ATOM     31  C   UNL     1       5.045  -3.946  -0.250  1.00  0.00     0.202 C 
BRANCH  31  32
ATOM     32  C   UNL     1       4.465  -5.355  -0.101  1.00  0.00     0.261 C 
BRANCH  32  33
ATOM     33  O   UNL     1       3.413  -5.376   0.877  1.00  0.00    -0.460 OA
BRANCH  33  34
ATOM     34  C   UNL     1       3.761  -5.961   2.045  1.00  0.00     0.338 C 
ATOM     35  O   UNL     1       4.802  -6.553   2.297  1.00  0.00    -0.246 OA
BRANCH  34  36
ATOM     36  C   UNL     1       2.768  -5.648   3.086  1.00  0.00     0.060 A 
ATOM     37  C   UNL     1       3.267  -5.252   4.333  1.00  0.00     0.016 A 
ATOM     38  C   UNL     1       1.393  -5.799   2.884  1.00  0.00     0.016 A 
ATOM     39  C   UNL     1       2.401  -5.082   5.406  1.00  0.00     0.010 A 
ATOM     40  C   UNL     1       0.523  -5.630   3.965  1.00  0.00     0.010 A 
ATOM     41  C   UNL     1       1.030  -5.318   5.239  1.00  0.00    -0.014 A 
BRANCH  41  42
ATOM     42  C   UNL     1       0.169  -5.397   6.441  1.00  0.00     0.031 A 
ATOM     43  C   UNL     1      -0.167  -6.750   7.007  1.00  0.00     0.074 A 
ATOM     44  C   UNL     1      -0.251  -4.280   7.058  1.00  0.00     0.049 A 
ATOM     45  N   UNL     1      -0.869  -7.052   8.069  1.00  0.00    -0.248 NA
ATOM     46  C   UNL     1       0.363  -7.917   6.282  1.00  0.00     0.031 C 
ATOM     47  C   UNL     1       0.049  -2.914   6.632  1.00  0.00     0.029 A 
ATOM     48  N   UNL     1      -1.017  -4.122   8.185  1.00  0.00    -0.354 N 
ATOM     49  C   UNL     1      -0.873  -8.440   8.135  1.00  0.00     0.074 A 
ATOM     50  C   UNL     1      -0.127  -8.922   6.993  1.00  0.00     0.031 C 
ATOM     51  C   UNL     1      -0.524  -2.054   7.492  1.00  0.00     0.029 A 
ATOM     52  C   UNL     1      -1.252  -2.810   8.509  1.00  0.00     0.049 A 
ATOM     53  H   UNL     1      -1.364  -4.879   8.711  1.00  0.00     0.167 HD
ATOM     54  C   UNL     1      -1.441  -9.242   9.066  1.00  0.00     0.031 A 
ATOM     55  C   UNL     1      -1.982  -2.280   9.509  1.00  0.00     0.031 A 
ATOM     56  C   UNL     1      -2.187  -8.763  10.198  1.00  0.00     0.049 A 
ATOM     57  C   UNL     1      -2.660  -3.194  10.493  1.00  0.00     0.074 A 
ATOM     58  C   UNL     1      -2.784  -9.495  11.209  1.00  0.00     0.029 A 
ATOM     59  N   UNL     1      -2.446  -7.428  10.462  1.00  0.00    -0.354 N 
ATOM     60  N   UNL     1      -2.631  -4.503  10.560  1.00  0.00    -0.248 NA
ATOM     61  C   UNL     1      -3.464  -2.554  11.543  1.00  0.00     0.031 C 
ATOM     62  C   UNL     1      -3.450  -8.604  12.056  1.00  0.00     0.029 A 
ATOM     63  C   UNL     1      -3.220  -7.315  11.604  1.00  0.00     0.049 A 
ATOM     64  H   UNL     1      -2.127  -6.671   9.918  1.00  0.00     0.167 HD
ATOM     65  C   UNL     1      -3.391  -4.842  11.672  1.00  0.00     0.074 A 
ATOM     66  C   UNL     1      -3.855  -3.601  12.257  1.00  0.00     0.031 C 
ATOM     67  C   UNL     1      -3.676  -6.071  12.168  1.00  0.00     0.031 A 
BRANCH  54  68
ATOM     68  C   UNL     1      -1.306 -10.726   8.875  1.00  0.00    -0.014 A 
ATOM     69  C   UNL     1      -0.084 -11.383   9.088  1.00  0.00     0.009 A 
ATOM     70  C   UNL     1      -2.429 -11.482   8.507  1.00  0.00     0.009 A 
ATOM     71  C   UNL     1       0.016 -12.764   8.905  1.00  0.00     0.001 A 
ATOM     72  C   UNL     1      -2.332 -12.866   8.350  1.00  0.00     0.001 A 
ATOM     73  C   UNL     1      -1.108 -13.504   8.541  1.00  0.00     0.000 A 
ENDBRANCH  54  68
BRANCH  55  74
ATOM     74  C   UNL     1      -2.118  -0.805   9.625  1.00  0.00    -0.014 A 
ATOM     75  C   UNL     1      -1.499  -0.108  10.673  1.00  0.00     0.009 A 
ATOM     76  C   UNL     1      -2.878  -0.087   8.688  1.00  0.00     0.009 A 
ATOM     77  C   UNL     1      -1.656   1.275  10.791  1.00  0.00     0.001 A 
ATOM     78  C   UNL     1      -3.011   1.298   8.793  1.00  0.00     0.001 A 
ATOM     79  C   UNL     1      -2.406   1.977   9.849  1.00  0.00     0.000 A 
ENDBRANCH  55  74
BRANCH  67  80
ATOM     80  C   UNL     1      -4.503  -6.133  13.421  1.00  0.00    -0.014 A 
ATOM     81  C   UNL     1      -5.878  -5.853  13.401  1.00  0.00     0.009 A 
ATOM     82  C   UNL     1      -3.904  -6.519  14.630  1.00  0.00     0.009 A 
ATOM     83  C   UNL     1      -6.630  -5.928  14.575  1.00  0.00     0.001 A 
ATOM     84  C   UNL     1      -4.664  -6.621  15.796  1.00  0.00     0.001 A 
ATOM     85  C   UNL     1      -6.024  -6.317  15.770  1.00  0.00     0.000 A 
ENDBRANCH  67  80
ENDBRANCH  41  42
ENDBRANCH  34  36
ENDBRANCH  33  34
ENDBRANCH  32  33
ENDBRANCH  31  32
ENDBRANCH  30  31
ENDBRANCH   1  30
TORSDOF 20
