REMARK SMILES CC(C)[C@H](C(=O)OCCOCCOC(=O)c1ccc(-c2c3nc(c(-c4ccccc4)c4ccc([nH]4)c(-c4ccccc4)c4nc(c(-c5ccccc5)c5ccc2[nH]5)C=C4)C=C3)cc1)n1ccc2c(cnc3c(-c4ccc(Cl)cc4)cnn32)c1=O
REMARK SMILES IDX 10 1 9 2 8 3 7 4 5 5 6 6 4 7 2 8 1 9 3 10 64 11 65 12 83 13
REMARK SMILES IDX 66 14 68 15 84 16 67 17 69 18 82 19 70 20 71 21 81 22 72 23
REMARK SMILES IDX 80 24 73 25 74 26 79 27 75 28 78 29 76 30 77 31 11 32 12 33
REMARK SMILES IDX 13 34 14 35 15 36 16 37 17 38 63 39 18 40 62 41 19 42 20 43
REMARK SMILES IDX 21 44 56 45 22 46 61 47 55 48 57 49 23 50 60 51 54 52 53 53
REMARK SMILES IDX 24 55 46 56 31 57 45 58 32 59 35 60 44 61 58 62 33 63 34 64
REMARK SMILES IDX 43 66 59 67 36 68 25 69 26 70 30 71 27 72 29 73 28 74 47 75
REMARK SMILES IDX 48 76 52 77 49 78 51 79 50 80 37 81 38 82 42 83 39 84 41 85
REMARK SMILES IDX 40 86
REMARK H PARENT 57 54 35 65
REMARK Flexibility Score: inf
ROOT
ATOM      1  O   UNL     1       2.903  -0.398  -0.985  1.00  0.00    -0.374 OA
ENDROOT
BRANCH   1   2
ATOM      2  C   UNL     1       3.049  -1.627  -0.274  1.00  0.00     0.202 C 
BRANCH   2   3
ATOM      3  C   UNL     1       2.173  -1.811   0.973  1.00  0.00     0.261 C 
BRANCH   3   4
ATOM      4  O   UNL     1       0.792  -2.108   0.657  1.00  0.00    -0.462 OA
BRANCH   4   5
ATOM      5  C   UNL     1      -0.071  -1.070   0.828  1.00  0.00     0.329 C 
ATOM      6  O   UNL     1       0.285   0.064   1.140  1.00  0.00    -0.250 OA
BRANCH   5   7
ATOM      7  C   UNL     1      -1.528  -1.371   0.424  1.00  0.00     0.202 C 
BRANCH   7   8
ATOM      8  C   UNL     1      -1.927  -0.602  -0.879  1.00  0.00     0.017 C 
ATOM      9  C   UNL     1      -1.924  -1.403  -2.183  1.00  0.00     0.010 C 
ATOM     10  C   UNL     1      -3.298   0.058  -0.704  1.00  0.00     0.010 C 
ENDBRANCH   7   8
BRANCH   7  11
ATOM     11  N   UNL     1      -2.041  -2.756   0.528  1.00  0.00    -0.300 N 
ATOM     12  C   UNL     1      -1.602  -3.777  -0.307  1.00  0.00     0.092 A 
ATOM     13  C   UNL     1      -3.009  -2.998   1.515  1.00  0.00     0.262 A 
ATOM     14  C   UNL     1      -2.114  -5.014  -0.241  1.00  0.00     0.047 A 
ATOM     15  C   UNL     1      -3.387  -4.412   1.714  1.00  0.00     0.084 A 
ATOM     16  O   UNL     1      -3.497  -2.139   2.244  1.00  0.00    -0.269 OA
ATOM     17  C   UNL     1      -2.987  -5.374   0.860  1.00  0.00     0.083 A 
ATOM     18  C   UNL     1      -4.043  -4.869   2.966  1.00  0.00     0.129 A 
ATOM     19  N   UNL     1      -3.111  -6.716   1.272  1.00  0.00    -0.214 N 
ATOM     20  N   UNL     1      -3.982  -6.079   3.437  1.00  0.00    -0.236 NA
ATOM     21  C   UNL     1      -3.272  -6.956   2.656  1.00  0.00     0.163 A 
ATOM     22  N   UNL     1      -2.678  -7.864   0.673  1.00  0.00    -0.174 NA
ATOM     23  C   UNL     1      -2.092  -7.686   2.877  1.00  0.00     0.047 A 
ATOM     24  C   UNL     1      -2.006  -8.452   1.675  1.00  0.00     0.146 A 
BRANCH  23  25
ATOM     25  C   UNL     1      -0.955  -6.935   3.464  1.00  0.00    -0.013 A 
ATOM     26  C   UNL     1      -1.048  -6.355   4.733  1.00  0.00     0.010 A 
ATOM     27  C   UNL     1       0.103  -6.545   2.614  1.00  0.00     0.010 A 
ATOM     28  C   UNL     1      -0.134  -5.367   5.122  1.00  0.00     0.021 A 
ATOM     29  C   UNL     1       1.005  -5.553   2.998  1.00  0.00     0.021 A 
ATOM     30  C   UNL     1       0.874  -4.958   4.247  1.00  0.00     0.041 A 
ATOM     31  Cl  UNL     1       1.932  -3.675   4.685  1.00  0.00    -0.084 Cl
ENDBRANCH  23  25
ENDBRANCH   7  11
ENDBRANCH   5   7
ENDBRANCH   4   5
ENDBRANCH   3   4
ENDBRANCH   2   3
ENDBRANCH   1   2
BRANCH   1  32
ATOM     32  C   UNL     1       1.758  -0.261  -1.821  1.00  0.00     0.202 C 
BRANCH  32  33
ATOM     33  C   UNL     1       1.871  -0.882  -3.214  1.00  0.00     0.261 C 
BRANCH  33  34
ATOM     34  O   UNL     1       1.973  -2.316  -3.130  1.00  0.00    -0.460 OA
BRANCH  34  35
ATOM     35  C   UNL     1       3.167  -2.811  -3.523  1.00  0.00     0.338 C 
ATOM     36  O   UNL     1       4.089  -2.198  -4.048  1.00  0.00    -0.246 OA
BRANCH  35  37
ATOM     37  C   UNL     1       3.314  -4.211  -3.090  1.00  0.00     0.060 A 
ATOM     38  C   UNL     1       4.497  -4.547  -2.420  1.00  0.00     0.016 A 
ATOM     39  C   UNL     1       2.376  -5.193  -3.415  1.00  0.00     0.016 A 
ATOM     40  C   UNL     1       4.787  -5.880  -2.144  1.00  0.00     0.010 A 
ATOM     41  C   UNL     1       2.671  -6.534  -3.143  1.00  0.00     0.010 A 
ATOM     42  C   UNL     1       3.900  -6.884  -2.553  1.00  0.00    -0.014 A 
BRANCH  42  43
ATOM     43  C   UNL     1       4.355  -8.294  -2.535  1.00  0.00     0.031 A 
ATOM     44  C   UNL     1       4.893  -8.898  -3.806  1.00  0.00     0.074 A 
ATOM     45  C   UNL     1       4.352  -9.009  -1.397  1.00  0.00     0.049 A 
ATOM     46  N   UNL     1       5.341 -10.108  -4.024  1.00  0.00    -0.248 NA
ATOM     47  C   UNL     1       4.936  -8.018  -4.986  1.00  0.00     0.031 C 
ATOM     48  C   UNL     1       3.921  -8.520  -0.088  1.00  0.00     0.029 A 
ATOM     49  N   UNL     1       4.736 -10.306  -1.164  1.00  0.00    -0.354 N 
ATOM     50  C   UNL     1       5.715 -10.134  -5.362  1.00  0.00     0.074 A 
ATOM     51  C   UNL     1       5.417  -8.831  -5.914  1.00  0.00     0.031 C 
ATOM     52  C   UNL     1       4.062  -9.508   0.813  1.00  0.00     0.029 A 
ATOM     53  C   UNL     1       4.564 -10.704   0.139  1.00  0.00     0.049 A 
ATOM     54  H   UNL     1       5.099 -10.895  -1.864  1.00  0.00     0.167 HD
ATOM     55  C   UNL     1       6.266 -11.149  -6.070  1.00  0.00     0.031 A 
ATOM     56  C   UNL     1       4.775 -11.903   0.715  1.00  0.00     0.031 A 
ATOM     57  C   UNL     1       6.556 -12.449  -5.530  1.00  0.00     0.049 A 
ATOM     58  C   UNL     1       5.305 -13.042  -0.114  1.00  0.00     0.074 A 
ATOM     59  C   UNL     1       7.107 -13.546  -6.170  1.00  0.00     0.029 A 
ATOM     60  N   UNL     1       6.317 -12.827  -4.219  1.00  0.00    -0.354 N 
ATOM     61  N   UNL     1       5.655 -13.053  -1.378  1.00  0.00    -0.248 NA
ATOM     62  C   UNL     1       5.473 -14.335   0.567  1.00  0.00     0.031 C 
ATOM     63  C   UNL     1       7.160 -14.603  -5.255  1.00  0.00     0.029 A 
ATOM     64  C   UNL     1       6.690 -14.147  -4.034  1.00  0.00     0.049 A 
ATOM     65  H   UNL     1       5.938 -12.244  -3.522  1.00  0.00     0.167 HD
ATOM     66  C   UNL     1       6.112 -14.340  -1.633  1.00  0.00     0.074 A 
ATOM     67  C   UNL     1       6.005 -15.079  -0.393  1.00  0.00     0.031 C 
ATOM     68  C   UNL     1       6.583 -14.864  -2.791  1.00  0.00     0.031 A 
BRANCH  55  69
ATOM     69  C   UNL     1       6.563 -10.899  -7.521  1.00  0.00    -0.014 A 
ATOM     70  C   UNL     1       7.644 -10.095  -7.913  1.00  0.00     0.009 A 
ATOM     71  C   UNL     1       5.771 -11.505  -8.508  1.00  0.00     0.009 A 
ATOM     72  C   UNL     1       7.910  -9.882  -9.267  1.00  0.00     0.001 A 
ATOM     73  C   UNL     1       6.054 -11.310  -9.861  1.00  0.00     0.001 A 
ATOM     74  C   UNL     1       7.118 -10.493 -10.239  1.00  0.00     0.000 A 
ENDBRANCH  55  69
BRANCH  56  75
ATOM     75  C   UNL     1       4.464 -12.103   2.154  1.00  0.00    -0.014 A 
ATOM     76  C   UNL     1       5.491 -12.303   3.089  1.00  0.00     0.009 A 
ATOM     77  C   UNL     1       3.131 -12.127   2.594  1.00  0.00     0.009 A 
ATOM     78  C   UNL     1       5.188 -12.550   4.430  1.00  0.00     0.001 A 
ATOM     79  C   UNL     1       2.833 -12.346   3.940  1.00  0.00     0.001 A 
ATOM     80  C   UNL     1       3.861 -12.567   4.855  1.00  0.00     0.000 A 
ENDBRANCH  56  75
BRANCH  68  81
ATOM     81  C   UNL     1       7.058 -16.288  -2.762  1.00  0.00    -0.014 A 
ATOM     82  C   UNL     1       6.152 -17.358  -2.705  1.00  0.00     0.009 A 
ATOM     83  C   UNL     1       8.433 -16.562  -2.840  1.00  0.00     0.009 A 
ATOM     84  C   UNL     1       6.617 -18.675  -2.697  1.00  0.00     0.001 A 
ATOM     85  C   UNL     1       8.893 -17.879  -2.858  1.00  0.00     0.001 A 
ATOM     86  C   UNL     1       7.985 -18.934  -2.778  1.00  0.00     0.000 A 
ENDBRANCH  68  81
ENDBRANCH  42  43
ENDBRANCH  35  37
ENDBRANCH  34  35
ENDBRANCH  33  34
ENDBRANCH  32  33
ENDBRANCH   1  32
TORSDOF 17
