REMARK SMILES Cc1ccc(C)c(NS(=O)(=O)c2cc(C(=O)OCCOCCOC(=O)c3ccc(-c4c5nc(c(-c6ccccc6)c6ccc([nH]6)c(-c6ccccc6)c6nc(c(-c7ccccc7)c7ccc4[nH]7)C=C6)C=C5)cc3)ccc2Cl)c1
REMARK SMILES IDX 19 1 18 2 17 3 15 4 16 5 14 6 12 7 13 8 76 9 75 10 77 11
REMARK SMILES IDX 74 12 9 13 10 14 11 15 8 16 7 18 1 19 2 20 3 21 78 22 4 23
REMARK SMILES IDX 5 24 6 25 20 26 21 27 22 28 23 29 24 30 25 31 26 32 27 33
REMARK SMILES IDX 73 34 28 35 72 36 29 37 30 38 31 39 66 40 32 41 71 42 65 43
REMARK SMILES IDX 67 44 33 45 70 46 64 47 63 48 34 50 56 51 41 52 55 53 42 54
REMARK SMILES IDX 45 55 54 56 68 57 43 58 44 59 53 61 69 62 46 63 35 64 36 65
REMARK SMILES IDX 40 66 37 67 39 68 38 69 57 70 58 71 62 72 59 73 61 74 60 75
REMARK SMILES IDX 47 76 48 77 52 78 49 79 51 80 50 81
REMARK H PARENT 8 17 67 49 45 60
REMARK Flexibility Score: inf
ROOT
ATOM      1  C   UNL     1      -7.626  -3.312   1.111  1.00  0.00     0.202 C 
ENDROOT
BRANCH   1   2
ATOM      2  C   UNL     1      -7.188  -3.716  -0.308  1.00  0.00     0.261 C 
BRANCH   2   3
ATOM      3  O   UNL     1      -5.808  -3.321  -0.433  1.00  0.00    -0.460 OA
BRANCH   3   4
ATOM      4  C   UNL     1      -5.707  -1.976  -0.543  1.00  0.00     0.338 C 
ATOM      5  O   UNL     1      -6.500  -1.290  -1.161  1.00  0.00    -0.246 OA
BRANCH   4   6
ATOM      6  C   UNL     1      -4.649  -1.415   0.332  1.00  0.00     0.061 A 
ATOM      7  C   UNL     1      -3.367   0.487   1.164  1.00  0.00     0.107 A 
ATOM      8  C   UNL     1      -4.465  -0.025   0.443  1.00  0.00     0.039 A 
ATOM      9  C   UNL     1      -2.617  -0.364   1.968  1.00  0.00     0.061 A 
ATOM     10  C   UNL     1      -2.843  -1.744   1.895  1.00  0.00     0.023 A 
ATOM     11  Cl  UNL     1      -1.399   0.168   3.063  1.00  0.00    -0.083 Cl
ATOM     12  C   UNL     1      -3.817  -2.269   1.049  1.00  0.00     0.017 A 
BRANCH   7  13
ATOM     13  S   UNL     1      -2.875   2.165   0.862  1.00  0.00     0.263 S 
ATOM     14  O   UNL     1      -2.828   2.843   2.141  1.00  0.00    -0.201 OA
ATOM     15  O   UNL     1      -3.736   2.700  -0.173  1.00  0.00    -0.201 OA
BRANCH  13  16
ATOM     16  N   UNL     1      -1.292   2.221   0.227  1.00  0.00    -0.279 N 
ATOM     17  H   UNL     1      -0.911   3.110   0.042  1.00  0.00     0.180 HD
BRANCH  16  18
ATOM     18  C   UNL     1      -0.463   1.072  -0.062  1.00  0.00     0.052 A 
ATOM     19  C   UNL     1       3.261   0.267   0.297  1.00  0.00     0.044 C 
ATOM     20  C   UNL     1       1.791   0.119   0.048  1.00  0.00    -0.049 A 
ATOM     21  C   UNL     1       1.306  -1.090  -0.444  1.00  0.00     0.004 A 
ATOM     22  C   UNL     1       0.893   1.174   0.285  1.00  0.00     0.030 A 
ATOM     23  C   UNL     1      -0.004  -1.169  -0.885  1.00  0.00     0.006 A 
ATOM     24  C   UNL     1      -0.848  -0.050  -0.807  1.00  0.00    -0.027 A 
ATOM     25  C   UNL     1      -2.058  -0.100  -1.672  1.00  0.00     0.046 C 
ENDBRANCH  16  18
ENDBRANCH  13  16
ENDBRANCH   7  13
ENDBRANCH   4   6
ENDBRANCH   3   4
ENDBRANCH   2   3
ENDBRANCH   1   2
BRANCH   1  26
ATOM     26  O   UNL     1      -7.737  -1.894   1.137  1.00  0.00    -0.374 OA
BRANCH  26  27
ATOM     27  C   UNL     1      -7.530  -1.200   2.349  1.00  0.00     0.202 C 
BRANCH  27  28
ATOM     28  C   UNL     1      -8.614  -1.462   3.391  1.00  0.00     0.261 C 
BRANCH  28  29
ATOM     29  O   UNL     1      -9.963  -1.085   3.013  1.00  0.00    -0.460 OA
BRANCH  29  30
ATOM     30  C   UNL     1     -10.511  -1.683   1.917  1.00  0.00     0.338 C 
ATOM     31  O   UNL     1     -11.070  -2.766   1.932  1.00  0.00    -0.246 OA
BRANCH  30  32
ATOM     32  C   UNL     1     -10.249  -0.866   0.694  1.00  0.00     0.060 A 
ATOM     33  C   UNL     1     -10.166  -1.500  -0.550  1.00  0.00     0.016 A 
ATOM     34  C   UNL     1      -9.769   0.440   0.844  1.00  0.00     0.016 A 
ATOM     35  C   UNL     1      -9.424  -0.892  -1.575  1.00  0.00     0.010 A 
ATOM     36  C   UNL     1      -8.963   0.997  -0.145  1.00  0.00     0.010 A 
ATOM     37  C   UNL     1      -8.726   0.316  -1.347  1.00  0.00    -0.014 A 
BRANCH  37  38
ATOM     38  C   UNL     1      -8.159   1.118  -2.462  1.00  0.00     0.031 A 
ATOM     39  C   UNL     1      -9.305   1.607  -3.232  1.00  0.00     0.074 A 
ATOM     40  C   UNL     1      -6.916   1.453  -2.905  1.00  0.00     0.049 A 
ATOM     41  N   UNL     1      -9.696   1.006  -4.306  1.00  0.00    -0.248 NA
ATOM     42  C   UNL     1     -10.266   2.563  -2.671  1.00  0.00     0.031 C 
ATOM     43  C   UNL     1      -5.617   0.894  -2.575  1.00  0.00     0.029 A 
ATOM     44  N   UNL     1      -6.538   2.454  -3.798  1.00  0.00    -0.354 N 
ATOM     45  C   UNL     1     -10.789   1.724  -4.719  1.00  0.00     0.074 A 
ATOM     46  C   UNL     1     -11.250   2.465  -3.569  1.00  0.00     0.031 C 
ATOM     47  C   UNL     1      -4.619   1.691  -2.999  1.00  0.00     0.029 A 
ATOM     48  C   UNL     1      -5.180   2.804  -3.722  1.00  0.00     0.049 A 
ATOM     49  H   UNL     1      -7.167   2.878  -4.425  1.00  0.00     0.167 HD
ATOM     50  C   UNL     1     -10.911   1.983  -6.044  1.00  0.00     0.031 A 
ATOM     51  C   UNL     1      -4.357   3.515  -4.536  1.00  0.00     0.031 A 
ATOM     52  C   UNL     1     -10.061   1.128  -6.843  1.00  0.00     0.049 A 
ATOM     53  C   UNL     1      -4.847   3.334  -5.899  1.00  0.00     0.074 A 
ATOM     54  C   UNL     1     -10.030  -0.208  -7.183  1.00  0.00     0.029 A 
ATOM     55  N   UNL     1      -8.791   1.617  -7.025  1.00  0.00    -0.354 N 
ATOM     56  N   UNL     1      -4.699   2.225  -6.561  1.00  0.00    -0.248 NA
ATOM     57  C   UNL     1      -5.865   4.248  -6.384  1.00  0.00     0.031 C 
ATOM     58  C   UNL     1      -8.674  -0.523  -7.491  1.00  0.00     0.029 A 
ATOM     59  C   UNL     1      -7.907   0.633  -7.388  1.00  0.00     0.049 A 
ATOM     60  H   UNL     1      -8.543   2.562  -6.908  1.00  0.00     0.167 HD
ATOM     61  C   UNL     1      -5.913   2.086  -7.202  1.00  0.00     0.074 A 
ATOM     62  C   UNL     1      -6.510   3.418  -7.204  1.00  0.00     0.031 C 
ATOM     63  C   UNL     1      -6.477   0.857  -7.362  1.00  0.00     0.031 A 
BRANCH  50  64
ATOM     64  C   UNL     1     -11.325   3.346  -6.514  1.00  0.00    -0.014 A 
ATOM     65  C   UNL     1     -11.672   3.520  -7.856  1.00  0.00     0.009 A 
ATOM     66  C   UNL     1     -11.132   4.511  -5.740  1.00  0.00     0.009 A 
ATOM     67  C   UNL     1     -11.828   4.803  -8.392  1.00  0.00     0.001 A 
ATOM     68  C   UNL     1     -11.327   5.788  -6.257  1.00  0.00     0.001 A 
ATOM     69  C   UNL     1     -11.664   5.933  -7.592  1.00  0.00     0.000 A 
ENDBRANCH  50  64
BRANCH  51  70
ATOM     70  C   UNL     1      -3.200   4.382  -4.202  1.00  0.00    -0.014 A 
ATOM     71  C   UNL     1      -2.334   4.854  -5.207  1.00  0.00     0.009 A 
ATOM     72  C   UNL     1      -3.104   4.978  -2.933  1.00  0.00     0.009 A 
ATOM     73  C   UNL     1      -1.480   5.944  -4.979  1.00  0.00     0.001 A 
ATOM     74  C   UNL     1      -2.252   6.069  -2.706  1.00  0.00     0.001 A 
ATOM     75  C   UNL     1      -1.460   6.569  -3.736  1.00  0.00     0.000 A 
ENDBRANCH  51  70
BRANCH  63  76
ATOM     76  C   UNL     1      -5.559  -0.333  -7.398  1.00  0.00    -0.014 A 
ATOM     77  C   UNL     1      -4.813  -0.794  -6.302  1.00  0.00     0.009 A 
ATOM     78  C   UNL     1      -5.498  -1.055  -8.599  1.00  0.00     0.009 A 
ATOM     79  C   UNL     1      -4.018  -1.943  -6.416  1.00  0.00     0.001 A 
ATOM     80  C   UNL     1      -4.721  -2.208  -8.708  1.00  0.00     0.001 A 
ATOM     81  C   UNL     1      -3.978  -2.651  -7.617  1.00  0.00     0.000 A 
ENDBRANCH  63  76
ENDBRANCH  37  38
ENDBRANCH  30  32
ENDBRANCH  29  30
ENDBRANCH  28  29
ENDBRANCH  27  28
ENDBRANCH  26  27
ENDBRANCH   1  26
TORSDOF 17
