REMARK SMILES C[C@H]([NH2+][C@@H](C)Cc1cccs1)[C@@H](C)C(=O)OCCOCCOC(=O)c1ccc(-c2c3nc(c(-c4ccccc4)c4ccc([nH]4)c(-c4ccccc4)c4nc(c(-c5ccccc5)c5ccc2[nH]5)C=C4)C=C3)cc1
REMARK SMILES IDX 17 1 16 2 14 3 15 4 12 5 13 6 2 7 1 8 3 9 4 12 5 13 6 14
REMARK SMILES IDX 7 15 8 16 11 17 9 18 10 19 18 20 19 21 20 22 21 23 22 24
REMARK SMILES IDX 23 25 24 26 25 27 26 28 72 29 27 30 71 31 28 32 29 33 30 34
REMARK SMILES IDX 65 35 31 36 70 37 64 38 66 39 32 40 69 41 63 42 62 43 33 45
REMARK SMILES IDX 55 46 40 47 54 48 41 49 44 50 53 51 67 52 42 53 43 54 52 56
REMARK SMILES IDX 68 57 45 58 34 59 35 60 39 61 36 62 38 63 37 64 56 65 57 66
REMARK SMILES IDX 61 67 58 68 60 69 59 70 46 71 47 72 51 73 48 74 50 75 49 76
REMARK H PARENT 3 10 3 11 66 44 44 55
REMARK Flexibility Score: inf
ROOT
ATOM      1  C   UNL     1      -1.720  -3.796  -3.208  1.00  0.00     0.261 C 
ENDROOT
BRANCH   1   2
ATOM      2  O   UNL     1      -0.944  -2.788  -2.527  1.00  0.00    -0.463 OA
BRANCH   2   3
ATOM      3  C   UNL     1      -1.697  -1.966  -1.749  1.00  0.00     0.314 C 
ATOM      4  O   UNL     1      -2.904  -2.122  -1.569  1.00  0.00    -0.252 OA
BRANCH   3   5
ATOM      5  C   UNL     1      -0.990  -0.735  -1.209  1.00  0.00     0.154 C 
ATOM      6  C   UNL     1      -1.300   0.429  -2.160  1.00  0.00     0.026 C 
BRANCH   5   7
ATOM      7  C   UNL     1       0.499  -0.737  -0.788  1.00  0.00     0.193 C 
ATOM      8  C   UNL     1       1.133  -2.031  -0.287  1.00  0.00     0.076 C 
BRANCH   7   9
ATOM      9  N   UNL     1       0.804   0.372   0.147  1.00  0.00    -0.341 N 
ATOM     10  H   UNL     1       0.289   1.187  -0.186  1.00  0.00     0.346 HD
ATOM     11  H   UNL     1       1.823   0.420   0.128  1.00  0.00     0.346 HD
BRANCH   9  12
ATOM     12  C   UNL     1       0.498   0.233   1.588  1.00  0.00     0.184 C 
ATOM     13  C   UNL     1       1.486   1.211   2.257  1.00  0.00     0.075 C 
BRANCH  12  14
ATOM     14  C   UNL     1      -0.928   0.643   2.061  1.00  0.00     0.111 C 
BRANCH  14  15
ATOM     15  C   UNL     1      -2.031  -0.391   2.077  1.00  0.00     0.010 A 
ATOM     16  C   UNL     1      -3.391  -0.124   2.060  1.00  0.00     0.015 A 
ATOM     17  S   UNL     1      -1.761  -2.080   2.172  1.00  0.00    -0.149 S 
ATOM     18  C   UNL     1      -4.178  -1.298   1.886  1.00  0.00     0.012 A 
ATOM     19  C   UNL     1      -3.400  -2.431   1.835  1.00  0.00     0.065 A 
ENDBRANCH  14  15
ENDBRANCH  12  14
ENDBRANCH   9  12
ENDBRANCH   7   9
ENDBRANCH   5   7
ENDBRANCH   3   5
ENDBRANCH   2   3
ENDBRANCH   1   2
BRANCH   1  20
ATOM     20  C   UNL     1      -1.729  -5.207  -2.595  1.00  0.00     0.202 C 
BRANCH  20  21
ATOM     21  O   UNL     1      -1.883  -5.367  -1.193  1.00  0.00    -0.374 OA
BRANCH  21  22
ATOM     22  C   UNL     1      -0.808  -4.945  -0.357  1.00  0.00     0.202 C 
BRANCH  22  23
ATOM     23  C   UNL     1       0.561  -5.614  -0.550  1.00  0.00     0.261 C 
BRANCH  23  24
ATOM     24  O   UNL     1       1.148  -5.283  -1.825  1.00  0.00    -0.460 OA
BRANCH  24  25
ATOM     25  C   UNL     1       1.515  -6.344  -2.577  1.00  0.00     0.338 C 
ATOM     26  O   UNL     1       1.514  -7.525  -2.252  1.00  0.00    -0.246 OA
BRANCH  25  27
ATOM     27  C   UNL     1       1.720  -5.920  -3.971  1.00  0.00     0.060 A 
ATOM     28  C   UNL     1       0.901  -6.502  -4.948  1.00  0.00     0.016 A 
ATOM     29  C   UNL     1       2.749  -5.048  -4.331  1.00  0.00     0.016 A 
ATOM     30  C   UNL     1       1.145  -6.262  -6.295  1.00  0.00     0.010 A 
ATOM     31  C   UNL     1       3.002  -4.818  -5.687  1.00  0.00     0.010 A 
ATOM     32  C   UNL     1       2.229  -5.461  -6.673  1.00  0.00    -0.014 A 
BRANCH  32  33
ATOM     33  C   UNL     1       2.657  -5.464  -8.091  1.00  0.00     0.031 A 
ATOM     34  C   UNL     1       3.791  -6.365  -8.499  1.00  0.00     0.074 A 
ATOM     35  C   UNL     1       2.001  -4.735  -9.010  1.00  0.00     0.049 A 
ATOM     36  N   UNL     1       4.323  -6.547  -9.681  1.00  0.00    -0.248 NA
ATOM     37  C   UNL     1       4.404  -7.173  -7.432  1.00  0.00     0.031 C 
ATOM     38  C   UNL     1       0.847  -3.878  -8.743  1.00  0.00     0.029 A 
ATOM     39  N   UNL     1       2.209  -4.611 -10.360  1.00  0.00    -0.354 N 
ATOM     40  C   UNL     1       5.333  -7.484  -9.497  1.00  0.00     0.074 A 
ATOM     41  C   UNL     1       5.363  -7.807  -8.088  1.00  0.00     0.031 C 
ATOM     42  C   UNL     1       0.446  -3.317  -9.896  1.00  0.00     0.029 A 
ATOM     43  C   UNL     1       1.336  -3.747 -10.973  1.00  0.00     0.049 A 
ATOM     44  H   UNL     1       2.918  -5.095 -10.843  1.00  0.00     0.167 HD
ATOM     45  C   UNL     1       6.159  -8.031 -10.421  1.00  0.00     0.031 A 
ATOM     46  C   UNL     1       1.276  -3.339 -12.255  1.00  0.00     0.031 A 
ATOM     47  C   UNL     1       6.137  -7.691 -11.818  1.00  0.00     0.049 A 
ATOM     48  C   UNL     1       2.267  -3.890 -13.245  1.00  0.00     0.074 A 
ATOM     49  C   UNL     1       6.930  -8.185 -12.839  1.00  0.00     0.029 A 
ATOM     50  N   UNL     1       5.279  -6.763 -12.389  1.00  0.00    -0.354 N 
ATOM     51  N   UNL     1       3.210  -4.783 -13.063  1.00  0.00    -0.248 NA
ATOM     52  C   UNL     1       2.179  -3.379 -14.621  1.00  0.00     0.031 C 
ATOM     53  C   UNL     1       6.593  -7.509 -14.017  1.00  0.00     0.029 A 
ATOM     54  C   UNL     1       5.544  -6.646 -13.742  1.00  0.00     0.049 A 
ATOM     55  H   UNL     1       4.585  -6.261 -11.903  1.00  0.00     0.167 HD
ATOM     56  C   UNL     1       3.807  -4.964 -14.305  1.00  0.00     0.074 A 
ATOM     57  C   UNL     1       3.109  -4.099 -15.234  1.00  0.00     0.031 C 
ATOM     58  C   UNL     1       4.838  -5.776 -14.648  1.00  0.00     0.031 A 
BRANCH  45  59
ATOM     59  C   UNL     1       7.183  -9.020  -9.934  1.00  0.00    -0.014 A 
ATOM     60  C   UNL     1       6.813 -10.296  -9.479  1.00  0.00     0.009 A 
ATOM     61  C   UNL     1       8.543  -8.675  -9.947  1.00  0.00     0.009 A 
ATOM     62  C   UNL     1       7.780 -11.190  -9.013  1.00  0.00     0.001 A 
ATOM     63  C   UNL     1       9.511  -9.581  -9.509  1.00  0.00     0.001 A 
ATOM     64  C   UNL     1       9.128 -10.833  -9.032  1.00  0.00     0.000 A 
ENDBRANCH  45  59
BRANCH  46  65
ATOM     65  C   UNL     1       0.254  -2.344 -12.673  1.00  0.00    -0.014 A 
ATOM     66  C   UNL     1      -0.788  -2.704 -13.542  1.00  0.00     0.009 A 
ATOM     67  C   UNL     1       0.324  -1.018 -12.215  1.00  0.00     0.009 A 
ATOM     68  C   UNL     1      -1.723  -1.753 -13.960  1.00  0.00     0.001 A 
ATOM     69  C   UNL     1      -0.630  -0.077 -12.610  1.00  0.00     0.001 A 
ATOM     70  C   UNL     1      -1.646  -0.443 -13.489  1.00  0.00     0.000 A 
ENDBRANCH  46  65
BRANCH  58  71
ATOM     71  C   UNL     1       5.247  -5.793 -16.095  1.00  0.00    -0.014 A 
ATOM     72  C   UNL     1       5.910  -4.705 -16.683  1.00  0.00     0.009 A 
ATOM     73  C   UNL     1       5.001  -6.938 -16.870  1.00  0.00     0.009 A 
ATOM     74  C   UNL     1       6.285  -4.749 -18.027  1.00  0.00     0.001 A 
ATOM     75  C   UNL     1       5.405  -6.992 -18.204  1.00  0.00     0.001 A 
ATOM     76  C   UNL     1       6.037  -5.894 -18.784  1.00  0.00     0.000 A 
ENDBRANCH  58  71
ENDBRANCH  32  33
ENDBRANCH  25  27
ENDBRANCH  24  25
ENDBRANCH  23  24
ENDBRANCH  22  23
ENDBRANCH  21  22
ENDBRANCH  20  21
ENDBRANCH   1  20
TORSDOF 19
