REMARK SMILES Cc1c(NC(=O)c2ccc(Br)cc2N)cccc1C(=O)OCCOCCOC(=O)c1ccc(-c2c3nc(c(-c4ccccc4)c4ccc([nH]4)c(-c4ccccc4)c4nc(c(-c5ccccc5)c5ccc2[nH]5)C=C4)C=C3)cc1
REMARK SMILES IDX 23 1 22 2 21 3 19 4 20 5 18 6 1 7 2 8 3 9 15 10 17 11 16 12
REMARK SMILES IDX 4 13 5 14 6 16 7 17 8 18 13 19 9 20 12 21 10 22 11 23 14 24
REMARK SMILES IDX 24 27 25 28 26 29 27 30 28 31 29 32 30 33 31 34 77 35 32 36
REMARK SMILES IDX 76 37 33 38 34 39 35 40 70 41 36 42 75 43 69 44 71 45 37 46
REMARK SMILES IDX 74 47 68 48 67 49 38 51 60 52 45 53 59 54 46 55 49 56 58 57
REMARK SMILES IDX 72 58 47 59 48 60 57 62 73 63 50 64 39 65 40 66 44 67 41 68
REMARK SMILES IDX 43 69 42 70 61 71 62 72 66 73 63 74 65 75 64 76 51 77 52 78
REMARK SMILES IDX 56 79 53 80 55 81 54 82
REMARK H PARENT 4 15 14 25 14 26 71 50 49 61
REMARK Flexibility Score: inf
ROOT
ATOM      1  C   UNL     1       2.120   2.360  -2.374  1.00  0.00     0.202 C 
ENDROOT
BRANCH   1   2
ATOM      2  C   UNL     1       2.627   2.422  -0.978  1.00  0.00     0.261 C 
BRANCH   2   3
ATOM      3  O   UNL     1       1.847   1.571  -0.135  1.00  0.00    -0.460 OA
BRANCH   3   4
ATOM      4  C   UNL     1       0.594   1.856   0.255  1.00  0.00     0.338 C 
ATOM      5  O   UNL     1       0.070   2.944   0.340  1.00  0.00    -0.246 OA
BRANCH   4   6
ATOM      6  C   UNL     1      -0.085   0.540   0.441  1.00  0.00     0.065 A 
ATOM      7  C   UNL     1       2.030  -1.008   0.191  1.00  0.00     0.047 C 
ATOM      8  C   UNL     1       0.547  -0.732   0.393  1.00  0.00    -0.013 A 
ATOM      9  C   UNL     1      -0.282  -1.877   0.460  1.00  0.00     0.045 A 
ATOM     10  C   UNL     1      -1.674  -1.766   0.553  1.00  0.00     0.026 A 
ATOM     11  C   UNL     1      -1.488   0.630   0.547  1.00  0.00     0.016 A 
ATOM     12  C   UNL     1      -2.277  -0.514   0.592  1.00  0.00     0.003 A 
BRANCH   9  13
ATOM     13  N   UNL     1       0.352  -3.128   0.384  1.00  0.00    -0.322 N 
ATOM     14  C   UNL     1       0.043  -4.243  -0.349  1.00  0.00     0.257 C 
ATOM     15  H   UNL     1       1.151  -3.218   0.952  1.00  0.00     0.170 HD
ATOM     16  O   UNL     1       0.738  -5.251  -0.221  1.00  0.00    -0.269 OA
BRANCH  14  17
ATOM     17  C   UNL     1      -1.081  -4.257  -1.308  1.00  0.00     0.063 A 
ATOM     18  C   UNL     1      -1.952  -5.347  -1.160  1.00  0.00     0.017 A 
ATOM     19  C   UNL     1      -1.313  -3.272  -2.293  1.00  0.00     0.045 A 
ATOM     20  C   UNL     1      -3.086  -5.451  -1.956  1.00  0.00     0.016 A 
ATOM     21  C   UNL     1      -2.462  -3.398  -3.086  1.00  0.00     0.042 A 
ATOM     22  C   UNL     1      -3.342  -4.468  -2.906  1.00  0.00     0.020 A 
ATOM     23  Br  UNL     1      -4.891  -4.594  -3.981  1.00  0.00    -0.051 Br
BRANCH  19  24
ATOM     24  N   UNL     1      -0.407  -2.264  -2.621  1.00  0.00    -0.398 N 
ATOM     25  H   UNL     1       0.411  -2.144  -2.087  1.00  0.00     0.156 HD
ATOM     26  H   UNL     1      -0.586  -1.671  -3.386  1.00  0.00     0.156 HD
ENDBRANCH  19  24
ENDBRANCH  14  17
ENDBRANCH   9  13
ENDBRANCH   4   6
ENDBRANCH   3   4
ENDBRANCH   2   3
ENDBRANCH   1   2
BRANCH   1  27
ATOM     27  O   UNL     1       0.946   3.150  -2.355  1.00  0.00    -0.374 OA
BRANCH  27  28
ATOM     28  C   UNL     1       0.319   3.338  -3.602  1.00  0.00     0.202 C 
BRANCH  28  29
ATOM     29  C   UNL     1       1.245   4.010  -4.624  1.00  0.00     0.261 C 
BRANCH  29  30
ATOM     30  O   UNL     1       1.677   5.291  -4.110  1.00  0.00    -0.460 OA
BRANCH  30  31
ATOM     31  C   UNL     1       2.956   5.372  -3.642  1.00  0.00     0.338 C 
ATOM     32  O   UNL     1       3.942   4.909  -4.193  1.00  0.00    -0.246 OA
BRANCH  31  33
ATOM     33  C   UNL     1       2.945   5.831  -2.217  1.00  0.00     0.060 A 
ATOM     34  C   UNL     1       4.110   5.722  -1.428  1.00  0.00     0.016 A 
ATOM     35  C   UNL     1       1.712   6.012  -1.599  1.00  0.00     0.016 A 
ATOM     36  C   UNL     1       4.014   5.617  -0.028  1.00  0.00     0.010 A 
ATOM     37  C   UNL     1       1.615   5.800  -0.240  1.00  0.00     0.010 A 
ATOM     38  C   UNL     1       2.751   5.559   0.557  1.00  0.00    -0.014 A 
BRANCH  38  39
ATOM     39  C   UNL     1       2.430   5.106   1.920  1.00  0.00     0.031 A 
ATOM     40  C   UNL     1       1.642   6.019   2.776  1.00  0.00     0.074 A 
ATOM     41  C   UNL     1       2.547   3.800   2.283  1.00  0.00     0.049 A 
ATOM     42  N   UNL     1       1.383   5.784   4.011  1.00  0.00    -0.248 NA
ATOM     43  C   UNL     1       1.099   7.304   2.331  1.00  0.00     0.031 C 
ATOM     44  C   UNL     1       1.804   3.056   3.306  1.00  0.00     0.029 A 
ATOM     45  N   UNL     1       3.399   2.821   1.772  1.00  0.00    -0.354 N 
ATOM     46  C   UNL     1       0.388   6.642   4.401  1.00  0.00     0.074 A 
ATOM     47  C   UNL     1       0.335   7.648   3.373  1.00  0.00     0.031 C 
ATOM     48  C   UNL     1       2.401   1.871   3.537  1.00  0.00     0.029 A 
ATOM     49  C   UNL     1       3.619   1.839   2.747  1.00  0.00     0.049 A 
ATOM     50  H   UNL     1       3.786   2.820   0.867  1.00  0.00     0.167 HD
ATOM     51  C   UNL     1      -0.351   6.307   5.492  1.00  0.00     0.031 A 
ATOM     52  C   UNL     1       4.884   1.554   3.155  1.00  0.00     0.031 A 
ATOM     53  C   UNL     1       0.214   5.123   6.160  1.00  0.00     0.049 A 
ATOM     54  C   UNL     1       4.989   2.038   4.572  1.00  0.00     0.074 A 
ATOM     55  C   UNL     1      -0.189   3.803   6.267  1.00  0.00     0.029 A 
ATOM     56  N   UNL     1       1.557   5.150   6.544  1.00  0.00    -0.354 N 
ATOM     57  N   UNL     1       4.203   2.971   5.044  1.00  0.00    -0.248 NA
ATOM     58  C   UNL     1       5.826   1.432   5.601  1.00  0.00     0.031 C 
ATOM     59  C   UNL     1       0.962   3.026   6.612  1.00  0.00     0.029 A 
ATOM     60  C   UNL     1       2.050   3.876   6.756  1.00  0.00     0.049 A 
ATOM     61  H   UNL     1       2.086   5.974   6.650  1.00  0.00     0.167 HD
ATOM     62  C   UNL     1       4.285   2.977   6.397  1.00  0.00     0.074 A 
ATOM     63  C   UNL     1       5.371   2.058   6.702  1.00  0.00     0.031 C 
ATOM     64  C   UNL     1       3.432   3.679   7.194  1.00  0.00     0.031 A 
BRANCH  51  65
ATOM     65  C   UNL     1      -1.674   6.937   5.862  1.00  0.00    -0.014 A 
ATOM     66  C   UNL     1      -2.361   6.479   7.000  1.00  0.00     0.009 A 
ATOM     67  C   UNL     1      -2.335   7.931   5.113  1.00  0.00     0.009 A 
ATOM     68  C   UNL     1      -3.616   6.990   7.370  1.00  0.00     0.001 A 
ATOM     69  C   UNL     1      -3.576   8.465   5.489  1.00  0.00     0.001 A 
ATOM     70  C   UNL     1      -4.219   7.992   6.620  1.00  0.00     0.000 A 
ENDBRANCH  51  65
BRANCH  52  71
ATOM     71  C   UNL     1       5.857   1.636   2.017  1.00  0.00    -0.014 A 
ATOM     72  C   UNL     1       5.807   0.583   1.069  1.00  0.00     0.009 A 
ATOM     73  C   UNL     1       6.379   2.868   1.591  1.00  0.00     0.009 A 
ATOM     74  C   UNL     1       6.123   0.799  -0.281  1.00  0.00     0.001 A 
ATOM     75  C   UNL     1       6.689   3.079   0.234  1.00  0.00     0.001 A 
ATOM     76  C   UNL     1       6.525   2.061  -0.705  1.00  0.00     0.000 A 
ENDBRANCH  52  71
BRANCH  64  77
ATOM     77  C   UNL     1       3.879   4.235   8.511  1.00  0.00    -0.014 A 
ATOM     78  C   UNL     1       5.233   4.383   8.846  1.00  0.00     0.009 A 
ATOM     79  C   UNL     1       2.933   4.829   9.367  1.00  0.00     0.009 A 
ATOM     80  C   UNL     1       5.622   5.040  10.013  1.00  0.00     0.001 A 
ATOM     81  C   UNL     1       3.321   5.543  10.498  1.00  0.00     0.001 A 
ATOM     82  C   UNL     1       4.666   5.630  10.831  1.00  0.00     0.000 A 
ENDBRANCH  64  77
ENDBRANCH  38  39
ENDBRANCH  31  33
ENDBRANCH  30  31
ENDBRANCH  29  30
ENDBRANCH  28  29
ENDBRANCH  27  28
ENDBRANCH   1  27
TORSDOF 17
