REMARK SMILES O=C(OCCOCCOC(=O)[C@H]1CC[C@@H](CNc2cc(C(F)(F)F)ccn2)O1)c1ccc(-c2c3nc(c(-c4ccccc4)c4ccc([nH]4)c(-c4ccccc4)c4nc(c(-c5ccccc5)c5ccc2[nH]5)C=C4)C=C3)cc1
REMARK SMILES IDX 7 1 6 2 5 3 4 4 3 5 2 6 1 7 29 8 30 9 76 10 31 11 75 12
REMARK SMILES IDX 32 13 33 14 34 15 69 16 35 17 74 18 68 19 70 20 36 21 73 22
REMARK SMILES IDX 67 23 66 24 37 26 59 27 44 28 58 29 45 30 48 31 57 32 71 33
REMARK SMILES IDX 46 34 47 35 56 37 72 38 49 39 38 40 39 41 43 42 40 43 42 44
REMARK SMILES IDX 41 45 60 46 61 47 65 48 62 49 64 50 63 51 50 52 51 53 55 54
REMARK SMILES IDX 52 55 54 56 53 57 8 58 9 59 10 60 11 61 12 62 13 63 28 64
REMARK SMILES IDX 14 65 15 66 16 67 17 68 18 70 19 71 27 72 20 73 26 74 25 75
REMARK SMILES IDX 21 76 22 77 23 78 24 79
REMARK H PARENT 70 25 48 36 17 69
REMARK Flexibility Score: inf
ROOT
ATOM      1  C   UNL     1       4.441  -1.297   4.401  1.00  0.00     0.202 C 
ENDROOT
BRANCH   1   2
ATOM      2  O   UNL     1       3.741  -1.301   3.150  1.00  0.00    -0.374 OA
BRANCH   2   3
ATOM      3  C   UNL     1       4.452  -0.878   1.985  1.00  0.00     0.202 C 
BRANCH   3   4
ATOM      4  C   UNL     1       4.629   0.628   1.790  1.00  0.00     0.261 C 
BRANCH   4   5
ATOM      5  O   UNL     1       5.289   1.203   2.927  1.00  0.00    -0.460 OA
BRANCH   5   6
ATOM      6  C   UNL     1       4.720   1.893   3.942  1.00  0.00     0.338 C 
ATOM      7  O   UNL     1       5.434   2.333   4.840  1.00  0.00    -0.246 OA
BRANCH   6   8
ATOM      8  C   UNL     1       3.252   2.140   4.029  1.00  0.00     0.060 A 
ATOM      9  C   UNL     1       2.273   1.273   3.537  1.00  0.00     0.016 A 
ATOM     10  C   UNL     1       2.834   3.272   4.741  1.00  0.00     0.016 A 
ATOM     11  C   UNL     1       0.928   1.525   3.689  1.00  0.00     0.010 A 
ATOM     12  C   UNL     1       1.475   3.526   4.931  1.00  0.00     0.010 A 
ATOM     13  C   UNL     1       0.527   2.649   4.393  1.00  0.00    -0.014 A 
BRANCH  13  14
ATOM     14  C   UNL     1      -0.910   2.921   4.431  1.00  0.00     0.031 A 
ATOM     15  C   UNL     1      -1.448   3.943   3.490  1.00  0.00     0.074 A 
ATOM     16  C   UNL     1      -1.700   2.147   5.191  1.00  0.00     0.049 A 
ATOM     17  N   UNL     1      -2.663   4.400   3.378  1.00  0.00    -0.248 NA
ATOM     18  C   UNL     1      -0.486   4.522   2.535  1.00  0.00     0.031 C 
ATOM     19  C   UNL     1      -1.244   1.018   6.009  1.00  0.00     0.029 A 
ATOM     20  N   UNL     1      -3.051   2.175   5.381  1.00  0.00    -0.354 N 
ATOM     21  C   UNL     1      -2.603   5.353   2.372  1.00  0.00     0.074 A 
ATOM     22  C   UNL     1      -1.239   5.404   1.899  1.00  0.00     0.031 C 
ATOM     23  C   UNL     1      -2.304   0.464   6.617  1.00  0.00     0.029 A 
ATOM     24  C   UNL     1      -3.490   1.246   6.290  1.00  0.00     0.049 A 
ATOM     25  H   UNL     1      -3.651   2.800   4.912  1.00  0.00     0.167 HD
ATOM     26  C   UNL     1      -3.609   6.129   1.911  1.00  0.00     0.031 A 
ATOM     27  C   UNL     1      -4.709   1.094   6.835  1.00  0.00     0.031 A 
ATOM     28  C   UNL     1      -4.944   6.057   2.436  1.00  0.00     0.049 A 
ATOM     29  C   UNL     1      -5.787   2.042   6.391  1.00  0.00     0.074 A 
ATOM     30  C   UNL     1      -6.047   6.822   2.114  1.00  0.00     0.029 A 
ATOM     31  N   UNL     1      -5.347   5.153   3.414  1.00  0.00    -0.354 N 
ATOM     32  N   UNL     1      -5.723   2.996   5.490  1.00  0.00    -0.248 NA
ATOM     33  C   UNL     1      -7.095   1.908   7.039  1.00  0.00     0.031 C 
ATOM     34  C   UNL     1      -7.101   6.420   2.941  1.00  0.00     0.029 A 
ATOM     35  C   UNL     1      -6.675   5.360   3.730  1.00  0.00     0.049 A 
ATOM     36  H   UNL     1      -4.770   4.467   3.821  1.00  0.00     0.167 HD
ATOM     37  C   UNL     1      -6.984   3.570   5.450  1.00  0.00     0.074 A 
ATOM     38  C   UNL     1      -7.797   2.841   6.409  1.00  0.00     0.031 C 
ATOM     39  C   UNL     1      -7.436   4.603   4.696  1.00  0.00     0.031 A 
BRANCH  26  40
ATOM     40  C   UNL     1      -3.243   7.174   0.897  1.00  0.00    -0.014 A 
ATOM     41  C   UNL     1      -2.862   6.840  -0.412  1.00  0.00     0.009 A 
ATOM     42  C   UNL     1      -3.201   8.520   1.292  1.00  0.00     0.009 A 
ATOM     43  C   UNL     1      -2.392   7.826  -1.285  1.00  0.00     0.001 A 
ATOM     44  C   UNL     1      -2.761   9.507   0.409  1.00  0.00     0.001 A 
ATOM     45  C   UNL     1      -2.341   9.158  -0.873  1.00  0.00     0.000 A 
ENDBRANCH  26  40
BRANCH  27  46
ATOM     46  C   UNL     1      -4.925   0.079   7.898  1.00  0.00    -0.014 A 
ATOM     47  C   UNL     1      -5.748  -1.035   7.685  1.00  0.00     0.009 A 
ATOM     48  C   UNL     1      -4.270   0.206   9.136  1.00  0.00     0.009 A 
ATOM     49  C   UNL     1      -5.920  -1.991   8.691  1.00  0.00     0.001 A 
ATOM     50  C   UNL     1      -4.418  -0.765  10.128  1.00  0.00     0.001 A 
ATOM     51  C   UNL     1      -5.250  -1.860   9.908  1.00  0.00     0.000 A 
ENDBRANCH  27  46
BRANCH  39  52
ATOM     52  C   UNL     1      -8.879   4.978   4.860  1.00  0.00    -0.014 A 
ATOM     53  C   UNL     1      -9.326   5.671   5.994  1.00  0.00     0.009 A 
ATOM     54  C   UNL     1      -9.781   4.700   3.822  1.00  0.00     0.009 A 
ATOM     55  C   UNL     1     -10.661   6.064   6.092  1.00  0.00     0.001 A 
ATOM     56  C   UNL     1     -11.107   5.122   3.909  1.00  0.00     0.001 A 
ATOM     57  C   UNL     1     -11.546   5.798   5.047  1.00  0.00     0.000 A 
ENDBRANCH  39  52
ENDBRANCH  13  14
ENDBRANCH   6   8
ENDBRANCH   5   6
ENDBRANCH   4   5
ENDBRANCH   3   4
ENDBRANCH   2   3
ENDBRANCH   1   2
BRANCH   1  58
ATOM     58  C   UNL     1       4.197  -2.630   5.116  1.00  0.00     0.261 C 
BRANCH  58  59
ATOM     59  O   UNL     1       4.819  -3.655   4.332  1.00  0.00    -0.461 OA
BRANCH  59  60
ATOM     60  C   UNL     1       4.096  -4.030   3.236  1.00  0.00     0.335 C 
ATOM     61  O   UNL     1       2.877  -4.159   3.220  1.00  0.00    -0.249 OA
BRANCH  60  62
ATOM     62  C   UNL     1       5.020  -4.256   2.022  1.00  0.00     0.228 C 
ATOM     63  C   UNL     1       6.448  -3.761   2.203  1.00  0.00     0.047 C 
ATOM     64  O   UNL     1       5.192  -5.633   1.694  1.00  0.00    -0.361 OA
ATOM     65  C   UNL     1       7.128  -4.918   2.891  1.00  0.00     0.037 C 
ATOM     66  C   UNL     1       6.265  -6.125   2.527  1.00  0.00     0.138 C 
BRANCH  66  67
ATOM     67  C   UNL     1       5.636  -6.823   3.752  1.00  0.00     0.146 C 
BRANCH  67  68
ATOM     68  N   UNL     1       5.610  -8.264   3.542  1.00  0.00    -0.367 N 
ATOM     69  H   UNL     1       4.943  -8.692   2.957  1.00  0.00     0.162 HD
BRANCH  68  70
ATOM     70  C   UNL     1       6.572  -8.995   4.208  1.00  0.00     0.126 A 
ATOM     71  C   UNL     1       6.702  -8.918   5.588  1.00  0.00     0.059 A 
ATOM     72  N   UNL     1       7.390  -9.738   3.448  1.00  0.00    -0.240 NA
ATOM     73  C   UNL     1       7.734  -9.608   6.223  1.00  0.00     0.061 A 
ATOM     74  C   UNL     1       8.386 -10.402   4.069  1.00  0.00     0.114 A 
ATOM     75  C   UNL     1       8.601 -10.366   5.436  1.00  0.00     0.033 A 
BRANCH  73  76
ATOM     76  C   UNL     1       7.896  -9.538   7.714  1.00  0.00     0.416 C 
ATOM     77  F   UNL     1       7.698 -10.742   8.315  1.00  0.00    -0.166 F 
ATOM     78  F   UNL     1       9.142  -9.133   8.081  1.00  0.00    -0.166 F 
ATOM     79  F   UNL     1       7.033  -8.671   8.316  1.00  0.00    -0.166 F 
ENDBRANCH  73  76
ENDBRANCH  68  70
ENDBRANCH  67  68
ENDBRANCH  66  67
ENDBRANCH  60  62
ENDBRANCH  59  60
ENDBRANCH  58  59
ENDBRANCH   1  58
TORSDOF 18
