REMARK SMILES Cc1ccc(C(=O)OCCOCCOC(=O)c2ccc(-c3c4nc(c(-c5ccccc5)c5ccc([nH]5)c(-c5ccccc5)c5nc(c(-c6ccccc6)c6ccc3[nH]6)C=C5)C=C4)cc2)cc1N1C(=O)/C(=C/c2ccc([N+](=O)[O-])cc2)SC1=S
REMARK SMILES IDX 10 1 9 2 8 3 6 4 7 5 5 6 1 7 2 8 3 9 66 10 4 11 65 12 67 13
REMARK SMILES IDX 68 14 82 15 69 16 70 17 81 18 83 19 71 20 72 21 73 22 80 23
REMARK SMILES IDX 74 24 79 25 75 26 76 27 77 28 78 29 11 30 12 31 13 32 14 33
REMARK SMILES IDX 15 34 16 35 17 36 18 37 64 38 19 39 63 40 20 41 21 42 22 43
REMARK SMILES IDX 57 44 23 45 62 46 56 47 58 48 24 49 61 50 55 51 54 52 25 54
REMARK SMILES IDX 47 55 32 56 46 57 33 58 36 59 45 60 59 61 34 62 35 63 44 65
REMARK SMILES IDX 60 66 37 67 26 68 27 69 31 70 28 71 30 72 29 73 48 74 49 75
REMARK SMILES IDX 53 76 50 77 52 78 51 79 38 80 39 81 43 82 40 83 42 84 41 85
REMARK H PARENT 58 53 36 64
REMARK Flexibility Score: inf
ROOT
ATOM      1  C   UNL     1      -3.628   1.111  -2.450  1.00  0.00     0.202 C 
ENDROOT
BRANCH   1   2
ATOM      2  C   UNL     1      -3.807   1.613  -1.058  1.00  0.00     0.261 C 
BRANCH   2   3
ATOM      3  O   UNL     1      -2.687   1.283  -0.223  1.00  0.00    -0.460 OA
BRANCH   3   4
ATOM      4  C   UNL     1      -2.507   0.023   0.274  1.00  0.00     0.338 C 
ATOM      5  O   UNL     1      -3.304  -0.873   0.399  1.00  0.00    -0.246 OA
BRANCH   4   6
ATOM      6  C   UNL     1      -1.043  -0.120   0.451  1.00  0.00     0.062 A 
ATOM      7  C   UNL     1       3.166  -0.490  -0.321  1.00  0.00     0.046 C 
ATOM      8  C   UNL     1       1.704  -0.324  -0.023  1.00  0.00    -0.027 A 
ATOM      9  C   UNL     1       0.923  -1.479   0.175  1.00  0.00     0.006 A 
ATOM     10  C   UNL     1       1.085   0.931   0.073  1.00  0.00     0.054 A 
ATOM     11  C   UNL     1      -0.456  -1.381   0.372  1.00  0.00     0.016 A 
ATOM     12  C   UNL     1      -0.253   1.025   0.424  1.00  0.00     0.042 A 
BRANCH  10  13
ATOM     13  N   UNL     1       1.715   2.131  -0.320  1.00  0.00    -0.261 N 
ATOM     14  C   UNL     1       2.521   2.792   0.584  1.00  0.00     0.270 C 
ATOM     15  C   UNL     1       1.394   2.828  -1.480  1.00  0.00     0.152 C 
ATOM     16  O   UNL     1       2.924   2.394   1.668  1.00  0.00    -0.268 OA
ATOM     17  C   UNL     1       2.801   4.148   0.056  1.00  0.00     0.081 C 
ATOM     18  S   UNL     1       2.467   4.219  -1.622  1.00  0.00    -0.054 SA
ATOM     19  S   UNL     1       0.205   2.542  -2.618  1.00  0.00    -0.051 S 
ATOM     20  C   UNL     1       3.123   5.158   0.865  1.00  0.00     0.029 C 
BRANCH  20  21
ATOM     21  C   UNL     1       3.621   6.450   0.410  1.00  0.00    -0.024 A 
ATOM     22  C   UNL     1       2.824   7.591   0.276  1.00  0.00     0.015 A 
ATOM     23  C   UNL     1       5.000   6.518   0.180  1.00  0.00     0.015 A 
ATOM     24  C   UNL     1       3.430   8.822  -0.007  1.00  0.00     0.086 A 
ATOM     25  C   UNL     1       5.609   7.734  -0.097  1.00  0.00     0.086 A 
ATOM     26  C   UNL     1       4.825   8.890  -0.158  1.00  0.00     0.269 A 
BRANCH  26  27
ATOM     27  N   UNL     1       5.487  10.187  -0.329  1.00  0.00     0.062 N 
ATOM     28  O   UNL     1       4.773  11.199  -0.361  1.00  0.00    -0.258 OA
ATOM     29  O   UNL     1       6.724  10.195  -0.410  1.00  0.00    -0.258 OA
ENDBRANCH  26  27
ENDBRANCH  20  21
ENDBRANCH  10  13
ENDBRANCH   4   6
ENDBRANCH   3   4
ENDBRANCH   2   3
ENDBRANCH   1   2
BRANCH   1  30
ATOM     30  O   UNL     1      -3.764  -0.296  -2.362  1.00  0.00    -0.374 OA
BRANCH  30  31
ATOM     31  C   UNL     1      -3.575  -0.991  -3.575  1.00  0.00     0.202 C 
BRANCH  31  32
ATOM     32  C   UNL     1      -4.552  -0.542  -4.670  1.00  0.00     0.261 C 
BRANCH  32  33
ATOM     33  O   UNL     1      -5.911  -0.807  -4.253  1.00  0.00    -0.460 OA
BRANCH  33  34
ATOM     34  C   UNL     1      -6.637   0.261  -3.813  1.00  0.00     0.338 C 
ATOM     35  O   UNL     1      -6.744   1.330  -4.391  1.00  0.00    -0.246 OA
BRANCH  34  36
ATOM     36  C   UNL     1      -7.043   0.045  -2.390  1.00  0.00     0.060 A 
ATOM     37  C   UNL     1      -7.572   1.108  -1.630  1.00  0.00     0.016 A 
ATOM     38  C   UNL     1      -6.560  -1.088  -1.746  1.00  0.00     0.016 A 
ATOM     39  C   UNL     1      -7.449   1.106  -0.230  1.00  0.00     0.010 A 
ATOM     40  C   UNL     1      -6.321  -1.018  -0.392  1.00  0.00     0.010 A 
ATOM     41  C   UNL     1      -6.729   0.083   0.380  1.00  0.00    -0.014 A 
BRANCH  41  42
ATOM     42  C   UNL     1      -6.229   0.064   1.762  1.00  0.00     0.031 A 
ATOM     43  C   UNL     1      -6.625  -1.081   2.614  1.00  0.00     0.074 A 
ATOM     44  C   UNL     1      -5.186   0.848   2.142  1.00  0.00     0.049 A 
ATOM     45  N   UNL     1      -6.383  -1.157   3.875  1.00  0.00    -0.248 NA
ATOM     46  C   UNL     1      -7.368  -2.244   2.124  1.00  0.00     0.031 C 
ATOM     47  C   UNL     1      -4.179   0.598   3.177  1.00  0.00     0.029 A 
ATOM     48  N   UNL     1      -4.767   2.075   1.627  1.00  0.00    -0.354 N 
ATOM     49  C   UNL     1      -6.522  -2.478   4.230  1.00  0.00     0.074 A 
ATOM     50  C   UNL     1      -7.289  -3.073   3.168  1.00  0.00     0.031 C 
ATOM     51  C   UNL     1      -3.477   1.724   3.417  1.00  0.00     0.029 A 
ATOM     52  C   UNL     1      -4.082   2.781   2.625  1.00  0.00     0.049 A 
ATOM     53  H   UNL     1      -4.928   2.395   0.710  1.00  0.00     0.167 HD
ATOM     54  C   UNL     1      -5.803  -2.939   5.291  1.00  0.00     0.031 A 
ATOM     55  C   UNL     1      -4.527   4.002   3.026  1.00  0.00     0.031 A 
ATOM     56  C   UNL     1      -5.083  -1.839   5.953  1.00  0.00     0.049 A 
ATOM     57  C   UNL     1      -4.982   3.835   4.446  1.00  0.00     0.074 A 
ATOM     58  C   UNL     1      -3.743  -1.494   6.032  1.00  0.00     0.029 A 
ATOM     59  N   UNL     1      -5.797  -0.712   6.368  1.00  0.00    -0.354 N 
ATOM     60  N   UNL     1      -5.373   2.680   4.915  1.00  0.00    -0.248 NA
ATOM     61  C   UNL     1      -4.887   4.861   5.478  1.00  0.00     0.031 C 
ATOM     62  C   UNL     1      -3.668  -0.119   6.407  1.00  0.00     0.029 A 
ATOM     63  C   UNL     1      -4.957   0.365   6.580  1.00  0.00     0.049 A 
ATOM     64  H   UNL     1      -6.773  -0.689   6.494  1.00  0.00     0.167 HD
ATOM     65  C   UNL     1      -5.389   2.738   6.271  1.00  0.00     0.074 A 
ATOM     66  C   UNL     1      -5.175   4.143   6.580  1.00  0.00     0.031 C 
ATOM     67  C   UNL     1      -5.490   1.636   7.063  1.00  0.00     0.031 A 
BRANCH  54  68
ATOM     68  C   UNL     1      -5.536  -4.405   5.576  1.00  0.00    -0.014 A 
ATOM     69  C   UNL     1      -4.578  -4.753   6.546  1.00  0.00     0.009 A 
ATOM     70  C   UNL     1      -6.133  -5.490   4.907  1.00  0.00     0.009 A 
ATOM     71  C   UNL     1      -4.217  -6.085   6.803  1.00  0.00     0.001 A 
ATOM     72  C   UNL     1      -5.780  -6.826   5.156  1.00  0.00     0.001 A 
ATOM     73  C   UNL     1      -4.815  -7.124   6.103  1.00  0.00     0.000 A 
ENDBRANCH  54  68
BRANCH  55  74
ATOM     74  C   UNL     1      -5.161   4.749   1.890  1.00  0.00    -0.014 A 
ATOM     75  C   UNL     1      -4.292   5.206   0.866  1.00  0.00     0.009 A 
ATOM     76  C   UNL     1      -6.509   4.549   1.558  1.00  0.00     0.009 A 
ATOM     77  C   UNL     1      -4.720   5.298  -0.466  1.00  0.00     0.001 A 
ATOM     78  C   UNL     1      -6.933   4.649   0.220  1.00  0.00     0.001 A 
ATOM     79  C   UNL     1      -6.031   4.972  -0.795  1.00  0.00     0.000 A 
ENDBRANCH  55  74
BRANCH  67  80
ATOM     80  C   UNL     1      -6.085   1.693   8.434  1.00  0.00    -0.014 A 
ATOM     81  C   UNL     1      -6.928   2.734   8.846  1.00  0.00     0.009 A 
ATOM     82  C   UNL     1      -5.983   0.566   9.273  1.00  0.00     0.009 A 
ATOM     83  C   UNL     1      -7.596   2.676  10.068  1.00  0.00     0.001 A 
ATOM     84  C   UNL     1      -6.699   0.478  10.463  1.00  0.00     0.001 A 
ATOM     85  C   UNL     1      -7.492   1.543  10.869  1.00  0.00     0.000 A 
ENDBRANCH  67  80
ENDBRANCH  41  42
ENDBRANCH  34  36
ENDBRANCH  33  34
ENDBRANCH  32  33
ENDBRANCH  31  32
ENDBRANCH  30  31
ENDBRANCH   1  30
TORSDOF 17
