REMARK SMILES C[NH+]1CCC([N@@H+](C)CCC(=O)OCCOCCOC(=O)c2ccc(-c3c4nc(c(-c5ccccc5)c5ccc([nH]5)c(-c5ccccc5)c5nc(c(-c6ccccc6)c6ccc3[nH]6)C=C5)C=C4)cc2)CC1
REMARK SMILES IDX 14 1 13 2 12 3 10 4 11 5 9 6 8 7 6 8 7 9 5 11 1 12 2 13 3 14
REMARK SMILES IDX 70 15 4 17 69 18 15 19 16 20 17 21 18 22 19 23 20 24 21 25
REMARK SMILES IDX 22 26 68 27 23 28 67 29 24 30 25 31 26 32 61 33 27 34 66 35
REMARK SMILES IDX 60 36 62 37 28 38 65 39 59 40 58 41 29 43 51 44 36 45 50 46
REMARK SMILES IDX 37 47 40 48 49 49 63 50 38 51 39 52 48 54 64 55 41 56 30 57
REMARK SMILES IDX 31 58 35 59 32 60 34 61 33 62 52 63 53 64 57 65 54 66 56 67
REMARK SMILES IDX 55 68 42 69 43 70 47 71 44 72 46 73 45 74
REMARK H PARENT 6 10 2 16 62 42 40 53
REMARK Flexibility Score: inf
ROOT
ATOM      1  C   UNL     1      -1.700   0.151   2.125  1.00  0.00     0.202 C 
ENDROOT
BRANCH   1   2
ATOM      2  C   UNL     1      -0.966   1.441   2.515  1.00  0.00     0.261 C 
BRANCH   2   3
ATOM      3  O   UNL     1       0.410   1.441   2.083  1.00  0.00    -0.463 OA
BRANCH   3   4
ATOM      4  C   UNL     1       1.361   1.713   3.013  1.00  0.00     0.311 C 
ATOM      5  O   UNL     1       1.158   1.832   4.214  1.00  0.00    -0.252 OA
BRANCH   4   6
ATOM      6  C   UNL     1       2.713   1.971   2.381  1.00  0.00     0.184 C 
BRANCH   6   7
ATOM      7  C   UNL     1       3.272   0.784   1.593  1.00  0.00     0.274 C 
BRANCH   7   8
ATOM      8  N   UNL     1       3.591   0.949   0.159  1.00  0.00    -0.334 N 
ATOM      9  C   UNL     1       4.680   1.890  -0.073  1.00  0.00     0.332 C 
ATOM     10  H   UNL     1       3.920   0.013  -0.081  1.00  0.00     0.348 HD
BRANCH   8  11
ATOM     11  C   UNL     1       2.470   1.097  -0.804  1.00  0.00     0.195 C 
ATOM     12  C   UNL     1      -1.767   1.609  -1.609  1.00  0.00     0.332 C 
ATOM     13  N   UNL     1      -0.408   1.504  -1.087  1.00  0.00    -0.337 N 
ATOM     14  C   UNL     1       0.493   2.499  -1.659  1.00  0.00     0.268 C 
ATOM     15  C   UNL     1       0.139   0.180  -1.356  1.00  0.00     0.268 C 
ATOM     16  H   UNL     1      -0.475   1.671  -0.083  1.00  0.00     0.347 HD
ATOM     17  C   UNL     1       1.796   2.484  -0.860  1.00  0.00     0.126 C 
ATOM     18  C   UNL     1       1.476  -0.060  -0.677  1.00  0.00     0.126 C 
ENDBRANCH   8  11
ENDBRANCH   7   8
ENDBRANCH   6   7
ENDBRANCH   4   6
ENDBRANCH   3   4
ENDBRANCH   2   3
ENDBRANCH   1   2
BRANCH   1  19
ATOM     19  O   UNL     1      -1.357  -0.956   2.961  1.00  0.00    -0.374 OA
BRANCH  19  20
ATOM     20  C   UNL     1      -0.228  -1.714   2.519  1.00  0.00     0.202 C 
BRANCH  20  21
ATOM     21  C   UNL     1      -0.637  -2.947   1.697  1.00  0.00     0.261 C 
BRANCH  21  22
ATOM     22  O   UNL     1      -0.436  -2.728   0.279  1.00  0.00    -0.460 OA
BRANCH  22  23
ATOM     23  C   UNL     1      -1.429  -3.159  -0.547  1.00  0.00     0.338 C 
ATOM     24  O   UNL     1      -2.469  -3.689  -0.220  1.00  0.00    -0.246 OA
BRANCH  23  25
ATOM     25  C   UNL     1      -1.134  -2.775  -1.957  1.00  0.00     0.060 A 
ATOM     26  C   UNL     1      -2.160  -2.163  -2.691  1.00  0.00     0.016 A 
ATOM     27  C   UNL     1       0.123  -2.954  -2.548  1.00  0.00     0.016 A 
ATOM     28  C   UNL     1      -1.936  -1.734  -4.005  1.00  0.00     0.010 A 
ATOM     29  C   UNL     1       0.345  -2.527  -3.871  1.00  0.00     0.010 A 
ATOM     30  C   UNL     1      -0.689  -1.931  -4.618  1.00  0.00    -0.014 A 
BRANCH  30  31
ATOM     31  C   UNL     1      -0.569  -1.735  -6.092  1.00  0.00     0.031 A 
ATOM     32  C   UNL     1      -0.833  -2.927  -6.977  1.00  0.00     0.074 A 
ATOM     33  C   UNL     1      -0.319  -0.542  -6.668  1.00  0.00     0.049 A 
ATOM     34  N   UNL     1      -0.909  -2.996  -8.282  1.00  0.00    -0.248 NA
ATOM     35  C   UNL     1      -1.053  -4.209  -6.289  1.00  0.00     0.031 C 
ATOM     36  C   UNL     1      -0.083   0.718  -5.968  1.00  0.00     0.029 A 
ATOM     37  N   UNL     1      -0.241  -0.202  -8.001  1.00  0.00    -0.354 N 
ATOM     38  C   UNL     1      -1.215  -4.320  -8.567  1.00  0.00     0.074 A 
ATOM     39  C   UNL     1      -1.259  -5.028  -7.307  1.00  0.00     0.031 C 
ATOM     40  C   UNL     1       0.102   1.695  -6.877  1.00  0.00     0.029 A 
ATOM     41  C   UNL     1       0.009   1.132  -8.225  1.00  0.00     0.049 A 
ATOM     42  H   UNL     1      -0.353  -0.855  -8.729  1.00  0.00     0.167 HD
ATOM     43  C   UNL     1      -1.460  -4.906  -9.762  1.00  0.00     0.031 A 
ATOM     44  C   UNL     1       0.140   1.819  -9.379  1.00  0.00     0.031 A 
ATOM     45  C   UNL     1      -1.378  -4.249 -11.035  1.00  0.00     0.049 A 
ATOM     46  C   UNL     1      -0.013   1.116 -10.709  1.00  0.00     0.074 A 
ATOM     47  C   UNL     1      -1.584  -4.783 -12.295  1.00  0.00     0.029 A 
ATOM     48  N   UNL     1      -1.048  -2.917 -11.211  1.00  0.00    -0.354 N 
ATOM     49  N   UNL     1      -0.350  -0.125 -10.957  1.00  0.00    -0.248 NA
ATOM     50  C   UNL     1       0.224   1.923 -11.920  1.00  0.00     0.031 C 
ATOM     51  C   UNL     1      -1.331  -3.783 -13.239  1.00  0.00     0.029 A 
ATOM     52  C   UNL     1      -1.017  -2.617 -12.562  1.00  0.00     0.049 A 
ATOM     53  H   UNL     1      -0.863  -2.279 -10.485  1.00  0.00     0.167 HD
ATOM     54  C   UNL     1      -0.400  -0.236 -12.344  1.00  0.00     0.074 A 
ATOM     55  C   UNL     1      -0.067   1.062 -12.886  1.00  0.00     0.031 C 
ATOM     56  C   UNL     1      -0.699  -1.321 -13.100  1.00  0.00     0.031 A 
BRANCH  43  57
ATOM     57  C   UNL     1      -1.814  -6.362  -9.729  1.00  0.00    -0.014 A 
ATOM     58  C   UNL     1      -3.082  -6.782  -9.293  1.00  0.00     0.009 A 
ATOM     59  C   UNL     1      -0.868  -7.322 -10.113  1.00  0.00     0.009 A 
ATOM     60  C   UNL     1      -3.379  -8.141  -9.204  1.00  0.00     0.001 A 
ATOM     61  C   UNL     1      -1.177  -8.680 -10.045  1.00  0.00     0.001 A 
ATOM     62  C   UNL     1      -2.428  -9.089  -9.581  1.00  0.00     0.000 A 
ENDBRANCH  43  57
BRANCH  44  63
ATOM     63  C   UNL     1       0.442   3.278  -9.368  1.00  0.00    -0.014 A 
ATOM     64  C   UNL     1      -0.518   4.209  -9.800  1.00  0.00     0.009 A 
ATOM     65  C   UNL     1       1.720   3.737  -9.018  1.00  0.00     0.009 A 
ATOM     66  C   UNL     1      -0.191   5.563  -9.914  1.00  0.00     0.001 A 
ATOM     67  C   UNL     1       2.036   5.096  -9.110  1.00  0.00     0.001 A 
ATOM     68  C   UNL     1       1.085   6.005  -9.569  1.00  0.00     0.000 A 
ENDBRANCH  44  63
BRANCH  56  69
ATOM     69  C   UNL     1      -0.724  -1.157 -14.594  1.00  0.00    -0.014 A 
ATOM     70  C   UNL     1       0.461  -1.042 -15.337  1.00  0.00     0.009 A 
ATOM     71  C   UNL     1      -1.952  -1.196 -15.276  1.00  0.00     0.009 A 
ATOM     72  C   UNL     1       0.415  -0.947 -16.730  1.00  0.00     0.001 A 
ATOM     73  C   UNL     1      -1.993  -1.125 -16.670  1.00  0.00     0.001 A 
ATOM     74  C   UNL     1      -0.810  -0.995 -17.395  1.00  0.00     0.000 A 
ENDBRANCH  56  69
ENDBRANCH  30  31
ENDBRANCH  23  25
ENDBRANCH  22  23
ENDBRANCH  21  22
ENDBRANCH  20  21
ENDBRANCH  19  20
ENDBRANCH   1  19
TORSDOF 17
