REMARK SMILES C[C@H](O)[C@H](NC(=O)COCC[NH3+])C(=O)OCCOCCOC(=O)c1ccc(-c2c3nc(c(-c4ccccc4)c4ccc([nH]4)c(-c4ccccc4)c4nc(c(-c5ccccc5)c5ccc2[nH]5)C=C4)C=C3)cc1
REMARK SMILES IDX 16 1 15 2 13 3 14 4 4 5 2 6 1 7 3 8 5 10 6 11 7 13 8 14 9 15
REMARK SMILES IDX 10 16 11 17 12 18 17 22 18 23 19 24 20 25 21 26 22 27 23 28
REMARK SMILES IDX 24 29 25 30 71 31 26 32 70 33 27 34 28 35 29 36 64 37 30 38
REMARK SMILES IDX 69 39 63 40 65 41 31 42 68 43 62 44 61 45 32 47 54 48 39 49
REMARK SMILES IDX 53 50 40 51 43 52 52 53 66 54 41 55 42 56 51 58 67 59 44 60
REMARK SMILES IDX 33 61 34 62 38 63 35 64 37 65 36 66 55 67 56 68 60 69 57 70
REMARK SMILES IDX 59 71 58 72 45 73 46 74 50 75 47 76 49 77 48 78
REMARK H PARENT 3 9 5 12 12 19 12 20 12 21 65 46 43 57
REMARK Flexibility Score: inf
ROOT
ATOM      1  C   UNL     1      -2.519  -4.234  -2.357  1.00  0.00     0.261 C 
ENDROOT
BRANCH   1   2
ATOM      2  O   UNL     1      -1.876  -3.012  -1.958  1.00  0.00    -0.462 OA
BRANCH   2   3
ATOM      3  C   UNL     1      -2.593  -2.260  -1.072  1.00  0.00     0.331 C 
ATOM      4  O   UNL     1      -3.697  -2.572  -0.637  1.00  0.00    -0.250 OA
BRANCH   3   5
ATOM      5  C   UNL     1      -1.873  -0.959  -0.671  1.00  0.00     0.221 C 
BRANCH   5   6
ATOM      6  C   UNL     1      -2.488   0.261  -1.385  1.00  0.00     0.145 C 
ATOM      7  C   UNL     1      -2.519   1.465  -0.448  1.00  0.00     0.041 C 
BRANCH   6   8
ATOM      8  O   UNL     1      -3.832   0.032  -1.810  1.00  0.00    -0.391 OA
ATOM      9  H   UNL     1      -4.393  -0.131  -1.036  1.00  0.00     0.211 HD
ENDBRANCH   6   8
ENDBRANCH   5   6
BRANCH   5  10
ATOM     10  N   UNL     1      -0.393  -1.098  -0.660  1.00  0.00    -0.339 N 
ATOM     11  C   UNL     1       0.694  -0.460  -1.147  1.00  0.00     0.246 C 
ATOM     12  H   UNL     1      -0.125  -1.893  -0.145  1.00  0.00     0.164 HD
ATOM     13  O   UNL     1       1.790  -0.897  -0.776  1.00  0.00    -0.272 OA
BRANCH  11  14
ATOM     14  C   UNL     1       0.627   0.738  -2.092  1.00  0.00     0.260 C 
BRANCH  14  15
ATOM     15  O   UNL     1       0.077   0.517  -3.380  1.00  0.00    -0.366 OA
BRANCH  15  16
ATOM     16  C   UNL     1       0.756  -0.486  -4.141  1.00  0.00     0.222 C 
BRANCH  16  17
ATOM     17  C   UNL     1       1.727   0.119  -5.164  1.00  0.00     0.287 C 
BRANCH  17  18
ATOM     18  N   UNL     1       2.903   0.738  -4.550  1.00  0.00    -0.356 N 
ATOM     19  H   UNL     1       2.607   1.510  -3.952  1.00  0.00     0.344 HD
ATOM     20  H   UNL     1       3.521   1.091  -5.280  1.00  0.00     0.344 HD
ATOM     21  H   UNL     1       3.399   0.045  -3.991  1.00  0.00     0.344 HD
ENDBRANCH  17  18
ENDBRANCH  16  17
ENDBRANCH  15  16
ENDBRANCH  14  15
ENDBRANCH  11  14
ENDBRANCH   5  10
ENDBRANCH   3   5
ENDBRANCH   2   3
ENDBRANCH   1   2
BRANCH   1  22
ATOM     22  C   UNL     1      -1.886  -5.483  -1.735  1.00  0.00     0.202 C 
BRANCH  22  23
ATOM     23  O   UNL     1      -1.793  -5.538  -0.315  1.00  0.00    -0.374 OA
BRANCH  23  24
ATOM     24  C   UNL     1      -0.751  -4.788   0.307  1.00  0.00     0.202 C 
BRANCH  24  25
ATOM     25  C   UNL     1       0.681  -5.315   0.157  1.00  0.00     0.261 C 
BRANCH  25  26
ATOM     26  O   UNL     1       1.154  -5.224  -1.200  1.00  0.00    -0.460 OA
BRANCH  26  27
ATOM     27  C   UNL     1       1.410  -6.412  -1.794  1.00  0.00     0.338 C 
ATOM     28  O   UNL     1       1.349  -7.526  -1.287  1.00  0.00    -0.246 OA
BRANCH  27  29
ATOM     29  C   UNL     1       1.602  -6.225  -3.242  1.00  0.00     0.060 A 
ATOM     30  C   UNL     1       0.774  -6.957  -4.104  1.00  0.00     0.016 A 
ATOM     31  C   UNL     1       2.627  -5.425  -3.749  1.00  0.00     0.016 A 
ATOM     32  C   UNL     1       1.003  -6.934  -5.477  1.00  0.00     0.010 A 
ATOM     33  C   UNL     1       2.864  -5.414  -5.128  1.00  0.00     0.010 A 
ATOM     34  C   UNL     1       2.077  -6.197  -5.992  1.00  0.00    -0.014 A 
BRANCH  34  35
ATOM     35  C   UNL     1       2.466  -6.371  -7.412  1.00  0.00     0.031 A 
ATOM     36  C   UNL     1       3.585  -7.316  -7.751  1.00  0.00     0.074 A 
ATOM     37  C   UNL     1       1.807  -5.726  -8.390  1.00  0.00     0.049 A 
ATOM     38  N   UNL     1       4.102  -7.604  -8.918  1.00  0.00    -0.248 NA
ATOM     39  C   UNL     1       4.201  -8.036  -6.624  1.00  0.00     0.031 C 
ATOM     40  C   UNL     1       0.667  -4.832  -8.197  1.00  0.00     0.029 A 
ATOM     41  N   UNL     1       2.008  -5.731  -9.747  1.00  0.00    -0.354 N 
ATOM     42  C   UNL     1       5.104  -8.533  -8.666  1.00  0.00     0.074 A 
ATOM     43  C   UNL     1       5.142  -8.740  -7.235  1.00  0.00     0.031 C 
ATOM     44  C   UNL     1       0.270  -4.370  -9.395  1.00  0.00     0.029 A 
ATOM     45  C   UNL     1       1.149  -4.908 -10.432  1.00  0.00     0.049 A 
ATOM     46  H   UNL     1       2.703  -6.272 -10.188  1.00  0.00     0.167 HD
ATOM     47  C   UNL     1       5.918  -9.162  -9.547  1.00  0.00     0.031 A 
ATOM     48  C   UNL     1       1.092  -4.608 -11.743  1.00  0.00     0.031 A 
ATOM     49  C   UNL     1       5.897  -8.944 -10.969  1.00  0.00     0.049 A 
ATOM     50  C   UNL     1       2.075  -5.243 -12.691  1.00  0.00     0.074 A 
ATOM     51  C   UNL     1       6.680  -9.535 -11.945  1.00  0.00     0.029 A 
ATOM     52  N   UNL     1       5.053  -8.055 -11.616  1.00  0.00    -0.354 N 
ATOM     53  N   UNL     1       3.009  -6.128 -12.443  1.00  0.00    -0.248 NA
ATOM     54  C   UNL     1       1.990  -4.837 -14.101  1.00  0.00     0.031 C 
ATOM     55  C   UNL     1       6.345  -8.963 -13.178  1.00  0.00     0.029 A 
ATOM     56  C   UNL     1       5.315  -8.060 -12.975  1.00  0.00     0.049 A 
ATOM     57  H   UNL     1       4.368  -7.503 -11.174  1.00  0.00     0.167 HD
ATOM     58  C   UNL     1       3.604  -6.406 -13.668  1.00  0.00     0.074 A 
ATOM     59  C   UNL     1       2.917  -5.603 -14.659  1.00  0.00     0.031 C 
ATOM     60  C   UNL     1       4.625  -7.253 -13.948  1.00  0.00     0.031 A 
BRANCH  47  61
ATOM     61  C   UNL     1       6.930 -10.122  -8.986  1.00  0.00    -0.014 A 
ATOM     62  C   UNL     1       6.544 -11.368  -8.468  1.00  0.00     0.009 A 
ATOM     63  C   UNL     1       8.291  -9.782  -8.997  1.00  0.00     0.009 A 
ATOM     64  C   UNL     1       7.499 -12.240  -7.939  1.00  0.00     0.001 A 
ATOM     65  C   UNL     1       9.246 -10.667  -8.492  1.00  0.00     0.001 A 
ATOM     66  C   UNL     1       8.849 -11.890  -7.955  1.00  0.00     0.000 A 
ENDBRANCH  47  61
BRANCH  48  67
ATOM     67  C   UNL     1       0.080  -3.642 -12.242  1.00  0.00    -0.014 A 
ATOM     68  C   UNL     1      -0.986  -4.074 -13.045  1.00  0.00     0.009 A 
ATOM     69  C   UNL     1       0.187  -2.277 -11.931  1.00  0.00     0.009 A 
ATOM     70  C   UNL     1      -1.913  -3.155 -13.543  1.00  0.00     0.001 A 
ATOM     71  C   UNL     1      -0.756  -1.365 -12.409  1.00  0.00     0.001 A 
ATOM     72  C   UNL     1      -1.800  -1.803 -13.221  1.00  0.00     0.000 A 
ENDBRANCH  48  67
BRANCH  60  73
ATOM     73  C   UNL     1       5.038  -7.382 -15.387  1.00  0.00    -0.014 A 
ATOM     74  C   UNL     1       5.750  -6.362 -16.036  1.00  0.00     0.009 A 
ATOM     75  C   UNL     1       4.748  -8.563 -16.089  1.00  0.00     0.009 A 
ATOM     76  C   UNL     1       6.136  -6.510 -17.370  1.00  0.00     0.001 A 
ATOM     77  C   UNL     1       5.160  -8.719 -17.413  1.00  0.00     0.001 A 
ATOM     78  C   UNL     1       5.846  -7.689 -18.055  1.00  0.00     0.000 A 
ENDBRANCH  60  73
ENDBRANCH  34  35
ENDBRANCH  27  29
ENDBRANCH  26  27
ENDBRANCH  25  26
ENDBRANCH  24  25
ENDBRANCH  23  24
ENDBRANCH  22  23
ENDBRANCH   1  22
TORSDOF 22
