REMARK SMILES CC[N@@H+]1CCO[C@@H](Cn2cc(C(=O)OCCOCCOC(=O)c3ccc(-c4c5nc(c(-c6ccccc6)c6ccc([nH]6)c(-c6ccccc6)c6nc(c(-c7ccccc7)c7ccc4[nH]7)C=C6)C=C5)cc3)nn2)C1
REMARK SMILES IDX 16 1 15 2 14 3 12 4 13 5 11 6 9 7 10 8 72 9 71 10 8 11 7 12
REMARK SMILES IDX 3 13 4 14 73 15 5 17 6 18 2 19 1 20 17 21 18 22 19 23 20 24
REMARK SMILES IDX 21 25 22 26 23 27 24 28 70 29 25 30 69 31 26 32 27 33 28 34
REMARK SMILES IDX 63 35 29 36 68 37 62 38 64 39 30 40 67 41 61 42 60 43 31 45
REMARK SMILES IDX 53 46 38 47 52 48 39 49 42 50 51 51 65 52 40 53 41 54 50 56
REMARK SMILES IDX 66 57 43 58 32 59 33 60 37 61 34 62 36 63 35 64 54 65 55 66
REMARK SMILES IDX 59 67 56 68 58 69 57 70 44 71 45 72 49 73 46 74 48 75 47 76
REMARK H PARENT 3 16 64 44 42 55
REMARK Flexibility Score: inf
ROOT
ATOM      1  C   UNL     1       2.304   4.976   3.959  1.00  0.00     0.202 C 
ENDROOT
BRANCH   1   2
ATOM      2  C   UNL     1       1.757   4.423   2.641  1.00  0.00     0.261 C 
BRANCH   2   3
ATOM      3  O   UNL     1       1.867   2.992   2.562  1.00  0.00    -0.458 OA
BRANCH   3   4
ATOM      4  C   UNL     1       2.812   2.544   1.677  1.00  0.00     0.360 C 
ATOM      5  O   UNL     1       3.420   3.262   0.898  1.00  0.00    -0.244 OA
BRANCH   4   6
ATOM      6  C   UNL     1       3.092   1.123   1.824  1.00  0.00     0.190 A 
ATOM      7  N   UNL     1       2.969  -1.030   1.949  1.00  0.00    -0.249 N 
ATOM      8  C   UNL     1       2.280   0.105   2.289  1.00  0.00     0.147 A 
ATOM      9  N   UNL     1       4.220  -0.736   1.564  1.00  0.00    -0.066 NA
ATOM     10  N   UNL     1       4.293   0.580   1.433  1.00  0.00    -0.123 NA
BRANCH   7  11
ATOM     11  C   UNL     1       2.413  -2.326   1.609  1.00  0.00     0.184 C 
BRANCH  11  12
ATOM     12  C   UNL     1       1.419  -2.205   0.448  1.00  0.00     0.194 C 
ATOM     13  N   UNL     1       1.100  -1.435  -1.913  1.00  0.00    -0.331 N 
ATOM     14  C   UNL     1       0.336  -2.677  -2.136  1.00  0.00     0.291 C 
ATOM     15  C   UNL     1       2.079  -1.663  -0.841  1.00  0.00     0.296 C 
ATOM     16  H   UNL     1       1.655  -1.201  -2.736  1.00  0.00     0.348 HD
ATOM     17  C   UNL     1      -0.208  -3.318  -0.841  1.00  0.00     0.222 C 
ATOM     18  O   UNL     1       0.810  -3.481   0.168  1.00  0.00    -0.365 OA
BRANCH  13  19
ATOM     19  C   UNL     1       0.255  -0.235  -1.832  1.00  0.00     0.258 C 
ATOM     20  C   UNL     1       0.506   0.795  -0.732  1.00  0.00     0.071 C 
ENDBRANCH  13  19
ENDBRANCH  11  12
ENDBRANCH   7  11
ENDBRANCH   4   6
ENDBRANCH   3   4
ENDBRANCH   2   3
ENDBRANCH   1   2
BRANCH   1  21
ATOM     21  O   UNL     1       3.696   4.832   4.234  1.00  0.00    -0.374 OA
BRANCH  21  22
ATOM     22  C   UNL     1       4.271   3.547   4.430  1.00  0.00     0.202 C 
BRANCH  22  23
ATOM     23  C   UNL     1       3.882   2.747   5.664  1.00  0.00     0.261 C 
BRANCH  23  24
ATOM     24  O   UNL     1       2.479   2.595   5.809  1.00  0.00    -0.460 OA
BRANCH  24  25
ATOM     25  C   UNL     1       1.945   3.432   6.729  1.00  0.00     0.338 C 
ATOM     26  O   UNL     1       2.425   4.463   7.162  1.00  0.00    -0.246 OA
BRANCH  25  27
ATOM     27  C   UNL     1       0.749   2.800   7.289  1.00  0.00     0.060 A 
ATOM     28  C   UNL     1       0.085   3.507   8.295  1.00  0.00     0.016 A 
ATOM     29  C   UNL     1       0.525   1.436   7.058  1.00  0.00     0.016 A 
ATOM     30  C   UNL     1      -0.640   2.793   9.219  1.00  0.00     0.010 A 
ATOM     31  C   UNL     1      -0.172   0.722   7.997  1.00  0.00     0.010 A 
ATOM     32  C   UNL     1      -0.672   1.400   9.106  1.00  0.00    -0.014 A 
BRANCH  32  33
ATOM     33  C   UNL     1      -1.368   0.647  10.122  1.00  0.00     0.031 A 
ATOM     34  C   UNL     1      -2.837   0.742   9.965  1.00  0.00     0.074 A 
ATOM     35  C   UNL     1      -0.714  -0.149  10.989  1.00  0.00     0.049 A 
ATOM     36  N   UNL     1      -3.680   1.295  10.769  1.00  0.00    -0.248 NA
ATOM     37  C   UNL     1      -3.411   0.352   8.662  1.00  0.00     0.031 C 
ATOM     38  C   UNL     1       0.710  -0.501  10.991  1.00  0.00     0.029 A 
ATOM     39  N   UNL     1      -1.215  -0.928  11.982  1.00  0.00    -0.354 N 
ATOM     40  C   UNL     1      -4.921   1.119  10.170  1.00  0.00     0.074 A 
ATOM     41  C   UNL     1      -4.672   0.756   8.801  1.00  0.00     0.031 C 
ATOM     42  C   UNL     1       0.892  -1.606  11.751  1.00  0.00     0.029 A 
ATOM     43  C   UNL     1      -0.372  -1.961  12.376  1.00  0.00     0.049 A 
ATOM     44  H   UNL     1      -2.098  -0.774  12.388  1.00  0.00     0.167 HD
ATOM     45  C   UNL     1      -6.040   0.950  10.925  1.00  0.00     0.031 A 
ATOM     46  C   UNL     1      -0.728  -3.068  13.079  1.00  0.00     0.031 A 
ATOM     47  C   UNL     1      -5.843   1.417  12.273  1.00  0.00     0.049 A 
ATOM     48  C   UNL     1      -2.055  -2.804  13.689  1.00  0.00     0.074 A 
ATOM     49  C   UNL     1      -5.484   2.626  12.836  1.00  0.00     0.029 A 
ATOM     50  N   UNL     1      -5.615   0.465  13.238  1.00  0.00    -0.354 N 
ATOM     51  N   UNL     1      -2.247  -1.945  14.648  1.00  0.00    -0.248 NA
ATOM     52  C   UNL     1      -3.236  -3.137  12.905  1.00  0.00     0.031 C 
ATOM     53  C   UNL     1      -4.624   2.286  13.921  1.00  0.00     0.029 A 
ATOM     54  C   UNL     1      -4.572   0.895  14.015  1.00  0.00     0.049 A 
ATOM     55  H   UNL     1      -6.113  -0.377  13.351  1.00  0.00     0.167 HD
ATOM     56  C   UNL     1      -3.423  -1.293  14.305  1.00  0.00     0.074 A 
ATOM     57  C   UNL     1      -4.032  -2.127  13.269  1.00  0.00     0.031 C 
ATOM     58  C   UNL     1      -3.641   0.005  14.671  1.00  0.00     0.031 A 
BRANCH  45  59
ATOM     59  C   UNL     1      -7.095  -0.069  10.570  1.00  0.00    -0.014 A 
ATOM     60  C   UNL     1      -8.223  -0.178  11.398  1.00  0.00     0.009 A 
ATOM     61  C   UNL     1      -6.889  -1.113   9.644  1.00  0.00     0.009 A 
ATOM     62  C   UNL     1      -9.047  -1.309  11.356  1.00  0.00     0.001 A 
ATOM     63  C   UNL     1      -7.732  -2.221   9.568  1.00  0.00     0.001 A 
ATOM     64  C   UNL     1      -8.796  -2.333  10.448  1.00  0.00     0.000 A 
ENDBRANCH  45  59
BRANCH  46  65
ATOM     65  C   UNL     1      -0.178  -4.442  12.992  1.00  0.00    -0.014 A 
ATOM     66  C   UNL     1      -0.473  -5.397  13.980  1.00  0.00     0.009 A 
ATOM     67  C   UNL     1       0.410  -4.902  11.800  1.00  0.00     0.009 A 
ATOM     68  C   UNL     1      -0.226  -6.761  13.764  1.00  0.00     0.001 A 
ATOM     69  C   UNL     1       0.662  -6.262  11.586  1.00  0.00     0.001 A 
ATOM     70  C   UNL     1       0.329  -7.194  12.562  1.00  0.00     0.000 A 
ENDBRANCH  46  65
BRANCH  58  71
ATOM     71  C   UNL     1      -2.701   0.628  15.674  1.00  0.00    -0.014 A 
ATOM     72  C   UNL     1      -1.311   0.739  15.483  1.00  0.00     0.009 A 
ATOM     73  C   UNL     1      -3.266   1.246  16.800  1.00  0.00     0.009 A 
ATOM     74  C   UNL     1      -0.512   1.411  16.416  1.00  0.00     0.001 A 
ATOM     75  C   UNL     1      -2.472   1.936  17.717  1.00  0.00     0.001 A 
ATOM     76  C   UNL     1      -1.095   2.011  17.530  1.00  0.00     0.000 A 
ENDBRANCH  58  71
ENDBRANCH  32  33
ENDBRANCH  25  27
ENDBRANCH  24  25
ENDBRANCH  23  24
ENDBRANCH  22  23
ENDBRANCH  21  22
ENDBRANCH   1  21
TORSDOF 17
