REMARK SMILES Nc1c(CC(=O)OCCOCCOC(=O)c2ccc(-c3c4nc(c(-c5ccccc5)c5ccc([nH]5)c(-c5ccccc5)c5nc(c(-c6ccccc6)c6ccc3[nH]6)C=C5)C=C4)cc2)cccc1C(=O)c1ccc(Br)cc1
REMARK SMILES IDX 9 1 8 2 7 3 5 4 6 5 4 6 3 7 2 8 67 9 64 10 66 11 65 12 1 13
REMARK SMILES IDX 68 16 69 17 70 18 71 19 76 20 72 21 75 22 73 23 74 24 10 25
REMARK SMILES IDX 11 26 12 27 13 28 14 29 15 30 16 31 17 32 63 33 18 34 62 35
REMARK SMILES IDX 19 36 20 37 21 38 56 39 22 40 61 41 55 42 57 43 23 44 60 45
REMARK SMILES IDX 54 46 53 47 24 49 46 50 31 51 45 52 32 53 35 54 44 55 58 56
REMARK SMILES IDX 33 57 34 58 43 60 59 61 36 62 25 63 26 64 30 65 27 66 29 67
REMARK SMILES IDX 28 68 47 69 48 70 52 71 49 72 51 73 50 74 37 75 38 76 42 77
REMARK SMILES IDX 39 78 41 79 40 80
REMARK H PARENT 1 14 1 15 57 48 35 59
REMARK Flexibility Score: inf
ROOT
ATOM      1  C   UNL     1      -0.339  -4.237   3.510  1.00  0.00     0.202 C 
ENDROOT
BRANCH   1   2
ATOM      2  C   UNL     1       1.057  -4.019   2.919  1.00  0.00     0.261 C 
BRANCH   2   3
ATOM      3  O   UNL     1       1.005  -3.068   1.842  1.00  0.00    -0.463 OA
BRANCH   3   4
ATOM      4  C   UNL     1       1.736  -3.385   0.745  1.00  0.00     0.310 C 
ATOM      5  O   UNL     1       2.578  -4.277   0.708  1.00  0.00    -0.252 OA
BRANCH   4   6
ATOM      6  C   UNL     1       1.352  -2.605  -0.490  1.00  0.00     0.160 C 
BRANCH   6   7
ATOM      7  C   UNL     1       0.618  -1.289  -0.311  1.00  0.00    -0.013 A 
ATOM      8  C   UNL     1       1.271  -0.127   0.158  1.00  0.00     0.047 A 
ATOM      9  C   UNL     1       0.574   1.106   0.072  1.00  0.00     0.046 A 
ATOM     10  C   UNL     1      -0.739  -1.227  -0.688  1.00  0.00     0.006 A 
ATOM     11  C   UNL     1      -0.786   1.136  -0.283  1.00  0.00     0.014 A 
ATOM     12  C   UNL     1      -1.446  -0.031  -0.642  1.00  0.00     0.001 A 
BRANCH   8  13
ATOM     13  N   UNL     1       2.599  -0.209   0.575  1.00  0.00    -0.398 N 
ATOM     14  H   UNL     1       3.046  -1.085   0.621  1.00  0.00     0.156 HD
ATOM     15  H   UNL     1       3.088   0.608   0.825  1.00  0.00     0.156 HD
ENDBRANCH   8  13
BRANCH   9  16
ATOM     16  C   UNL     1       1.191   2.440   0.336  1.00  0.00     0.195 C 
ATOM     17  O   UNL     1       0.522   3.335   0.846  1.00  0.00    -0.289 OA
BRANCH  16  18
ATOM     18  C   UNL     1       2.607   2.721  -0.002  1.00  0.00     0.023 A 
ATOM     19  C   UNL     1       3.377   3.419   0.936  1.00  0.00     0.013 A 
ATOM     20  C   UNL     1       3.194   2.245  -1.181  1.00  0.00     0.013 A 
ATOM     21  C   UNL     1       4.749   3.573   0.733  1.00  0.00     0.016 A 
ATOM     22  C   UNL     1       4.568   2.400  -1.382  1.00  0.00     0.016 A 
ATOM     23  C   UNL     1       5.340   3.047  -0.416  1.00  0.00     0.018 A 
ATOM     24  Br  UNL     1       7.210   3.190  -0.654  1.00  0.00    -0.051 Br
ENDBRANCH  16  18
ENDBRANCH   9  16
ENDBRANCH   6   7
ENDBRANCH   4   6
ENDBRANCH   3   4
ENDBRANCH   2   3
ENDBRANCH   1   2
BRANCH   1  25
ATOM     25  O   UNL     1      -1.306  -4.804   2.622  1.00  0.00    -0.374 OA
BRANCH  25  26
ATOM     26  C   UNL     1      -1.834  -3.955   1.603  1.00  0.00     0.202 C 
BRANCH  26  27
ATOM     27  C   UNL     1      -2.889  -2.935   2.046  1.00  0.00     0.261 C 
BRANCH  27  28
ATOM     28  O   UNL     1      -2.379  -2.005   3.017  1.00  0.00    -0.460 OA
BRANCH  28  29
ATOM     29  C   UNL     1      -2.982  -2.077   4.225  1.00  0.00     0.338 C 
ATOM     30  O   UNL     1      -3.966  -2.745   4.520  1.00  0.00    -0.246 OA
BRANCH  29  31
ATOM     31  C   UNL     1      -2.210  -1.355   5.253  1.00  0.00     0.060 A 
ATOM     32  C   UNL     1      -1.954  -2.045   6.444  1.00  0.00     0.016 A 
ATOM     33  C   UNL     1      -1.850  -0.012   5.120  1.00  0.00     0.016 A 
ATOM     34  C   UNL     1      -1.423  -1.372   7.538  1.00  0.00     0.010 A 
ATOM     35  C   UNL     1      -1.316   0.666   6.225  1.00  0.00     0.010 A 
ATOM     36  C   UNL     1      -1.155   0.001   7.454  1.00  0.00    -0.014 A 
BRANCH  36  37
ATOM     37  C   UNL     1      -0.890   0.740   8.714  1.00  0.00     0.031 A 
ATOM     38  C   UNL     1      -2.027   1.464   9.387  1.00  0.00     0.074 A 
ATOM     39  C   UNL     1       0.311   0.672   9.315  1.00  0.00     0.049 A 
ATOM     40  N   UNL     1      -2.057   2.058  10.554  1.00  0.00    -0.248 NA
ATOM     41  C   UNL     1      -3.301   1.519   8.652  1.00  0.00     0.031 C 
ATOM     42  C   UNL     1       1.481  -0.029   8.790  1.00  0.00     0.029 A 
ATOM     43  N   UNL     1       0.734   1.186  10.515  1.00  0.00    -0.354 N 
ATOM     44  C   UNL     1      -3.350   2.549  10.694  1.00  0.00     0.074 A 
ATOM     45  C   UNL     1      -4.063   2.219   9.479  1.00  0.00     0.031 C 
ATOM     46  C   UNL     1       2.488   0.085   9.673  1.00  0.00     0.029 A 
ATOM     47  C   UNL     1       2.038   0.878  10.815  1.00  0.00     0.049 A 
ATOM     48  H   UNL     1       0.158   1.723  11.105  1.00  0.00     0.167 HD
ATOM     49  C   UNL     1      -3.902   3.205  11.742  1.00  0.00     0.031 A 
ATOM     50  C   UNL     1       2.783   1.196  11.891  1.00  0.00     0.031 A 
ATOM     51  C   UNL     1      -3.198   3.549  12.948  1.00  0.00     0.049 A 
ATOM     52  C   UNL     1       2.164   1.979  13.017  1.00  0.00     0.074 A 
ATOM     53  C   UNL     1      -3.676   4.203  14.070  1.00  0.00     0.029 A 
ATOM     54  N   UNL     1      -1.861   3.272  13.184  1.00  0.00    -0.354 N 
ATOM     55  N   UNL     1       0.931   2.403  13.150  1.00  0.00    -0.248 NA
ATOM     56  C   UNL     1       3.041   2.313  14.149  1.00  0.00     0.031 C 
ATOM     57  C   UNL     1      -2.613   4.365  14.966  1.00  0.00     0.029 A 
ATOM     58  C   UNL     1      -1.489   3.765  14.422  1.00  0.00     0.049 A 
ATOM     59  H   UNL     1      -1.265   2.794  12.562  1.00  0.00     0.167 HD
ATOM     60  C   UNL     1       0.878   3.034  14.387  1.00  0.00     0.074 A 
ATOM     61  C   UNL     1       2.197   2.919  14.973  1.00  0.00     0.031 C 
ATOM     62  C   UNL     1      -0.170   3.652  14.986  1.00  0.00     0.031 A 
BRANCH  49  63
ATOM     63  C   UNL     1      -5.341   3.619  11.613  1.00  0.00    -0.014 A 
ATOM     64  C   UNL     1      -6.379   2.676  11.686  1.00  0.00     0.009 A 
ATOM     65  C   UNL     1      -5.663   4.973  11.438  1.00  0.00     0.009 A 
ATOM     66  C   UNL     1      -7.710   3.079  11.553  1.00  0.00     0.001 A 
ATOM     67  C   UNL     1      -6.996   5.376  11.330  1.00  0.00     0.001 A 
ATOM     68  C   UNL     1      -8.017   4.428  11.379  1.00  0.00     0.000 A 
ENDBRANCH  49  63
BRANCH  50  69
ATOM     69  C   UNL     1       4.206   0.775  11.960  1.00  0.00    -0.014 A 
ATOM     70  C   UNL     1       4.620  -0.215  12.864  1.00  0.00     0.009 A 
ATOM     71  C   UNL     1       5.163   1.380  11.129  1.00  0.00     0.009 A 
ATOM     72  C   UNL     1       5.968  -0.573  12.950  1.00  0.00     0.001 A 
ATOM     73  C   UNL     1       6.504   1.001  11.200  1.00  0.00     0.001 A 
ATOM     74  C   UNL     1       6.907   0.031  12.116  1.00  0.00     0.000 A 
ENDBRANCH  50  69
BRANCH  62  75
ATOM     75  C   UNL     1       0.067   4.233  16.352  1.00  0.00    -0.014 A 
ATOM     76  C   UNL     1       0.831   5.398  16.524  1.00  0.00     0.009 A 
ATOM     77  C   UNL     1      -0.504   3.620  17.479  1.00  0.00     0.009 A 
ATOM     78  C   UNL     1       1.048   5.917  17.802  1.00  0.00     0.001 A 
ATOM     79  C   UNL     1      -0.307   4.157  18.752  1.00  0.00     0.001 A 
ATOM     80  C   UNL     1       0.477   5.298  18.914  1.00  0.00     0.000 A 
ENDBRANCH  62  75
ENDBRANCH  36  37
ENDBRANCH  29  31
ENDBRANCH  28  29
ENDBRANCH  27  28
ENDBRANCH  26  27
ENDBRANCH  25  26
ENDBRANCH   1  25
TORSDOF 18
