REMARK SMILES COCCN1C(=O)C[C@H](C(=O)OCCOCCOC(=O)c2ccc(-c3c4nc(c(-c5ccccc5)c5ccc([nH]5)c(-c5ccccc5)c5nc(c(-c6ccccc6)c6ccc3[nH]6)C=C5)C=C4)cc2)[C@@H]1c1ccccc1N1CCOCC1
REMARK SMILES IDX 14 1 13 2 12 3 10 4 11 5 9 6 5 7 6 8 69 9 7 10 8 11 4 12
REMARK SMILES IDX 3 13 2 14 1 15 70 16 71 17 75 18 72 19 74 20 73 21 76 22
REMARK SMILES IDX 77 23 81 24 78 25 80 26 79 27 15 28 16 29 17 30 18 31 19 32
REMARK SMILES IDX 20 33 21 34 22 35 68 36 23 37 67 38 24 39 25 40 26 41 61 42
REMARK SMILES IDX 27 43 66 44 60 45 62 46 28 47 65 48 59 49 58 50 29 52 51 53
REMARK SMILES IDX 36 54 50 55 37 56 40 57 49 58 63 59 38 60 39 61 48 63 64 64
REMARK SMILES IDX 41 65 30 66 31 67 35 68 32 69 34 70 33 71 52 72 53 73 57 74
REMARK SMILES IDX 54 75 56 76 55 77 42 78 43 79 47 80 44 81 46 82 45 83
REMARK H PARENT 62 51 40 62
REMARK Flexibility Score: inf
ROOT
ATOM      1  C   UNL     1       4.321  -3.822  -4.328  1.00  0.00     0.202 C 
ENDROOT
BRANCH   1   2
ATOM      2  C   UNL     1       4.486  -3.302  -2.889  1.00  0.00     0.261 C 
BRANCH   2   3
ATOM      3  O   UNL     1       3.530  -3.648  -1.893  1.00  0.00    -0.463 OA
BRANCH   3   4
ATOM      4  C   UNL     1       2.348  -3.003  -2.006  1.00  0.00     0.312 C 
ATOM      5  O   UNL     1       1.918  -2.500  -3.032  1.00  0.00    -0.252 OA
BRANCH   4   6
ATOM      6  C   UNL     1       1.560  -2.979  -0.749  1.00  0.00     0.136 C 
ATOM      7  N   UNL     1       1.227  -2.055   1.348  1.00  0.00    -0.332 N 
ATOM      8  C   UNL     1       1.335  -3.437   1.525  1.00  0.00     0.224 C 
ATOM      9  C   UNL     1       1.629  -1.636  -0.014  1.00  0.00     0.132 C 
ATOM     10  O   UNL     1       1.008  -4.076   2.512  1.00  0.00    -0.275 OA
ATOM     11  C   UNL     1       1.922  -4.033   0.284  1.00  0.00     0.118 C 
BRANCH   7  12
ATOM     12  C   UNL     1       0.451  -1.263   2.305  1.00  0.00     0.148 C 
BRANCH  12  13
ATOM     13  C   UNL     1       0.916   0.165   2.607  1.00  0.00     0.181 C 
BRANCH  13  14
ATOM     14  O   UNL     1      -0.054   1.149   2.236  1.00  0.00    -0.383 OA
ATOM     15  C   UNL     1      -0.095   1.388   0.842  1.00  0.00     0.194 C 
ENDBRANCH  13  14
ENDBRANCH  12  13
ENDBRANCH   7  12
BRANCH   9  16
ATOM     16  C   UNL     1       2.978  -0.894  -0.089  1.00  0.00    -0.001 A 
ATOM     17  C   UNL     1       3.878  -1.075   0.996  1.00  0.00     0.008 A 
ATOM     18  C   UNL     1       3.415  -0.114  -1.213  1.00  0.00     0.042 A 
ATOM     19  C   UNL     1       5.147  -0.503   1.018  1.00  0.00     0.001 A 
ATOM     20  C   UNL     1       4.713   0.447  -1.142  1.00  0.00     0.026 A 
ATOM     21  C   UNL     1       5.566   0.261  -0.053  1.00  0.00     0.002 A 
BRANCH  18  22
ATOM     22  N   UNL     1       2.691   0.050  -2.396  1.00  0.00    -0.367 N 
ATOM     23  C   UNL     1       1.409   0.770  -2.420  1.00  0.00     0.145 C 
ATOM     24  C   UNL     1       3.388   0.192  -3.709  1.00  0.00     0.145 C 
ATOM     25  C   UNL     1       0.554   0.290  -3.607  1.00  0.00     0.181 C 
ATOM     26  C   UNL     1       2.468  -0.197  -4.888  1.00  0.00     0.181 C 
ATOM     27  O   UNL     1       1.225   0.521  -4.854  1.00  0.00    -0.378 OA
ENDBRANCH  18  22
ENDBRANCH   9  16
ENDBRANCH   4   6
ENDBRANCH   3   4
ENDBRANCH   2   3
ENDBRANCH   1   2
BRANCH   1  28
ATOM     28  O   UNL     1       3.105  -4.303  -4.864  1.00  0.00    -0.374 OA
BRANCH  28  29
ATOM     29  C   UNL     1       2.285  -5.246  -4.197  1.00  0.00     0.202 C 
BRANCH  29  30
ATOM     30  C   UNL     1       2.851  -6.510  -3.544  1.00  0.00     0.261 C 
BRANCH  30  31
ATOM     31  O   UNL     1       4.067  -6.328  -2.816  1.00  0.00    -0.460 OA
BRANCH  31  32
ATOM     32  C   UNL     1       5.168  -6.783  -3.462  1.00  0.00     0.338 C 
ATOM     33  O   UNL     1       5.221  -7.318  -4.551  1.00  0.00    -0.246 OA
BRANCH  32  34
ATOM     34  C   UNL     1       6.371  -6.358  -2.725  1.00  0.00     0.060 A 
ATOM     35  C   UNL     1       7.366  -5.683  -3.446  1.00  0.00     0.016 A 
ATOM     36  C   UNL     1       6.545  -6.664  -1.375  1.00  0.00     0.016 A 
ATOM     37  C   UNL     1       8.566  -5.354  -2.831  1.00  0.00     0.010 A 
ATOM     38  C   UNL     1       7.764  -6.362  -0.766  1.00  0.00     0.010 A 
ATOM     39  C   UNL     1       8.789  -5.748  -1.508  1.00  0.00    -0.014 A 
BRANCH  39  40
ATOM     40  C   UNL     1      10.174  -5.745  -0.994  1.00  0.00     0.031 A 
ATOM     41  C   UNL     1      10.972  -7.014  -1.117  1.00  0.00     0.074 A 
ATOM     42  C   UNL     1      10.723  -4.632  -0.482  1.00  0.00     0.049 A 
ATOM     43  N   UNL     1      12.189  -7.271  -0.719  1.00  0.00    -0.248 NA
ATOM     44  C   UNL     1      10.302  -8.145  -1.784  1.00  0.00     0.031 C 
ATOM     45  C   UNL     1      10.064  -3.332  -0.377  1.00  0.00     0.029 A 
ATOM     46  N   UNL     1      11.970  -4.427   0.049  1.00  0.00    -0.354 N 
ATOM     47  C   UNL     1      12.429  -8.590  -1.082  1.00  0.00     0.074 A 
ATOM     48  C   UNL     1      11.224  -9.091  -1.703  1.00  0.00     0.031 C 
ATOM     49  C   UNL     1      10.911  -2.463   0.203  1.00  0.00     0.029 A 
ATOM     50  C   UNL     1      12.153  -3.158   0.537  1.00  0.00     0.049 A 
ATOM     51  H   UNL     1      12.666  -5.122   0.077  1.00  0.00     0.167 HD
ATOM     52  C   UNL     1      13.557  -9.319  -0.917  1.00  0.00     0.031 A 
ATOM     53  C   UNL     1      13.198  -2.632   1.204  1.00  0.00     0.031 A 
ATOM     54  C   UNL     1      14.742  -8.823  -0.272  1.00  0.00     0.049 A 
ATOM     55  C   UNL     1      14.407  -3.493   1.465  1.00  0.00     0.074 A 
ATOM     56  C   UNL     1      15.937  -9.479  -0.039  1.00  0.00     0.029 A 
ATOM     57  N   UNL     1      14.873  -7.546   0.252  1.00  0.00    -0.354 N 
ATOM     58  N   UNL     1      14.630  -4.737   1.111  1.00  0.00    -0.248 NA
ATOM     59  C   UNL     1      15.511  -2.874   2.211  1.00  0.00     0.031 C 
ATOM     60  C   UNL     1      16.771  -8.616   0.679  1.00  0.00     0.029 A 
ATOM     61  C   UNL     1      16.121  -7.401   0.831  1.00  0.00     0.049 A 
ATOM     62  H   UNL     1      14.182  -6.846   0.216  1.00  0.00     0.167 HD
ATOM     63  C   UNL     1      15.909  -5.038   1.564  1.00  0.00     0.074 A 
ATOM     64  C   UNL     1      16.417  -3.842   2.203  1.00  0.00     0.031 C 
ATOM     65  C   UNL     1      16.604  -6.198   1.461  1.00  0.00     0.031 A 
BRANCH  52  66
ATOM     66  C   UNL     1      13.538 -10.741  -1.405  1.00  0.00    -0.014 A 
ATOM     67  C   UNL     1      13.516 -11.043  -2.776  1.00  0.00     0.009 A 
ATOM     68  C   UNL     1      13.554 -11.794  -0.478  1.00  0.00     0.009 A 
ATOM     69  C   UNL     1      13.477 -12.371  -3.207  1.00  0.00     0.001 A 
ATOM     70  C   UNL     1      13.545 -13.121  -0.913  1.00  0.00     0.001 A 
ATOM     71  C   UNL     1      13.496 -13.408  -2.276  1.00  0.00     0.000 A 
ENDBRANCH  52  66
BRANCH  53  72
ATOM     72  C   UNL     1      13.137  -1.233   1.703  1.00  0.00    -0.014 A 
ATOM     73  C   UNL     1      13.976  -0.240   1.174  1.00  0.00     0.009 A 
ATOM     74  C   UNL     1      12.249  -0.889   2.735  1.00  0.00     0.009 A 
ATOM     75  C   UNL     1      13.946   1.059   1.688  1.00  0.00     0.001 A 
ATOM     76  C   UNL     1      12.199   0.418   3.225  1.00  0.00     0.001 A 
ATOM     77  C   UNL     1      13.056   1.388   2.709  1.00  0.00     0.000 A 
ENDBRANCH  53  72
BRANCH  65  78
ATOM     78  C   UNL     1      18.002  -6.216   2.014  1.00  0.00    -0.014 A 
ATOM     79  C   UNL     1      18.245  -6.195   3.396  1.00  0.00     0.009 A 
ATOM     80  C   UNL     1      19.092  -6.302   1.133  1.00  0.00     0.009 A 
ATOM     81  C   UNL     1      19.553  -6.224   3.882  1.00  0.00     0.001 A 
ATOM     82  C   UNL     1      20.397  -6.365   1.623  1.00  0.00     0.001 A 
ATOM     83  C   UNL     1      20.627  -6.315   2.996  1.00  0.00     0.000 A 
ENDBRANCH  65  78
ENDBRANCH  39  40
ENDBRANCH  32  34
ENDBRANCH  31  32
ENDBRANCH  30  31
ENDBRANCH  29  30
ENDBRANCH  28  29
ENDBRANCH   1  28
TORSDOF 19
