REMARK SMILES O=C(OCCOCCOC(=O)c1ccc(C(F)(F)F)cc1NC(=O)c1ccon1)c1ccc(-c2c3nc(c(-c4ccccc4)c4ccc([nH]4)c(-c4ccccc4)c4nc(c(-c5ccccc5)c5ccc2[nH]5)C=C4)C=C3)cc1
REMARK SMILES IDX 6 1 5 2 4 3 3 4 2 5 1 6 30 7 31 8 77 9 32 10 76 11 33 12
REMARK SMILES IDX 34 13 35 14 70 15 36 16 75 17 69 18 71 19 37 20 74 21 68 22
REMARK SMILES IDX 67 23 38 25 60 26 45 27 59 28 46 29 49 30 58 31 72 32 47 33
REMARK SMILES IDX 48 34 57 36 73 37 50 38 39 39 40 40 44 41 41 42 43 43 42 44
REMARK SMILES IDX 61 45 62 46 66 47 63 48 65 49 64 50 51 51 52 52 56 53 53 54
REMARK SMILES IDX 55 55 54 56 7 57 8 58 9 59 10 60 11 61 12 62 13 63 21 64
REMARK SMILES IDX 14 65 20 66 15 67 22 68 23 69 24 71 25 72 26 73 29 74 27 75
REMARK SMILES IDX 28 76 16 77 17 78 18 79 19 80
REMARK H PARENT 71 24 49 35 22 70
REMARK Flexibility Score: inf
ROOT
ATOM      1  O   UNL     1       4.073  -1.616  -0.373  1.00  0.00    -0.374 OA
ENDROOT
BRANCH   1   2
ATOM      2  C   UNL     1       4.407  -1.234   0.959  1.00  0.00     0.202 C 
BRANCH   2   3
ATOM      3  C   UNL     1       4.148   0.241   1.272  1.00  0.00     0.261 C 
BRANCH   3   4
ATOM      4  O   UNL     1       2.760   0.551   1.089  1.00  0.00    -0.460 OA
BRANCH   4   5
ATOM      5  C   UNL     1       2.170   1.084  -0.004  1.00  0.00     0.338 C 
ATOM      6  O   UNL     1       0.946   1.201  -0.014  1.00  0.00    -0.246 OA
BRANCH   5   7
ATOM      7  C   UNL     1       2.918   1.550  -1.210  1.00  0.00     0.060 A 
ATOM      8  C   UNL     1       4.102   0.986  -1.694  1.00  0.00     0.016 A 
ATOM      9  C   UNL     1       2.309   2.558  -1.974  1.00  0.00     0.016 A 
ATOM     10  C   UNL     1       4.669   1.385  -2.889  1.00  0.00     0.010 A 
ATOM     11  C   UNL     1       2.869   2.971  -3.182  1.00  0.00     0.010 A 
ATOM     12  C   UNL     1       4.051   2.376  -3.635  1.00  0.00    -0.014 A 
BRANCH  12  13
ATOM     13  C   UNL     1       4.759   2.864  -4.819  1.00  0.00     0.031 A 
ATOM     14  C   UNL     1       5.529   4.132  -4.684  1.00  0.00     0.074 A 
ATOM     15  C   UNL     1       4.789   2.111  -5.929  1.00  0.00     0.049 A 
ATOM     16  N   UNL     1       6.138   4.829  -5.599  1.00  0.00    -0.248 NA
ATOM     17  C   UNL     1       5.630   4.688  -3.322  1.00  0.00     0.031 C 
ATOM     18  C   UNL     1       4.191   0.780  -6.065  1.00  0.00     0.029 A 
ATOM     19  N   UNL     1       5.354   2.354  -7.149  1.00  0.00    -0.354 N 
ATOM     20  C   UNL     1       6.650   5.934  -4.935  1.00  0.00     0.074 A 
ATOM     21  C   UNL     1       6.292   5.811  -3.541  1.00  0.00     0.031 C 
ATOM     22  C   UNL     1       4.409   0.330  -7.310  1.00  0.00     0.029 A 
ATOM     23  C   UNL     1       5.089   1.372  -8.070  1.00  0.00     0.049 A 
ATOM     24  H   UNL     1       5.896   3.151  -7.346  1.00  0.00     0.167 HD
ATOM     25  C   UNL     1       7.334   6.970  -5.467  1.00  0.00     0.031 A 
ATOM     26  C   UNL     1       5.318   1.363  -9.395  1.00  0.00     0.031 A 
ATOM     27  C   UNL     1       7.634   7.055  -6.869  1.00  0.00     0.049 A 
ATOM     28  C   UNL     1       5.981   2.573  -9.991  1.00  0.00     0.074 A 
ATOM     29  C   UNL     1       8.266   8.066  -7.563  1.00  0.00     0.029 A 
ATOM     30  N   UNL     1       7.302   6.070  -7.795  1.00  0.00    -0.354 N 
ATOM     31  N   UNL     1       6.409   3.658  -9.384  1.00  0.00    -0.248 NA
ATOM     32  C   UNL     1       6.183   2.573 -11.443  1.00  0.00     0.031 C 
ATOM     33  C   UNL     1       8.257   7.721  -8.920  1.00  0.00     0.029 A 
ATOM     34  C   UNL     1       7.689   6.462  -9.061  1.00  0.00     0.049 A 
ATOM     35  H   UNL     1       6.856   5.220  -7.579  1.00  0.00     0.167 HD
ATOM     36  C   UNL     1       6.950   4.463 -10.374  1.00  0.00     0.074 A 
ATOM     37  C   UNL     1       6.803   3.733 -11.622  1.00  0.00     0.031 C 
ATOM     38  C   UNL     1       7.520   5.689 -10.269  1.00  0.00     0.031 A 
BRANCH  25  39
ATOM     39  C   UNL     1       7.659   8.108  -4.543  1.00  0.00    -0.014 A 
ATOM     40  C   UNL     1       8.575   7.974  -3.486  1.00  0.00     0.009 A 
ATOM     41  C   UNL     1       6.959   9.317  -4.681  1.00  0.00     0.009 A 
ATOM     42  C   UNL     1       8.731   9.002  -2.551  1.00  0.00     0.001 A 
ATOM     43  C   UNL     1       7.142  10.354  -3.765  1.00  0.00     0.001 A 
ATOM     44  C   UNL     1       8.014  10.189  -2.691  1.00  0.00     0.000 A 
ENDBRANCH  25  39
BRANCH  26  45
ATOM     45  C   UNL     1       4.841   0.222 -10.220  1.00  0.00    -0.014 A 
ATOM     46  C   UNL     1       5.741  -0.655 -10.840  1.00  0.00     0.009 A 
ATOM     47  C   UNL     1       3.462  -0.025 -10.352  1.00  0.00     0.009 A 
ATOM     48  C   UNL     1       5.272  -1.746 -11.580  1.00  0.00     0.001 A 
ATOM     49  C   UNL     1       2.997  -1.131 -11.066  1.00  0.00     0.001 A 
ATOM     50  C   UNL     1       3.902  -1.987 -11.685  1.00  0.00     0.000 A 
ENDBRANCH  26  45
BRANCH  38  51
ATOM     51  C   UNL     1       8.068   6.295 -11.528  1.00  0.00    -0.014 A 
ATOM     52  C   UNL     1       7.222   6.842 -12.502  1.00  0.00     0.009 A 
ATOM     53  C   UNL     1       9.459   6.408 -11.680  1.00  0.00     0.009 A 
ATOM     54  C   UNL     1       7.763   7.485 -13.616  1.00  0.00     0.001 A 
ATOM     55  C   UNL     1       9.995   7.078 -12.777  1.00  0.00     0.001 A 
ATOM     56  C   UNL     1       9.147   7.612 -13.746  1.00  0.00     0.000 A 
ENDBRANCH  38  51
ENDBRANCH  12  13
ENDBRANCH   5   7
ENDBRANCH   4   5
ENDBRANCH   3   4
ENDBRANCH   2   3
ENDBRANCH   1   2
BRANCH   1  57
ATOM     57  C   UNL     1       2.731  -2.053  -0.608  1.00  0.00     0.202 C 
BRANCH  57  58
ATOM     58  C   UNL     1       2.779  -3.414  -1.300  1.00  0.00     0.261 C 
BRANCH  58  59
ATOM     59  O   UNL     1       3.421  -4.333  -0.403  1.00  0.00    -0.460 OA
BRANCH  59  60
ATOM     60  C   UNL     1       4.777  -4.333  -0.446  1.00  0.00     0.340 C 
ATOM     61  O   UNL     1       5.484  -3.925  -1.354  1.00  0.00    -0.246 OA
BRANCH  60  62
ATOM     62  C   UNL     1       5.304  -4.756   0.876  1.00  0.00     0.083 A 
ATOM     63  C   UNL     1       6.479  -4.104   1.300  1.00  0.00     0.018 A 
ATOM     64  C   UNL     1       4.691  -5.732   1.689  1.00  0.00     0.056 A 
ATOM     65  C   UNL     1       7.071  -4.428   2.517  1.00  0.00     0.014 A 
ATOM     66  C   UNL     1       5.391  -6.137   2.829  1.00  0.00     0.040 A 
ATOM     67  C   UNL     1       6.555  -5.480   3.273  1.00  0.00     0.058 A 
BRANCH  64  68
ATOM     68  N   UNL     1       3.396  -6.194   1.355  1.00  0.00    -0.320 N 
ATOM     69  C   UNL     1       2.462  -7.022   1.937  1.00  0.00     0.277 C 
ATOM     70  H   UNL     1       3.086  -5.835   0.492  1.00  0.00     0.170 HD
ATOM     71  O   UNL     1       1.338  -7.067   1.433  1.00  0.00    -0.267 OA
BRANCH  69  72
ATOM     72  C   UNL     1       2.800  -7.798   3.111  1.00  0.00     0.171 A 
ATOM     73  C   UNL     1       2.821  -7.381   4.469  1.00  0.00     0.079 A 
ATOM     74  N   UNL     1       3.208  -9.071   2.993  1.00  0.00    -0.075 NA
ATOM     75  C   UNL     1       3.338  -8.459   5.139  1.00  0.00     0.232 A 
ATOM     76  O   UNL     1       3.549  -9.477   4.269  1.00  0.00    -0.364 OA
ENDBRANCH  69  72
ENDBRANCH  64  68
BRANCH  67  77
ATOM     77  C   UNL     1       7.229  -5.898   4.559  1.00  0.00     0.416 C 
ATOM     78  F   UNL     1       8.540  -6.211   4.384  1.00  0.00    -0.166 F 
ATOM     79  F   UNL     1       7.196  -4.913   5.498  1.00  0.00    -0.166 F 
ATOM     80  F   UNL     1       6.655  -6.985   5.145  1.00  0.00    -0.166 F 
ENDBRANCH  67  77
ENDBRANCH  60  62
ENDBRANCH  59  60
ENDBRANCH  58  59
ENDBRANCH  57  58
ENDBRANCH   1  57
TORSDOF 17
