REMARK SMILES CC(C)[C@@H](CNC(=O)NCC1C(C)(C)C1(C)C)C(=O)OCCOCCOC(=O)c1ccc(-c2c3nc(c(-c4ccccc4)c4ccc([nH]4)c(-c4ccccc4)c4nc(c(-c5ccccc5)c5ccc2[nH]5)C=C4)C=C3)cc1
REMARK SMILES IDX 22 1 21 2 20 3 18 4 19 5 4 6 2 7 1 8 3 9 5 10 6 11 7 12 8 14
REMARK SMILES IDX 9 15 10 17 11 18 12 19 15 20 13 21 14 22 16 23 17 24 23 25
REMARK SMILES IDX 24 26 25 27 26 28 27 29 28 30 29 31 30 32 76 33 31 34 75 35
REMARK SMILES IDX 32 36 33 37 34 38 69 39 35 40 74 41 68 42 70 43 36 44 73 45
REMARK SMILES IDX 67 46 66 47 37 49 59 50 44 51 58 52 45 53 48 54 57 55 71 56
REMARK SMILES IDX 46 57 47 58 56 60 72 61 49 62 38 63 39 64 43 65 40 66 42 67
REMARK SMILES IDX 41 68 60 69 61 70 65 71 62 72 64 73 63 74 50 75 51 76 55 77
REMARK SMILES IDX 52 78 54 79 53 80
REMARK H PARENT 6 13 9 16 70 48 48 59
REMARK Flexibility Score: inf
ROOT
ATOM      1  C   UNL     1      -1.888   4.982   2.094  1.00  0.00     0.202 C 
ENDROOT
BRANCH   1   2
ATOM      2  C   UNL     1      -2.163   3.508   2.404  1.00  0.00     0.261 C 
BRANCH   2   3
ATOM      3  O   UNL     1      -1.155   2.600   1.915  1.00  0.00    -0.463 OA
BRANCH   3   4
ATOM      4  C   UNL     1      -1.552   1.796   0.892  1.00  0.00     0.311 C 
ATOM      5  O   UNL     1      -2.580   1.951   0.241  1.00  0.00    -0.252 OA
BRANCH   4   6
ATOM      6  C   UNL     1      -0.645   0.595   0.677  1.00  0.00     0.121 C 
BRANCH   6   7
ATOM      7  C   UNL     1       0.887   0.823   0.710  1.00  0.00    -0.001 C 
ATOM      8  C   UNL     1       1.620  -0.389   0.104  1.00  0.00     0.008 C 
ATOM      9  C   UNL     1       1.322   2.061  -0.075  1.00  0.00     0.008 C 
ENDBRANCH   6   7
BRANCH   6  10
ATOM     10  C   UNL     1      -1.107  -0.538   1.603  1.00  0.00     0.133 C 
BRANCH  10  11
ATOM     11  N   UNL     1      -1.227  -0.178   3.001  1.00  0.00    -0.337 N 
ATOM     12  C   UNL     1      -2.258  -0.133   3.856  1.00  0.00     0.314 C 
ATOM     13  H   UNL     1      -0.372   0.089   3.409  1.00  0.00     0.165 HD
ATOM     14  O   UNL     1      -1.996  -0.005   5.054  1.00  0.00    -0.249 OA
ATOM     15  N   UNL     1      -3.543  -0.224   3.501  1.00  0.00    -0.338 N 
ATOM     16  H   UNL     1      -4.132  -0.419   4.266  1.00  0.00     0.165 HD
BRANCH  15  17
ATOM     17  C   UNL     1      -4.273  -0.103   2.257  1.00  0.00     0.122 C 
BRANCH  17  18
ATOM     18  C   UNL     1      -5.326  -1.161   2.138  1.00  0.00     0.021 C 
ATOM     19  C   UNL     1      -5.426  -2.071   0.909  1.00  0.00    -0.025 C 
ATOM     20  C   UNL     1      -5.135  -2.672   2.300  1.00  0.00    -0.025 C 
ATOM     21  C   UNL     1      -6.801  -2.193   0.287  1.00  0.00     0.012 C 
ATOM     22  C   UNL     1      -4.351  -2.112  -0.156  1.00  0.00     0.012 C 
ATOM     23  C   UNL     1      -3.775  -3.241   2.636  1.00  0.00     0.012 C 
ATOM     24  C   UNL     1      -6.239  -3.452   2.985  1.00  0.00     0.012 C 
ENDBRANCH  17  18
ENDBRANCH  15  17
ENDBRANCH  10  11
ENDBRANCH   6  10
ENDBRANCH   4   6
ENDBRANCH   3   4
ENDBRANCH   2   3
ENDBRANCH   1   2
BRANCH   1  25
ATOM     25  O   UNL     1      -1.962   5.376   0.727  1.00  0.00    -0.374 OA
BRANCH  25  26
ATOM     26  C   UNL     1      -0.874   5.009  -0.120  1.00  0.00     0.202 C 
BRANCH  26  27
ATOM     27  C   UNL     1       0.434   5.776   0.111  1.00  0.00     0.261 C 
BRANCH  27  28
ATOM     28  O   UNL     1       1.020   5.457   1.389  1.00  0.00    -0.460 OA
BRANCH  28  29
ATOM     29  C   UNL     1       1.359   6.531   2.136  1.00  0.00     0.338 C 
ATOM     30  O   UNL     1       1.369   7.706   1.782  1.00  0.00    -0.246 OA
BRANCH  29  31
ATOM     31  C   UNL     1       1.571   6.145   3.542  1.00  0.00     0.060 A 
ATOM     32  C   UNL     1       0.783   6.786   4.505  1.00  0.00     0.016 A 
ATOM     33  C   UNL     1       2.596   5.279   3.927  1.00  0.00     0.016 A 
ATOM     34  C   UNL     1       1.067   6.623   5.860  1.00  0.00     0.010 A 
ATOM     35  C   UNL     1       2.883   5.119   5.290  1.00  0.00     0.010 A 
ATOM     36  C   UNL     1       2.151   5.831   6.260  1.00  0.00    -0.014 A 
BRANCH  36  37
ATOM     37  C   UNL     1       2.609   5.907   7.671  1.00  0.00     0.031 A 
ATOM     38  C   UNL     1       3.761   6.814   8.019  1.00  0.00     0.074 A 
ATOM     39  C   UNL     1       1.966   5.243   8.648  1.00  0.00     0.049 A 
ATOM     40  N   UNL     1       4.282   7.082   9.191  1.00  0.00    -0.248 NA
ATOM     41  C   UNL     1       4.409   7.516   6.899  1.00  0.00     0.031 C 
ATOM     42  C   UNL     1       0.815   4.363   8.459  1.00  0.00     0.029 A 
ATOM     43  N   UNL     1       2.191   5.220  10.003  1.00  0.00    -0.354 N 
ATOM     44  C   UNL     1       5.315   7.979   8.949  1.00  0.00     0.074 A 
ATOM     45  C   UNL     1       5.369   8.187   7.518  1.00  0.00     0.031 C 
ATOM     46  C   UNL     1       0.430   3.887   9.656  1.00  0.00     0.029 A 
ATOM     47  C   UNL     1       1.320   4.412  10.691  1.00  0.00     0.049 A 
ATOM     48  H   UNL     1       2.909   5.734  10.439  1.00  0.00     0.167 HD
ATOM     49  C   UNL     1       6.141   8.585   9.835  1.00  0.00     0.031 A 
ATOM     50  C   UNL     1       1.253   4.121  12.005  1.00  0.00     0.031 A 
ATOM     51  C   UNL     1       6.099   8.385  11.258  1.00  0.00     0.049 A 
ATOM     52  C   UNL     1       2.223   4.758  12.963  1.00  0.00     0.074 A 
ATOM     53  C   UNL     1       6.882   8.977  12.235  1.00  0.00     0.029 A 
ATOM     54  N   UNL     1       5.232   7.522  11.908  1.00  0.00    -0.354 N 
ATOM     55  N   UNL     1       3.169   5.634  12.723  1.00  0.00    -0.248 NA
ATOM     56  C   UNL     1       2.107   4.373  14.378  1.00  0.00     0.031 C 
ATOM     57  C   UNL     1       6.522   8.433  13.473  1.00  0.00     0.029 A 
ATOM     58  C   UNL     1       5.481   7.543  13.270  1.00  0.00     0.049 A 
ATOM     59  H   UNL     1       4.542   6.976  11.467  1.00  0.00     0.167 HD
ATOM     60  C   UNL     1       3.742   5.920  13.956  1.00  0.00     0.074 A 
ATOM     61  C   UNL     1       3.029   5.138  14.944  1.00  0.00     0.031 C 
ATOM     62  C   UNL     1       4.767   6.759  14.243  1.00  0.00     0.031 A 
BRANCH  49  63
ATOM     63  C   UNL     1       7.188   9.509   9.282  1.00  0.00    -0.014 A 
ATOM     64  C   UNL     1       6.852  10.781   8.794  1.00  0.00     0.009 A 
ATOM     65  C   UNL     1       8.535   9.114   9.286  1.00  0.00     0.009 A 
ATOM     66  C   UNL     1       7.844  11.630   8.296  1.00  0.00     0.001 A 
ATOM     67  C   UNL     1       9.526   9.973   8.809  1.00  0.00     0.001 A 
ATOM     68  C   UNL     1       9.179  11.226   8.308  1.00  0.00     0.000 A 
ENDBRANCH  49  63
BRANCH  50  69
ATOM     69  C   UNL     1       0.234   3.159  12.501  1.00  0.00    -0.014 A 
ATOM     70  C   UNL     1      -0.845   3.594  13.285  1.00  0.00     0.009 A 
ATOM     71  C   UNL     1       0.356   1.791  12.211  1.00  0.00     0.009 A 
ATOM     72  C   UNL     1      -1.768   2.674  13.789  1.00  0.00     0.001 A 
ATOM     73  C   UNL     1      -0.583   0.878  12.694  1.00  0.00     0.001 A 
ATOM     74  C   UNL     1      -1.639   1.318  13.490  1.00  0.00     0.000 A 
ENDBRANCH  50  69
BRANCH  62  75
ATOM     75  C   UNL     1       5.163   6.898  15.687  1.00  0.00    -0.014 A 
ATOM     76  C   UNL     1       5.861   5.878  16.351  1.00  0.00     0.009 A 
ATOM     77  C   UNL     1       4.868   8.083  16.378  1.00  0.00     0.009 A 
ATOM     78  C   UNL     1       6.229   6.031  17.689  1.00  0.00     0.001 A 
ATOM     79  C   UNL     1       5.260   8.244  17.708  1.00  0.00     0.001 A 
ATOM     80  C   UNL     1       5.932   7.214  18.365  1.00  0.00     0.000 A 
ENDBRANCH  62  75
ENDBRANCH  36  37
ENDBRANCH  29  31
ENDBRANCH  28  29
ENDBRANCH  27  28
ENDBRANCH  26  27
ENDBRANCH  25  26
ENDBRANCH   1  25
TORSDOF 19
