REMARK SMILES CCCCCCNC(=O)Nc1cccc(-c2ccc([C@@H](C)C(=O)OCCOCCOC(=O)c3ccc(-c4c5nc(c(-c6ccccc6)c6ccc([nH]6)c(-c6ccccc6)c6nc(c(-c7ccccc7)c7ccc4[nH]7)C=C6)C=C5)cc3)cc2F)c1
REMARK SMILES IDX 24 1 22 2 23 3 20 4 21 5 19 6 16 7 17 8 82 9 18 10 81 11
REMARK SMILES IDX 83 12 15 13 11 14 12 15 84 16 13 17 14 18 10 19 7 20 8 21
REMARK SMILES IDX 9 23 6 25 5 26 4 27 3 28 2 29 1 30 25 31 26 32 27 33 28 34
REMARK SMILES IDX 29 35 30 36 31 37 32 38 33 39 34 40 80 41 35 42 79 43 36 44
REMARK SMILES IDX 37 45 38 46 73 47 39 48 78 49 72 50 74 51 40 52 77 53 71 54
REMARK SMILES IDX 70 55 41 57 63 58 48 59 62 60 49 61 52 62 61 63 75 64 50 65
REMARK SMILES IDX 51 66 60 68 76 69 53 70 42 71 43 72 47 73 44 74 46 75 45 76
REMARK SMILES IDX 64 77 65 78 69 79 66 80 68 81 67 82 54 83 55 84 59 85 56 86
REMARK SMILES IDX 58 87 57 88
REMARK H PARENT 7 22 10 24 74 56 52 67
REMARK Flexibility Score: inf
ROOT
ATOM      1  O   UNL     1       0.292  -5.411   2.360  1.00  0.00    -0.463 OA
ENDROOT
BRANCH   1   2
ATOM      2  C   UNL     1      -0.374  -6.125   3.310  1.00  0.00     0.313 C 
ATOM      3  O   UNL     1       0.122  -7.038   3.963  1.00  0.00    -0.252 OA
BRANCH   2   4
ATOM      4  C   UNL     1      -1.848  -5.783   3.422  1.00  0.00     0.126 C 
ATOM      5  C   UNL     1      -2.624  -6.606   2.392  1.00  0.00     0.025 C 
BRANCH   4   6
ATOM      6  C   UNL     1      -2.260  -4.316   3.420  1.00  0.00    -0.031 A 
ATOM      7  C   UNL     1      -3.446  -1.702   3.447  1.00  0.00     0.018 A 
ATOM      8  C   UNL     1      -2.971  -2.292   2.260  1.00  0.00     0.012 A 
ATOM      9  C   UNL     1      -3.261  -2.440   4.623  1.00  0.00     0.131 A 
ATOM     10  C   UNL     1      -2.369  -3.562   2.246  1.00  0.00     0.005 A 
ATOM     11  C   UNL     1      -2.684  -3.716   4.617  1.00  0.00     0.044 A 
ATOM     12  F   UNL     1      -3.688  -1.957   5.800  1.00  0.00    -0.206 F 
BRANCH   7  13
ATOM     13  C   UNL     1      -4.116  -0.379   3.441  1.00  0.00    -0.013 A 
ATOM     14  C   UNL     1      -4.405   1.886   4.339  1.00  0.00     0.043 A 
ATOM     15  C   UNL     1      -5.428   2.141   3.431  1.00  0.00     0.026 A 
ATOM     16  C   UNL     1      -3.785   0.624   4.371  1.00  0.00     0.035 A 
ATOM     17  C   UNL     1      -5.746   1.178   2.477  1.00  0.00     0.003 A 
ATOM     18  C   UNL     1      -5.092  -0.061   2.478  1.00  0.00     0.009 A 
BRANCH  14  19
ATOM     19  N   UNL     1      -3.962   2.942   5.150  1.00  0.00    -0.308 N 
ATOM     20  N   UNL     1      -1.713   3.112   4.487  1.00  0.00    -0.338 N 
ATOM     21  C   UNL     1      -2.675   3.288   5.436  1.00  0.00     0.319 C 
ATOM     22  H   UNL     1      -0.778   3.124   4.794  1.00  0.00     0.165 HD
ATOM     23  O   UNL     1      -2.393   3.878   6.477  1.00  0.00    -0.249 OA
ATOM     24  H   UNL     1      -4.663   3.498   5.561  1.00  0.00     0.171 HD
BRANCH  20  25
ATOM     25  C   UNL     1      -1.933   2.910   3.066  1.00  0.00     0.117 C 
BRANCH  25  26
ATOM     26  C   UNL     1      -0.745   3.264   2.189  1.00  0.00     0.021 C 
BRANCH  26  27
ATOM     27  C   UNL     1       0.498   2.414   2.431  1.00  0.00     0.002 C 
BRANCH  27  28
ATOM     28  C   UNL     1       0.262   0.930   2.714  1.00  0.00    -0.000 C 
BRANCH  28  29
ATOM     29  C   UNL     1      -0.486   0.078   1.677  1.00  0.00    -0.003 C 
ATOM     30  C   UNL     1      -0.648   0.591   0.256  1.00  0.00     0.004 C 
ENDBRANCH  28  29
ENDBRANCH  27  28
ENDBRANCH  26  27
ENDBRANCH  25  26
ENDBRANCH  20  25
ENDBRANCH  14  19
ENDBRANCH   7  13
ENDBRANCH   4   6
ENDBRANCH   2   4
ENDBRANCH   1   2
BRANCH   1  31
ATOM     31  C   UNL     1       1.656  -5.823   2.159  1.00  0.00     0.261 C 
BRANCH  31  32
ATOM     32  C   UNL     1       2.695  -4.910   2.816  1.00  0.00     0.202 C 
BRANCH  32  33
ATOM     33  O   UNL     1       2.523  -4.607   4.195  1.00  0.00    -0.374 OA
BRANCH  33  34
ATOM     34  C   UNL     1       1.548  -3.621   4.528  1.00  0.00     0.202 C 
BRANCH  34  35
ATOM     35  C   UNL     1       1.913  -2.163   4.230  1.00  0.00     0.261 C 
BRANCH  35  36
ATOM     36  O   UNL     1       2.123  -1.917   2.830  1.00  0.00    -0.460 OA
BRANCH  36  37
ATOM     37  C   UNL     1       3.386  -1.618   2.441  1.00  0.00     0.338 C 
ATOM     38  O   UNL     1       4.395  -1.562   3.127  1.00  0.00    -0.246 OA
BRANCH  37  39
ATOM     39  C   UNL     1       3.359  -1.388   0.987  1.00  0.00     0.060 A 
ATOM     40  C   UNL     1       3.974  -2.253   0.082  1.00  0.00     0.016 A 
ATOM     41  C   UNL     1       2.686  -0.271   0.520  1.00  0.00     0.016 A 
ATOM     42  C   UNL     1       3.906  -1.977  -1.295  1.00  0.00     0.010 A 
ATOM     43  C   UNL     1       2.513  -0.072  -0.839  1.00  0.00     0.010 A 
ATOM     44  C   UNL     1       3.170  -0.878  -1.771  1.00  0.00    -0.014 A 
BRANCH  44  45
ATOM     45  C   UNL     1       3.095  -0.461  -3.200  1.00  0.00     0.031 A 
ATOM     46  C   UNL     1       3.407   0.977  -3.577  1.00  0.00     0.074 A 
ATOM     47  C   UNL     1       2.588  -1.289  -4.133  1.00  0.00     0.049 A 
ATOM     48  N   UNL     1       3.184   1.611  -4.702  1.00  0.00    -0.248 NA
ATOM     49  C   UNL     1       3.948   1.842  -2.512  1.00  0.00     0.031 C 
ATOM     50  C   UNL     1       2.118  -2.655  -3.902  1.00  0.00     0.029 A 
ATOM     51  N   UNL     1       2.355  -1.079  -5.470  1.00  0.00    -0.354 N 
ATOM     52  C   UNL     1       3.460   2.950  -4.440  1.00  0.00     0.074 A 
ATOM     53  C   UNL     1       3.786   3.046  -3.036  1.00  0.00     0.031 C 
ATOM     54  C   UNL     1       1.685  -3.173  -5.063  1.00  0.00     0.029 A 
ATOM     55  C   UNL     1       1.816  -2.166  -6.112  1.00  0.00     0.049 A 
ATOM     56  H   UNL     1       2.556  -0.230  -5.925  1.00  0.00     0.167 HD
ATOM     57  C   UNL     1       3.487   4.003  -5.293  1.00  0.00     0.031 A 
ATOM     58  C   UNL     1       1.474  -2.337  -7.403  1.00  0.00     0.031 A 
ATOM     59  C   UNL     1       3.297   3.876  -6.713  1.00  0.00     0.049 A 
ATOM     60  C   UNL     1       1.689  -1.212  -8.377  1.00  0.00     0.074 A 
ATOM     61  C   UNL     1       3.489   4.828  -7.698  1.00  0.00     0.029 A 
ATOM     62  N   UNL     1       2.901   2.711  -7.349  1.00  0.00    -0.354 N 
ATOM     63  N   UNL     1       2.069   0.020  -8.142  1.00  0.00    -0.248 NA
ATOM     64  C   UNL     1       1.459  -1.512  -9.797  1.00  0.00     0.031 C 
ATOM     65  C   UNL     1       3.178   4.246  -8.931  1.00  0.00     0.029 A 
ATOM     66  C   UNL     1       2.841   2.919  -8.715  1.00  0.00     0.049 A 
ATOM     67  H   UNL     1       2.694   1.861  -6.896  1.00  0.00     0.167 HD
ATOM     68  C   UNL     1       2.153   0.634  -9.385  1.00  0.00     0.074 A 
ATOM     69  C   UNL     1       1.798  -0.366 -10.371  1.00  0.00     0.031 C 
ATOM     70  C   UNL     1       2.495   1.912  -9.683  1.00  0.00     0.031 A 
BRANCH  57  71
ATOM     71  C   UNL     1       3.776   5.372  -4.727  1.00  0.00    -0.014 A 
ATOM     72  C   UNL     1       5.006   5.678  -4.120  1.00  0.00     0.009 A 
ATOM     73  C   UNL     1       2.812   6.388  -4.832  1.00  0.00     0.009 A 
ATOM     74  C   UNL     1       5.238   6.942  -3.572  1.00  0.00     0.001 A 
ATOM     75  C   UNL     1       3.063   7.665  -4.324  1.00  0.00     0.001 A 
ATOM     76  C   UNL     1       4.269   7.936  -3.680  1.00  0.00     0.000 A 
ENDBRANCH  57  71
BRANCH  58  77
ATOM     77  C   UNL     1       0.973  -3.659  -7.858  1.00  0.00    -0.014 A 
ATOM     78  C   UNL     1       1.819  -4.520  -8.574  1.00  0.00     0.009 A 
ATOM     79  C   UNL     1      -0.326  -4.086  -7.547  1.00  0.00     0.009 A 
ATOM     80  C   UNL     1       1.368  -5.774  -8.988  1.00  0.00     0.001 A 
ATOM     81  C   UNL     1      -0.766  -5.352  -7.940  1.00  0.00     0.001 A 
ATOM     82  C   UNL     1       0.078  -6.192  -8.665  1.00  0.00     0.000 A 
ENDBRANCH  58  77
BRANCH  70  83
ATOM     83  C   UNL     1       2.545   2.295 -11.134  1.00  0.00    -0.014 A 
ATOM     84  C   UNL     1       1.372   2.466 -11.884  1.00  0.00     0.009 A 
ATOM     85  C   UNL     1       3.786   2.543 -11.741  1.00  0.00     0.009 A 
ATOM     86  C   UNL     1       1.444   2.848 -13.225  1.00  0.00     0.001 A 
ATOM     87  C   UNL     1       3.853   2.953 -13.073  1.00  0.00     0.001 A 
ATOM     88  C   UNL     1       2.683   3.097 -13.816  1.00  0.00     0.000 A 
ENDBRANCH  70  83
ENDBRANCH  44  45
ENDBRANCH  37  39
ENDBRANCH  36  37
ENDBRANCH  35  36
ENDBRANCH  34  35
ENDBRANCH  33  34
ENDBRANCH  32  33
ENDBRANCH  31  32
ENDBRANCH   1  31
TORSDOF 22
