REMARK SMILES O=C(OCCOCCOC(=O)c1ccc(-c2c3nc(c(-c4ccccc4)c4ccc([nH]4)c(-c4ccccc4)c4nc(c(-c5ccccc5)c5ccc2[nH]5)C=C4)C=C3)cc1)C1=N[C@@H]2NC=NN2[C@@H]([C@H]2C=NN=C2c2ccc(F)cc2)C1
REMARK SMILES IDX 6 1 5 2 4 3 3 4 2 5 1 6 60 7 61 8 80 9 62 10 67 11 63 12
REMARK SMILES IDX 66 13 64 14 65 16 68 17 69 18 72 19 70 20 71 21 73 22 74 23
REMARK SMILES IDX 79 24 75 25 78 26 76 27 77 28 7 29 8 30 9 31 10 32 11 33
REMARK SMILES IDX 12 34 13 35 59 36 14 37 58 38 15 39 16 40 17 41 52 42 18 43
REMARK SMILES IDX 57 44 51 45 53 46 19 47 56 48 50 49 49 50 20 52 42 53 27 54
REMARK SMILES IDX 41 55 28 56 31 57 40 58 54 59 29 60 30 61 39 63 55 64 32 65
REMARK SMILES IDX 21 66 22 67 26 68 23 69 25 70 24 71 43 72 44 73 48 74 45 75
REMARK SMILES IDX 47 76 46 77 33 78 34 79 38 80 35 81 37 82 36 83
REMARK H PARENT 63 15 53 51 31 62
REMARK Flexibility Score: inf
ROOT
ATOM      1  O   UNL     1       7.917  -5.489   0.257  1.00  0.00    -0.374 OA
ENDROOT
BRANCH   1   2
ATOM      2  C   UNL     1       9.258  -5.919  -0.001  1.00  0.00     0.202 C 
BRANCH   2   3
ATOM      3  C   UNL     1      10.263  -4.780  -0.142  1.00  0.00     0.261 C 
BRANCH   3   4
ATOM      4  O   UNL     1      10.164  -3.835   0.923  1.00  0.00    -0.459 OA
BRANCH   4   5
ATOM      5  C   UNL     1       9.216  -2.927   1.133  1.00  0.00     0.352 C 
ATOM      6  O   UNL     1       9.233  -2.309   2.197  1.00  0.00    -0.245 OA
BRANCH   5   7
ATOM      7  C   UNL     1       8.062  -2.560   0.140  1.00  0.00     0.126 C 
ATOM      8  N   UNL     1       7.119  -1.836   0.660  1.00  0.00    -0.236 NA
ATOM      9  C   UNL     1       8.100  -2.892  -1.341  1.00  0.00     0.092 C 
ATOM     10  C   UNL     1       6.293  -1.043  -0.225  1.00  0.00     0.319 C 
ATOM     11  C   UNL     1       6.668  -2.720  -1.857  1.00  0.00     0.127 C 
ATOM     12  N   UNL     1       4.882  -1.028   0.033  1.00  0.00    -0.335 N 
ATOM     13  N   UNL     1       6.380  -1.278  -1.692  1.00  0.00    -0.249 NA
ATOM     14  C   UNL     1       4.328  -0.829  -1.195  1.00  0.00     0.217 C 
ATOM     15  H   UNL     1       4.421  -1.136   0.896  1.00  0.00     0.165 HD
ATOM     16  N   UNL     1       5.133  -0.907  -2.221  1.00  0.00    -0.164 NA
BRANCH  11  17
ATOM     17  C   UNL     1       6.320  -3.209  -3.267  1.00  0.00     0.109 C 
ATOM     18  C   UNL     1       7.371  -2.928  -4.275  1.00  0.00     0.120 C 
ATOM     19  C   UNL     1       6.283  -4.704  -3.419  1.00  0.00     0.081 C 
ATOM     20  N   UNL     1       7.848  -3.997  -4.824  1.00  0.00    -0.162 NA
ATOM     21  N   UNL     1       7.164  -5.126  -4.279  1.00  0.00    -0.155 NA
BRANCH  19  22
ATOM     22  C   UNL     1       5.344  -5.592  -2.688  1.00  0.00    -0.001 A 
ATOM     23  C   UNL     1       4.221  -5.105  -2.002  1.00  0.00     0.013 A 
ATOM     24  C   UNL     1       5.606  -6.967  -2.683  1.00  0.00     0.013 A 
ATOM     25  C   UNL     1       3.411  -5.982  -1.269  1.00  0.00     0.040 A 
ATOM     26  C   UNL     1       4.780  -7.840  -1.971  1.00  0.00     0.040 A 
ATOM     27  C   UNL     1       3.706  -7.340  -1.249  1.00  0.00     0.123 A 
ATOM     28  F   UNL     1       2.950  -8.171  -0.520  1.00  0.00    -0.207 F 
ENDBRANCH  19  22
ENDBRANCH  11  17
ENDBRANCH   5   7
ENDBRANCH   4   5
ENDBRANCH   3   4
ENDBRANCH   2   3
ENDBRANCH   1   2
BRANCH   1  29
ATOM     29  C   UNL     1       7.518  -5.574   1.635  1.00  0.00     0.202 C 
BRANCH  29  30
ATOM     30  C   UNL     1       6.925  -6.927   2.042  1.00  0.00     0.261 C 
BRANCH  30  31
ATOM     31  O   UNL     1       7.889  -7.975   1.871  1.00  0.00    -0.460 OA
BRANCH  31  32
ATOM     32  C   UNL     1       7.780  -8.627   0.694  1.00  0.00     0.338 C 
ATOM     33  O   UNL     1       6.882  -8.529  -0.128  1.00  0.00    -0.246 OA
BRANCH  32  34
ATOM     34  C   UNL     1       9.006  -9.377   0.407  1.00  0.00     0.060 A 
ATOM     35  C   UNL     1       9.495  -9.330  -0.907  1.00  0.00     0.016 A 
ATOM     36  C   UNL     1       9.623 -10.161   1.381  1.00  0.00     0.016 A 
ATOM     37  C   UNL     1      10.562 -10.134  -1.274  1.00  0.00     0.010 A 
ATOM     38  C   UNL     1      10.688 -10.975   1.011  1.00  0.00     0.010 A 
ATOM     39  C   UNL     1      11.117 -11.003  -0.328  1.00  0.00    -0.014 A 
BRANCH  39  40
ATOM     40  C   UNL     1      11.977 -12.104  -0.796  1.00  0.00     0.031 A 
ATOM     41  C   UNL     1      11.357 -13.462  -0.965  1.00  0.00     0.074 A 
ATOM     42  C   UNL     1      13.265 -11.878  -1.099  1.00  0.00     0.049 A 
ATOM     43  N   UNL     1      11.912 -14.586  -1.333  1.00  0.00    -0.248 NA
ATOM     44  C   UNL     1       9.917 -13.568  -0.670  1.00  0.00     0.031 C 
ATOM     45  C   UNL     1      13.937 -10.581  -1.026  1.00  0.00     0.029 A 
ATOM     46  N   UNL     1      14.233 -12.741  -1.533  1.00  0.00    -0.354 N 
ATOM     47  C   UNL     1      10.896 -15.534  -1.289  1.00  0.00     0.074 A 
ATOM     48  C   UNL     1       9.701 -14.863  -0.832  1.00  0.00     0.031 C 
ATOM     49  C   UNL     1      15.216 -10.736  -1.409  1.00  0.00     0.029 A 
ATOM     50  C   UNL     1      15.454 -12.144  -1.712  1.00  0.00     0.049 A 
ATOM     51  H   UNL     1      14.069 -13.697  -1.701  1.00  0.00     0.167 HD
ATOM     52  C   UNL     1      10.958 -16.848  -1.606  1.00  0.00     0.031 A 
ATOM     53  C   UNL     1      16.632 -12.688  -2.066  1.00  0.00     0.031 A 
ATOM     54  C   UNL     1      12.160 -17.499  -2.052  1.00  0.00     0.049 A 
ATOM     55  C   UNL     1      16.690 -14.165  -2.345  1.00  0.00     0.074 A 
ATOM     56  C   UNL     1      12.341 -18.819  -2.421  1.00  0.00     0.029 A 
ATOM     57  N   UNL     1      13.391 -16.872  -2.181  1.00  0.00    -0.354 N 
ATOM     58  N   UNL     1      15.723 -15.052  -2.322  1.00  0.00    -0.248 NA
ATOM     59  C   UNL     1      18.002 -14.712  -2.713  1.00  0.00     0.031 C 
ATOM     60  C   UNL     1      13.698 -19.006  -2.706  1.00  0.00     0.029 A 
ATOM     61  C   UNL     1      14.345 -17.785  -2.593  1.00  0.00     0.049 A 
ATOM     62  H   UNL     1      13.560 -15.918  -2.005  1.00  0.00     0.167 HD
ATOM     63  C   UNL     1      16.301 -16.254  -2.711  1.00  0.00     0.074 A 
ATOM     64  C   UNL     1      17.699 -15.975  -2.976  1.00  0.00     0.031 C 
ATOM     65  C   UNL     1      15.731 -17.478  -2.845  1.00  0.00     0.031 A 
BRANCH  52  66
ATOM     66  C   UNL     1       9.709 -17.667  -1.424  1.00  0.00    -0.014 A 
ATOM     67  C   UNL     1       8.576 -17.480  -2.232  1.00  0.00     0.009 A 
ATOM     68  C   UNL     1       9.671 -18.652  -0.424  1.00  0.00     0.009 A 
ATOM     69  C   UNL     1       7.419 -18.233  -2.016  1.00  0.00     0.001 A 
ATOM     70  C   UNL     1       8.526 -19.427  -0.233  1.00  0.00     0.001 A 
ATOM     71  C   UNL     1       7.397 -19.209  -1.020  1.00  0.00     0.000 A 
ENDBRANCH  52  66
BRANCH  53  72
ATOM     72  C   UNL     1      17.845 -11.836  -2.176  1.00  0.00    -0.014 A 
ATOM     73  C   UNL     1      18.445 -11.607  -3.424  1.00  0.00     0.009 A 
ATOM     74  C   UNL     1      18.416 -11.254  -1.034  1.00  0.00     0.009 A 
ATOM     75  C   UNL     1      19.607 -10.839  -3.521  1.00  0.00     0.001 A 
ATOM     76  C   UNL     1      19.559 -10.459  -1.137  1.00  0.00     0.001 A 
ATOM     77  C   UNL     1      20.160 -10.262  -2.379  1.00  0.00     0.000 A 
ENDBRANCH  53  72
BRANCH  65  78
ATOM     78  C   UNL     1      16.611 -18.588  -3.352  1.00  0.00    -0.014 A 
ATOM     79  C   UNL     1      17.652 -19.118  -2.574  1.00  0.00     0.009 A 
ATOM     80  C   UNL     1      16.373 -19.126  -4.627  1.00  0.00     0.009 A 
ATOM     81  C   UNL     1      18.468 -20.129  -3.084  1.00  0.00     0.001 A 
ATOM     82  C   UNL     1      17.166 -20.163  -5.118  1.00  0.00     0.001 A 
ATOM     83  C   UNL     1      18.222 -20.653  -4.353  1.00  0.00     0.000 A 
ENDBRANCH  65  78
ENDBRANCH  39  40
ENDBRANCH  32  34
ENDBRANCH  31  32
ENDBRANCH  30  31
ENDBRANCH  29  30
ENDBRANCH   1  29
TORSDOF 16
