REMARK SMILES Cc1ccc(-c2cc(Cl)cc3c2O[C@H](C(F)(F)F)C(C(=O)OCCOCCOC(=O)c2ccc(-c4c5nc(c(-c6ccccc6)c6ccc([nH]6)c(-c6ccccc6)c6nc(c(-c7ccccc7)c7ccc4[nH]7)C=C6)C=C5)cc2)=C3)cc1F
REMARK SMILES IDX 26 1 25 2 24 3 23 4 22 5 20 6 21 7 19 8 6 9 7 10 12 11 8 12
REMARK SMILES IDX 11 13 13 14 9 15 10 16 79 17 14 18 5 19 1 20 2 21 3 22 81 23
REMARK SMILES IDX 4 24 80 25 82 26 15 27 16 28 17 29 18 30 27 31 28 32 29 33
REMARK SMILES IDX 30 34 31 35 32 36 78 37 33 38 77 39 34 40 35 41 36 42 71 43
REMARK SMILES IDX 37 44 76 45 70 46 72 47 38 48 75 49 69 50 68 51 39 53 61 54
REMARK SMILES IDX 46 55 60 56 47 57 50 58 59 59 73 60 48 61 49 62 58 64 74 65
REMARK SMILES IDX 51 66 40 67 41 68 45 69 42 70 44 71 43 72 62 73 63 74 67 75
REMARK SMILES IDX 64 76 66 77 65 78 52 79 53 80 57 81 54 82 56 83 55 84
REMARK H PARENT 72 52 50 63
REMARK Flexibility Score: inf
ROOT
ATOM      1  C   UNL     1      -5.635  -5.035   5.749  1.00  0.00     0.202 C 
ENDROOT
BRANCH   1   2
ATOM      2  O   UNL     1      -5.446  -6.327   6.321  1.00  0.00    -0.374 OA
BRANCH   2   3
ATOM      3  C   UNL     1      -4.168  -6.660   6.854  1.00  0.00     0.202 C 
BRANCH   3   4
ATOM      4  C   UNL     1      -3.037  -6.965   5.867  1.00  0.00     0.261 C 
BRANCH   4   5
ATOM      5  O   UNL     1      -2.827  -5.895   4.934  1.00  0.00    -0.460 OA
BRANCH   5   6
ATOM      6  C   UNL     1      -3.207  -6.180   3.666  1.00  0.00     0.338 C 
ATOM      7  O   UNL     1      -3.599  -7.255   3.243  1.00  0.00    -0.246 OA
BRANCH   6   8
ATOM      8  C   UNL     1      -3.199  -4.950   2.852  1.00  0.00     0.087 C 
ATOM      9  C   UNL     1      -2.992  -1.788   0.122  1.00  0.00     0.026 A 
ATOM     10  C   UNL     1      -3.974  -1.715  -0.883  1.00  0.00     0.033 A 
ATOM     11  C   UNL     1      -3.122  -2.786   1.112  1.00  0.00     0.135 A 
ATOM     12  C   UNL     1      -5.048  -2.604  -0.897  1.00  0.00     0.042 A 
ATOM     13  C   UNL     1      -4.178  -3.704   1.062  1.00  0.00     0.019 A 
ATOM     14  O   UNL     1      -2.200  -2.793   2.127  1.00  0.00    -0.475 OA
ATOM     15  Cl  UNL     1      -6.232  -2.495  -2.140  1.00  0.00    -0.084 Cl
ATOM     16  C   UNL     1      -5.154  -3.599   0.068  1.00  0.00     0.032 A 
ATOM     17  C   UNL     1      -4.217  -4.816   1.993  1.00  0.00     0.027 C 
ATOM     18  C   UNL     1      -2.083  -3.955   2.988  1.00  0.00     0.316 C 
BRANCH   9  19
ATOM     19  C   UNL     1      -1.838  -0.870   0.082  1.00  0.00    -0.012 A 
ATOM     20  C   UNL     1       1.578   1.788  -0.019  1.00  0.00     0.047 C 
ATOM     21  C   UNL     1       0.385   0.884   0.003  1.00  0.00    -0.015 A 
ATOM     22  C   UNL     1      -0.918   1.392   0.027  1.00  0.00     0.007 A 
ATOM     23  C   UNL     1       0.560  -0.499   0.007  1.00  0.00     0.126 A 
ATOM     24  C   UNL     1      -2.015   0.524   0.066  1.00  0.00     0.009 A 
ATOM     25  C   UNL     1      -0.527  -1.367   0.040  1.00  0.00     0.048 A 
ATOM     26  F   UNL     1       1.798  -1.014  -0.021  1.00  0.00    -0.207 F 
ENDBRANCH   9  19
BRANCH  18  27
ATOM     27  C   UNL     1      -0.697  -4.580   2.772  1.00  0.00     0.430 C 
ATOM     28  F   UNL     1       0.280  -3.646   2.853  1.00  0.00    -0.167 F 
ATOM     29  F   UNL     1      -0.414  -5.517   3.707  1.00  0.00    -0.167 F 
ATOM     30  F   UNL     1      -0.594  -5.171   1.560  1.00  0.00    -0.167 F 
ENDBRANCH  18  27
ENDBRANCH   6   8
ENDBRANCH   5   6
ENDBRANCH   4   5
ENDBRANCH   3   4
ENDBRANCH   2   3
ENDBRANCH   1   2
BRANCH   1  31
ATOM     31  C   UNL     1      -5.652  -3.815   6.679  1.00  0.00     0.261 C 
BRANCH  31  32
ATOM     32  O   UNL     1      -4.399  -3.599   7.350  1.00  0.00    -0.460 OA
BRANCH  32  33
ATOM     33  C   UNL     1      -4.416  -3.851   8.683  1.00  0.00     0.338 C 
ATOM     34  O   UNL     1      -5.369  -4.210   9.358  1.00  0.00    -0.246 OA
BRANCH  33  35
ATOM     35  C   UNL     1      -3.037  -3.821   9.201  1.00  0.00     0.060 A 
ATOM     36  C   UNL     1      -2.240  -2.684   9.064  1.00  0.00     0.016 A 
ATOM     37  C   UNL     1      -2.559  -4.949   9.881  1.00  0.00     0.016 A 
ATOM     38  C   UNL     1      -0.964  -2.674   9.634  1.00  0.00     0.010 A 
ATOM     39  C   UNL     1      -1.285  -4.936  10.448  1.00  0.00     0.010 A 
ATOM     40  C   UNL     1      -0.485  -3.790  10.347  1.00  0.00    -0.014 A 
BRANCH  40  41
ATOM     41  C   UNL     1       0.797  -3.707  11.088  1.00  0.00     0.031 A 
ATOM     42  C   UNL     1       2.027  -4.420  10.609  1.00  0.00     0.074 A 
ATOM     43  C   UNL     1       0.839  -2.970  12.216  1.00  0.00     0.049 A 
ATOM     44  N   UNL     1       3.239  -4.379  11.103  1.00  0.00    -0.248 NA
ATOM     45  C   UNL     1       1.887  -5.286   9.428  1.00  0.00     0.031 C 
ATOM     46  C   UNL     1      -0.300  -2.248  12.786  1.00  0.00     0.029 A 
ATOM     47  N   UNL     1       1.875  -2.687  13.071  1.00  0.00    -0.354 N 
ATOM     48  C   UNL     1       4.011  -5.190  10.283  1.00  0.00     0.074 A 
ATOM     49  C   UNL     1       3.123  -5.753   9.288  1.00  0.00     0.031 C 
ATOM     50  C   UNL     1       0.111  -1.564  13.865  1.00  0.00     0.029 A 
ATOM     51  C   UNL     1       1.528  -1.832  14.091  1.00  0.00     0.049 A 
ATOM     52  H   UNL     1       2.780  -3.060  12.964  1.00  0.00     0.167 HD
ATOM     53  C   UNL     1       5.344  -5.420  10.343  1.00  0.00     0.031 A 
ATOM     54  C   UNL     1       2.267  -1.313  15.091  1.00  0.00     0.031 A 
ATOM     55  C   UNL     1       6.219  -4.867  11.346  1.00  0.00     0.049 A 
ATOM     56  C   UNL     1       3.732  -1.649  15.171  1.00  0.00     0.074 A 
ATOM     57  C   UNL     1       7.589  -5.031  11.468  1.00  0.00     0.029 A 
ATOM     58  N   UNL     1       5.819  -4.054  12.394  1.00  0.00    -0.354 N 
ATOM     59  N   UNL     1       4.461  -2.358  14.344  1.00  0.00    -0.248 NA
ATOM     60  C   UNL     1       4.480  -1.103  16.313  1.00  0.00     0.031 C 
ATOM     61  C   UNL     1       8.006  -4.381  12.629  1.00  0.00     0.029 A 
ATOM     62  C   UNL     1       6.912  -3.737  13.184  1.00  0.00     0.049 A 
ATOM     63  H   UNL     1       4.897  -3.748  12.554  1.00  0.00     0.167 HD
ATOM     64  C   UNL     1       5.756  -2.312  14.845  1.00  0.00     0.074 A 
ATOM     65  C   UNL     1       5.718  -1.491  16.036  1.00  0.00     0.031 C 
ATOM     66  C   UNL     1       6.874  -2.903  14.359  1.00  0.00     0.031 A 
BRANCH  53  67
ATOM     67  C   UNL     1       5.976  -6.284   9.287  1.00  0.00    -0.014 A 
ATOM     68  C   UNL     1       6.562  -7.511   9.640  1.00  0.00     0.009 A 
ATOM     69  C   UNL     1       6.145  -5.803   7.979  1.00  0.00     0.009 A 
ATOM     70  C   UNL     1       7.336  -8.219   8.717  1.00  0.00     0.001 A 
ATOM     71  C   UNL     1       6.894  -6.529   7.050  1.00  0.00     0.001 A 
ATOM     72  C   UNL     1       7.502  -7.726   7.424  1.00  0.00     0.000 A 
ENDBRANCH  53  67
BRANCH  54  73
ATOM     73  C   UNL     1       1.641  -0.386  16.074  1.00  0.00    -0.014 A 
ATOM     74  C   UNL     1       0.634  -0.831  16.946  1.00  0.00     0.009 A 
ATOM     75  C   UNL     1       2.041   0.958  16.139  1.00  0.00     0.009 A 
ATOM     76  C   UNL     1       0.028   0.051  17.844  1.00  0.00     0.001 A 
ATOM     77  C   UNL     1       1.462   1.829  17.066  1.00  0.00     0.001 A 
ATOM     78  C   UNL     1       0.450   1.377  17.910  1.00  0.00     0.000 A 
ENDBRANCH  54  73
BRANCH  66  79
ATOM     79  C   UNL     1       8.175  -2.674  15.082  1.00  0.00    -0.014 A 
ATOM     80  C   UNL     1       9.216  -1.984  14.437  1.00  0.00     0.009 A 
ATOM     81  C   UNL     1       8.419  -3.243  16.340  1.00  0.00     0.009 A 
ATOM     82  C   UNL     1      10.479  -1.892  15.023  1.00  0.00     0.001 A 
ATOM     83  C   UNL     1       9.673  -3.116  16.942  1.00  0.00     0.001 A 
ATOM     84  C   UNL     1      10.706  -2.455  16.278  1.00  0.00     0.000 A 
ENDBRANCH  66  79
ENDBRANCH  40  41
ENDBRANCH  33  35
ENDBRANCH  32  33
ENDBRANCH  31  32
ENDBRANCH   1  31
TORSDOF 16
