REMARK SMILES Cc1noc2c1-c1c(c(C(=O)OCCOCCOC(=O)c3ccc(-c4c5nc(c(-c6ccccc6)c6ccc([nH]6)c(-c6ccccc6)c6nc(c(-c7ccccc7)c7ccc4[nH]7)C=C6)C=C5)cc3)nn1C)CC2
REMARK SMILES IDX 16 1 15 2 14 3 13 4 12 5 10 6 11 7 9 8 1 9 2 10 3 11 6 12
REMARK SMILES IDX 4 13 5 14 7 15 73 16 8 17 70 18 72 19 69 20 71 21 17 22
REMARK SMILES IDX 18 23 19 24 20 25 21 26 22 27 68 28 23 29 67 30 24 31 25 32
REMARK SMILES IDX 26 33 61 34 27 35 66 36 60 37 62 38 28 39 65 40 59 41 58 42
REMARK SMILES IDX 29 44 51 45 36 46 50 47 37 48 40 49 49 50 63 51 38 52 39 53
REMARK SMILES IDX 48 55 64 56 41 57 30 58 31 59 35 60 32 61 34 62 33 63 52 64
REMARK SMILES IDX 53 65 57 66 54 67 56 68 55 69 42 70 43 71 47 72 44 73 46 74
REMARK SMILES IDX 45 75
REMARK H PARENT 62 43 40 54
REMARK Flexibility Score: inf
ROOT
ATOM      1  C   UNL     1      -4.629   4.441  -4.321  1.00  0.00     0.202 C 
ENDROOT
BRANCH   1   2
ATOM      2  O   UNL     1      -4.960   4.709  -5.679  1.00  0.00    -0.374 OA
BRANCH   2   3
ATOM      3  C   UNL     1      -4.989   3.631  -6.614  1.00  0.00     0.202 C 
BRANCH   3   4
ATOM      4  C   UNL     1      -3.636   3.083  -7.071  1.00  0.00     0.261 C 
BRANCH   4   5
ATOM      5  O   UNL     1      -2.980   2.348  -6.022  1.00  0.00    -0.458 OA
BRANCH   5   6
ATOM      6  C   UNL     1      -1.874   2.962  -5.494  1.00  0.00     0.359 C 
ATOM      7  O   UNL     1      -1.387   3.992  -5.942  1.00  0.00    -0.244 OA
BRANCH   6   8
ATOM      8  C   UNL     1      -1.390   2.308  -4.266  1.00  0.00     0.174 A 
ATOM      9  C   UNL     1       1.046  -0.382   0.134  1.00  0.00     0.071 C 
ATOM     10  C   UNL     1       0.432  -0.987  -1.067  1.00  0.00     0.090 A 
ATOM     11  N   UNL     1       0.540  -2.323  -1.203  1.00  0.00    -0.084 NA
ATOM     12  C   UNL     1      -0.257  -0.431  -2.167  1.00  0.00     0.066 A 
ATOM     13  O   UNL     1      -0.047  -2.645  -2.414  1.00  0.00    -0.360 OA
ATOM     14  C   UNL     1      -0.516  -1.514  -2.976  1.00  0.00     0.146 A 
ATOM     15  C   UNL     1      -0.671   0.885  -2.706  1.00  0.00     0.077 A 
ATOM     16  C   UNL     1      -1.106  -1.547  -4.338  1.00  0.00     0.084 C 
ATOM     17  C   UNL     1      -1.398   0.935  -3.892  1.00  0.00     0.014 A 
ATOM     18  N   UNL     1      -0.466   2.176  -2.336  1.00  0.00    -0.267 N 
ATOM     19  C   UNL     1      -1.962  -0.281  -4.578  1.00  0.00     0.048 C 
ATOM     20  N   UNL     1      -0.848   3.052  -3.282  1.00  0.00    -0.165 NA
ATOM     21  C   UNL     1       0.096   2.709  -1.122  1.00  0.00     0.174 C 
ENDBRANCH   6   8
ENDBRANCH   5   6
ENDBRANCH   4   5
ENDBRANCH   3   4
ENDBRANCH   2   3
ENDBRANCH   1   2
BRANCH   1  22
ATOM     22  C   UNL     1      -5.706   3.789  -3.467  1.00  0.00     0.261 C 
BRANCH  22  23
ATOM     23  O   UNL     1      -6.037   2.489  -3.937  1.00  0.00    -0.460 OA
BRANCH  23  24
ATOM     24  C   UNL     1      -7.204   2.418  -4.619  1.00  0.00     0.338 C 
ATOM     25  O   UNL     1      -7.840   3.334  -5.103  1.00  0.00    -0.246 OA
BRANCH  24  26
ATOM     26  C   UNL     1      -7.688   1.034  -4.544  1.00  0.00     0.060 A 
ATOM     27  C   UNL     1      -8.942   0.770  -5.104  1.00  0.00     0.016 A 
ATOM     28  C   UNL     1      -7.046   0.123  -3.694  1.00  0.00     0.016 A 
ATOM     29  C   UNL     1      -9.646  -0.328  -4.657  1.00  0.00     0.010 A 
ATOM     30  C   UNL     1      -7.762  -0.945  -3.219  1.00  0.00     0.010 A 
ATOM     31  C   UNL     1      -9.075  -1.116  -3.657  1.00  0.00    -0.014 A 
BRANCH  31  32
ATOM     32  C   UNL     1      -9.870  -2.163  -3.055  1.00  0.00     0.031 A 
ATOM     33  C   UNL     1      -9.839  -3.445  -3.789  1.00  0.00     0.074 A 
ATOM     34  C   UNL     1     -10.393  -2.008  -1.825  1.00  0.00     0.049 A 
ATOM     35  N   UNL     1     -10.826  -4.082  -4.325  1.00  0.00    -0.248 NA
ATOM     36  C   UNL     1      -8.515  -4.027  -4.073  1.00  0.00     0.031 C 
ATOM     37  C   UNL     1     -10.163  -0.890  -0.902  1.00  0.00     0.029 A 
ATOM     38  N   UNL     1     -11.110  -2.889  -1.078  1.00  0.00    -0.354 N 
ATOM     39  C   UNL     1     -10.268  -5.248  -4.838  1.00  0.00     0.074 A 
ATOM     40  C   UNL     1      -8.843  -5.055  -4.851  1.00  0.00     0.031 C 
ATOM     41  C   UNL     1     -10.523  -1.269   0.344  1.00  0.00     0.029 A 
ATOM     42  C   UNL     1     -11.102  -2.601   0.280  1.00  0.00     0.049 A 
ATOM     43  H   UNL     1     -11.589  -3.658  -1.464  1.00  0.00     0.167 HD
ATOM     44  C   UNL     1     -10.980  -6.404  -4.907  1.00  0.00     0.031 A 
ATOM     45  C   UNL     1     -11.456  -3.438   1.284  1.00  0.00     0.031 A 
ATOM     46  C   UNL     1     -12.397  -6.171  -4.825  1.00  0.00     0.049 A 
ATOM     47  C   UNL     1     -12.220  -4.562   0.694  1.00  0.00     0.074 A 
ATOM     48  C   UNL     1     -13.310  -5.430  -5.548  1.00  0.00     0.029 A 
ATOM     49  N   UNL     1     -13.011  -6.476  -3.634  1.00  0.00    -0.354 N 
ATOM     50  N   UNL     1     -13.415  -4.446   0.192  1.00  0.00    -0.248 NA
ATOM     51  C   UNL     1     -11.494  -5.759   0.295  1.00  0.00     0.031 C 
ATOM     52  C   UNL     1     -14.256  -4.962  -4.590  1.00  0.00     0.029 A 
ATOM     53  C   UNL     1     -13.893  -5.472  -3.342  1.00  0.00     0.049 A 
ATOM     54  H   UNL     1     -12.844  -7.278  -3.087  1.00  0.00     0.167 HD
ATOM     55  C   UNL     1     -13.425  -5.300  -0.901  1.00  0.00     0.074 A 
ATOM     56  C   UNL     1     -12.274  -6.175  -0.707  1.00  0.00     0.031 C 
ATOM     57  C   UNL     1     -14.189  -5.022  -1.999  1.00  0.00     0.031 A 
BRANCH  44  58
ATOM     58  C   UNL     1     -10.366  -7.746  -4.572  1.00  0.00    -0.014 A 
ATOM     59  C   UNL     1     -11.164  -8.896  -4.694  1.00  0.00     0.009 A 
ATOM     60  C   UNL     1      -9.152  -7.894  -3.869  1.00  0.00     0.009 A 
ATOM     61  C   UNL     1     -10.804 -10.099  -4.074  1.00  0.00     0.001 A 
ATOM     62  C   UNL     1      -8.765  -9.105  -3.293  1.00  0.00     0.001 A 
ATOM     63  C   UNL     1      -9.609 -10.200  -3.368  1.00  0.00     0.000 A 
ENDBRANCH  44  58
BRANCH  45  64
ATOM     64  C   UNL     1     -10.956  -3.471   2.674  1.00  0.00    -0.014 A 
ATOM     65  C   UNL     1     -11.661  -4.162   3.671  1.00  0.00     0.009 A 
ATOM     66  C   UNL     1      -9.657  -3.025   2.982  1.00  0.00     0.009 A 
ATOM     67  C   UNL     1     -11.075  -4.424   4.917  1.00  0.00     0.001 A 
ATOM     68  C   UNL     1      -9.075  -3.278   4.227  1.00  0.00     0.001 A 
ATOM     69  C   UNL     1      -9.779  -3.991   5.190  1.00  0.00     0.000 A 
ENDBRANCH  45  64
BRANCH  57  70
ATOM     70  C   UNL     1     -15.243  -3.951  -1.868  1.00  0.00    -0.014 A 
ATOM     71  C   UNL     1     -14.941  -2.615  -1.555  1.00  0.00     0.009 A 
ATOM     72  C   UNL     1     -16.565  -4.273  -2.212  1.00  0.00     0.009 A 
ATOM     73  C   UNL     1     -15.941  -1.637  -1.551  1.00  0.00     0.001 A 
ATOM     74  C   UNL     1     -17.558  -3.293  -2.230  1.00  0.00     0.001 A 
ATOM     75  C   UNL     1     -17.248  -1.977  -1.893  1.00  0.00     0.000 A 
ENDBRANCH  57  70
ENDBRANCH  31  32
ENDBRANCH  24  26
ENDBRANCH  23  24
ENDBRANCH  22  23
ENDBRANCH   1  22
TORSDOF 14
