REMARK SMILES CCOC(=O)C1=NN(c2ccc(F)cc2F)[C@@H](C(=O)OCCOCCOC(=O)c2ccc(-c3c4nc(c(-c5ccccc5)c5ccc([nH]5)c(-c5ccccc5)c5nc(c(-c6ccccc6)c6ccc3[nH]6)C=C5)C=C4)cc2)C1
REMARK SMILES IDX 22 1 21 2 20 3 18 4 19 5 17 6 6 7 7 8 77 9 8 10 4 11 5 12
REMARK SMILES IDX 3 13 2 14 1 15 9 16 10 17 15 18 11 19 14 20 16 21 12 22
REMARK SMILES IDX 13 23 23 24 24 25 25 26 26 27 27 28 28 29 29 30 30 31 76 32
REMARK SMILES IDX 31 33 75 34 32 35 33 36 34 37 69 38 35 39 74 40 68 41 70 42
REMARK SMILES IDX 36 43 73 44 67 45 66 46 37 48 59 49 44 50 58 51 45 52 48 53
REMARK SMILES IDX 57 54 71 55 46 56 47 57 56 59 72 60 49 61 38 62 39 63 43 64
REMARK SMILES IDX 40 65 42 66 41 67 60 68 61 69 65 70 62 71 64 72 63 73 50 74
REMARK SMILES IDX 51 75 55 76 52 77 54 78 53 79
REMARK H PARENT 70 47 48 58
REMARK Flexibility Score: inf
ROOT
ATOM      1  C   UNL     1       0.613  -5.577  -7.100  1.00  0.00     0.202 C 
ENDROOT
BRANCH   1   2
ATOM      2  C   UNL     1       2.133  -5.608  -6.924  1.00  0.00     0.261 C 
BRANCH   2   3
ATOM      3  O   UNL     1       2.581  -4.605  -5.993  1.00  0.00    -0.462 OA
BRANCH   3   4
ATOM      4  C   UNL     1       3.410  -3.647  -6.493  1.00  0.00     0.331 C 
ATOM      5  O   UNL     1       3.757  -3.564  -7.667  1.00  0.00    -0.250 OA
BRANCH   4   6
ATOM      6  C   UNL     1       3.854  -2.640  -5.443  1.00  0.00     0.224 C 
ATOM      7  C   UNL     1       3.323  -1.832  -3.378  1.00  0.00     0.148 C 
ATOM      8  N   UNL     1       4.304  -2.650  -3.133  1.00  0.00    -0.169 NA
ATOM      9  C   UNL     1       2.717  -1.913  -4.742  1.00  0.00     0.105 C 
ATOM     10  N   UNL     1       4.545  -3.278  -4.323  1.00  0.00    -0.247 N 
BRANCH   7  11
ATOM     11  C   UNL     1       2.788  -0.825  -2.403  1.00  0.00     0.354 C 
ATOM     12  O   UNL     1       3.471   0.099  -1.984  1.00  0.00    -0.245 OA
BRANCH  11  13
ATOM     13  O   UNL     1       1.474  -1.040  -2.208  1.00  0.00    -0.461 OA
BRANCH  13  14
ATOM     14  C   UNL     1       0.796  -0.030  -1.444  1.00  0.00     0.230 C 
ATOM     15  C   UNL     1       0.967  -0.269   0.044  1.00  0.00     0.049 C 
ENDBRANCH  13  14
ENDBRANCH  11  13
ENDBRANCH   7  11
BRANCH  10  16
ATOM     16  C   UNL     1       5.616  -4.152  -4.478  1.00  0.00     0.096 A 
ATOM     17  C   UNL     1       6.566  -3.965  -5.498  1.00  0.00     0.034 A 
ATOM     18  C   UNL     1       5.741  -5.298  -3.675  1.00  0.00     0.151 A 
ATOM     19  C   UNL     1       7.580  -4.900  -5.718  1.00  0.00     0.041 A 
ATOM     20  C   UNL     1       6.738  -6.244  -3.898  1.00  0.00     0.080 A 
ATOM     21  F   UNL     1       4.832  -5.558  -2.721  1.00  0.00    -0.205 F 
ATOM     22  C   UNL     1       7.648  -6.036  -4.923  1.00  0.00     0.126 A 
ATOM     23  F   UNL     1       8.598  -6.948  -5.160  1.00  0.00    -0.207 F 
ENDBRANCH  10  16
ENDBRANCH   4   6
ENDBRANCH   3   4
ENDBRANCH   2   3
ENDBRANCH   1   2
BRANCH   1  24
ATOM     24  O   UNL     1       0.085  -4.461  -7.818  1.00  0.00    -0.374 OA
BRANCH  24  25
ATOM     25  C   UNL     1       0.063  -3.197  -7.162  1.00  0.00     0.202 C 
BRANCH  25  26
ATOM     26  C   UNL     1      -1.028  -2.997  -6.105  1.00  0.00     0.261 C 
BRANCH  26  27
ATOM     27  O   UNL     1      -0.886  -3.901  -4.993  1.00  0.00    -0.460 OA
BRANCH  27  28
ATOM     28  C   UNL     1      -1.914  -4.773  -4.855  1.00  0.00     0.338 C 
ATOM     29  O   UNL     1      -2.954  -4.791  -5.495  1.00  0.00    -0.246 OA
BRANCH  28  30
ATOM     30  C   UNL     1      -1.582  -5.846  -3.898  1.00  0.00     0.060 A 
ATOM     31  C   UNL     1      -1.807  -7.162  -4.322  1.00  0.00     0.016 A 
ATOM     32  C   UNL     1      -1.200  -5.580  -2.581  1.00  0.00     0.016 A 
ATOM     33  C   UNL     1      -1.738  -8.210  -3.409  1.00  0.00     0.010 A 
ATOM     34  C   UNL     1      -1.136  -6.636  -1.662  1.00  0.00     0.010 A 
ATOM     35  C   UNL     1      -1.461  -7.947  -2.061  1.00  0.00    -0.014 A 
BRANCH  35  36
ATOM     36  C   UNL     1      -1.724  -9.011  -1.061  1.00  0.00     0.031 A 
ATOM     37  C   UNL     1      -3.043  -9.011  -0.333  1.00  0.00     0.074 A 
ATOM     38  C   UNL     1      -0.849 -10.013  -0.860  1.00  0.00     0.049 A 
ATOM     39  N   UNL     1      -3.513  -9.871   0.535  1.00  0.00    -0.248 NA
ATOM     40  C   UNL     1      -3.957  -7.895  -0.628  1.00  0.00     0.031 C 
ATOM     41  C   UNL     1       0.439 -10.161  -1.534  1.00  0.00     0.029 A 
ATOM     42  N   UNL     1      -0.928 -11.105  -0.033  1.00  0.00    -0.354 N 
ATOM     43  C   UNL     1      -4.771  -9.400   0.890  1.00  0.00     0.074 A 
ATOM     44  C   UNL     1      -4.981  -8.164   0.168  1.00  0.00     0.031 C 
ATOM     45  C   UNL     1       1.030 -11.287  -1.095  1.00  0.00     0.029 A 
ATOM     46  C   UNL     1       0.173 -11.923  -0.097  1.00  0.00     0.049 A 
ATOM     47  H   UNL     1      -1.700 -11.285   0.551  1.00  0.00     0.167 HD
ATOM     48  C   UNL     1      -5.679  -9.948   1.731  1.00  0.00     0.031 A 
ATOM     49  C   UNL     1       0.458 -13.053   0.579  1.00  0.00     0.031 A 
ATOM     50  C   UNL     1      -5.480 -11.172   2.458  1.00  0.00     0.049 A 
ATOM     51  C   UNL     1      -0.539 -13.608   1.560  1.00  0.00     0.074 A 
ATOM     52  C   UNL     1      -6.346 -11.808   3.331  1.00  0.00     0.029 A 
ATOM     53  N   UNL     1      -4.331 -11.943   2.400  1.00  0.00    -0.354 N 
ATOM     54  N   UNL     1      -1.733 -13.163   1.867  1.00  0.00    -0.248 NA
ATOM     55  C   UNL     1      -0.149 -14.830   2.280  1.00  0.00     0.031 C 
ATOM     56  C   UNL     1      -5.703 -12.943   3.834  1.00  0.00     0.029 A 
ATOM     57  C   UNL     1      -4.456 -13.038   3.237  1.00  0.00     0.049 A 
ATOM     58  H   UNL     1      -3.542 -11.742   1.846  1.00  0.00     0.167 HD
ATOM     59  C   UNL     1      -2.248 -14.065   2.791  1.00  0.00     0.074 A 
ATOM     60  C   UNL     1      -1.241 -15.087   2.987  1.00  0.00     0.031 C 
ATOM     61  C   UNL     1      -3.449 -14.050   3.418  1.00  0.00     0.031 A 
BRANCH  48  62
ATOM     62  C   UNL     1      -6.967  -9.202   1.932  1.00  0.00    -0.014 A 
ATOM     63  C   UNL     1      -7.958  -9.182   0.938  1.00  0.00     0.009 A 
ATOM     64  C   UNL     1      -7.200  -8.529   3.141  1.00  0.00     0.009 A 
ATOM     65  C   UNL     1      -9.145  -8.476   1.140  1.00  0.00     0.001 A 
ATOM     66  C   UNL     1      -8.398  -7.844   3.349  1.00  0.00     0.001 A 
ATOM     67  C   UNL     1      -9.366  -7.810   2.346  1.00  0.00     0.000 A 
ENDBRANCH  48  62
BRANCH  49  68
ATOM     68  C   UNL     1       1.756 -13.742   0.359  1.00  0.00    -0.014 A 
ATOM     69  C   UNL     1       1.811 -14.974  -0.309  1.00  0.00     0.009 A 
ATOM     70  C   UNL     1       2.947 -13.176   0.842  1.00  0.00     0.009 A 
ATOM     71  C   UNL     1       3.030 -15.638  -0.467  1.00  0.00     0.001 A 
ATOM     72  C   UNL     1       4.167 -13.831   0.659  1.00  0.00     0.001 A 
ATOM     73  C   UNL     1       4.206 -15.065   0.013  1.00  0.00     0.000 A 
ENDBRANCH  49  68
BRANCH  61  74
ATOM     74  C   UNL     1      -3.760 -15.191   4.344  1.00  0.00    -0.014 A 
ATOM     75  C   UNL     1      -3.160 -15.289   5.608  1.00  0.00     0.009 A 
ATOM     76  C   UNL     1      -4.704 -16.157   3.961  1.00  0.00     0.009 A 
ATOM     77  C   UNL     1      -3.477 -16.351   6.459  1.00  0.00     0.001 A 
ATOM     78  C   UNL     1      -5.038 -17.203   4.823  1.00  0.00     0.001 A 
ATOM     79  C   UNL     1      -4.418 -17.303   6.067  1.00  0.00     0.000 A 
ENDBRANCH  61  74
ENDBRANCH  35  36
ENDBRANCH  28  30
ENDBRANCH  27  28
ENDBRANCH  26  27
ENDBRANCH  25  26
ENDBRANCH  24  25
ENDBRANCH   1  24
TORSDOF 18
