REMARK SMILES O=C(OCCOCCOC(=O)[C@@H](Cc1ccncc1)c1ccc(Cl)cc1)c1ccc(-c2c3nc(c(-c4ccccc4)c4ccc([nH]4)c(-c4ccccc4)c4nc(c(-c5ccccc5)c5ccc2[nH]5)C=C4)C=C3)cc1
REMARK SMILES IDX 6 1 5 2 4 3 3 4 2 5 1 6 27 7 28 8 74 9 29 10 73 11 30 12
REMARK SMILES IDX 31 13 32 14 67 15 33 16 72 17 66 18 68 19 34 20 71 21 65 22
REMARK SMILES IDX 64 23 35 25 57 26 42 27 56 28 43 29 46 30 55 31 69 32 44 33
REMARK SMILES IDX 45 34 54 36 70 37 47 38 36 39 37 40 41 41 38 42 40 43 39 44
REMARK SMILES IDX 58 45 59 46 63 47 60 48 62 49 61 50 48 51 49 52 53 53 50 54
REMARK SMILES IDX 52 55 51 56 7 57 8 58 9 59 10 60 11 61 12 62 13 63 14 64
REMARK SMILES IDX 15 65 19 66 16 67 18 68 17 69 20 70 21 71 26 72 22 73 25 74
REMARK SMILES IDX 23 75 24 76
REMARK H PARENT 68 24 46 35
REMARK Flexibility Score: inf
ROOT
ATOM      1  O   UNL     1       4.202  -0.764   1.214  1.00  0.00    -0.374 OA
ENDROOT
BRANCH   1   2
ATOM      2  C   UNL     1       4.459   0.625   1.046  1.00  0.00     0.202 C 
BRANCH   2   3
ATOM      3  C   UNL     1       4.047   1.235  -0.293  1.00  0.00     0.261 C 
BRANCH   3   4
ATOM      4  O   UNL     1       2.630   1.079  -0.498  1.00  0.00    -0.460 OA
BRANCH   4   5
ATOM      5  C   UNL     1       2.024   0.316  -1.439  1.00  0.00     0.338 C 
ATOM      6  O   UNL     1       0.820   0.435  -1.644  1.00  0.00    -0.246 OA
BRANCH   5   7
ATOM      7  C   UNL     1       2.780  -0.693  -2.229  1.00  0.00     0.060 A 
ATOM      8  C   UNL     1       3.878  -1.379  -1.719  1.00  0.00     0.016 A 
ATOM      9  C   UNL     1       2.312  -1.047  -3.500  1.00  0.00     0.016 A 
ATOM     10  C   UNL     1       4.541  -2.347  -2.430  1.00  0.00     0.010 A 
ATOM     11  C   UNL     1       2.941  -2.069  -4.218  1.00  0.00     0.010 A 
ATOM     12  C   UNL     1       4.049  -2.723  -3.666  1.00  0.00    -0.014 A 
BRANCH  12  13
ATOM     13  C   UNL     1       4.783  -3.794  -4.335  1.00  0.00     0.031 A 
ATOM     14  C   UNL     1       5.737  -3.422  -5.415  1.00  0.00     0.074 A 
ATOM     15  C   UNL     1       4.714  -5.035  -3.819  1.00  0.00     0.049 A 
ATOM     16  N   UNL     1       6.426  -4.199  -6.198  1.00  0.00    -0.248 NA
ATOM     17  C   UNL     1       5.961  -1.980  -5.632  1.00  0.00     0.031 C 
ATOM     18  C   UNL     1       3.949  -5.413  -2.622  1.00  0.00     0.029 A 
ATOM     19  N   UNL     1       5.322  -6.195  -4.202  1.00  0.00    -0.354 N 
ATOM     20  C   UNL     1       7.118  -3.346  -7.043  1.00  0.00     0.074 A 
ATOM     21  C   UNL     1       6.803  -1.992  -6.654  1.00  0.00     0.031 C 
ATOM     22  C   UNL     1       4.148  -6.715  -2.367  1.00  0.00     0.029 A 
ATOM     23  C   UNL     1       4.962  -7.276  -3.435  1.00  0.00     0.049 A 
ATOM     24  H   UNL     1       5.957  -6.251  -4.953  1.00  0.00     0.167 HD
ATOM     25  C   UNL     1       7.912  -3.692  -8.078  1.00  0.00     0.031 A 
ATOM     26  C   UNL     1       5.207  -8.582  -3.635  1.00  0.00     0.031 A 
ATOM     27  C   UNL     1       8.183  -5.060  -8.420  1.00  0.00     0.049 A 
ATOM     28  C   UNL     1       5.984  -8.943  -4.870  1.00  0.00     0.074 A 
ATOM     29  C   UNL     1       8.909  -5.562  -9.480  1.00  0.00     0.029 A 
ATOM     30  N   UNL     1       7.721  -6.148  -7.688  1.00  0.00    -0.354 N 
ATOM     31  N   UNL     1       6.571  -8.147  -5.735  1.00  0.00    -0.248 NA
ATOM     32  C   UNL     1       6.101 -10.371  -5.184  1.00  0.00     0.031 C 
ATOM     33  C   UNL     1       8.837  -6.958  -9.422  1.00  0.00     0.029 A 
ATOM     34  C   UNL     1       8.111  -7.324  -8.296  1.00  0.00     0.049 A 
ATOM     35  H   UNL     1       7.194  -6.088  -6.859  1.00  0.00     0.167 HD
ATOM     36  C   UNL     1       7.122  -8.974  -6.699  1.00  0.00     0.074 A 
ATOM     37  C   UNL     1       6.831 -10.336  -6.290  1.00  0.00     0.031 C 
ATOM     38  C   UNL     1       7.791  -8.650  -7.833  1.00  0.00     0.031 A 
BRANCH  25  39
ATOM     39  C   UNL     1       8.408  -2.587  -8.959  1.00  0.00    -0.014 A 
ATOM     40  C   UNL     1       9.444  -1.728  -8.568  1.00  0.00     0.009 A 
ATOM     41  C   UNL     1       7.793  -2.391 -10.206  1.00  0.00     0.009 A 
ATOM     42  C   UNL     1       9.839  -0.677  -9.401  1.00  0.00     0.001 A 
ATOM     43  C   UNL     1       8.203  -1.354 -11.045  1.00  0.00     0.001 A 
ATOM     44  C   UNL     1       9.220  -0.494 -10.639  1.00  0.00     0.000 A 
ENDBRANCH  25  39
BRANCH  26  45
ATOM     45  C   UNL     1       4.599  -9.619  -2.758  1.00  0.00    -0.014 A 
ATOM     46  C   UNL     1       5.394 -10.510  -2.024  1.00  0.00     0.009 A 
ATOM     47  C   UNL     1       3.200  -9.747  -2.680  1.00  0.00     0.009 A 
ATOM     48  C   UNL     1       4.803 -11.522  -1.259  1.00  0.00     0.001 A 
ATOM     49  C   UNL     1       2.612 -10.735  -1.887  1.00  0.00     0.001 A 
ATOM     50  C   UNL     1       3.415 -11.632  -1.189  1.00  0.00     0.000 A 
ENDBRANCH  26  45
BRANCH  38  51
ATOM     51  C   UNL     1       8.252  -9.792  -8.683  1.00  0.00    -0.014 A 
ATOM     52  C   UNL     1       7.346 -10.499  -9.487  1.00  0.00     0.009 A 
ATOM     53  C   UNL     1       9.616 -10.114  -8.729  1.00  0.00     0.009 A 
ATOM     54  C   UNL     1       7.800 -11.527 -10.311  1.00  0.00     0.001 A 
ATOM     55  C   UNL     1      10.069 -11.122  -9.576  1.00  0.00     0.001 A 
ATOM     56  C   UNL     1       9.161 -11.831 -10.361  1.00  0.00     0.000 A 
ENDBRANCH  38  51
ENDBRANCH  12  13
ENDBRANCH   5   7
ENDBRANCH   4   5
ENDBRANCH   3   4
ENDBRANCH   2   3
ENDBRANCH   1   2
BRANCH   1  57
ATOM     57  C   UNL     1       2.871  -1.149   1.569  1.00  0.00     0.202 C 
BRANCH  57  58
ATOM     58  C   UNL     1       2.969  -2.225   2.651  1.00  0.00     0.261 C 
BRANCH  58  59
ATOM     59  O   UNL     1       3.327  -1.591   3.888  1.00  0.00    -0.463 OA
BRANCH  59  60
ATOM     60  C   UNL     1       4.614  -1.169   4.024  1.00  0.00     0.313 C 
ATOM     61  O   UNL     1       5.571  -1.600   3.403  1.00  0.00    -0.252 OA
BRANCH  60  62
ATOM     62  C   UNL     1       4.720  -0.093   5.103  1.00  0.00     0.133 C 
BRANCH  62  63
ATOM     63  C   UNL     1       4.123   1.262   4.625  1.00  0.00     0.055 C 
BRANCH  63  64
ATOM     64  C   UNL     1       2.644   1.453   4.315  1.00  0.00    -0.044 A 
ATOM     65  C   UNL     1       2.252   2.609   3.621  1.00  0.00     0.024 A 
ATOM     66  C   UNL     1       1.629   0.567   4.684  1.00  0.00     0.024 A 
ATOM     67  C   UNL     1       0.913   2.793   3.295  1.00  0.00     0.111 A 
ATOM     68  C   UNL     1       0.320   0.822   4.293  1.00  0.00     0.111 A 
ATOM     69  N   UNL     1      -0.060   1.916   3.606  1.00  0.00    -0.265 NA
ENDBRANCH  63  64
ENDBRANCH  62  63
BRANCH  62  70
ATOM     70  C   UNL     1       4.305  -0.592   6.478  1.00  0.00    -0.033 A 
ATOM     71  C   UNL     1       3.734   0.261   7.433  1.00  0.00     0.006 A 
ATOM     72  C   UNL     1       4.525  -1.937   6.830  1.00  0.00     0.006 A 
ATOM     73  C   UNL     1       3.315  -0.232   8.667  1.00  0.00     0.021 A 
ATOM     74  C   UNL     1       4.101  -2.432   8.062  1.00  0.00     0.021 A 
ATOM     75  C   UNL     1       3.485  -1.579   8.970  1.00  0.00     0.041 A 
ATOM     76  Cl  UNL     1       2.929  -2.191  10.476  1.00  0.00    -0.084 Cl
ENDBRANCH  62  70
ENDBRANCH  60  62
ENDBRANCH  59  60
ENDBRANCH  58  59
ENDBRANCH  57  58
ENDBRANCH   1  57
TORSDOF 17
