REMARK SMILES CC(=O)Nc1cccc(NC(=O)N[C@H](C(=O)OCCOCCOC(=O)c2ccc(-c3c4nc(c(-c5ccccc5)c5ccc([nH]5)c(-c5ccccc5)c5nc(c(-c6ccccc6)c6ccc3[nH]6)C=C5)C=C4)cc2)C(C)C)c1
REMARK SMILES IDX 19 1 18 2 17 3 15 4 16 5 14 6 13 7 10 8 11 9 12 11 9 13 5 14
REMARK SMILES IDX 6 15 77 16 7 17 8 18 4 19 1 20 2 21 3 22 74 24 75 25 76 26
REMARK SMILES IDX 20 27 21 28 22 29 23 30 24 31 25 32 26 33 27 34 73 35 28 36
REMARK SMILES IDX 72 37 29 38 30 39 31 40 66 41 32 42 71 43 65 44 67 45 33 46
REMARK SMILES IDX 70 47 64 48 63 49 34 51 56 52 41 53 55 54 42 55 45 56 54 57
REMARK SMILES IDX 68 58 43 59 44 60 53 62 69 63 46 64 35 65 36 66 40 67 37 68
REMARK SMILES IDX 39 69 38 70 57 71 58 72 62 73 59 74 61 75 60 76 47 77 48 78
REMARK SMILES IDX 52 79 49 80 51 81 50 82
REMARK H PARENT 10 10 13 12 4 23 67 50 45 61
REMARK Flexibility Score: inf
ROOT
ATOM      1  C   UNL     1       7.670   2.826   2.923  1.00  0.00     0.202 C 
ENDROOT
BRANCH   1   2
ATOM      2  C   UNL     1       7.499   3.838   1.798  1.00  0.00     0.261 C 
BRANCH   2   3
ATOM      3  O   UNL     1       6.253   4.565   1.877  1.00  0.00    -0.462 OA
BRANCH   3   4
ATOM      4  C   UNL     1       5.476   4.558   0.743  1.00  0.00     0.329 C 
ATOM      5  O   UNL     1       5.617   3.739  -0.156  1.00  0.00    -0.250 OA
BRANCH   4   6
ATOM      6  C   UNL     1       4.343   5.617   0.816  1.00  0.00     0.196 C 
BRANCH   6   7
ATOM      7  N   UNL     1       4.567   6.626   1.880  1.00  0.00    -0.324 N 
ATOM      8  N   UNL     1       5.801   8.475   1.005  1.00  0.00    -0.308 N 
ATOM      9  C   UNL     1       5.133   7.839   1.988  1.00  0.00     0.319 C 
ATOM     10  H   UNL     1       5.722   9.455   1.053  1.00  0.00     0.171 HD
ATOM     11  O   UNL     1       4.913   8.459   3.034  1.00  0.00    -0.248 OA
ATOM     12  H   UNL     1       4.202   6.324   2.743  1.00  0.00     0.166 HD
BRANCH   8  13
ATOM     13  C   UNL     1       6.583   8.036  -0.069  1.00  0.00     0.044 A 
ATOM     14  C   UNL     1       7.417   8.389  -2.310  1.00  0.00     0.043 A 
ATOM     15  C   UNL     1       7.859   7.070  -2.370  1.00  0.00     0.026 A 
ATOM     16  C   UNL     1       6.746   8.864  -1.175  1.00  0.00     0.052 A 
ATOM     17  C   UNL     1       7.825   6.300  -1.216  1.00  0.00     0.004 A 
ATOM     18  C   UNL     1       7.245   6.822  -0.060  1.00  0.00     0.026 A 
BRANCH  14  19
ATOM     19  N   UNL     1       7.689   9.222  -3.398  1.00  0.00    -0.326 N 
ATOM     20  C   UNL     1       8.823  10.951  -2.028  1.00  0.00     0.114 C 
ATOM     21  C   UNL     1       8.261  10.467  -3.346  1.00  0.00     0.221 C 
ATOM     22  O   UNL     1       8.380  11.130  -4.375  1.00  0.00    -0.275 OA
ATOM     23  H   UNL     1       7.446   8.882  -4.289  1.00  0.00     0.169 HD
ENDBRANCH  14  19
ENDBRANCH   8  13
ENDBRANCH   6   7
BRANCH   6  24
ATOM     24  C   UNL     1       3.806   6.223  -0.514  1.00  0.00     0.017 C 
ATOM     25  C   UNL     1       3.883   5.297  -1.730  1.00  0.00     0.010 C 
ATOM     26  C   UNL     1       2.350   6.688  -0.351  1.00  0.00     0.010 C 
ENDBRANCH   6  24
ENDBRANCH   4   6
ENDBRANCH   3   4
ENDBRANCH   2   3
ENDBRANCH   1   2
BRANCH   1  27
ATOM     27  O   UNL     1       6.909   1.627   2.820  1.00  0.00    -0.374 OA
BRANCH  27  28
ATOM     28  C   UNL     1       5.492   1.742   2.851  1.00  0.00     0.202 C 
BRANCH  28  29
ATOM     29  C   UNL     1       4.843   1.966   4.223  1.00  0.00     0.261 C 
BRANCH  29  30
ATOM     30  O   UNL     1       5.412   3.049   4.978  1.00  0.00    -0.460 OA
BRANCH  30  31
ATOM     31  C   UNL     1       6.272   2.644   5.943  1.00  0.00     0.338 C 
ATOM     32  O   UNL     1       6.576   1.490   6.223  1.00  0.00    -0.246 OA
BRANCH  31  33
ATOM     33  C   UNL     1       6.934   3.788   6.597  1.00  0.00     0.060 A 
ATOM     34  C   UNL     1       8.326   3.726   6.739  1.00  0.00     0.016 A 
ATOM     35  C   UNL     1       6.204   4.812   7.206  1.00  0.00     0.016 A 
ATOM     36  C   UNL     1       8.982   4.630   7.568  1.00  0.00     0.010 A 
ATOM     37  C   UNL     1       6.866   5.719   8.044  1.00  0.00     0.010 A 
ATOM     38  C   UNL     1       8.247   5.590   8.276  1.00  0.00    -0.014 A 
BRANCH  38  39
ATOM     39  C   UNL     1       8.907   6.293   9.404  1.00  0.00     0.031 A 
ATOM     40  C   UNL     1       8.726   5.753  10.800  1.00  0.00     0.074 A 
ATOM     41  C   UNL     1       9.730   7.333   9.189  1.00  0.00     0.049 A 
ATOM     42  N   UNL     1       9.283   6.142  11.920  1.00  0.00    -0.248 NA
ATOM     43  C   UNL     1       7.797   4.621  10.952  1.00  0.00     0.031 C 
ATOM     44  C   UNL     1      10.022   7.926   7.885  1.00  0.00     0.029 A 
ATOM     45  N   UNL     1      10.486   8.063  10.071  1.00  0.00    -0.354 N 
ATOM     46  C   UNL     1       8.774   5.303  12.904  1.00  0.00     0.074 A 
ATOM     47  C   UNL     1       7.838   4.409  12.258  1.00  0.00     0.031 C 
ATOM     48  C   UNL     1      10.904   8.927   8.052  1.00  0.00     0.029 A 
ATOM     49  C   UNL     1      11.225   9.053   9.473  1.00  0.00     0.049 A 
ATOM     50  H   UNL     1      10.498   7.893  11.041  1.00  0.00     0.167 HD
ATOM     51  C   UNL     1       9.066   5.268  14.227  1.00  0.00     0.031 A 
ATOM     52  C   UNL     1      12.065   9.957  10.011  1.00  0.00     0.031 A 
ATOM     53  C   UNL     1       9.984   6.160  14.879  1.00  0.00     0.049 A 
ATOM     54  C   UNL     1      12.334   9.933  11.491  1.00  0.00     0.074 A 
ATOM     55  C   UNL     1      10.351   6.199  16.213  1.00  0.00     0.029 A 
ATOM     56  N   UNL     1      10.677   7.178  14.243  1.00  0.00    -0.354 N 
ATOM     57  N   UNL     1      11.871   9.114  12.404  1.00  0.00    -0.248 NA
ATOM     58  C   UNL     1      13.258  10.952  12.011  1.00  0.00     0.031 C 
ATOM     59  C   UNL     1      11.232   7.272  16.393  1.00  0.00     0.029 A 
ATOM     60  C   UNL     1      11.454   7.865  15.161  1.00  0.00     0.049 A 
ATOM     61  H   UNL     1      10.625   7.382  13.281  1.00  0.00     0.167 HD
ATOM     62  C   UNL     1      12.467   9.500  13.598  1.00  0.00     0.074 A 
ATOM     63  C   UNL     1      13.338  10.616  13.290  1.00  0.00     0.031 C 
ATOM     64  C   UNL     1      12.311   8.977  14.839  1.00  0.00     0.031 A 
BRANCH  51  65
ATOM     65  C   UNL     1       8.351   4.241  15.060  1.00  0.00    -0.014 A 
ATOM     66  C   UNL     1       8.671   2.877  14.968  1.00  0.00     0.009 A 
ATOM     67  C   UNL     1       7.354   4.646  15.961  1.00  0.00     0.009 A 
ATOM     68  C   UNL     1       7.982   1.936  15.737  1.00  0.00     0.001 A 
ATOM     69  C   UNL     1       6.685   3.706  16.747  1.00  0.00     0.001 A 
ATOM     70  C   UNL     1       6.992   2.352  16.627  1.00  0.00     0.000 A 
ENDBRANCH  51  65
BRANCH  52  71
ATOM     71  C   UNL     1      12.723  10.967   9.142  1.00  0.00    -0.014 A 
ATOM     72  C   UNL     1      14.101  10.903   8.882  1.00  0.00     0.009 A 
ATOM     73  C   UNL     1      11.974  12.015   8.583  1.00  0.00     0.009 A 
ATOM     74  C   UNL     1      14.718  11.882   8.099  1.00  0.00     0.001 A 
ATOM     75  C   UNL     1      12.590  12.976   7.780  1.00  0.00     0.001 A 
ATOM     76  C   UNL     1      13.962  12.914   7.546  1.00  0.00     0.000 A 
ENDBRANCH  52  71
BRANCH  64  77
ATOM     77  C   UNL     1      13.124   9.586  15.947  1.00  0.00    -0.014 A 
ATOM     78  C   UNL     1      12.825  10.859  16.457  1.00  0.00     0.009 A 
ATOM     79  C   UNL     1      14.192   8.864  16.502  1.00  0.00     0.009 A 
ATOM     80  C   UNL     1      13.608  11.414  17.473  1.00  0.00     0.001 A 
ATOM     81  C   UNL     1      14.955   9.409  17.536  1.00  0.00     0.001 A 
ATOM     82  C   UNL     1      14.669  10.688  18.012  1.00  0.00     0.000 A 
ENDBRANCH  64  77
ENDBRANCH  38  39
ENDBRANCH  31  33
ENDBRANCH  30  31
ENDBRANCH  29  30
ENDBRANCH  28  29
ENDBRANCH  27  28
ENDBRANCH   1  27
TORSDOF 18
