REMARK SMILES O=C(OCCOCCOC(=O)[C@H]1CCCCC[C@@H]1Nc1nccc2sccc12)c1ccc(-c2c3nc(c(-c4ccccc4)c4ccc([nH]4)c(-c4ccccc4)c4nc(c(-c5ccccc5)c5ccc2[nH]5)C=C4)C=C3)cc1
REMARK SMILES IDX 7 1 6 2 5 3 4 4 3 5 2 6 1 7 29 8 30 9 76 10 31 11 75 12
REMARK SMILES IDX 32 13 33 14 34 15 69 16 35 17 74 18 68 19 70 20 36 21 73 22
REMARK SMILES IDX 67 23 66 24 37 26 59 27 44 28 58 29 45 30 48 31 57 32 71 33
REMARK SMILES IDX 46 34 47 35 56 37 72 38 49 39 38 40 39 41 43 42 40 43 42 44
REMARK SMILES IDX 41 45 60 46 61 47 65 48 62 49 64 50 63 51 50 52 51 53 55 54
REMARK SMILES IDX 52 55 54 56 53 57 8 58 9 59 10 60 11 61 12 62 13 63 14 64
REMARK SMILES IDX 18 66 17 67 16 68 15 69 19 71 20 73 21 74 28 75 22 76 24 77
REMARK SMILES IDX 27 78 23 79 25 80 26 81
REMARK H PARENT 70 25 48 36 19 72
REMARK Flexibility Score: 90.00
ROOT
ATOM      1  C   UNL     1       4.570  -0.519  -3.910  1.00  0.00     0.202 C 
ENDROOT
BRANCH   1   2
ATOM      2  O   UNL     1       3.510   0.110  -3.244  1.00  0.00    -0.374 OA
BRANCH   2   3
ATOM      3  C   UNL     1       3.532   0.605  -1.934  1.00  0.00     0.202 C 
BRANCH   3   4
ATOM      4  C   UNL     1       3.049  -0.377  -0.905  1.00  0.00     0.261 C 
BRANCH   4   5
ATOM      5  O   UNL     1       2.735  -1.708  -1.381  1.00  0.00    -0.460 OA
BRANCH   5   6
ATOM      6  C   UNL     1       2.212  -2.128  -2.579  1.00  0.00     0.338 C 
ATOM      7  O   UNL     1       2.535  -3.247  -2.976  1.00  0.00    -0.246 OA
BRANCH   6   8
ATOM      8  C   UNL     1       1.387  -1.216  -3.493  1.00  0.00     0.060 A 
ATOM      9  C   UNL     1       1.513  -1.342  -4.891  1.00  0.00     0.016 A 
ATOM     10  C   UNL     1       0.891  -0.008  -3.041  1.00  0.00     0.016 A 
ATOM     11  C   UNL     1       1.547  -0.172  -5.741  1.00  0.00     0.010 A 
ATOM     12  C   UNL     1       1.085   1.139  -3.853  1.00  0.00     0.010 A 
ATOM     13  C   UNL     1       1.571   1.141  -5.190  1.00  0.00    -0.014 A 
BRANCH  13  14
ATOM     14  C   UNL     1       1.486   2.599  -5.891  1.00  0.00     0.031 A 
ATOM     15  C   UNL     1      -0.008   2.511  -6.215  1.00  0.00     0.074 A 
ATOM     16  C   UNL     1       2.321   3.759  -6.155  1.00  0.00     0.049 A 
ATOM     17  N   UNL     1      -0.412   1.972  -7.329  1.00  0.00    -0.248 NA
ATOM     18  C   UNL     1      -1.117   2.431  -5.199  1.00  0.00     0.031 C 
ATOM     19  C   UNL     1       3.818   4.065  -6.103  1.00  0.00     0.029 A 
ATOM     20  N   UNL     1       1.971   5.094  -6.616  1.00  0.00    -0.354 N 
ATOM     21  C   UNL     1      -1.792   2.066  -7.287  1.00  0.00     0.074 A 
ATOM     22  C   UNL     1      -2.150   1.971  -5.915  1.00  0.00     0.031 C 
ATOM     23  C   UNL     1       4.128   5.402  -6.148  1.00  0.00     0.029 A 
ATOM     24  C   UNL     1       2.929   6.209  -6.314  1.00  0.00     0.049 A 
ATOM     25  H   UNL     1       1.135   5.261  -7.109  1.00  0.00     0.167 HD
ATOM     26  C   UNL     1      -2.395   2.774  -8.275  1.00  0.00     0.031 A 
ATOM     27  C   UNL     1       3.013   7.547  -6.771  1.00  0.00     0.031 A 
ATOM     28  C   UNL     1      -1.464   2.937  -9.370  1.00  0.00     0.049 A 
ATOM     29  C   UNL     1       2.149   7.608  -7.976  1.00  0.00     0.074 A 
ATOM     30  C   UNL     1      -0.773   2.039 -10.162  1.00  0.00     0.029 A 
ATOM     31  N   UNL     1      -0.661   4.041  -9.223  1.00  0.00    -0.354 N 
ATOM     32  N   UNL     1       2.478   6.982  -9.068  1.00  0.00    -0.248 NA
ATOM     33  C   UNL     1       0.728   7.752  -7.689  1.00  0.00     0.031 C 
ATOM     34  C   UNL     1       0.534   2.580 -10.324  1.00  0.00     0.029 A 
ATOM     35  C   UNL     1       0.544   3.886  -9.846  1.00  0.00     0.049 A 
ATOM     36  H   UNL     1      -0.923   4.849  -8.726  1.00  0.00     0.167 HD
ATOM     37  C   UNL     1       1.393   6.152  -9.279  1.00  0.00     0.074 A 
ATOM     38  C   UNL     1       0.336   6.678  -8.383  1.00  0.00     0.031 C 
ATOM     39  C   UNL     1       1.565   4.908  -9.825  1.00  0.00     0.031 A 
BRANCH  26  40
ATOM     40  C   UNL     1      -3.539   3.720  -8.033  1.00  0.00    -0.014 A 
ATOM     41  C   UNL     1      -3.875   4.297  -6.787  1.00  0.00     0.009 A 
ATOM     42  C   UNL     1      -4.223   4.199  -9.155  1.00  0.00     0.009 A 
ATOM     43  C   UNL     1      -4.918   5.221  -6.657  1.00  0.00     0.001 A 
ATOM     44  C   UNL     1      -5.241   5.149  -9.035  1.00  0.00     0.001 A 
ATOM     45  C   UNL     1      -5.608   5.639  -7.785  1.00  0.00     0.000 A 
ENDBRANCH  26  40
BRANCH  27  46
ATOM     46  C   UNL     1       3.165   8.885  -5.979  1.00  0.00    -0.014 A 
ATOM     47  C   UNL     1       3.223   8.836  -4.588  1.00  0.00     0.009 A 
ATOM     48  C   UNL     1       3.022  10.210  -6.511  1.00  0.00     0.009 A 
ATOM     49  C   UNL     1       2.932   9.951  -3.769  1.00  0.00     0.001 A 
ATOM     50  C   UNL     1       2.771  11.348  -5.684  1.00  0.00     0.001 A 
ATOM     51  C   UNL     1       2.652  11.197  -4.310  1.00  0.00     0.000 A 
ENDBRANCH  27  46
BRANCH  39  52
ATOM     52  C   UNL     1       2.886   4.530 -10.471  1.00  0.00    -0.014 A 
ATOM     53  C   UNL     1       2.803   4.263 -11.843  1.00  0.00     0.009 A 
ATOM     54  C   UNL     1       4.097   4.218  -9.821  1.00  0.00     0.009 A 
ATOM     55  C   UNL     1       3.863   3.695 -12.547  1.00  0.00     0.001 A 
ATOM     56  C   UNL     1       5.187   3.688 -10.540  1.00  0.00     0.001 A 
ATOM     57  C   UNL     1       5.063   3.422 -11.902  1.00  0.00     0.000 A 
ENDBRANCH  39  52
ENDBRANCH  13  14
ENDBRANCH   6   8
ENDBRANCH   5   6
ENDBRANCH   4   5
ENDBRANCH   3   4
ENDBRANCH   2   3
ENDBRANCH   1   2
BRANCH   1  58
ATOM     58  C   UNL     1       5.040   0.427  -5.004  1.00  0.00     0.261 C 
BRANCH  58  59
ATOM     59  O   UNL     1       5.571   1.582  -4.345  1.00  0.00    -0.463 OA
BRANCH  59  60
ATOM     60  C   UNL     1       4.702   2.438  -3.777  1.00  0.00     0.311 C 
ATOM     61  O   UNL     1       3.477   2.499  -4.048  1.00  0.00    -0.252 OA
BRANCH  60  62
ATOM     62  C   UNL     1       5.205   3.265  -2.655  1.00  0.00     0.121 C 
BRANCH  62  63
ATOM     63  C   UNL     1       6.696   3.005  -2.521  1.00  0.00     0.017 C 
BRANCH  63  64
ATOM     64  C   UNL     1       7.476   3.447  -3.747  1.00  0.00     0.001 CG0
ATOM     65  G   UNL     1       7.881   4.893  -3.619  1.00  0.00     0.000 G0
ENDBRANCH  63  64
ENDBRANCH  62  63
BRANCH  62  66
ATOM     66  C   UNL     1       4.612   4.682  -2.792  1.00  0.00     0.095 C 
BRANCH  66  67
ATOM     67  C   UNL     1       5.653   5.747  -2.467  1.00  0.00     0.026 C 
BRANCH  67  68
ATOM     68  C   UNL     1       6.730   5.898  -3.551  1.00  0.00     0.002 C 
BRANCH  68  69
ATOM     69  C   UNL     1       7.881   4.893  -3.619  1.00  0.00     0.000 CG0
ATOM     70  G   UNL     1       7.476   3.447  -3.747  1.00  0.00     0.000 G0
ENDBRANCH  68  69
ENDBRANCH  67  68
ENDBRANCH  66  67
BRANCH  66  71
ATOM     71  N   UNL     1       3.424   4.820  -1.904  1.00  0.00    -0.366 N 
ATOM     72  H   UNL     1       3.324   4.250  -1.107  1.00  0.00     0.162 HD
BRANCH  71  73
ATOM     73  C   UNL     1       2.453   5.776  -2.224  1.00  0.00     0.134 A 
ATOM     74  N   UNL     1       1.828   5.784  -3.421  1.00  0.00    -0.239 NA
ATOM     75  C   UNL     1       2.046   6.712  -1.251  1.00  0.00     0.035 A 
ATOM     76  C   UNL     1       0.921   6.747  -3.715  1.00  0.00     0.115 A 
ATOM     77  C   UNL     1       1.138   7.715  -1.597  1.00  0.00     0.039 A 
ATOM     78  C   UNL     1       2.444   6.819   0.120  1.00  0.00     0.024 A 
ATOM     79  C   UNL     1       0.559   7.772  -2.866  1.00  0.00     0.040 A 
ATOM     80  S   UNL     1       0.904   8.816  -0.290  1.00  0.00    -0.144 S 
ATOM     81  C   UNL     1       1.910   7.913   0.749  1.00  0.00     0.066 A 
ENDBRANCH  71  73
ENDBRANCH  66  71
ENDBRANCH  62  66
ENDBRANCH  60  62
ENDBRANCH  59  60
ENDBRANCH  58  59
ENDBRANCH   1  58
TORSDOF 16
