REMARK SMILES Cc1ccc([C@H]2NC(=O)N(C)C3=C2C(=O)N(c2cccc(C(=O)OCCOCCOC(=O)c4ccc(-c5c6nc(c(-c7ccccc7)c7ccc([nH]7)c(-c7ccccc7)c7nc(c(-c8ccccc8)c8ccc5[nH]8)C=C7)C=C6)cc4)c2)C3)cc1
REMARK SMILES IDX 27 1 26 2 25 3 24 4 22 5 23 6 21 7 17 8 18 9 81 10 19 11
REMARK SMILES IDX 20 12 16 13 6 14 7 15 13 16 8 17 12 19 14 20 9 21 10 22
REMARK SMILES IDX 82 23 15 24 11 25 5 26 1 27 2 28 3 29 84 30 4 31 83 32 28 33
REMARK SMILES IDX 29 34 30 35 31 36 32 37 33 38 34 39 80 40 35 41 79 42 36 43
REMARK SMILES IDX 37 44 38 45 73 46 39 47 78 48 72 49 74 50 40 51 77 52 71 53
REMARK SMILES IDX 70 54 41 56 63 57 48 58 62 59 49 60 52 61 61 62 75 63 50 64
REMARK SMILES IDX 51 65 60 67 76 68 53 69 42 70 43 71 47 72 44 73 46 74 45 75
REMARK SMILES IDX 64 76 65 77 69 78 66 79 68 80 67 81 54 82 55 83 59 84 56 85
REMARK SMILES IDX 58 86 57 87
REMARK H PARENT 7 18 74 55 52 66
REMARK Flexibility Score: inf
ROOT
ATOM      1  O   UNL     1      -7.910   3.058   7.461  1.00  0.00    -0.374 OA
ENDROOT
BRANCH   1   2
ATOM      2  C   UNL     1      -7.160   3.207   8.659  1.00  0.00     0.202 C 
BRANCH   2   3
ATOM      3  C   UNL     1      -6.828   1.815   9.109  1.00  0.00     0.261 C 
BRANCH   3   4
ATOM      4  O   UNL     1      -5.713   1.294   8.376  1.00  0.00    -0.460 OA
BRANCH   4   5
ATOM      5  C   UNL     1      -5.955   0.790   7.133  1.00  0.00     0.338 C 
ATOM      6  O   UNL     1      -7.007   0.522   6.621  1.00  0.00    -0.246 OA
BRANCH   5   7
ATOM      7  C   UNL     1      -4.656   0.777   6.435  1.00  0.00     0.062 A 
ATOM      8  C   UNL     1      -3.509   1.079   4.348  1.00  0.00     0.045 A 
ATOM      9  C   UNL     1      -2.284   1.005   5.019  1.00  0.00     0.026 A 
ATOM     10  C   UNL     1      -4.698   0.958   5.057  1.00  0.00     0.042 A 
ATOM     11  C   UNL     1      -2.246   0.822   6.402  1.00  0.00     0.003 A 
ATOM     12  C   UNL     1      -3.435   0.692   7.112  1.00  0.00     0.016 A 
BRANCH   8  13
ATOM     13  N   UNL     1      -3.558   1.244   2.962  1.00  0.00    -0.303 N 
ATOM     14  C   UNL     1      -3.272  -0.080  -0.463  1.00  0.00     0.152 C 
ATOM     15  N   UNL     1      -3.761   0.726  -1.576  1.00  0.00    -0.327 N 
ATOM     16  C   UNL     1      -3.436   0.712   0.761  1.00  0.00     0.066 C 
ATOM     17  C   UNL     1      -4.615   1.794  -1.498  1.00  0.00     0.322 C 
ATOM     18  H   UNL     1      -3.446   0.476  -2.475  1.00  0.00     0.166 HD
ATOM     19  C   UNL     1      -4.268   1.745   0.883  1.00  0.00     0.053 C 
ATOM     20  C   UNL     1      -2.875   0.422   2.075  1.00  0.00     0.258 C 
ATOM     21  O   UNL     1      -5.055   2.286  -2.534  1.00  0.00    -0.248 OA
ATOM     22  N   UNL     1      -4.897   2.274  -0.220  1.00  0.00    -0.299 N 
ATOM     23  C   UNL     1      -4.475   2.142   2.299  1.00  0.00     0.180 C 
ATOM     24  O   UNL     1      -2.037  -0.432   2.293  1.00  0.00    -0.269 OA
ATOM     25  C   UNL     1      -5.808   3.398  -0.071  1.00  0.00     0.155 C 
BRANCH  14  26
ATOM     26  C   UNL     1      -3.986  -1.433  -0.448  1.00  0.00    -0.021 A 
ATOM     27  C   UNL     1      -5.915  -5.319  -0.535  1.00  0.00     0.044 C 
ATOM     28  C   UNL     1      -5.254  -3.973  -0.500  1.00  0.00    -0.051 A 
ATOM     29  C   UNL     1      -4.307  -3.627  -1.469  1.00  0.00     0.004 A 
ATOM     30  C   UNL     1      -5.574  -3.043   0.490  1.00  0.00     0.004 A 
ATOM     31  C   UNL     1      -3.679  -2.377  -1.442  1.00  0.00     0.006 A 
ATOM     32  C   UNL     1      -4.956  -1.788   0.510  1.00  0.00     0.006 A 
ENDBRANCH  14  26
ENDBRANCH   8  13
ENDBRANCH   5   7
ENDBRANCH   4   5
ENDBRANCH   3   4
ENDBRANCH   2   3
ENDBRANCH   1   2
BRANCH   1  33
ATOM     33  C   UNL     1      -8.358   4.258   6.863  1.00  0.00     0.202 C 
BRANCH  33  34
ATOM     34  C   UNL     1      -9.273   5.087   7.775  1.00  0.00     0.261 C 
BRANCH  34  35
ATOM     35  O   UNL     1     -10.450   4.323   8.114  1.00  0.00    -0.460 OA
BRANCH  35  36
ATOM     36  C   UNL     1     -10.464   3.760   9.355  1.00  0.00     0.338 C 
ATOM     37  O   UNL     1     -10.188   4.333  10.396  1.00  0.00    -0.246 OA
BRANCH  36  38
ATOM     38  C   UNL     1     -10.571   2.277   9.226  1.00  0.00     0.060 A 
ATOM     39  C   UNL     1     -10.300   1.450  10.335  1.00  0.00     0.016 A 
ATOM     40  C   UNL     1     -10.604   1.731   7.946  1.00  0.00     0.016 A 
ATOM     41  C   UNL     1      -9.923   0.111  10.142  1.00  0.00     0.010 A 
ATOM     42  C   UNL     1     -10.120   0.455   7.756  1.00  0.00     0.010 A 
ATOM     43  C   UNL     1      -9.767  -0.363   8.840  1.00  0.00    -0.014 A 
BRANCH  43  44
ATOM     44  C   UNL     1      -9.156  -1.637   8.452  1.00  0.00     0.031 A 
ATOM     45  C   UNL     1      -9.974  -2.626   7.722  1.00  0.00     0.074 A 
ATOM     46  C   UNL     1      -7.819  -1.836   8.535  1.00  0.00     0.049 A 
ATOM     47  N   UNL     1      -9.686  -3.881   7.666  1.00  0.00    -0.248 NA
ATOM     48  C   UNL     1     -11.216  -2.296   7.027  1.00  0.00     0.031 C 
ATOM     49  C   UNL     1      -6.994  -2.758   7.755  1.00  0.00     0.029 A 
ATOM     50  N   UNL     1      -6.905  -1.230   9.386  1.00  0.00    -0.354 N 
ATOM     51  C   UNL     1     -10.467  -4.428   6.678  1.00  0.00     0.074 A 
ATOM     52  C   UNL     1     -11.481  -3.442   6.397  1.00  0.00     0.031 C 
ATOM     53  C   UNL     1      -5.754  -2.802   8.274  1.00  0.00     0.029 A 
ATOM     54  C   UNL     1      -5.754  -2.012   9.495  1.00  0.00     0.049 A 
ATOM     55  H   UNL     1      -7.048  -0.372   9.846  1.00  0.00     0.167 HD
ATOM     56  C   UNL     1     -10.069  -5.582   6.075  1.00  0.00     0.031 A 
ATOM     57  C   UNL     1      -5.295  -2.374  10.723  1.00  0.00     0.031 A 
ATOM     58  C   UNL     1      -8.773  -6.038   6.595  1.00  0.00     0.049 A 
ATOM     59  C   UNL     1      -5.500  -3.854  10.888  1.00  0.00     0.074 A 
ATOM     60  C   UNL     1      -7.488  -5.977   6.078  1.00  0.00     0.029 A 
ATOM     61  N   UNL     1      -8.631  -6.327   7.952  1.00  0.00    -0.354 N 
ATOM     62  N   UNL     1      -6.298  -4.531  10.109  1.00  0.00    -0.248 NA
ATOM     63  C   UNL     1      -4.828  -4.702  11.865  1.00  0.00     0.031 C 
ATOM     64  C   UNL     1      -6.572  -6.181   7.146  1.00  0.00     0.029 A 
ATOM     65  C   UNL     1      -7.295  -6.402   8.307  1.00  0.00     0.049 A 
ATOM     66  H   UNL     1      -9.381  -6.460   8.575  1.00  0.00     0.167 HD
ATOM     67  C   UNL     1      -6.214  -5.853  10.394  1.00  0.00     0.074 A 
ATOM     68  C   UNL     1      -5.309  -5.915  11.530  1.00  0.00     0.031 C 
ATOM     69  C   UNL     1      -6.900  -6.775   9.664  1.00  0.00     0.031 A 
BRANCH  56  70
ATOM     70  C   UNL     1     -10.708  -6.103   4.807  1.00  0.00    -0.014 A 
ATOM     71  C   UNL     1      -9.970  -6.918   3.932  1.00  0.00     0.009 A 
ATOM     72  C   UNL     1     -12.027  -5.816   4.408  1.00  0.00     0.009 A 
ATOM     73  C   UNL     1     -10.485  -7.342   2.698  1.00  0.00     0.001 A 
ATOM     74  C   UNL     1     -12.533  -6.193   3.156  1.00  0.00     0.001 A 
ATOM     75  C   UNL     1     -11.757  -6.955   2.297  1.00  0.00     0.000 A 
ENDBRANCH  56  70
BRANCH  57  76
ATOM     76  C   UNL     1      -5.472  -1.296  11.746  1.00  0.00    -0.014 A 
ATOM     77  C   UNL     1      -4.583  -0.198  11.699  1.00  0.00     0.009 A 
ATOM     78  C   UNL     1      -6.696  -1.119  12.413  1.00  0.00     0.009 A 
ATOM     79  C   UNL     1      -4.943   1.053  12.220  1.00  0.00     0.001 A 
ATOM     80  C   UNL     1      -7.061   0.142  12.914  1.00  0.00     0.001 A 
ATOM     81  C   UNL     1      -6.196   1.230  12.800  1.00  0.00     0.000 A 
ENDBRANCH  57  76
BRANCH  69  82
ATOM     82  C   UNL     1      -7.209  -8.159  10.148  1.00  0.00    -0.014 A 
ATOM     83  C   UNL     1      -7.221  -8.511  11.503  1.00  0.00     0.009 A 
ATOM     84  C   UNL     1      -7.697  -9.110   9.228  1.00  0.00     0.009 A 
ATOM     85  C   UNL     1      -7.662  -9.771  11.916  1.00  0.00     0.001 A 
ATOM     86  C   UNL     1      -8.193 -10.343   9.642  1.00  0.00     0.001 A 
ATOM     87  C   UNL     1      -8.162 -10.679  10.988  1.00  0.00     0.000 A 
ENDBRANCH  69  82
ENDBRANCH  43  44
ENDBRANCH  36  38
ENDBRANCH  35  36
ENDBRANCH  34  35
ENDBRANCH  33  34
ENDBRANCH   1  33
TORSDOF 16
