REMARK SMILES CC[C@@H]1CCCN1C(=O)N(CC(=O)OCCOCCOC(=O)c1ccc(-c2c3nc(c(-c4ccccc4)c4ccc([nH]4)c(-c4ccccc4)c4nc(c(-c5ccccc5)c5ccc2[nH]5)C=C4)C=C3)cc1)CC(F)(F)F
REMARK SMILES IDX 16 1 15 2 14 3 12 4 13 5 11 6 10 7 8 8 9 9 7 10 3 11 4 12
REMARK SMILES IDX 5 13 6 14 2 15 1 16 71 17 72 18 73 19 74 20 75 21 17 22
REMARK SMILES IDX 18 23 19 24 20 25 21 26 22 27 23 28 24 29 70 30 25 31 69 32
REMARK SMILES IDX 26 33 27 34 28 35 63 36 29 37 68 38 62 39 64 40 30 41 67 42
REMARK SMILES IDX 61 43 60 44 31 46 53 47 38 48 52 49 39 50 42 51 51 52 65 53
REMARK SMILES IDX 40 54 41 55 50 57 66 58 43 59 32 60 33 61 37 62 34 63 36 64
REMARK SMILES IDX 35 65 54 66 55 67 59 68 56 69 58 70 57 71 44 72 45 73 49 74
REMARK SMILES IDX 46 75 48 76 47 77
REMARK H PARENT 64 45 42 56
REMARK Flexibility Score: inf
ROOT
ATOM      1  C   UNL     1      -2.890   1.669  -2.569  1.00  0.00     0.202 C 
ENDROOT
BRANCH   1   2
ATOM      2  C   UNL     1      -2.097   0.392  -2.250  1.00  0.00     0.261 C 
BRANCH   2   3
ATOM      3  O   UNL     1      -1.654   0.260  -0.886  1.00  0.00    -0.462 OA
BRANCH   3   4
ATOM      4  C   UNL     1      -0.349   0.593  -0.685  1.00  0.00     0.325 C 
ATOM      5  O   UNL     1       0.382   1.078  -1.545  1.00  0.00    -0.250 OA
BRANCH   4   6
ATOM      6  C   UNL     1       0.132   0.413   0.756  1.00  0.00     0.244 C 
BRANCH   6   7
ATOM      7  N   UNL     1      -0.666  -0.317   1.722  1.00  0.00    -0.304 N 
BRANCH   7   8
ATOM      8  C   UNL     1      -0.612  -1.638   2.061  1.00  0.00     0.321 C 
ATOM      9  O   UNL     1      -1.316  -1.972   3.028  1.00  0.00    -0.248 OA
BRANCH   8  10
ATOM     10  N   UNL     1       0.120  -2.620   1.435  1.00  0.00    -0.322 N 
ATOM     11  C   UNL     1       1.298  -2.795   0.530  1.00  0.00     0.086 C 
ATOM     12  C   UNL     1       1.123  -4.258   0.069  1.00  0.00     0.027 C 
ATOM     13  C   UNL     1       0.706  -4.973   1.324  1.00  0.00     0.024 C 
ATOM     14  C   UNL     1      -0.173  -3.950   2.012  1.00  0.00     0.122 C 
BRANCH  11  15
ATOM     15  C   UNL     1       1.548  -1.985  -0.743  1.00  0.00     0.022 C 
ATOM     16  C   UNL     1       2.789  -1.094  -0.640  1.00  0.00     0.006 C 
ENDBRANCH  11  15
ENDBRANCH   8  10
ENDBRANCH   7   8
BRANCH   7  17
ATOM     17  C   UNL     1      -1.518   0.543   2.595  1.00  0.00     0.237 C 
BRANCH  17  18
ATOM     18  C   UNL     1      -2.981   0.139   2.860  1.00  0.00     0.406 C 
ATOM     19  F   UNL     1      -3.157  -0.488   4.042  1.00  0.00    -0.169 F 
ATOM     20  F   UNL     1      -3.744   1.266   2.922  1.00  0.00    -0.169 F 
ATOM     21  F   UNL     1      -3.502  -0.623   1.877  1.00  0.00    -0.169 F 
ENDBRANCH  17  18
ENDBRANCH   7  17
ENDBRANCH   6   7
ENDBRANCH   4   6
ENDBRANCH   3   4
ENDBRANCH   2   3
ENDBRANCH   1   2
BRANCH   1  22
ATOM     22  O   UNL     1      -2.357   2.922  -2.163  1.00  0.00    -0.374 OA
BRANCH  22  23
ATOM     23  C   UNL     1      -2.276   3.219  -0.772  1.00  0.00     0.202 C 
BRANCH  23  24
ATOM     24  C   UNL     1      -3.557   3.165   0.069  1.00  0.00     0.261 C 
BRANCH  24  25
ATOM     25  O   UNL     1      -4.186   1.871   0.052  1.00  0.00    -0.460 OA
BRANCH  25  26
ATOM     26  C   UNL     1      -5.502   1.900  -0.271  1.00  0.00     0.338 C 
ATOM     27  O   UNL     1      -6.195   2.894  -0.455  1.00  0.00    -0.246 OA
BRANCH  26  28
ATOM     28  C   UNL     1      -6.008   0.552  -0.573  1.00  0.00     0.060 A 
ATOM     29  C   UNL     1      -6.487   0.315  -1.868  1.00  0.00     0.016 A 
ATOM     30  C   UNL     1      -6.168  -0.408   0.426  1.00  0.00     0.016 A 
ATOM     31  C   UNL     1      -7.179  -0.860  -2.152  1.00  0.00     0.010 A 
ATOM     32  C   UNL     1      -6.860  -1.590   0.140  1.00  0.00     0.010 A 
ATOM     33  C   UNL     1      -7.412  -1.797  -1.137  1.00  0.00    -0.014 A 
BRANCH  33  34
ATOM     34  C   UNL     1      -8.388  -2.888  -1.375  1.00  0.00     0.031 A 
ATOM     35  C   UNL     1      -9.805  -2.717  -0.896  1.00  0.00     0.074 A 
ATOM     36  C   UNL     1      -8.042  -3.986  -2.069  1.00  0.00     0.049 A 
ATOM     37  N   UNL     1     -10.834  -3.512  -1.047  1.00  0.00    -0.248 NA
ATOM     38  C   UNL     1     -10.103  -1.479  -0.157  1.00  0.00     0.031 C 
ATOM     39  C   UNL     1      -6.720  -4.251  -2.631  1.00  0.00     0.029 A 
ATOM     40  N   UNL     1      -8.790  -5.079  -2.430  1.00  0.00    -0.354 N 
ATOM     41  C   UNL     1     -11.899  -2.871  -0.427  1.00  0.00     0.074 A 
ATOM     42  C   UNL     1     -11.386  -1.640   0.133  1.00  0.00     0.031 C 
ATOM     43  C   UNL     1      -6.751  -5.430  -3.277  1.00  0.00     0.029 A 
ATOM     44  C   UNL     1      -8.086  -6.011  -3.151  1.00  0.00     0.049 A 
ATOM     45  H   UNL     1      -9.740  -5.185  -2.194  1.00  0.00     0.167 HD
ATOM     46  C   UNL     1     -13.193  -3.263  -0.338  1.00  0.00     0.031 A 
ATOM     47  C   UNL     1      -8.475  -7.202  -3.647  1.00  0.00     0.031 A 
ATOM     48  C   UNL     1     -13.706  -4.495  -0.871  1.00  0.00     0.049 A 
ATOM     49  C   UNL     1      -9.894  -7.661  -3.451  1.00  0.00     0.074 A 
ATOM     50  C   UNL     1     -15.002  -4.980  -0.833  1.00  0.00     0.029 A 
ATOM     51  N   UNL     1     -12.943  -5.445  -1.530  1.00  0.00    -0.354 N 
ATOM     52  N   UNL     1     -10.896  -7.035  -2.884  1.00  0.00    -0.248 NA
ATOM     53  C   UNL     1     -10.235  -8.993  -3.973  1.00  0.00     0.031 C 
ATOM     54  C   UNL     1     -15.012  -6.247  -1.426  1.00  0.00     0.029 A 
ATOM     55  C   UNL     1     -13.734  -6.526  -1.880  1.00  0.00     0.049 A 
ATOM     56  H   UNL     1     -11.980  -5.363  -1.722  1.00  0.00     0.167 HD
ATOM     57  C   UNL     1     -11.991  -7.882  -3.005  1.00  0.00     0.074 A 
ATOM     58  C   UNL     1     -11.533  -9.062  -3.708  1.00  0.00     0.031 C 
ATOM     59  C   UNL     1     -13.264  -7.696  -2.576  1.00  0.00     0.031 A 
BRANCH  46  60
ATOM     60  C   UNL     1     -14.135  -2.351   0.396  1.00  0.00    -0.014 A 
ATOM     61  C   UNL     1     -14.553  -1.133  -0.165  1.00  0.00     0.009 A 
ATOM     62  C   UNL     1     -14.621  -2.720   1.659  1.00  0.00     0.009 A 
ATOM     63  C   UNL     1     -15.409  -0.287   0.542  1.00  0.00     0.001 A 
ATOM     64  C   UNL     1     -15.497  -1.884   2.353  1.00  0.00     0.001 A 
ATOM     65  C   UNL     1     -15.883  -0.664   1.799  1.00  0.00     0.000 A 
ENDBRANCH  46  60
BRANCH  47  66
ATOM     66  C   UNL     1      -7.502  -8.053  -4.380  1.00  0.00    -0.014 A 
ATOM     67  C   UNL     1      -7.619  -8.241  -5.765  1.00  0.00     0.009 A 
ATOM     68  C   UNL     1      -6.460  -8.694  -3.692  1.00  0.00     0.009 A 
ATOM     69  C   UNL     1      -6.723  -9.069  -6.444  1.00  0.00     0.001 A 
ATOM     70  C   UNL     1      -5.550  -9.501  -4.378  1.00  0.00     0.001 A 
ATOM     71  C   UNL     1      -5.687  -9.694  -5.751  1.00  0.00     0.000 A 
ENDBRANCH  47  66
BRANCH  59  72
ATOM     72  C   UNL     1     -14.259  -8.779  -2.883  1.00  0.00    -0.014 A 
ATOM     73  C   UNL     1     -14.246  -9.999  -2.191  1.00  0.00     0.009 A 
ATOM     74  C   UNL     1     -15.252  -8.555  -3.851  1.00  0.00     0.009 A 
ATOM     75  C   UNL     1     -15.189 -10.987  -2.484  1.00  0.00     0.001 A 
ATOM     76  C   UNL     1     -16.209  -9.534  -4.123  1.00  0.00     0.001 A 
ATOM     77  C   UNL     1     -16.171 -10.752  -3.446  1.00  0.00     0.000 A 
ENDBRANCH  59  72
ENDBRANCH  33  34
ENDBRANCH  26  28
ENDBRANCH  25  26
ENDBRANCH  24  25
ENDBRANCH  23  24
ENDBRANCH  22  23
ENDBRANCH   1  22
TORSDOF 20
