REMARK SMILES O=C(OCCOCCOC(=O)[C@H]1COCCN1C(=O)c1ccc(Br)nc1)c1ccc(-c2c3nc(c(-c4ccccc4)c4ccc([nH]4)c(-c4ccccc4)c4nc(c(-c5ccccc5)c5ccc2[nH]5)C=C4)C=C3)cc1
REMARK SMILES IDX 6 1 5 2 4 3 3 4 2 5 1 6 27 7 28 8 74 9 29 10 73 11 30 12
REMARK SMILES IDX 31 13 32 14 67 15 33 16 72 17 66 18 68 19 34 20 71 21 65 22
REMARK SMILES IDX 64 23 35 25 57 26 42 27 56 28 43 29 46 30 55 31 69 32 44 33
REMARK SMILES IDX 45 34 54 36 70 37 47 38 36 39 37 40 41 41 38 42 40 43 39 44
REMARK SMILES IDX 58 45 59 46 63 47 60 48 62 49 61 50 48 51 49 52 53 53 50 54
REMARK SMILES IDX 52 55 51 56 7 57 8 58 9 59 10 60 11 61 12 62 13 63 17 64
REMARK SMILES IDX 14 65 16 66 15 67 18 68 19 69 20 70 21 71 26 72 22 73 25 74
REMARK SMILES IDX 23 75 24 76
REMARK H PARENT 68 24 46 35
REMARK Flexibility Score: inf
ROOT
ATOM      1  O   UNL     1       3.264   0.812   6.229  1.00  0.00    -0.374 OA
ENDROOT
BRANCH   1   2
ATOM      2  C   UNL     1       2.687   1.702   5.280  1.00  0.00     0.202 C 
BRANCH   2   3
ATOM      3  C   UNL     1       1.401   2.381   5.744  1.00  0.00     0.261 C 
BRANCH   3   4
ATOM      4  O   UNL     1       1.680   3.206   6.885  1.00  0.00    -0.460 OA
BRANCH   4   5
ATOM      5  C   UNL     1       1.552   2.879   8.189  1.00  0.00     0.338 C 
ATOM      6  O   UNL     1       1.945   3.672   9.043  1.00  0.00    -0.246 OA
BRANCH   5   7
ATOM      7  C   UNL     1       0.910   1.616   8.657  1.00  0.00     0.060 A 
ATOM      8  C   UNL     1       0.980   0.392   7.992  1.00  0.00     0.016 A 
ATOM      9  C   UNL     1       0.282   1.650   9.912  1.00  0.00     0.016 A 
ATOM     10  C   UNL     1       0.460  -0.764   8.534  1.00  0.00     0.010 A 
ATOM     11  C   UNL     1      -0.233   0.485  10.482  1.00  0.00     0.010 A 
ATOM     12  C   UNL     1      -0.125  -0.724   9.790  1.00  0.00    -0.014 A 
BRANCH  12  13
ATOM     13  C   UNL     1      -0.644  -1.990  10.306  1.00  0.00     0.031 A 
ATOM     14  C   UNL     1      -2.097  -2.276  10.143  1.00  0.00     0.074 A 
ATOM     15  C   UNL     1       0.234  -2.911  10.741  1.00  0.00     0.049 A 
ATOM     16  N   UNL     1      -2.780  -3.304  10.558  1.00  0.00    -0.248 NA
ATOM     17  C   UNL     1      -2.885  -1.282   9.391  1.00  0.00     0.031 C 
ATOM     18  C   UNL     1       1.693  -2.748  10.750  1.00  0.00     0.029 A 
ATOM     19  N   UNL     1       0.036  -4.174  11.218  1.00  0.00    -0.354 N 
ATOM     20  C   UNL     1      -4.085  -3.063  10.156  1.00  0.00     0.074 A 
ATOM     21  C   UNL     1      -4.099  -1.810   9.439  1.00  0.00     0.031 C 
ATOM     22  C   UNL     1       2.256  -3.880  11.202  1.00  0.00     0.029 A 
ATOM     23  C   UNL     1       1.200  -4.804  11.588  1.00  0.00     0.049 A 
ATOM     24  H   UNL     1      -0.852  -4.593  11.290  1.00  0.00     0.167 HD
ATOM     25  C   UNL     1      -5.173  -3.823  10.406  1.00  0.00     0.031 A 
ATOM     26  C   UNL     1       1.369  -5.976  12.226  1.00  0.00     0.031 A 
ATOM     27  C   UNL     1      -5.109  -5.054  11.142  1.00  0.00     0.049 A 
ATOM     28  C   UNL     1       0.128  -6.736  12.603  1.00  0.00     0.074 A 
ATOM     29  C   UNL     1      -6.140  -5.886  11.534  1.00  0.00     0.029 A 
ATOM     30  N   UNL     1      -3.928  -5.624  11.600  1.00  0.00    -0.354 N 
ATOM     31  N   UNL     1      -1.123  -6.473  12.298  1.00  0.00    -0.248 NA
ATOM     32  C   UNL     1       0.310  -7.926  13.440  1.00  0.00     0.031 C 
ATOM     33  C   UNL     1      -5.583  -6.932  12.278  1.00  0.00     0.029 A 
ATOM     34  C   UNL     1      -4.204  -6.779  12.305  1.00  0.00     0.049 A 
ATOM     35  H   UNL     1      -3.027  -5.259  11.444  1.00  0.00     0.167 HD
ATOM     36  C   UNL     1      -1.878  -7.462  12.909  1.00  0.00     0.074 A 
ATOM     37  C   UNL     1      -0.940  -8.349  13.570  1.00  0.00     0.031 C 
ATOM     38  C   UNL     1      -3.224  -7.620  12.942  1.00  0.00     0.031 A 
BRANCH  25  39
ATOM     39  C   UNL     1      -6.502  -3.273   9.985  1.00  0.00    -0.014 A 
ATOM     40  C   UNL     1      -6.920  -3.287   8.647  1.00  0.00     0.009 A 
ATOM     41  C   UNL     1      -7.340  -2.704  10.957  1.00  0.00     0.009 A 
ATOM     42  C   UNL     1      -8.146  -2.718   8.288  1.00  0.00     0.001 A 
ATOM     43  C   UNL     1      -8.571  -2.154  10.598  1.00  0.00     0.001 A 
ATOM     44  C   UNL     1      -8.970  -2.155   9.263  1.00  0.00     0.000 A 
ENDBRANCH  25  39
BRANCH  26  45
ATOM     45  C   UNL     1       2.721  -6.423  12.654  1.00  0.00    -0.014 A 
ATOM     46  C   UNL     1       3.281  -7.615  12.175  1.00  0.00     0.009 A 
ATOM     47  C   UNL     1       3.453  -5.664  13.585  1.00  0.00     0.009 A 
ATOM     48  C   UNL     1       4.527  -8.051  12.639  1.00  0.00     0.001 A 
ATOM     49  C   UNL     1       4.712  -6.083  14.021  1.00  0.00     0.001 A 
ATOM     50  C   UNL     1       5.242  -7.284  13.558  1.00  0.00     0.000 A 
ENDBRANCH  26  45
BRANCH  38  51
ATOM     51  C   UNL     1      -3.736  -8.796  13.715  1.00  0.00    -0.014 A 
ATOM     52  C   UNL     1      -3.757  -8.778  15.117  1.00  0.00     0.009 A 
ATOM     53  C   UNL     1      -4.253  -9.905  13.029  1.00  0.00     0.009 A 
ATOM     54  C   UNL     1      -4.268  -9.867  15.822  1.00  0.00     0.001 A 
ATOM     55  C   UNL     1      -4.788 -10.979  13.737  1.00  0.00     0.001 A 
ATOM     56  C   UNL     1      -4.789 -10.962  15.132  1.00  0.00     0.000 A 
ENDBRANCH  38  51
ENDBRANCH  12  13
ENDBRANCH   5   7
ENDBRANCH   4   5
ENDBRANCH   3   4
ENDBRANCH   2   3
ENDBRANCH   1   2
BRANCH   1  57
ATOM     57  C   UNL     1       4.352   1.312   7.006  1.00  0.00     0.202 C 
BRANCH  57  58
ATOM     58  C   UNL     1       5.566   0.402   6.799  1.00  0.00     0.261 C 
BRANCH  58  59
ATOM     59  O   UNL     1       6.081   0.592   5.470  1.00  0.00    -0.462 OA
BRANCH  59  60
ATOM     60  C   UNL     1       5.443  -0.072   4.469  1.00  0.00     0.331 C 
ATOM     61  O   UNL     1       4.627  -0.974   4.623  1.00  0.00    -0.250 OA
BRANCH  60  62
ATOM     62  C   UNL     1       5.758   0.522   3.091  1.00  0.00     0.221 C 
ATOM     63  C   UNL     1       4.989   1.810   2.822  1.00  0.00     0.197 C 
ATOM     64  N   UNL     1       7.198   0.758   2.866  1.00  0.00    -0.320 N 
ATOM     65  O   UNL     1       5.451   2.875   3.659  1.00  0.00    -0.377 OA
ATOM     66  C   UNL     1       7.759   1.965   3.487  1.00  0.00     0.149 C 
ATOM     67  C   UNL     1       6.824   3.184   3.380  1.00  0.00     0.181 C 
BRANCH  64  68
ATOM     68  C   UNL     1       8.047  -0.209   2.332  1.00  0.00     0.256 C 
ATOM     69  O   UNL     1       9.262  -0.165   2.387  1.00  0.00    -0.269 OA
BRANCH  68  70
ATOM     70  C   UNL     1       7.405  -1.348   1.645  1.00  0.00     0.058 A 
ATOM     71  C   UNL     1       6.631  -1.148   0.499  1.00  0.00     0.018 A 
ATOM     72  C   UNL     1       7.441  -2.608   2.218  1.00  0.00     0.126 A 
ATOM     73  C   UNL     1       5.863  -2.203   0.013  1.00  0.00     0.037 A 
ATOM     74  N   UNL     1       6.716  -3.653   1.749  1.00  0.00    -0.249 NA
ATOM     75  C   UNL     1       5.931  -3.425   0.671  1.00  0.00     0.106 A 
ATOM     76  Br  UNL     1       4.834  -4.847   0.060  1.00  0.00    -0.029 Br
ENDBRANCH  68  70
ENDBRANCH  64  68
ENDBRANCH  60  62
ENDBRANCH  59  60
ENDBRANCH  58  59
ENDBRANCH  57  58
ENDBRANCH   1  57
TORSDOF 16
