REMARK SMILES O=C(OCCOCCOC(=O)c1ccc(S(=O)(=O)NCc2ccn[nH]2)c(F)c1)c1ccc(-c2c3nc(c(-c4ccccc4)c4ccc([nH]4)c(-c4ccccc4)c4nc(c(-c5ccccc5)c5ccc2[nH]5)C=C4)C=C3)cc1
REMARK SMILES IDX 7 1 6 2 5 3 4 4 3 5 2 6 1 7 29 8 30 9 76 10 31 11 75 12
REMARK SMILES IDX 32 13 33 14 34 15 69 16 35 17 74 18 68 19 70 20 36 21 73 22
REMARK SMILES IDX 67 23 66 24 37 26 59 27 44 28 58 29 45 30 48 31 57 32 71 33
REMARK SMILES IDX 46 34 47 35 56 37 72 38 49 39 38 40 39 41 43 42 40 43 42 44
REMARK SMILES IDX 41 45 60 46 61 47 65 48 62 49 64 50 63 51 50 52 51 53 55 54
REMARK SMILES IDX 52 55 54 56 53 57 8 58 9 59 10 60 11 61 12 62 13 63 28 64
REMARK SMILES IDX 14 65 26 66 15 67 27 68 16 69 17 70 18 71 19 72 20 74 21 75
REMARK SMILES IDX 22 76 25 77 23 78 24 79
REMARK H PARENT 70 25 48 36 19 73 25 80
REMARK Flexibility Score: inf
ROOT
ATOM      1  C   UNL     1       2.766   2.067  -0.582  1.00  0.00     0.202 C 
ENDROOT
BRANCH   1   2
ATOM      2  O   UNL     1       4.106   1.560  -0.622  1.00  0.00    -0.374 OA
BRANCH   2   3
ATOM      3  C   UNL     1       4.357   0.541  -1.590  1.00  0.00     0.202 C 
BRANCH   3   4
ATOM      4  C   UNL     1       4.057  -0.875  -1.093  1.00  0.00     0.261 C 
BRANCH   4   5
ATOM      5  O   UNL     1       2.677  -0.984  -0.704  1.00  0.00    -0.460 OA
BRANCH   5   6
ATOM      6  C   UNL     1       2.153  -1.021   0.544  1.00  0.00     0.338 C 
ATOM      7  O   UNL     1       0.940  -1.172   0.669  1.00  0.00    -0.246 OA
BRANCH   6   8
ATOM      8  C   UNL     1       2.970  -0.894   1.789  1.00  0.00     0.060 A 
ATOM      9  C   UNL     1       4.162  -0.177   1.889  1.00  0.00     0.016 A 
ATOM     10  C   UNL     1       2.439  -1.456   2.962  1.00  0.00     0.016 A 
ATOM     11  C   UNL     1       4.847  -0.068   3.089  1.00  0.00     0.010 A 
ATOM     12  C   UNL     1       3.097  -1.313   4.188  1.00  0.00     0.010 A 
ATOM     13  C   UNL     1       4.313  -0.626   4.246  1.00  0.00    -0.014 A 
BRANCH  13  14
ATOM     14  C   UNL     1       5.108  -0.529   5.480  1.00  0.00     0.031 A 
ATOM     15  C   UNL     1       5.865  -1.735   5.939  1.00  0.00     0.074 A 
ATOM     16  C   UNL     1       5.249   0.667   6.079  1.00  0.00     0.049 A 
ATOM     17  N   UNL     1       6.625  -1.881   6.989  1.00  0.00    -0.248 NA
ATOM     18  C   UNL     1       5.766  -2.934   5.088  1.00  0.00     0.031 C 
ATOM     19  C   UNL     1       4.647   1.920   5.613  1.00  0.00     0.029 A 
ATOM     20  N   UNL     1       5.974   1.034   7.180  1.00  0.00    -0.354 N 
ATOM     21  C   UNL     1       7.074  -3.194   6.941  1.00  0.00     0.074 A 
ATOM     22  C   UNL     1       6.502  -3.803   5.762  1.00  0.00     0.031 C 
ATOM     23  C   UNL     1       5.055   2.923   6.407  1.00  0.00     0.029 A 
ATOM     24  C   UNL     1       5.884   2.373   7.472  1.00  0.00     0.049 A 
ATOM     25  H   UNL     1       6.508   0.400   7.711  1.00  0.00     0.167 HD
ATOM     26  C   UNL     1       7.883  -3.830   7.819  1.00  0.00     0.031 A 
ATOM     27  C   UNL     1       6.393   3.063   8.509  1.00  0.00     0.031 A 
ATOM     28  C   UNL     1       8.417  -3.202   8.995  1.00  0.00     0.049 A 
ATOM     29  C   UNL     1       7.199   2.305   9.527  1.00  0.00     0.074 A 
ATOM     30  C   UNL     1       9.184  -3.755  10.002  1.00  0.00     0.029 A 
ATOM     31  N   UNL     1       8.230  -1.864   9.316  1.00  0.00    -0.354 N 
ATOM     32  N   UNL     1       7.563   1.044   9.517  1.00  0.00    -0.248 NA
ATOM     33  C   UNL     1       7.651   3.057  10.703  1.00  0.00     0.031 C 
ATOM     34  C   UNL     1       9.421  -2.761  10.958  1.00  0.00     0.029 A 
ATOM     35  C   UNL     1       8.849  -1.575  10.517  1.00  0.00     0.049 A 
ATOM     36  H   UNL     1       7.729  -1.216   8.769  1.00  0.00     0.167 HD
ATOM     37  C   UNL     1       8.296   0.851  10.679  1.00  0.00     0.074 A 
ATOM     38  C   UNL     1       8.345   2.134  11.355  1.00  0.00     0.031 C 
ATOM     39  C   UNL     1       8.871  -0.282  11.153  1.00  0.00     0.031 A 
BRANCH  26  40
ATOM     40  C   UNL     1       8.142  -5.288   7.567  1.00  0.00    -0.014 A 
ATOM     41  C   UNL     1       8.970  -5.720   6.519  1.00  0.00     0.009 A 
ATOM     42  C   UNL     1       7.503  -6.247   8.367  1.00  0.00     0.009 A 
ATOM     43  C   UNL     1       9.119  -7.084   6.253  1.00  0.00     0.001 A 
ATOM     44  C   UNL     1       7.674  -7.610   8.115  1.00  0.00     0.001 A 
ATOM     45  C   UNL     1       8.471  -8.027   7.051  1.00  0.00     0.000 A 
ENDBRANCH  26  40
BRANCH  27  46
ATOM     46  C   UNL     1       6.103   4.514   8.666  1.00  0.00    -0.014 A 
ATOM     47  C   UNL     1       7.126   5.470   8.590  1.00  0.00     0.009 A 
ATOM     48  C   UNL     1       4.789   4.952   8.904  1.00  0.00     0.009 A 
ATOM     49  C   UNL     1       6.843   6.828   8.770  1.00  0.00     0.001 A 
ATOM     50  C   UNL     1       4.504   6.311   9.052  1.00  0.00     0.001 A 
ATOM     51  C   UNL     1       5.533   7.247   8.995  1.00  0.00     0.000 A 
ENDBRANCH  27  46
BRANCH  39  52
ATOM     52  C   UNL     1       9.623  -0.165  12.446  1.00  0.00    -0.014 A 
ATOM     53  C   UNL     1       8.947  -0.038  13.669  1.00  0.00     0.009 A 
ATOM     54  C   UNL     1      11.024  -0.231  12.439  1.00  0.00     0.009 A 
ATOM     55  C   UNL     1       9.666   0.048  14.861  1.00  0.00     0.001 A 
ATOM     56  C   UNL     1      11.738  -0.174  13.634  1.00  0.00     0.001 A 
ATOM     57  C   UNL     1      11.059  -0.026  14.843  1.00  0.00     0.000 A 
ENDBRANCH  39  52
ENDBRANCH  13  14
ENDBRANCH   6   8
ENDBRANCH   5   6
ENDBRANCH   4   5
ENDBRANCH   3   4
ENDBRANCH   2   3
ENDBRANCH   1   2
BRANCH   1  58
ATOM     58  C   UNL     1       2.809   3.596  -0.638  1.00  0.00     0.261 C 
BRANCH  58  59
ATOM     59  O   UNL     1       3.393   3.976  -1.895  1.00  0.00    -0.460 OA
BRANCH  59  60
ATOM     60  C   UNL     1       4.749   4.034  -1.896  1.00  0.00     0.338 C 
ATOM     61  O   UNL     1       5.489   4.157  -0.936  1.00  0.00    -0.246 OA
BRANCH  60  62
ATOM     62  C   UNL     1       5.225   3.712  -3.261  1.00  0.00     0.063 A 
ATOM     63  C   UNL     1       4.472   4.047  -4.391  1.00  0.00     0.017 A 
ATOM     64  C   UNL     1       6.434   3.016  -3.402  1.00  0.00     0.056 A 
ATOM     65  C   UNL     1       4.945   3.715  -5.659  1.00  0.00     0.026 A 
ATOM     66  C   UNL     1       6.899   2.684  -4.674  1.00  0.00     0.144 A 
ATOM     67  C   UNL     1       6.171   3.047  -5.797  1.00  0.00     0.118 A 
ATOM     68  F   UNL     1       8.042   1.995  -4.782  1.00  0.00    -0.205 F 
BRANCH  67  69
ATOM     69  S   UNL     1       6.824   2.807  -7.415  1.00  0.00     0.243 S 
ATOM     70  O   UNL     1       5.716   2.945  -8.334  1.00  0.00    -0.207 OA
ATOM     71  O   UNL     1       7.979   3.671  -7.524  1.00  0.00    -0.207 OA
BRANCH  69  72
ATOM     72  N   UNL     1       7.405   1.249  -7.531  1.00  0.00    -0.205 NA
ATOM     73  H   UNL     1       8.290   1.248  -7.024  1.00  0.00     0.141 HD
BRANCH  72  74
ATOM     74  C   UNL     1       6.696   0.072  -7.077  1.00  0.00     0.154 C 
BRANCH  74  75
ATOM     75  C   UNL     1       5.835  -0.528  -8.122  1.00  0.00     0.050 A 
ATOM     76  C   UNL     1       5.016  -0.013  -9.107  1.00  0.00     0.046 A 
ATOM     77  N   UNL     1       5.664  -1.888  -8.204  1.00  0.00    -0.281 N 
ATOM     78  C   UNL     1       4.365  -1.124  -9.670  1.00  0.00     0.135 A 
ATOM     79  N   UNL     1       4.754  -2.270  -9.112  1.00  0.00    -0.184 NA
ATOM     80  H   UNL     1       6.164  -2.526  -7.645  1.00  0.00     0.190 HD
ENDBRANCH  74  75
ENDBRANCH  72  74
ENDBRANCH  69  72
ENDBRANCH  67  69
ENDBRANCH  60  62
ENDBRANCH  59  60
ENDBRANCH  58  59
ENDBRANCH   1  58
TORSDOF 18
