REMARK SMILES Cc1cc(F)cc(N[C@](C)(C(=O)OCCOCCOC(=O)c2ccc(-c3c4nc(c(-c5ccccc5)c5ccc([nH]5)c(-c5ccccc5)c5nc(c(-c6ccccc6)c6ccc3[nH]6)C=C5)C=C4)cc2)c2cccc(F)c2)c1
REMARK SMILES IDX 16 1 15 2 14 3 13 4 11 5 12 6 9 7 10 8 8 9 7 11 1 12 2 13
REMARK SMILES IDX 3 14 77 15 4 16 5 17 6 18 70 19 71 20 76 21 72 22 74 23
REMARK SMILES IDX 73 24 75 25 17 26 18 27 19 28 20 29 21 30 22 31 23 32 69 33
REMARK SMILES IDX 24 34 68 35 25 36 26 37 27 38 62 39 28 40 67 41 61 42 63 43
REMARK SMILES IDX 29 44 66 45 60 46 59 47 30 49 52 50 37 51 51 52 38 53 41 54
REMARK SMILES IDX 50 55 64 56 39 57 40 58 49 60 65 61 42 62 31 63 32 64 36 65
REMARK SMILES IDX 33 66 35 67 34 68 53 69 54 70 58 71 55 72 57 73 56 74 43 75
REMARK SMILES IDX 44 76 48 77 45 78 47 79 46 80
REMARK H PARENT 8 10 63 48 41 59
REMARK Flexibility Score: inf
ROOT
ATOM      1  O   UNL     1      -1.368  -3.770   4.137  1.00  0.00    -0.374 OA
ENDROOT
BRANCH   1   2
ATOM      2  C   UNL     1      -2.740  -4.112   3.972  1.00  0.00     0.202 C 
BRANCH   2   3
ATOM      3  C   UNL     1      -3.466  -3.676   2.691  1.00  0.00     0.261 C 
BRANCH   3   4
ATOM      4  O   UNL     1      -2.843  -4.128   1.477  1.00  0.00    -0.461 OA
BRANCH   4   5
ATOM      5  C   UNL     1      -1.936  -3.243   0.970  1.00  0.00     0.336 C 
ATOM      6  O   UNL     1      -1.733  -2.161   1.516  1.00  0.00    -0.249 OA
BRANCH   5   7
ATOM      7  C   UNL     1      -1.171  -3.762  -0.322  1.00  0.00     0.159 C 
ATOM      8  C   UNL     1      -2.070  -3.715  -1.572  1.00  0.00     0.053 C 
BRANCH   7   9
ATOM      9  N   UNL     1       0.036  -2.890  -0.539  1.00  0.00    -0.366 N 
ATOM     10  H   UNL     1       0.889  -3.356  -0.693  1.00  0.00     0.162 HD
BRANCH   9  11
ATOM     11  C   UNL     1       0.083  -1.492  -0.547  1.00  0.00     0.038 A 
ATOM     12  C   UNL     1       2.811   1.149   0.021  1.00  0.00     0.044 C 
ATOM     13  C   UNL     1       1.478   0.520  -0.249  1.00  0.00    -0.046 A 
ATOM     14  C   UNL     1       0.344   1.324  -0.352  1.00  0.00     0.042 A 
ATOM     15  C   UNL     1       1.337  -0.875  -0.364  1.00  0.00     0.029 A 
ATOM     16  C   UNL     1      -0.885   0.734  -0.600  1.00  0.00     0.125 A 
ATOM     17  F   UNL     1      -1.978   1.504  -0.693  1.00  0.00    -0.207 F 
ATOM     18  C   UNL     1      -1.014  -0.647  -0.724  1.00  0.00     0.065 A 
ENDBRANCH   9  11
ENDBRANCH   7   9
BRANCH   7  19
ATOM     19  C   UNL     1      -0.716  -5.268  -0.184  1.00  0.00    -0.009 A 
ATOM     20  C   UNL     1       0.626  -5.694  -0.293  1.00  0.00     0.007 A 
ATOM     21  C   UNL     1      -1.676  -6.291   0.003  1.00  0.00     0.046 A 
ATOM     22  C   UNL     1       0.990  -7.045  -0.170  1.00  0.00     0.003 A 
ATOM     23  C   UNL     1      -1.306  -7.632   0.119  1.00  0.00     0.123 A 
ATOM     24  C   UNL     1       0.021  -8.018   0.042  1.00  0.00     0.039 A 
ATOM     25  F   UNL     1      -2.253  -8.563   0.300  1.00  0.00    -0.207 F 
ENDBRANCH   7  19
ENDBRANCH   5   7
ENDBRANCH   4   5
ENDBRANCH   3   4
ENDBRANCH   2   3
ENDBRANCH   1   2
BRANCH   1  26
ATOM     26  C   UNL     1      -0.386  -4.563   3.470  1.00  0.00     0.202 C 
BRANCH  26  27
ATOM     27  C   UNL     1      -0.147  -5.981   3.998  1.00  0.00     0.261 C 
BRANCH  27  28
ATOM     28  O   UNL     1      -1.280  -6.832   3.747  1.00  0.00    -0.460 OA
BRANCH  28  29
ATOM     29  C   UNL     1      -1.888  -7.308   4.856  1.00  0.00     0.338 C 
ATOM     30  O   UNL     1      -1.510  -7.201   6.016  1.00  0.00    -0.246 OA
BRANCH  29  31
ATOM     31  C   UNL     1      -3.228  -7.814   4.512  1.00  0.00     0.060 A 
ATOM     32  C   UNL     1      -4.313  -7.303   5.238  1.00  0.00     0.016 A 
ATOM     33  C   UNL     1      -3.419  -8.808   3.551  1.00  0.00     0.016 A 
ATOM     34  C   UNL     1      -5.586  -7.832   5.052  1.00  0.00     0.010 A 
ATOM     35  C   UNL     1      -4.696  -9.348   3.376  1.00  0.00     0.010 A 
ATOM     36  C   UNL     1      -5.773  -8.893   4.158  1.00  0.00    -0.014 A 
BRANCH  36  37
ATOM     37  C   UNL     1      -7.050  -9.641   4.190  1.00  0.00     0.031 A 
ATOM     38  C   UNL     1      -7.132 -10.890   5.023  1.00  0.00     0.074 A 
ATOM     39  C   UNL     1      -8.134  -9.189   3.539  1.00  0.00     0.049 A 
ATOM     40  N   UNL     1      -8.148 -11.691   5.221  1.00  0.00    -0.248 NA
ATOM     41  C   UNL     1      -5.905 -11.284   5.733  1.00  0.00     0.031 C 
ATOM     42  C   UNL     1      -8.199  -7.959   2.753  1.00  0.00     0.029 A 
ATOM     43  N   UNL     1      -9.396  -9.717   3.449  1.00  0.00    -0.354 N 
ATOM     44  C   UNL     1      -7.683 -12.681   6.077  1.00  0.00     0.074 A 
ATOM     45  C   UNL     1      -6.287 -12.400   6.333  1.00  0.00     0.031 C 
ATOM     46  C   UNL     1      -9.444  -7.822   2.266  1.00  0.00     0.029 A 
ATOM     47  C   UNL     1     -10.250  -8.969   2.680  1.00  0.00     0.049 A 
ATOM     48  H   UNL     1      -9.664 -10.554   3.894  1.00  0.00     0.167 HD
ATOM     49  C   UNL     1      -8.357 -13.728   6.609  1.00  0.00     0.031 A 
ATOM     50  C   UNL     1     -11.534  -9.191   2.341  1.00  0.00     0.031 A 
ATOM     51  C   UNL     1      -9.736 -14.025   6.333  1.00  0.00     0.049 A 
ATOM     52  C   UNL     1     -12.231 -10.423   2.853  1.00  0.00     0.074 A 
ATOM     53  C   UNL     1     -10.512 -15.062   6.822  1.00  0.00     0.029 A 
ATOM     54  N   UNL     1     -10.543 -13.289   5.480  1.00  0.00    -0.354 N 
ATOM     55  N   UNL     1     -11.787 -11.346   3.671  1.00  0.00    -0.248 NA
ATOM     56  C   UNL     1     -13.610 -10.639   2.392  1.00  0.00     0.031 C 
ATOM     57  C   UNL     1     -11.773 -14.984   6.220  1.00  0.00     0.029 A 
ATOM     58  C   UNL     1     -11.799 -13.865   5.401  1.00  0.00     0.049 A 
ATOM     59  H   UNL     1     -10.264 -12.475   5.000  1.00  0.00     0.167 HD
ATOM     60  C   UNL     1     -12.838 -12.237   3.846  1.00  0.00     0.074 A 
ATOM     61  C   UNL     1     -13.945 -11.738   3.054  1.00  0.00     0.031 C 
ATOM     62  C   UNL     1     -12.886 -13.363   4.601  1.00  0.00     0.031 A 
BRANCH  49  63
ATOM     63  C   UNL     1      -7.582 -14.650   7.508  1.00  0.00    -0.014 A 
ATOM     64  C   UNL     1      -7.169 -14.245   8.789  1.00  0.00     0.009 A 
ATOM     65  C   UNL     1      -7.250 -15.938   7.064  1.00  0.00     0.009 A 
ATOM     66  C   UNL     1      -6.401 -15.097   9.585  1.00  0.00     0.001 A 
ATOM     67  C   UNL     1      -6.505 -16.798   7.874  1.00  0.00     0.001 A 
ATOM     68  C   UNL     1      -6.071 -16.372   9.128  1.00  0.00     0.000 A 
ENDBRANCH  49  63
BRANCH  50  69
ATOM     69  C   UNL     1     -12.248  -8.224   1.470  1.00  0.00    -0.014 A 
ATOM     70  C   UNL     1     -13.259  -7.406   1.996  1.00  0.00     0.009 A 
ATOM     71  C   UNL     1     -11.922  -8.113   0.110  1.00  0.00     0.009 A 
ATOM     72  C   UNL     1     -13.939  -6.505   1.172  1.00  0.00     0.001 A 
ATOM     73  C   UNL     1     -12.587  -7.194  -0.706  1.00  0.00     0.001 A 
ATOM     74  C   UNL     1     -13.599  -6.396  -0.175  1.00  0.00     0.000 A 
ENDBRANCH  50  69
BRANCH  62  75
ATOM     75  C   UNL     1     -14.187 -14.115   4.629  1.00  0.00    -0.014 A 
ATOM     76  C   UNL     1     -14.617 -14.872   3.529  1.00  0.00     0.009 A 
ATOM     77  C   UNL     1     -14.974 -14.096   5.792  1.00  0.00     0.009 A 
ATOM     78  C   UNL     1     -15.826 -15.569   3.581  1.00  0.00     0.001 A 
ATOM     79  C   UNL     1     -16.168 -14.816   5.851  1.00  0.00     0.001 A 
ATOM     80  C   UNL     1     -16.598 -15.544   4.742  1.00  0.00     0.000 A 
ENDBRANCH  62  75
ENDBRANCH  36  37
ENDBRANCH  29  31
ENDBRANCH  28  29
ENDBRANCH  27  28
ENDBRANCH  26  27
ENDBRANCH   1  26
TORSDOF 17
