REMARK SMILES O=C(OCCOCCOC(=O)[C@@H]1CC2(CC[NH2+]CC2)C[N@H+]1Cc1cccc2nonc12)c1ccc(-c2c3nc(c(-c4ccccc4)c4ccc([nH]4)c(-c4ccccc4)c4nc(c(-c5ccccc5)c5ccc2[nH]5)C=C4)C=C3)cc1
REMARK SMILES IDX 6 1 5 2 4 3 3 4 2 5 1 6 32 7 33 8 79 9 34 10 78 11 35 12
REMARK SMILES IDX 36 13 37 14 72 15 38 16 77 17 71 18 73 19 39 20 76 21 70 22
REMARK SMILES IDX 69 23 40 25 62 26 47 27 61 28 48 29 51 30 60 31 74 32 49 33
REMARK SMILES IDX 50 34 59 36 75 37 52 38 41 39 42 40 46 41 43 42 45 43 44 44
REMARK SMILES IDX 63 45 64 46 68 47 65 48 67 49 66 50 53 51 54 52 58 53 55 54
REMARK SMILES IDX 57 55 56 56 7 57 8 58 9 59 10 60 11 61 12 62 13 63 21 64
REMARK SMILES IDX 14 65 20 66 15 68 19 69 16 70 18 71 17 72 22 75 23 76 24 77
REMARK SMILES IDX 31 78 25 79 27 80 30 81 26 82 28 83 29 84
REMARK H PARENT 73 24 51 35 21 67 17 73 17 74
REMARK Flexibility Score: inf
ROOT
ATOM      1  O   UNL     1       5.282  -0.377  -1.537  1.00  0.00    -0.374 OA
ENDROOT
BRANCH   1   2
ATOM      2  C   UNL     1       4.822  -0.487  -0.184  1.00  0.00     0.202 C 
BRANCH   2   3
ATOM      3  C   UNL     1       4.760   0.873   0.523  1.00  0.00     0.261 C 
BRANCH   3   4
ATOM      4  O   UNL     1       3.395   1.355   0.523  1.00  0.00    -0.460 OA
BRANCH   4   5
ATOM      5  C   UNL     1       3.059   2.579   0.046  1.00  0.00     0.338 C 
ATOM      6  O   UNL     1       2.630   3.482   0.748  1.00  0.00    -0.246 OA
BRANCH   5   7
ATOM      7  C   UNL     1       2.832   2.573  -1.418  1.00  0.00     0.060 A 
ATOM      8  C   UNL     1       1.565   2.873  -1.939  1.00  0.00     0.016 A 
ATOM      9  C   UNL     1       3.859   2.274  -2.292  1.00  0.00     0.016 A 
ATOM     10  C   UNL     1       1.308   2.757  -3.319  1.00  0.00     0.010 A 
ATOM     11  C   UNL     1       3.592   2.136  -3.655  1.00  0.00     0.010 A 
ATOM     12  C   UNL     1       2.315   2.346  -4.201  1.00  0.00    -0.014 A 
BRANCH  12  13
ATOM     13  C   UNL     1       2.124   2.345  -5.683  1.00  0.00     0.031 A 
ATOM     14  C   UNL     1       3.405   2.240  -6.482  1.00  0.00     0.074 A 
ATOM     15  C   UNL     1       0.992   1.940  -6.304  1.00  0.00     0.049 A 
ATOM     16  N   UNL     1       4.002   1.129  -6.822  1.00  0.00    -0.248 NA
ATOM     17  C   UNL     1       4.250   3.431  -6.623  1.00  0.00     0.031 C 
ATOM     18  C   UNL     1       0.389   0.614  -6.123  1.00  0.00     0.029 A 
ATOM     19  N   UNL     1       0.404   2.423  -7.457  1.00  0.00    -0.354 N 
ATOM     20  C   UNL     1       5.305   1.463  -7.184  1.00  0.00     0.074 A 
ATOM     21  C   UNL     1       5.413   2.896  -7.015  1.00  0.00     0.031 C 
ATOM     22  C   UNL     1      -0.365   0.328  -7.207  1.00  0.00     0.029 A 
ATOM     23  C   UNL     1      -0.377   1.476  -8.115  1.00  0.00     0.049 A 
ATOM     24  H   UNL     1       0.524   3.344  -7.782  1.00  0.00     0.167 HD
ATOM     25  C   UNL     1       6.251   0.580  -7.612  1.00  0.00     0.031 A 
ATOM     26  C   UNL     1      -0.564   1.438  -9.467  1.00  0.00     0.031 A 
ATOM     27  C   UNL     1       5.819  -0.769  -7.806  1.00  0.00     0.049 A 
ATOM     28  C   UNL     1       0.649   0.637  -9.885  1.00  0.00     0.074 A 
ATOM     29  C   UNL     1       5.972  -2.017  -7.242  1.00  0.00     0.029 A 
ATOM     30  N   UNL     1       5.080  -1.019  -8.934  1.00  0.00    -0.354 N 
ATOM     31  N   UNL     1       0.835  -0.653  -9.797  1.00  0.00    -0.248 NA
ATOM     32  C   UNL     1       1.872   1.419 -10.078  1.00  0.00     0.031 C 
ATOM     33  C   UNL     1       4.909  -2.812  -7.788  1.00  0.00     0.029 A 
ATOM     34  C   UNL     1       4.161  -1.979  -8.620  1.00  0.00     0.049 A 
ATOM     35  H   UNL     1       5.191  -0.584  -9.810  1.00  0.00     0.167 HD
ATOM     36  C   UNL     1       2.213  -0.816  -9.617  1.00  0.00     0.074 A 
ATOM     37  C   UNL     1       2.787   0.499  -9.819  1.00  0.00     0.031 C 
ATOM     38  C   UNL     1       2.805  -1.950  -9.132  1.00  0.00     0.031 A 
BRANCH  25  39
ATOM     39  C   UNL     1       7.579   0.994  -8.129  1.00  0.00    -0.014 A 
ATOM     40  C   UNL     1       8.697   1.171  -7.308  1.00  0.00     0.009 A 
ATOM     41  C   UNL     1       7.744   1.057  -9.524  1.00  0.00     0.009 A 
ATOM     42  C   UNL     1       9.958   1.385  -7.881  1.00  0.00     0.001 A 
ATOM     43  C   UNL     1       9.000   1.257 -10.091  1.00  0.00     0.001 A 
ATOM     44  C   UNL     1      10.109   1.417  -9.269  1.00  0.00     0.000 A 
ENDBRANCH  25  39
BRANCH  26  45
ATOM     45  C   UNL     1      -0.931   2.739 -10.132  1.00  0.00    -0.014 A 
ATOM     46  C   UNL     1      -0.277   3.289 -11.246  1.00  0.00     0.009 A 
ATOM     47  C   UNL     1      -1.986   3.492  -9.578  1.00  0.00     0.009 A 
ATOM     48  C   UNL     1      -0.524   4.607 -11.656  1.00  0.00     0.001 A 
ATOM     49  C   UNL     1      -2.261   4.794 -10.008  1.00  0.00     0.001 A 
ATOM     50  C   UNL     1      -1.498   5.368 -11.018  1.00  0.00     0.000 A 
ENDBRANCH  26  45
BRANCH  38  51
ATOM     51  C   UNL     1       1.940  -3.155  -8.940  1.00  0.00    -0.014 A 
ATOM     52  C   UNL     1       1.812  -3.751  -7.673  1.00  0.00     0.009 A 
ATOM     53  C   UNL     1       1.343  -3.781 -10.040  1.00  0.00     0.009 A 
ATOM     54  C   UNL     1       1.168  -4.980  -7.523  1.00  0.00     0.001 A 
ATOM     55  C   UNL     1       0.677  -4.998  -9.886  1.00  0.00     0.001 A 
ATOM     56  C   UNL     1       0.609  -5.607  -8.633  1.00  0.00     0.000 A 
ENDBRANCH  38  51
ENDBRANCH  12  13
ENDBRANCH   5   7
ENDBRANCH   4   5
ENDBRANCH   3   4
ENDBRANCH   2   3
ENDBRANCH   1   2
BRANCH   1  57
ATOM     57  C   UNL     1       4.319  -0.744  -2.533  1.00  0.00     0.202 C 
BRANCH  57  58
ATOM     58  C   UNL     1       4.228  -2.217  -2.876  1.00  0.00     0.261 C 
BRANCH  58  59
ATOM     59  O   UNL     1       3.976  -2.977  -1.705  1.00  0.00    -0.459 OA
BRANCH  59  60
ATOM     60  C   UNL     1       5.080  -3.461  -1.078  1.00  0.00     0.365 C 
ATOM     61  O   UNL     1       6.229  -3.243  -1.421  1.00  0.00    -0.245 OA
BRANCH  60  62
ATOM     62  C   UNL     1       4.713  -4.370   0.095  1.00  0.00     0.296 C 
ATOM     63  C   UNL     1       5.392  -5.714  -0.192  1.00  0.00     0.091 C 
ATOM     64  N   UNL     1       3.290  -4.738   0.160  1.00  0.00    -0.319 N 
ATOM     65  C   UNL     1       4.264  -6.591  -0.775  1.00  0.00     0.036 C 
ATOM     66  C   UNL     1       3.118  -6.178   0.156  1.00  0.00     0.270 C 
ATOM     67  H   UNL     1       2.902  -4.396  -0.720  1.00  0.00     0.349 HD
ATOM     68  C   UNL     1       4.620  -8.078  -0.711  1.00  0.00     0.074 C 
ATOM     69  C   UNL     1       3.908  -6.269  -2.258  1.00  0.00     0.074 C 
ATOM     70  C   UNL     1       5.713  -8.427  -1.730  1.00  0.00     0.261 C 
ATOM     71  C   UNL     1       5.024  -6.652  -3.224  1.00  0.00     0.261 C 
ATOM     72  N   UNL     1       5.339  -8.075  -3.102  1.00  0.00    -0.346 N 
ATOM     73  H   UNL     1       4.521  -8.620  -3.373  1.00  0.00     0.346 HD
ATOM     74  H   UNL     1       6.130  -8.280  -3.712  1.00  0.00     0.346 HD
BRANCH  64  75
ATOM     75  C   UNL     1       2.300  -3.873   0.769  1.00  0.00     0.302 C 
BRANCH  75  76
ATOM     76  C   UNL     1       1.422  -3.230  -0.279  1.00  0.00     0.038 A 
ATOM     77  C   UNL     1       0.908  -3.945  -1.396  1.00  0.00     0.012 A 
ATOM     78  C   UNL     1       1.077  -1.861  -0.318  1.00  0.00     0.144 A 
ATOM     79  C   UNL     1       0.244  -3.351  -2.501  1.00  0.00     0.003 A 
ATOM     80  C   UNL     1       0.388  -1.251  -1.452  1.00  0.00     0.135 A 
ATOM     81  N   UNL     1       1.303  -0.903   0.588  1.00  0.00    -0.049 NA
ATOM     82  C   UNL     1      -0.011  -1.976  -2.586  1.00  0.00     0.034 A 
ATOM     83  N   UNL     1       0.236   0.052  -1.200  1.00  0.00    -0.050 NA
ATOM     84  O   UNL     1       0.776   0.259   0.055  1.00  0.00    -0.243 OA
ENDBRANCH  75  76
ENDBRANCH  64  75
ENDBRANCH  60  62
ENDBRANCH  59  60
ENDBRANCH  58  59
ENDBRANCH  57  58
ENDBRANCH   1  57
TORSDOF 16
