REMARK SMILES CS(=O)(=O)c1ccc(N2N=C(C(=O)OCCOCCOC(=O)c3ccc(-c4c5nc(c(-c6ccccc6)c6ccc([nH]6)c(-c6ccccc6)c6nc(c(-c7ccccc7)c7ccc4[nH]7)C=C6)C=C5)cc3)C[C@H]2c2ccco2)cc1
REMARK SMILES IDX 17 1 16 2 15 3 14 4 12 5 13 6 11 7 9 8 10 9 72 10 71 11 8 12
REMARK SMILES IDX 5 13 6 14 79 15 7 16 78 17 2 18 1 19 3 20 4 21 73 22 74 23
REMARK SMILES IDX 77 24 75 25 76 26 18 27 19 28 20 29 21 30 22 31 23 32 24 33
REMARK SMILES IDX 70 34 25 35 69 36 26 37 27 38 28 39 63 40 29 41 68 42 62 43
REMARK SMILES IDX 64 44 30 45 67 46 61 47 60 48 31 50 53 51 38 52 52 53 39 54
REMARK SMILES IDX 42 55 51 56 65 57 40 58 41 59 50 61 66 62 43 63 32 64 33 65
REMARK SMILES IDX 37 66 34 67 36 68 35 69 54 70 55 71 59 72 56 73 58 74 57 75
REMARK SMILES IDX 44 76 45 77 49 78 46 79 48 80 47 81
REMARK H PARENT 64 49 42 60
REMARK Flexibility Score: inf
ROOT
ATOM      1  O   UNL     1       6.019  -0.245   9.757  1.00  0.00    -0.374 OA
ENDROOT
BRANCH   1   2
ATOM      2  C   UNL     1       6.104   0.790  10.745  1.00  0.00     0.202 C 
BRANCH   2   3
ATOM      3  C   UNL     1       6.231   2.176  10.110  1.00  0.00     0.261 C 
BRANCH   3   4
ATOM      4  O   UNL     1       4.945   2.533   9.585  1.00  0.00    -0.459 OA
BRANCH   4   5
ATOM      5  C   UNL     1       4.963   3.278   8.462  1.00  0.00     0.354 C 
ATOM      6  O   UNL     1       5.886   3.907   7.991  1.00  0.00    -0.245 OA
BRANCH   5   7
ATOM      7  C   UNL     1       3.634   3.079   7.784  1.00  0.00     0.148 C 
ATOM      8  N   UNL     1       2.184   2.570   6.338  1.00  0.00    -0.254 N 
ATOM      9  N   UNL     1       3.525   2.709   6.544  1.00  0.00    -0.169 NA
ATOM     10  C   UNL     1       1.384   3.216   7.388  1.00  0.00     0.180 C 
ATOM     11  C   UNL     1       2.360   3.145   8.569  1.00  0.00     0.101 C 
BRANCH   8  12
ATOM     12  C   UNL     1       1.711   2.351   5.054  1.00  0.00     0.060 A 
ATOM     13  C   UNL     1       0.782   1.850   2.458  1.00  0.00     0.067 A 
ATOM     14  C   UNL     1       0.657   0.864   3.439  1.00  0.00     0.022 A 
ATOM     15  C   UNL     1       1.354   3.086   2.761  1.00  0.00     0.022 A 
ATOM     16  C   UNL     1       1.121   1.121   4.731  1.00  0.00     0.029 A 
ATOM     17  C   UNL     1       1.826   3.324   4.053  1.00  0.00     0.029 A 
BRANCH  13  18
ATOM     18  S   UNL     1       0.190   1.520   0.817  1.00  0.00     0.175 S 
ATOM     19  C   UNL     1       1.195   0.170   0.257  1.00  0.00     0.163 C 
ATOM     20  O   UNL     1       0.505   2.671  -0.009  1.00  0.00    -0.224 OA
ATOM     21  O   UNL     1      -1.175   1.049   0.951  1.00  0.00    -0.224 OA
ENDBRANCH  13  18
ENDBRANCH   8  12
BRANCH  10  22
ATOM     22  C   UNL     1       0.949   4.630   7.116  1.00  0.00     0.128 A 
ATOM     23  C   UNL     1      -0.156   5.170   6.487  1.00  0.00     0.048 A 
ATOM     24  O   UNL     1       1.773   5.638   7.537  1.00  0.00    -0.467 OA
ATOM     25  C   UNL     1       0.003   6.576   6.529  1.00  0.00     0.042 A 
ATOM     26  C   UNL     1       1.191   6.809   7.179  1.00  0.00     0.195 A 
ENDBRANCH  10  22
ENDBRANCH   5   7
ENDBRANCH   4   5
ENDBRANCH   3   4
ENDBRANCH   2   3
ENDBRANCH   1   2
BRANCH   1  27
ATOM     27  C   UNL     1       4.708  -0.513   9.252  1.00  0.00     0.202 C 
BRANCH  27  28
ATOM     28  C   UNL     1       4.022  -1.666   9.988  1.00  0.00     0.261 C 
BRANCH  28  29
ATOM     29  O   UNL     1       3.684  -1.260  11.327  1.00  0.00    -0.460 OA
BRANCH  29  30
ATOM     30  C   UNL     1       4.471  -1.774  12.301  1.00  0.00     0.338 C 
ATOM     31  O   UNL     1       5.336  -2.625  12.173  1.00  0.00    -0.246 OA
BRANCH  30  32
ATOM     32  C   UNL     1       4.226  -1.069  13.581  1.00  0.00     0.060 A 
ATOM     33  C   UNL     1       5.292  -0.991  14.485  1.00  0.00     0.016 A 
ATOM     34  C   UNL     1       2.984  -0.515  13.915  1.00  0.00     0.016 A 
ATOM     35  C   UNL     1       5.110  -0.403  15.735  1.00  0.00     0.010 A 
ATOM     36  C   UNL     1       2.799   0.072  15.172  1.00  0.00     0.010 A 
ATOM     37  C   UNL     1       3.854   0.102  16.097  1.00  0.00    -0.014 A 
BRANCH  37  38
ATOM     38  C   UNL     1       3.634   0.526  17.498  1.00  0.00     0.031 A 
ATOM     39  C   UNL     1       3.181  -0.494  18.503  1.00  0.00     0.074 A 
ATOM     40  C   UNL     1       3.894   1.786  17.888  1.00  0.00     0.049 A 
ATOM     41  N   UNL     1       3.066  -0.379  19.801  1.00  0.00    -0.248 NA
ATOM     42  C   UNL     1       2.816  -1.819  17.976  1.00  0.00     0.031 C 
ATOM     43  C   UNL     1       4.341   2.871  17.017  1.00  0.00     0.029 A 
ATOM     44  N   UNL     1       3.828   2.355  19.134  1.00  0.00    -0.354 N 
ATOM     45  C   UNL     1       2.639  -1.622  20.249  1.00  0.00     0.074 A 
ATOM     46  C   UNL     1       2.481  -2.465  19.084  1.00  0.00     0.031 C 
ATOM     47  C   UNL     1       4.515   3.979  17.759  1.00  0.00     0.029 A 
ATOM     48  C   UNL     1       4.197   3.676  19.154  1.00  0.00     0.049 A 
ATOM     49  H   UNL     1       3.542   1.863  19.938  1.00  0.00     0.167 HD
ATOM     50  C   UNL     1       2.411  -2.033  21.518  1.00  0.00     0.031 A 
ATOM     51  C   UNL     1       4.281   4.539  20.183  1.00  0.00     0.031 A 
ATOM     52  C   UNL     1       2.545  -1.204  22.683  1.00  0.00     0.049 A 
ATOM     53  C   UNL     1       3.980   4.072  21.579  1.00  0.00     0.074 A 
ATOM     54  C   UNL     1       2.361  -1.543  24.012  1.00  0.00     0.029 A 
ATOM     55  N   UNL     1       2.883   0.138  22.653  1.00  0.00    -0.354 N 
ATOM     56  N   UNL     1       3.643   2.876  21.994  1.00  0.00    -0.248 NA
ATOM     57  C   UNL     1       4.086   5.076  22.649  1.00  0.00     0.031 C 
ATOM     58  C   UNL     1       2.560  -0.394  24.787  1.00  0.00     0.029 A 
ATOM     59  C   UNL     1       2.890   0.650  23.939  1.00  0.00     0.049 A 
ATOM     60  H   UNL     1       3.088   0.652  21.839  1.00  0.00     0.167 HD
ATOM     61  C   UNL     1       3.514   2.979  23.374  1.00  0.00     0.074 A 
ATOM     62  C   UNL     1       3.812   4.351  23.726  1.00  0.00     0.031 C 
ATOM     63  C   UNL     1       3.184   2.018  24.269  1.00  0.00     0.031 A 
BRANCH  50  64
ATOM     64  C   UNL     1       1.986  -3.457  21.700  1.00  0.00    -0.014 A 
ATOM     65  C   UNL     1       2.933  -4.492  21.682  1.00  0.00     0.009 A 
ATOM     66  C   UNL     1       0.632  -3.766  21.897  1.00  0.00     0.009 A 
ATOM     67  C   UNL     1       2.527  -5.818  21.835  1.00  0.00     0.001 A 
ATOM     68  C   UNL     1       0.232  -5.093  22.061  1.00  0.00     0.001 A 
ATOM     69  C   UNL     1       1.178  -6.117  22.025  1.00  0.00     0.000 A 
ENDBRANCH  50  64
BRANCH  51  70
ATOM     70  C   UNL     1       4.685   5.943  19.937  1.00  0.00    -0.014 A 
ATOM     71  C   UNL     1       5.993   6.367  20.213  1.00  0.00     0.009 A 
ATOM     72  C   UNL     1       3.755   6.867  19.439  1.00  0.00     0.009 A 
ATOM     73  C   UNL     1       6.358   7.700  20.010  1.00  0.00     0.001 A 
ATOM     74  C   UNL     1       4.127   8.196  19.225  1.00  0.00     0.001 A 
ATOM     75  C   UNL     1       5.426   8.611  19.515  1.00  0.00     0.000 A 
ENDBRANCH  51  70
BRANCH  63  76
ATOM     76  C   UNL     1       3.139   2.416  25.713  1.00  0.00    -0.014 A 
ATOM     77  C   UNL     1       2.018   3.076  26.240  1.00  0.00     0.009 A 
ATOM     78  C   UNL     1       4.208   2.094  26.562  1.00  0.00     0.009 A 
ATOM     79  C   UNL     1       1.979   3.424  27.591  1.00  0.00     0.001 A 
ATOM     80  C   UNL     1       4.159   2.432  27.915  1.00  0.00     0.001 A 
ATOM     81  C   UNL     1       3.047   3.101  28.427  1.00  0.00     0.000 A 
ENDBRANCH  63  76
ENDBRANCH  37  38
ENDBRANCH  30  32
ENDBRANCH  29  30
ENDBRANCH  28  29
ENDBRANCH  27  28
ENDBRANCH   1  27
TORSDOF 17
