REMARK SMILES O=CN[C@H](C(=O)OCCOCCOC(=O)c1ccc(-c2c3nc(c(-c4ccccc4)c4ccc([nH]4)c(-c4ccccc4)c4nc(c(-c5ccccc5)c5ccc2[nH]5)C=C4)C=C3)cc1)[C@@H]1CCO[C@@]2(CCOC2)C1
REMARK SMILES IDX 11 1 10 2 9 3 8 4 7 5 5 6 6 7 4 8 3 9 1 10 2 11 64 13 65 14
REMARK SMILES IDX 73 15 66 16 68 17 67 18 69 19 72 20 70 21 71 22 12 23 13 24
REMARK SMILES IDX 14 25 15 26 16 27 17 28 63 29 18 30 62 31 19 32 20 33 21 34
REMARK SMILES IDX 56 35 22 36 61 37 55 38 57 39 23 40 60 41 54 42 53 43 24 45
REMARK SMILES IDX 46 46 31 47 45 48 32 49 35 50 44 51 58 52 33 53 34 54 43 56
REMARK SMILES IDX 59 57 36 58 25 59 26 60 30 61 27 62 29 63 28 64 47 65 48 66
REMARK SMILES IDX 52 67 49 68 51 69 50 70 37 71 38 72 42 73 39 74 41 75 40 76
REMARK H PARENT 3 12 57 44 35 55
REMARK Flexibility Score: inf
ROOT
ATOM      1  C   UNL     1       1.546   1.264   0.457  1.00  0.00     0.202 C 
ENDROOT
BRANCH   1   2
ATOM      2  O   UNL     1       0.224   0.763   0.281  1.00  0.00    -0.374 OA
BRANCH   2   3
ATOM      3  C   UNL     1      -0.210  -0.276   1.163  1.00  0.00     0.202 C 
BRANCH   3   4
ATOM      4  C   UNL     1       0.340  -1.677   0.861  1.00  0.00     0.261 C 
BRANCH   4   5
ATOM      5  O   UNL     1       1.644  -1.801   1.458  1.00  0.00    -0.462 OA
BRANCH   5   6
ATOM      6  C   UNL     1       2.716  -1.981   0.625  1.00  0.00     0.329 C 
ATOM      7  O   UNL     1       2.642  -2.334  -0.542  1.00  0.00    -0.250 OA
BRANCH   6   8
ATOM      8  C   UNL     1       3.999  -1.427   1.321  1.00  0.00     0.195 C 
BRANCH   8   9
ATOM      9  N   UNL     1       3.717  -1.339   2.765  1.00  0.00    -0.345 N 
ATOM     10  O   UNL     1       3.669  -0.272   4.761  1.00  0.00    -0.279 OA
ATOM     11  C   UNL     1       4.237  -0.508   3.704  1.00  0.00     0.337 C 
ATOM     12  H   UNL     1       3.050  -1.981   3.100  1.00  0.00     0.164 HD
ENDBRANCH   8   9
BRANCH   8  13
ATOM     13  C   UNL     1       5.277  -2.158   0.839  1.00  0.00     0.028 C 
ATOM     14  C   UNL     1       5.944  -3.078   1.842  1.00  0.00     0.035 C 
ATOM     15  C   UNL     1       6.360  -1.222   0.264  1.00  0.00     0.044 C 
ATOM     16  C   UNL     1       6.790  -2.352   2.875  1.00  0.00     0.161 C 
ATOM     17  C   UNL     1       7.128  -0.421   1.326  1.00  0.00     0.094 C 
ATOM     18  O   UNL     1       7.478  -1.173   2.483  1.00  0.00    -0.372 OA
ATOM     19  C   UNL     1       8.452   0.116   0.770  1.00  0.00     0.066 C 
ATOM     20  C   UNL     1       6.482   0.944   1.628  1.00  0.00     0.195 C 
ATOM     21  C   UNL     1       8.079   1.375   0.018  1.00  0.00     0.163 C 
ATOM     22  O   UNL     1       6.838   1.833   0.561  1.00  0.00    -0.378 OA
ENDBRANCH   8  13
ENDBRANCH   6   8
ENDBRANCH   5   6
ENDBRANCH   4   5
ENDBRANCH   3   4
ENDBRANCH   2   3
ENDBRANCH   1   2
BRANCH   1  23
ATOM     23  C   UNL     1       1.743   2.312   1.558  1.00  0.00     0.261 C 
BRANCH  23  24
ATOM     24  O   UNL     1       1.508   1.762   2.866  1.00  0.00    -0.460 OA
BRANCH  24  25
ATOM     25  C   UNL     1       0.387   2.222   3.474  1.00  0.00     0.338 C 
ATOM     26  O   UNL     1      -0.382   3.074   3.063  1.00  0.00    -0.246 OA
BRANCH  25  27
ATOM     27  C   UNL     1       0.085   1.409   4.664  1.00  0.00     0.060 A 
ATOM     28  C   UNL     1      -1.154   0.758   4.692  1.00  0.00     0.016 A 
ATOM     29  C   UNL     1       0.941   1.356   5.764  1.00  0.00     0.016 A 
ATOM     30  C   UNL     1      -1.560   0.083   5.839  1.00  0.00     0.010 A 
ATOM     31  C   UNL     1       0.527   0.684   6.921  1.00  0.00     0.010 A 
ATOM     32  C   UNL     1      -0.738   0.073   6.974  1.00  0.00    -0.014 A 
BRANCH  32  33
ATOM     33  C   UNL     1      -1.270  -0.488   8.238  1.00  0.00     0.031 A 
ATOM     34  C   UNL     1      -1.817   0.438   9.288  1.00  0.00     0.074 A 
ATOM     35  C   UNL     1      -1.324  -1.819   8.420  1.00  0.00     0.049 A 
ATOM     36  N   UNL     1      -2.384   0.150  10.433  1.00  0.00    -0.248 NA
ATOM     37  C   UNL     1      -1.718   1.880   9.009  1.00  0.00     0.031 C 
ATOM     38  C   UNL     1      -0.857  -2.821   7.464  1.00  0.00     0.029 A 
ATOM     39  N   UNL     1      -1.807  -2.554   9.473  1.00  0.00    -0.354 N 
ATOM     40  C   UNL     1      -2.705   1.371  11.012  1.00  0.00     0.074 A 
ATOM     41  C   UNL     1      -2.244   2.403  10.107  1.00  0.00     0.031 C 
ATOM     42  C   UNL     1      -1.081  -4.045   7.973  1.00  0.00     0.029 A 
ATOM     43  C   UNL     1      -1.679  -3.910   9.299  1.00  0.00     0.049 A 
ATOM     44  H   UNL     1      -2.207  -2.149  10.276  1.00  0.00     0.167 HD
ATOM     45  C   UNL     1      -3.332   1.613  12.189  1.00  0.00     0.031 A 
ATOM     46  C   UNL     1      -1.996  -4.927  10.122  1.00  0.00     0.031 A 
ATOM     47  C   UNL     1      -3.772   0.588  13.099  1.00  0.00     0.049 A 
ATOM     48  C   UNL     1      -2.629  -4.631  11.454  1.00  0.00     0.074 A 
ATOM     49  C   UNL     1      -4.437   0.733  14.305  1.00  0.00     0.029 A 
ATOM     50  N   UNL     1      -3.577  -0.771  12.911  1.00  0.00    -0.354 N 
ATOM     51  N   UNL     1      -2.967  -3.474  11.971  1.00  0.00    -0.248 NA
ATOM     52  C   UNL     1      -2.936  -5.786  12.310  1.00  0.00     0.031 C 
ATOM     53  C   UNL     1      -4.589  -0.536  14.875  1.00  0.00     0.029 A 
ATOM     54  C   UNL     1      -4.078  -1.476  13.995  1.00  0.00     0.049 A 
ATOM     55  H   UNL     1      -3.147  -1.177  12.124  1.00  0.00     0.167 HD
ATOM     56  C   UNL     1      -3.545  -3.762  13.201  1.00  0.00     0.074 A 
ATOM     57  C   UNL     1      -3.531  -5.204  13.342  1.00  0.00     0.031 C 
ATOM     58  C   UNL     1      -4.044  -2.909  14.130  1.00  0.00     0.031 A 
BRANCH  45  59
ATOM     59  C   UNL     1      -3.541   3.051  12.577  1.00  0.00    -0.014 A 
ATOM     60  C   UNL     1      -4.468   3.865  11.905  1.00  0.00     0.009 A 
ATOM     61  C   UNL     1      -2.817   3.593  13.650  1.00  0.00     0.009 A 
ATOM     62  C   UNL     1      -4.637   5.200  12.277  1.00  0.00     0.001 A 
ATOM     63  C   UNL     1      -3.009   4.920  14.039  1.00  0.00     0.001 A 
ATOM     64  C   UNL     1      -3.911   5.725  13.346  1.00  0.00     0.000 A 
ENDBRANCH  45  59
BRANCH  46  65
ATOM     65  C   UNL     1      -1.705  -6.326   9.714  1.00  0.00    -0.014 A 
ATOM     66  C   UNL     1      -2.744  -7.218   9.408  1.00  0.00     0.009 A 
ATOM     67  C   UNL     1      -0.378  -6.777   9.633  1.00  0.00     0.009 A 
ATOM     68  C   UNL     1      -2.460  -8.538   9.051  1.00  0.00     0.001 A 
ATOM     69  C   UNL     1      -0.096  -8.089   9.248  1.00  0.00     0.001 A 
ATOM     70  C   UNL     1      -1.137  -8.970   8.965  1.00  0.00     0.000 A 
ENDBRANCH  46  65
BRANCH  58  71
ATOM     71  C   UNL     1      -4.638  -3.519  15.371  1.00  0.00    -0.014 A 
ATOM     72  C   UNL     1      -3.832  -4.129  16.344  1.00  0.00     0.009 A 
ATOM     73  C   UNL     1      -6.026  -3.461  15.578  1.00  0.00     0.009 A 
ATOM     74  C   UNL     1      -4.407  -4.706  17.479  1.00  0.00     0.001 A 
ATOM     75  C   UNL     1      -6.595  -4.010  16.729  1.00  0.00     0.001 A 
ATOM     76  C   UNL     1      -5.787  -4.642  17.672  1.00  0.00     0.000 A 
ENDBRANCH  58  71
ENDBRANCH  32  33
ENDBRANCH  25  27
ENDBRANCH  24  25
ENDBRANCH  23  24
ENDBRANCH   1  23
TORSDOF 16
