REMARK SMILES CC1(C)CC[C@@]2(C(=O)OCCOCCOC(=O)c3ccc(-c4c5nc(c(-c6ccccc6)c6ccc([nH]6)c(-c6ccccc6)c6nc(c(-c7ccccc7)c7ccc4[nH]7)C=C6)C=C5)cc3)CC[C@@]3(C)C(=CC[C@H]4[C@@]5(C)CC[C@H](O)C(C)(C)[C@@H]5CC[C@]43C)[C@@H]2C1
REMARK SMILES IDX 13 1 12 2 11 3 10 4 9 5 7 6 8 7 6 8 1 9 2 10 3 11 4 12 89 13
REMARK SMILES IDX 5 14 88 15 70 16 66 17 68 18 71 19 67 20 69 21 86 22 72 23
REMARK SMILES IDX 73 24 85 25 87 26 74 27 84 28 75 29 76 30 83 31 77 32 80 33
REMARK SMILES IDX 78 34 81 35 82 36 79 37 14 39 15 40 16 41 17 42 18 43 19 44
REMARK SMILES IDX 65 45 20 46 64 47 21 48 22 49 23 50 58 51 24 52 63 53 57 54
REMARK SMILES IDX 59 55 25 56 62 57 56 58 55 59 26 61 48 62 33 63 47 64 34 65
REMARK SMILES IDX 37 66 46 67 60 68 35 69 36 70 45 72 61 73 38 74 27 75 28 76
REMARK SMILES IDX 32 77 29 78 31 79 30 80 49 81 50 82 54 83 51 84 53 85 52 86
REMARK SMILES IDX 39 87 40 88 44 89 41 90 43 91 42 92
REMARK H PARENT 79 38 59 60 37 71
REMARK Flexibility Score: inf
ROOT
ATOM      1  C   UNL     1      -1.761   4.748  -3.049  1.00  0.00     0.202 C 
ENDROOT
BRANCH   1   2
ATOM      2  O   UNL     1      -1.704   3.663  -2.148  1.00  0.00    -0.374 OA
BRANCH   2   3
ATOM      3  C   UNL     1      -1.227   2.510  -2.784  1.00  0.00     0.202 C 
BRANCH   3   4
ATOM      4  C   UNL     1      -0.732   1.364  -1.972  1.00  0.00     0.261 C 
BRANCH   4   5
ATOM      5  O   UNL     1      -1.731   1.022  -1.097  1.00  0.00    -0.463 OA
BRANCH   5   6
ATOM      6  C   UNL     1      -1.946   2.057  -0.249  1.00  0.00     0.312 C 
ATOM      7  O   UNL     1      -3.072   2.324   0.061  1.00  0.00    -0.252 OA
BRANCH   6   8
ATOM      8  C   UNL     1      -0.657   2.619   0.467  1.00  0.00     0.075 C 
ATOM      9  C   UNL     1       1.656  -0.880   1.842  1.00  0.00     0.011 C 
ATOM     10  C   UNL     1       0.933  -0.069   0.739  1.00  0.00    -0.035 C 
ATOM     11  C   UNL     1       1.039  -1.019  -0.492  1.00  0.00     0.011 C 
ATOM     12  C   UNL     1      -0.500   0.153   1.268  1.00  0.00     0.007 C 
ATOM     13  C   UNL     1       1.684   1.272   0.457  1.00  0.00     0.015 C 
ATOM     14  C   UNL     1      -0.804   1.637   1.688  1.00  0.00     0.020 C 
ATOM     15  C   UNL     1       0.895   2.645   0.165  1.00  0.00     0.033 C 
ATOM     16  C   UNL     1       1.470   3.535  -1.027  1.00  0.00    -0.063 C 
ATOM     17  C   UNL     1      -0.963   4.136   0.616  1.00  0.00     0.020 C 
ATOM     18  C   UNL     1       0.870   4.904  -1.541  1.00  0.00    -0.006 C 
ATOM     19  C   UNL     1       2.626   3.131  -1.584  1.00  0.00    -0.027 C 
ATOM     20  C   UNL     1      -0.429   5.166  -0.504  1.00  0.00     0.013 C 
ATOM     21  C   UNL     1       1.794   6.065  -0.964  1.00  0.00     0.017 C 
ATOM     22  C   UNL     1       1.048   4.933  -3.456  1.00  0.00    -0.020 C 
ATOM     23  C   UNL     1       2.512   2.405  -2.899  1.00  0.00     0.032 C 
ATOM     24  C   UNL     1       1.545   3.090  -3.896  1.00  0.00     0.006 C 
ATOM     25  C   UNL     1       0.090   5.909  -4.935  1.00  0.00     0.008 C 
ATOM     26  C   UNL     1       2.378   5.808  -3.639  1.00  0.00     0.012 C 
ATOM     27  C   UNL     1       0.598   1.988  -5.220  1.00  0.00    -0.025 C 
ATOM     28  C   UNL     1      -0.673   4.852  -6.525  1.00  0.00     0.005 C 
ATOM     29  C   UNL     1       1.634   1.220  -6.024  1.00  0.00     0.012 C 
ATOM     30  C   UNL     1      -0.126   0.668  -4.779  1.00  0.00     0.010 C 
ATOM     31  C   UNL     1      -0.618   2.863  -6.415  1.00  0.00     0.003 C 
ATOM     32  C   UNL     1      -0.752  -0.206  -5.878  1.00  0.00     0.033 C 
ATOM     33  C   UNL     1      -1.525   1.924  -7.337  1.00  0.00    -0.006 C 
ATOM     34  C   UNL     1      -1.850   0.527  -6.635  1.00  0.00     0.120 C 
ATOM     35  C   UNL     1      -0.937   1.760  -8.731  1.00  0.00     0.014 C 
ATOM     36  C   UNL     1      -2.948   2.555  -7.502  1.00  0.00     0.014 C 
BRANCH  34  37
ATOM     37  O   UNL     1      -2.452  -0.392  -7.550  1.00  0.00    -0.393 OA
ATOM     38  H   UNL     1      -1.801  -0.653  -8.220  1.00  0.00     0.210 HD
ENDBRANCH  34  37
ENDBRANCH   6   8
ENDBRANCH   5   6
ENDBRANCH   4   5
ENDBRANCH   3   4
ENDBRANCH   2   3
ENDBRANCH   1   2
BRANCH   1  39
ATOM     39  C   UNL     1      -1.407   4.397  -4.475  1.00  0.00     0.261 C 
BRANCH  39  40
ATOM     40  O   UNL     1       0.334   4.026  -5.139  1.00  0.00    -0.460 OA
BRANCH  40  41
ATOM     41  C   UNL     1       1.627   4.471  -6.187  1.00  0.00     0.338 C 
ATOM     42  O   UNL     1       1.713   5.567  -6.764  1.00  0.00    -0.246 OA
BRANCH  41  43
ATOM     43  C   UNL     1       2.817   3.582  -6.719  1.00  0.00     0.060 A 
ATOM     44  C   UNL     1       4.040   3.243  -6.099  1.00  0.00     0.016 A 
ATOM     45  C   UNL     1       2.697   3.047  -7.991  1.00  0.00     0.016 A 
ATOM     46  C   UNL     1       4.799   2.066  -6.497  1.00  0.00     0.010 A 
ATOM     47  C   UNL     1       3.417   1.853  -8.337  1.00  0.00     0.010 A 
ATOM     48  C   UNL     1       4.376   1.198  -7.529  1.00  0.00    -0.014 A 
BRANCH  48  49
ATOM     49  C   UNL     1       4.879  -0.303  -7.703  1.00  0.00     0.031 A 
ATOM     50  C   UNL     1       4.705  -1.121  -9.021  1.00  0.00     0.074 A 
ATOM     51  C   UNL     1       5.396  -1.091  -6.698  1.00  0.00     0.049 A 
ATOM     52  N   UNL     1       5.379  -2.183  -9.441  1.00  0.00    -0.248 NA
ATOM     53  C   UNL     1       3.615  -0.776  -9.943  1.00  0.00     0.031 C 
ATOM     54  C   UNL     1       5.414  -0.804  -5.258  1.00  0.00     0.029 A 
ATOM     55  N   UNL     1       6.021  -2.348  -6.742  1.00  0.00    -0.354 N 
ATOM     56  C   UNL     1       4.854  -2.524 -10.692  1.00  0.00     0.074 A 
ATOM     57  C   UNL     1       3.731  -1.664 -10.911  1.00  0.00     0.031 C 
ATOM     58  C   UNL     1       6.084  -1.770  -4.595  1.00  0.00     0.029 A 
ATOM     59  C   UNL     1       6.564  -2.779  -5.536  1.00  0.00     0.049 A 
ATOM     60  H   UNL     1       6.072  -2.885  -7.566  1.00  0.00     0.167 HD
ATOM     61  C   UNL     1       5.243  -3.420 -11.634  1.00  0.00     0.031 A 
ATOM     62  C   UNL     1       7.381  -3.815  -5.204  1.00  0.00     0.031 A 
ATOM     63  C   UNL     1       6.264  -4.404 -11.462  1.00  0.00     0.049 A 
ATOM     64  C   UNL     1       7.902  -4.781  -6.256  1.00  0.00     0.074 A 
ATOM     65  C   UNL     1       6.814  -5.258 -12.402  1.00  0.00     0.029 A 
ATOM     66  N   UNL     1       6.843  -4.706 -10.249  1.00  0.00    -0.354 N 
ATOM     67  N   UNL     1       7.640  -4.830  -7.538  1.00  0.00    -0.248 NA
ATOM     68  C   UNL     1       8.867  -5.813  -5.817  1.00  0.00     0.031 C 
ATOM     69  C   UNL     1       7.704  -6.112 -11.743  1.00  0.00     0.029 A 
ATOM     70  C   UNL     1       7.737  -5.747 -10.408  1.00  0.00     0.049 A 
ATOM     71  H   UNL     1       6.649  -4.250  -9.398  1.00  0.00     0.167 HD
ATOM     72  C   UNL     1       8.432  -5.855  -8.056  1.00  0.00     0.074 A 
ATOM     73  C   UNL     1       9.197  -6.399  -6.960  1.00  0.00     0.031 C 
ATOM     74  C   UNL     1       8.515  -6.296  -9.334  1.00  0.00     0.031 A 
BRANCH  61  75
ATOM     75  C   UNL     1       4.586  -3.307 -12.992  1.00  0.00    -0.014 A 
ATOM     76  C   UNL     1       4.794  -2.149 -13.767  1.00  0.00     0.009 A 
ATOM     77  C   UNL     1       3.779  -4.328 -13.512  1.00  0.00     0.009 A 
ATOM     78  C   UNL     1       4.161  -1.989 -14.999  1.00  0.00     0.001 A 
ATOM     79  C   UNL     1       3.174  -4.180 -14.765  1.00  0.00     0.001 A 
ATOM     80  C   UNL     1       3.353  -3.007 -15.499  1.00  0.00     0.000 A 
ENDBRANCH  61  75
BRANCH  62  81
ATOM     81  C   UNL     1       7.897  -3.986  -3.798  1.00  0.00    -0.014 A 
ATOM     82  C   UNL     1       9.249  -3.714  -3.503  1.00  0.00     0.009 A 
ATOM     83  C   UNL     1       7.093  -4.507  -2.773  1.00  0.00     0.009 A 
ATOM     84  C   UNL     1       9.783  -3.980  -2.235  1.00  0.00     0.001 A 
ATOM     85  C   UNL     1       7.622  -4.743  -1.494  1.00  0.00     0.001 A 
ATOM     86  C   UNL     1       8.967  -4.488  -1.228  1.00  0.00     0.000 A 
ENDBRANCH  62  81
BRANCH  74  87
ATOM     87  C   UNL     1       9.483  -7.397  -9.666  1.00  0.00    -0.014 A 
ATOM     88  C   UNL     1       9.253  -8.722  -9.266  1.00  0.00     0.009 A 
ATOM     89  C   UNL     1      10.592  -7.119 -10.483  1.00  0.00     0.009 A 
ATOM     90  C   UNL     1      10.128  -9.740  -9.656  1.00  0.00     0.001 A 
ATOM     91  C   UNL     1      11.449  -8.141 -10.893  1.00  0.00     0.001 A 
ATOM     92  C   UNL     1      11.220  -9.450 -10.474  1.00  0.00     0.000 A 
ENDBRANCH  74  87
ENDBRANCH  48  49
ENDBRANCH  41  43
ENDBRANCH  40  41
ENDBRANCH  39  40
ENDBRANCH   1  39
TORSDOF 15
