REMARK SMILES Cc1ccc(-c2nn(-c3ccccc3)cc2[C@@H]2[NH2+][C@H](C(=O)OCCOCCOC(=O)c3ccc(-c4c5nc(c(-c6ccccc6)c6ccc([nH]6)c(-c6ccccc6)c6nc(c(-c7ccccc7)c7ccc4[nH]7)C=C6)C=C5)cc3)CS2)cc1
REMARK SMILES IDX 25 1 24 2 23 3 22 4 20 5 21 6 19 7 17 8 18 9 80 10 79 13
REMARK SMILES IDX 16 14 6 15 7 16 8 17 15 18 5 19 1 20 2 21 3 22 82 23 4 24
REMARK SMILES IDX 81 25 9 26 10 27 14 28 11 29 13 30 12 31 26 32 27 33 28 34
REMARK SMILES IDX 29 35 30 36 31 37 32 38 78 39 33 40 77 41 34 42 35 43 36 44
REMARK SMILES IDX 71 45 37 46 76 47 70 48 72 49 38 50 75 51 69 52 68 53 39 55
REMARK SMILES IDX 61 56 46 57 60 58 47 59 50 60 59 61 73 62 48 63 49 64 58 66
REMARK SMILES IDX 74 67 51 68 40 69 41 70 45 71 42 72 44 73 43 74 62 75 63 76
REMARK SMILES IDX 67 77 64 78 66 79 65 80 52 81 53 82 57 83 54 84 56 85 55 86
REMARK H PARENT 18 11 18 12 72 54 50 65
REMARK Flexibility Score: inf
ROOT
ATOM      1  O   UNL     1      -5.651  -5.121   0.200  1.00  0.00    -0.374 OA
ENDROOT
BRANCH   1   2
ATOM      2  C   UNL     1      -5.456  -3.747  -0.030  1.00  0.00     0.202 C 
BRANCH   2   3
ATOM      3  C   UNL     1      -6.609  -3.180   0.684  1.00  0.00     0.261 C 
BRANCH   3   4
ATOM      4  O   UNL     1      -6.205  -2.419   1.777  1.00  0.00    -0.459 OA
BRANCH   4   5
ATOM      5  C   UNL     1      -6.012  -3.171   2.879  1.00  0.00     0.365 C 
ATOM      6  O   UNL     1      -6.704  -4.094   3.272  1.00  0.00    -0.245 OA
BRANCH   5   7
ATOM      7  C   UNL     1      -4.755  -2.632   3.499  1.00  0.00     0.304 C 
ATOM      8  C   UNL     1      -3.582  -0.959   2.153  1.00  0.00     0.278 C 
ATOM      9  N   UNL     1      -3.752  -2.393   2.396  1.00  0.00    -0.319 N 
ATOM     10  S   UNL     1      -4.198  -0.029   3.571  1.00  0.00    -0.087 SA
ATOM     11  H   UNL     1      -2.855  -2.795   2.667  1.00  0.00     0.348 HD
ATOM     12  H   UNL     1      -4.094  -2.832   1.542  1.00  0.00     0.348 HD
ATOM     13  C   UNL     1      -5.173  -1.379   4.248  1.00  0.00     0.153 C 
BRANCH   8  14
ATOM     14  C   UNL     1      -3.963  -0.325   0.789  1.00  0.00     0.067 A 
ATOM     15  C   UNL     1      -2.771   1.021   0.113  1.00  0.00     0.103 A 
ATOM     16  N   UNL     1      -3.451   1.992  -1.112  1.00  0.00    -0.167 NA
ATOM     17  N   UNL     1      -5.185   1.361  -1.512  1.00  0.00    -0.240 N 
ATOM     18  C   UNL     1      -5.441  -0.208  -0.235  1.00  0.00     0.126 A 
BRANCH  15  19
ATOM     19  C   UNL     1      -1.304   0.772   0.182  1.00  0.00     0.003 A 
ATOM     20  C   UNL     1       2.936  -0.078  -0.008  1.00  0.00     0.044 C 
ATOM     21  C   UNL     1       1.466   0.215   0.070  1.00  0.00    -0.051 A 
ATOM     22  C   UNL     1       0.552  -0.836   0.113  1.00  0.00     0.004 A 
ATOM     23  C   UNL     1       0.984   1.534   0.067  1.00  0.00     0.004 A 
ATOM     24  C   UNL     1      -0.817  -0.559   0.163  1.00  0.00     0.011 A 
ATOM     25  C   UNL     1      -0.390   1.811   0.112  1.00  0.00     0.011 A 
ENDBRANCH  15  19
BRANCH  17  26
ATOM     26  C   UNL     1      -5.867   2.193  -2.638  1.00  0.00     0.065 A 
ATOM     27  C   UNL     1      -6.023   1.643  -3.929  1.00  0.00     0.028 A 
ATOM     28  C   UNL     1      -6.766   3.201  -2.246  1.00  0.00     0.028 A 
ATOM     29  C   UNL     1      -7.260   1.759  -4.585  1.00  0.00     0.002 A 
ATOM     30  C   UNL     1      -7.998   3.318  -2.909  1.00  0.00     0.002 A 
ATOM     31  C   UNL     1      -8.275   2.531  -4.027  1.00  0.00     0.000 A 
ENDBRANCH  17  26
ENDBRANCH   8  14
ENDBRANCH   5   7
ENDBRANCH   4   5
ENDBRANCH   3   4
ENDBRANCH   2   3
ENDBRANCH   1   2
BRANCH   1  32
ATOM     32  C   UNL     1      -4.528  -5.876  -0.157  1.00  0.00     0.202 C 
BRANCH  32  33
ATOM     33  C   UNL     1      -4.172  -5.651  -1.635  1.00  0.00     0.261 C 
BRANCH  33  34
ATOM     34  O   UNL     1      -5.380  -5.813  -2.444  1.00  0.00    -0.460 OA
BRANCH  34  35
ATOM     35  C   UNL     1      -5.828  -4.759  -3.203  1.00  0.00     0.338 C 
ATOM     36  O   UNL     1      -5.115  -4.038  -3.883  1.00  0.00    -0.246 OA
BRANCH  35  37
ATOM     37  C   UNL     1      -7.263  -4.411  -2.836  1.00  0.00     0.060 A 
ATOM     38  C   UNL     1      -7.846  -3.172  -3.169  1.00  0.00     0.016 A 
ATOM     39  C   UNL     1      -7.853  -5.123  -1.813  1.00  0.00     0.016 A 
ATOM     40  C   UNL     1      -8.775  -2.527  -2.290  1.00  0.00     0.010 A 
ATOM     41  C   UNL     1      -8.645  -4.429  -0.902  1.00  0.00     0.010 A 
ATOM     42  C   UNL     1      -9.012  -3.067  -1.038  1.00  0.00    -0.014 A 
BRANCH  42  43
ATOM     43  C   UNL     1      -9.600  -2.402   0.203  1.00  0.00     0.031 A 
ATOM     44  C   UNL     1     -10.940  -2.942   0.488  1.00  0.00     0.074 A 
ATOM     45  C   UNL     1      -9.035  -1.523   1.123  1.00  0.00     0.049 A 
ATOM     46  N   UNL     1     -11.927  -2.228   0.905  1.00  0.00    -0.248 NA
ATOM     47  C   UNL     1     -11.360  -4.315   0.143  1.00  0.00     0.031 C 
ATOM     48  C   UNL     1      -9.333  -1.233   2.541  1.00  0.00     0.029 A 
ATOM     49  N   UNL     1      -7.907  -0.716   1.009  1.00  0.00    -0.354 N 
ATOM     50  C   UNL     1     -12.811  -3.163   1.383  1.00  0.00     0.074 A 
ATOM     51  C   UNL     1     -12.619  -4.319   0.568  1.00  0.00     0.031 C 
ATOM     52  C   UNL     1      -8.624  -0.160   2.997  1.00  0.00     0.029 A 
ATOM     53  C   UNL     1      -7.813   0.354   1.904  1.00  0.00     0.049 A 
ATOM     54  H   UNL     1      -7.212  -0.890   0.334  1.00  0.00     0.167 HD
ATOM     55  C   UNL     1     -13.259  -3.040   2.661  1.00  0.00     0.031 A 
ATOM     56  C   UNL     1      -7.533   1.621   1.458  1.00  0.00     0.031 A 
ATOM     57  C   UNL     1     -12.828  -1.763   3.264  1.00  0.00     0.049 A 
ATOM     58  C   UNL     1      -8.922   2.270   1.530  1.00  0.00     0.074 A 
ATOM     59  C   UNL     1     -12.096  -1.430   4.391  1.00  0.00     0.029 A 
ATOM     60  N   UNL     1     -12.882  -0.594   2.498  1.00  0.00    -0.354 N 
ATOM     61  N   UNL     1     -10.004   1.554   1.708  1.00  0.00    -0.248 NA
ATOM     62  C   UNL     1      -9.234   3.694   1.495  1.00  0.00     0.031 C 
ATOM     63  C   UNL     1     -11.707  -0.055   4.277  1.00  0.00     0.029 A 
ATOM     64  C   UNL     1     -12.190   0.451   3.078  1.00  0.00     0.049 A 
ATOM     65  H   UNL     1     -13.360  -0.523   1.641  1.00  0.00     0.167 HD
ATOM     66  C   UNL     1     -11.065   2.336   2.011  1.00  0.00     0.074 A 
ATOM     67  C   UNL     1     -10.557   3.681   1.773  1.00  0.00     0.031 C 
ATOM     68  C   UNL     1     -12.235   1.790   2.464  1.00  0.00     0.031 A 
BRANCH  55  69
ATOM     69  C   UNL     1     -13.863  -4.194   3.441  1.00  0.00    -0.014 A 
ATOM     70  C   UNL     1     -14.378  -3.935   4.719  1.00  0.00     0.009 A 
ATOM     71  C   UNL     1     -13.950  -5.540   3.018  1.00  0.00     0.009 A 
ATOM     72  C   UNL     1     -14.964  -4.938   5.504  1.00  0.00     0.001 A 
ATOM     73  C   UNL     1     -14.559  -6.544   3.783  1.00  0.00     0.001 A 
ATOM     74  C   UNL     1     -15.071  -6.240   5.030  1.00  0.00     0.000 A 
ENDBRANCH  55  69
BRANCH  56  75
ATOM     75  C   UNL     1      -6.612   1.588   0.205  1.00  0.00    -0.014 A 
ATOM     76  C   UNL     1      -4.821   1.412   0.204  1.00  0.00     0.009 A 
ATOM     77  C   UNL     1      -7.429   0.771  -1.062  1.00  0.00     0.009 A 
ATOM     78  C   UNL     1      -3.991   0.109  -1.222  1.00  0.00     0.001 A 
ATOM     79  C   UNL     1      -6.710  -0.280  -2.225  1.00  0.00     0.001 A 
ATOM     80  C   UNL     1      -5.072  -0.667  -2.347  1.00  0.00     0.000 A 
ENDBRANCH  56  75
BRANCH  68  81
ATOM     81  C   UNL     1     -13.570   2.485   2.456  1.00  0.00    -0.014 A 
ATOM     82  C   UNL     1     -13.804   3.738   1.892  1.00  0.00     0.009 A 
ATOM     83  C   UNL     1     -14.705   1.795   2.945  1.00  0.00     0.009 A 
ATOM     84  C   UNL     1     -15.078   4.311   1.901  1.00  0.00     0.001 A 
ATOM     85  C   UNL     1     -15.989   2.324   2.885  1.00  0.00     0.001 A 
ATOM     86  C   UNL     1     -16.170   3.602   2.390  1.00  0.00     0.000 A 
ENDBRANCH  68  81
ENDBRANCH  42  43
ENDBRANCH  35  37
ENDBRANCH  34  35
ENDBRANCH  33  34
ENDBRANCH  32  33
ENDBRANCH   1  32
TORSDOF 17
