REMARK SMILES O=C(OCCOCCOC(=O)[C@H]1CC1(c1ccccc1)c1ccccc1)c1ccc(-c2c3nc(c(-c4ccccc4)c4ccc([nH]4)c(-c4ccccc4)c4nc(c(-c5ccccc5)c5ccc2[nH]5)C=C4)C=C3)cc1
REMARK SMILES IDX 5 1 4 2 3 3 2 4 1 5 27 6 28 7 74 8 29 9 73 10 30 11 31 12
REMARK SMILES IDX 32 13 67 14 33 15 72 16 66 17 68 18 34 19 71 20 65 21 64 22
REMARK SMILES IDX 35 24 57 25 42 26 56 27 43 28 46 29 55 30 69 31 44 32 45 33
REMARK SMILES IDX 54 35 70 36 47 37 36 38 37 39 41 40 38 41 40 42 39 43 58 44
REMARK SMILES IDX 59 45 63 46 60 47 62 48 61 49 48 50 49 51 53 52 50 53 52 54
REMARK SMILES IDX 51 55 6 56 7 57 8 58 9 59 10 60 11 61 12 62 13 63 14 64
REMARK SMILES IDX 15 65 16 66 20 67 17 68 19 69 18 70 21 71 22 72 26 73 23 74
REMARK SMILES IDX 25 75 24 76
REMARK H PARENT 68 23 46 34
REMARK Flexibility Score: inf
ROOT
ATOM      1  C   UNL     1       4.358   1.973  -0.569  1.00  0.00     0.202 C 
ENDROOT
BRANCH   1   2
ATOM      2  C   UNL     1       3.346   1.494  -1.608  1.00  0.00     0.261 C 
BRANCH   2   3
ATOM      3  O   UNL     1       3.174   0.075  -1.490  1.00  0.00    -0.460 OA
BRANCH   3   4
ATOM      4  C   UNL     1       3.915  -0.874  -2.114  1.00  0.00     0.338 C 
ATOM      5  O   UNL     1       3.785  -2.051  -1.786  1.00  0.00    -0.246 OA
BRANCH   4   6
ATOM      6  C   UNL     1       4.817  -0.559  -3.261  1.00  0.00     0.060 A 
ATOM      7  C   UNL     1       5.589   0.598  -3.364  1.00  0.00     0.016 A 
ATOM      8  C   UNL     1       4.950  -1.528  -4.266  1.00  0.00     0.016 A 
ATOM      9  C   UNL     1       6.434   0.824  -4.422  1.00  0.00     0.010 A 
ATOM     10  C   UNL     1       5.853  -1.340  -5.318  1.00  0.00     0.010 A 
ATOM     11  C   UNL     1       6.604  -0.162  -5.380  1.00  0.00    -0.014 A 
BRANCH  11  12
ATOM     12  C   UNL     1       7.548   0.162  -6.452  1.00  0.00     0.031 A 
ATOM     13  C   UNL     1       6.995   0.542  -7.782  1.00  0.00     0.074 A 
ATOM     14  C   UNL     1       8.848   0.318  -6.134  1.00  0.00     0.049 A 
ATOM     15  N   UNL     1       7.633   0.864  -8.872  1.00  0.00    -0.248 NA
ATOM     16  C   UNL     1       5.526   0.586  -7.899  1.00  0.00     0.031 C 
ATOM     17  C   UNL     1       9.420   0.139  -4.791  1.00  0.00     0.029 A 
ATOM     18  N   UNL     1       9.910   0.720  -6.892  1.00  0.00    -0.354 N 
ATOM     19  C   UNL     1       6.646   1.112  -9.814  1.00  0.00     0.074 A 
ATOM     20  C   UNL     1       5.368   0.904  -9.174  1.00  0.00     0.031 C 
ATOM     21  C   UNL     1      10.722   0.463  -4.819  1.00  0.00     0.029 A 
ATOM     22  C   UNL     1      11.091   0.775  -6.191  1.00  0.00     0.049 A 
ATOM     23  H   UNL     1       9.837   0.948  -7.847  1.00  0.00     0.167 HD
ATOM     24  C   UNL     1       6.814   1.471 -11.105  1.00  0.00     0.031 A 
ATOM     25  C   UNL     1      12.338   1.004  -6.636  1.00  0.00     0.031 A 
ATOM     26  C   UNL     1       8.108   1.655 -11.698  1.00  0.00     0.049 A 
ATOM     27  C   UNL     1      12.500   1.258  -8.109  1.00  0.00     0.074 A 
ATOM     28  C   UNL     1       8.429   1.929 -13.013  1.00  0.00     0.029 A 
ATOM     29  N   UNL     1       9.305   1.584 -10.994  1.00  0.00    -0.354 N 
ATOM     30  N   UNL     1      11.573   1.395  -9.029  1.00  0.00    -0.248 NA
ATOM     31  C   UNL     1      13.873   1.372  -8.609  1.00  0.00     0.031 C 
ATOM     32  C   UNL     1       9.823   1.968 -13.114  1.00  0.00     0.029 A 
ATOM     33  C   UNL     1      10.369   1.788 -11.851  1.00  0.00     0.049 A 
ATOM     34  H   UNL     1       9.382   1.413 -10.028  1.00  0.00     0.167 HD
ATOM     35  C   UNL     1      12.250   1.629 -10.216  1.00  0.00     0.074 A 
ATOM     36  C   UNL     1      13.663   1.650  -9.887  1.00  0.00     0.031 C 
ATOM     37  C   UNL     1      11.759   1.801 -11.468  1.00  0.00     0.031 A 
BRANCH  24  38
ATOM     38  C   UNL     1       5.579   1.583 -11.948  1.00  0.00    -0.014 A 
ATOM     39  C   UNL     1       4.667   2.638 -11.789  1.00  0.00     0.009 A 
ATOM     40  C   UNL     1       5.309   0.590 -12.902  1.00  0.00     0.009 A 
ATOM     41  C   UNL     1       3.495   2.679 -12.547  1.00  0.00     0.001 A 
ATOM     42  C   UNL     1       4.151   0.647 -13.678  1.00  0.00     0.001 A 
ATOM     43  C   UNL     1       3.240   1.686 -13.494  1.00  0.00     0.000 A 
ENDBRANCH  24  38
BRANCH  25  44
ATOM     44  C   UNL     1      13.513   0.896  -5.728  1.00  0.00    -0.014 A 
ATOM     45  C   UNL     1      14.372   1.985  -5.517  1.00  0.00     0.009 A 
ATOM     46  C   UNL     1      13.816  -0.327  -5.106  1.00  0.00     0.009 A 
ATOM     47  C   UNL     1      15.528   1.838  -4.745  1.00  0.00     0.001 A 
ATOM     48  C   UNL     1      14.951  -0.462  -4.303  1.00  0.00     0.001 A 
ATOM     49  C   UNL     1      15.816   0.616  -4.138  1.00  0.00     0.000 A 
ENDBRANCH  25  44
BRANCH  37  50
ATOM     50  C   UNL     1      12.766   2.069 -12.547  1.00  0.00    -0.014 A 
ATOM     51  C   UNL     1      13.635   1.064 -12.999  1.00  0.00     0.009 A 
ATOM     52  C   UNL     1      12.821   3.341 -13.136  1.00  0.00     0.009 A 
ATOM     53  C   UNL     1      14.572   1.344 -13.993  1.00  0.00     0.001 A 
ATOM     54  C   UNL     1      13.731   3.605 -14.157  1.00  0.00     0.001 A 
ATOM     55  C   UNL     1      14.614   2.611 -14.575  1.00  0.00     0.000 A 
ENDBRANCH  37  50
ENDBRANCH  11  12
ENDBRANCH   4   6
ENDBRANCH   3   4
ENDBRANCH   2   3
ENDBRANCH   1   2
BRANCH   1  56
ATOM     56  O   UNL     1       5.591   1.257  -0.605  1.00  0.00    -0.374 OA
BRANCH  56  57
ATOM     57  C   UNL     1       5.861   0.425   0.512  1.00  0.00     0.202 C 
BRANCH  57  58
ATOM     58  C   UNL     1       6.746   1.171   1.511  1.00  0.00     0.261 C 
BRANCH  58  59
ATOM     59  O   UNL     1       6.002   2.276   2.052  1.00  0.00    -0.463 OA
BRANCH  59  60
ATOM     60  C   UNL     1       6.074   3.470   1.395  1.00  0.00     0.310 C 
ATOM     61  O   UNL     1       6.955   3.831   0.628  1.00  0.00    -0.252 OA
BRANCH  60  62
ATOM     62  C   UNL     1       4.857   4.257   1.702  1.00  0.00     0.115 C 
ATOM     63  C   UNL     1       4.975   5.681   2.115  1.00  0.00     0.034 C 
ATOM     64  C   UNL     1       4.146   5.332   0.853  1.00  0.00     0.034 C 
BRANCH  64  65
ATOM     65  C   UNL     1       4.675   6.030  -0.441  1.00  0.00    -0.037 A 
ATOM     66  C   UNL     1       5.124   7.365  -0.388  1.00  0.00     0.004 A 
ATOM     67  C   UNL     1       4.475   5.511  -1.740  1.00  0.00     0.004 A 
ATOM     68  C   UNL     1       5.301   8.145  -1.538  1.00  0.00     0.000 A 
ATOM     69  C   UNL     1       4.637   6.287  -2.897  1.00  0.00     0.000 A 
ATOM     70  C   UNL     1       5.035   7.612  -2.792  1.00  0.00     0.000 A 
ENDBRANCH  64  65
BRANCH  64  71
ATOM     71  C   UNL     1       2.562   5.364   0.992  1.00  0.00    -0.037 A 
ATOM     72  C   UNL     1       1.712   5.660  -0.098  1.00  0.00     0.004 A 
ATOM     73  C   UNL     1       1.898   5.121   2.213  1.00  0.00     0.004 A 
ATOM     74  C   UNL     1       0.320   5.740   0.017  1.00  0.00     0.000 A 
ATOM     75  C   UNL     1       0.504   5.201   2.341  1.00  0.00     0.000 A 
ATOM     76  C   UNL     1      -0.284   5.520   1.243  1.00  0.00     0.000 A 
ENDBRANCH  64  71
ENDBRANCH  60  62
ENDBRANCH  59  60
ENDBRANCH  58  59
ENDBRANCH  57  58
ENDBRANCH  56  57
ENDBRANCH   1  56
TORSDOF 16
