REMARK SMILES COc1ccc(/C=C2/C(=O)N(c3ccccc3)C(=O)N=C2OCCOCCOC(=O)c2ccc(-c3c4nc(c(-c5ccccc5)c5ccc([nH]5)c(-c5ccccc5)c5nc(c(-c6ccccc6)c6ccc3[nH]6)C=C5)C=C4)cc2)cc1C(=O)[O-]
REMARK SMILES IDX 26 1 25 2 24 3 23 4 22 5 21 6 7 7 8 8 9 9 10 10 11 11 20 12
REMARK SMILES IDX 18 13 19 14 6 15 3 16 4 17 80 18 5 19 79 20 2 21 1 22 81 23
REMARK SMILES IDX 82 24 83 25 12 26 13 27 17 28 14 29 16 30 15 31 27 32 28 33
REMARK SMILES IDX 29 34 30 35 31 36 32 37 78 38 33 39 77 40 34 41 35 42 36 43
REMARK SMILES IDX 71 44 37 45 76 46 70 47 72 48 38 49 75 50 69 51 68 52 39 54
REMARK SMILES IDX 61 55 46 56 60 57 47 58 50 59 59 60 73 61 48 62 49 63 58 65
REMARK SMILES IDX 74 66 51 67 40 68 41 69 45 70 42 71 44 72 43 73 62 74 63 75
REMARK SMILES IDX 67 76 64 77 66 78 65 79 52 80 53 81 57 82 54 83 56 84 55 85
REMARK H PARENT 72 53 50 64
REMARK Flexibility Score: inf
ROOT
ATOM      1  C   UNL     1      -1.760   2.302  -7.154  1.00  0.00     0.202 C 
ENDROOT
BRANCH   1   2
ATOM      2  O   UNL     1      -2.865   1.400  -7.186  1.00  0.00    -0.374 OA
BRANCH   2   3
ATOM      3  C   UNL     1      -2.824   0.307  -6.265  1.00  0.00     0.202 C 
BRANCH   3   4
ATOM      4  C   UNL     1      -2.270  -0.991  -6.861  1.00  0.00     0.260 C 
BRANCH   4   5
ATOM      5  O   UNL     1      -0.822  -0.968  -6.814  1.00  0.00    -0.475 OA
BRANCH   5   6
ATOM      6  C   UNL     1      -0.167  -0.432  -7.849  1.00  0.00     0.231 C 
ATOM      7  C   UNL     1       1.870   0.141  -6.360  1.00  0.00     0.027 C 
ATOM      8  C   UNL     1       1.185   0.064  -7.536  1.00  0.00     0.103 C 
ATOM      9  C   UNL     1       1.862   0.700  -8.739  1.00  0.00     0.272 C 
ATOM     10  O   UNL     1       3.034   1.072  -8.672  1.00  0.00    -0.268 OA
ATOM     11  N   UNL     1       1.047   0.883  -9.859  1.00  0.00    -0.226 N 
ATOM     12  N   UNL     1      -0.773  -0.344  -8.967  1.00  0.00    -0.156 NA
ATOM     13  C   UNL     1      -0.218   0.308 -10.015  1.00  0.00     0.358 C 
ATOM     14  O   UNL     1      -0.846   0.351 -11.070  1.00  0.00    -0.245 OA
BRANCH   7  15
ATOM     15  C   UNL     1       1.681  -0.190  -4.906  1.00  0.00    -0.024 A 
ATOM     16  C   UNL     1       1.491  -0.673  -2.079  1.00  0.00     0.127 A 
ATOM     17  C   UNL     1       0.511  -1.116  -2.957  1.00  0.00     0.048 A 
ATOM     18  C   UNL     1       2.623  -0.058  -2.609  1.00  0.00     0.040 A 
ATOM     19  C   UNL     1       0.622  -0.899  -4.339  1.00  0.00     0.012 A 
ATOM     20  C   UNL     1       2.689   0.217  -3.999  1.00  0.00     0.022 A 
BRANCH  16  21
ATOM     21  O   UNL     1       1.268  -0.961  -0.761  1.00  0.00    -0.496 OA
ATOM     22  C   UNL     1       1.210   0.200   0.068  1.00  0.00     0.278 C 
ENDBRANCH  16  21
BRANCH  18  23
ATOM     23  C   UNL     1       3.809   0.279  -1.795  1.00  0.00     0.075 C 
ATOM     24  O   UNL     1       4.538   1.239  -1.968  1.00  0.00    -0.545 OA
ATOM     25  O   UNL     1       4.082  -0.659  -0.872  1.00  0.00    -0.545 OA
ENDBRANCH  18  23
ENDBRANCH   7  15
BRANCH  11  26
ATOM     26  C   UNL     1       1.539   1.604 -10.992  1.00  0.00     0.054 A 
ATOM     27  C   UNL     1       0.777   2.658 -11.529  1.00  0.00     0.027 A 
ATOM     28  C   UNL     1       2.681   1.172 -11.672  1.00  0.00     0.027 A 
ATOM     29  C   UNL     1       1.132   3.246 -12.742  1.00  0.00     0.002 A 
ATOM     30  C   UNL     1       3.016   1.744 -12.903  1.00  0.00     0.002 A 
ATOM     31  C   UNL     1       2.241   2.775 -13.438  1.00  0.00     0.000 A 
ENDBRANCH  11  26
ENDBRANCH   5   6
ENDBRANCH   4   5
ENDBRANCH   3   4
ENDBRANCH   2   3
ENDBRANCH   1   2
BRANCH   1  32
ATOM     32  C   UNL     1      -1.885   3.454  -6.155  1.00  0.00     0.261 C 
BRANCH  32  33
ATOM     33  O   UNL     1      -1.818   2.968  -4.804  1.00  0.00    -0.460 OA
BRANCH  33  34
ATOM     34  C   UNL     1      -3.024   2.814  -4.210  1.00  0.00     0.338 C 
ATOM     35  O   UNL     1      -4.115   3.122  -4.657  1.00  0.00    -0.246 OA
BRANCH  34  36
ATOM     36  C   UNL     1      -2.868   2.053  -2.958  1.00  0.00     0.060 A 
ATOM     37  C   UNL     1      -3.773   1.011  -2.722  1.00  0.00     0.016 A 
ATOM     38  C   UNL     1      -1.920   2.404  -1.996  1.00  0.00     0.016 A 
ATOM     39  C   UNL     1      -3.777   0.357  -1.494  1.00  0.00     0.010 A 
ATOM     40  C   UNL     1      -1.934   1.753  -0.760  1.00  0.00     0.010 A 
ATOM     41  C   UNL     1      -2.885   0.754  -0.489  1.00  0.00    -0.014 A 
BRANCH  41  42
ATOM     42  C   UNL     1      -3.064   0.236   0.889  1.00  0.00     0.031 A 
ATOM     43  C   UNL     1      -3.694   1.125   1.926  1.00  0.00     0.074 A 
ATOM     44  C   UNL     1      -2.716  -1.024   1.204  1.00  0.00     0.049 A 
ATOM     45  N   UNL     1      -3.967   0.870   3.181  1.00  0.00    -0.248 NA
ATOM     46  C   UNL     1      -4.060   2.484   1.494  1.00  0.00     0.031 C 
ATOM     47  C   UNL     1      -2.124  -1.993   0.285  1.00  0.00     0.029 A 
ATOM     48  N   UNL     1      -2.817  -1.704   2.391  1.00  0.00    -0.354 N 
ATOM     49  C   UNL     1      -4.531   2.035   3.686  1.00  0.00     0.074 A 
ATOM     50  C   UNL     1      -4.517   3.011   2.619  1.00  0.00     0.031 C 
ATOM     51  C   UNL     1      -1.923  -3.150   0.939  1.00  0.00     0.029 A 
ATOM     52  C   UNL     1      -2.352  -2.995   2.326  1.00  0.00     0.049 A 
ATOM     53  H   UNL     1      -3.187  -1.305   3.211  1.00  0.00     0.167 HD
ATOM     54  C   UNL     1      -5.035   2.269   4.921  1.00  0.00     0.031 A 
ATOM     55  C   UNL     1      -2.282  -3.943   3.278  1.00  0.00     0.031 A 
ATOM     56  C   UNL     1      -5.048   1.303   5.986  1.00  0.00     0.049 A 
ATOM     57  C   UNL     1      -2.794  -3.640   4.661  1.00  0.00     0.074 A 
ATOM     58  C   UNL     1      -5.548   1.440   7.270  1.00  0.00     0.029 A 
ATOM     59  N   UNL     1      -4.536   0.019   5.891  1.00  0.00    -0.354 N 
ATOM     60  N   UNL     1      -3.351  -2.544   5.116  1.00  0.00    -0.248 NA
ATOM     61  C   UNL     1      -2.678  -4.715   5.656  1.00  0.00     0.031 C 
ATOM     62  C   UNL     1      -5.296   0.252   7.965  1.00  0.00     0.029 A 
ATOM     63  C   UNL     1      -4.689  -0.642   7.098  1.00  0.00     0.049 A 
ATOM     64  H   UNL     1      -4.124  -0.366   5.084  1.00  0.00     0.167 HD
ATOM     65  C   UNL     1      -3.683  -2.809   6.439  1.00  0.00     0.074 A 
ATOM     66  C   UNL     1      -3.276  -4.173   6.707  1.00  0.00     0.031 C 
ATOM     67  C   UNL     1      -4.277  -1.999   7.349  1.00  0.00     0.031 A 
BRANCH  54  68
ATOM     68  C   UNL     1      -5.591   3.640   5.184  1.00  0.00    -0.014 A 
ATOM     69  C   UNL     1      -6.792   4.065   4.592  1.00  0.00     0.009 A 
ATOM     70  C   UNL     1      -4.907   4.519   6.037  1.00  0.00     0.009 A 
ATOM     71  C   UNL     1      -7.274   5.356   4.817  1.00  0.00     0.001 A 
ATOM     72  C   UNL     1      -5.407   5.799   6.284  1.00  0.00     0.001 A 
ATOM     73  C   UNL     1      -6.583   6.220   5.665  1.00  0.00     0.000 A 
ENDBRANCH  54  68
BRANCH  55  74
ATOM     74  C   UNL     1      -1.720  -5.282   2.960  1.00  0.00    -0.014 A 
ATOM     75  C   UNL     1      -2.553  -6.411   2.910  1.00  0.00     0.009 A 
ATOM     76  C   UNL     1      -0.345  -5.441   2.728  1.00  0.00     0.009 A 
ATOM     77  C   UNL     1      -2.015  -7.676   2.662  1.00  0.00     0.001 A 
ATOM     78  C   UNL     1       0.185  -6.703   2.454  1.00  0.00     0.001 A 
ATOM     79  C   UNL     1      -0.648  -7.821   2.431  1.00  0.00     0.000 A 
ENDBRANCH  55  74
BRANCH  67  80
ATOM     80  C   UNL     1      -4.559  -2.583   8.705  1.00  0.00    -0.014 A 
ATOM     81  C   UNL     1      -3.526  -2.844   9.619  1.00  0.00     0.009 A 
ATOM     82  C   UNL     1      -5.884  -2.855   9.080  1.00  0.00     0.009 A 
ATOM     83  C   UNL     1      -3.812  -3.405  10.865  1.00  0.00     0.001 A 
ATOM     84  C   UNL     1      -6.170  -3.388  10.338  1.00  0.00     0.001 A 
ATOM     85  C   UNL     1      -5.133  -3.674  11.224  1.00  0.00     0.000 A 
ENDBRANCH  67  80
ENDBRANCH  41  42
ENDBRANCH  34  36
ENDBRANCH  33  34
ENDBRANCH  32  33
ENDBRANCH   1  32
TORSDOF 17
