REMARK SMILES CO[C@H](C(=O)OCCOCCOC(=O)c1ccc(-c2c3nc(c(-c4ccccc4)c4ccc([nH]4)c(-c4ccccc4)c4nc(c(-c5ccccc5)c5ccc2[nH]5)C=C4)C=C3)cc1)c1ccc2ccccc2c1
REMARK SMILES IDX 10 1 9 2 8 3 7 4 6 5 4 6 5 7 3 8 2 9 1 10 63 11 64 12 72 13
REMARK SMILES IDX 65 14 71 15 66 16 70 17 67 18 69 19 68 20 11 21 12 22 13 23
REMARK SMILES IDX 14 24 15 25 16 26 62 27 17 28 61 29 18 30 19 31 20 32 55 33
REMARK SMILES IDX 21 34 60 35 54 36 56 37 22 38 59 39 53 40 52 41 23 43 45 44
REMARK SMILES IDX 30 45 44 46 31 47 34 48 43 49 57 50 32 51 33 52 42 54 58 55
REMARK SMILES IDX 35 56 24 57 25 58 29 59 26 60 28 61 27 62 46 63 47 64 51 65
REMARK SMILES IDX 48 66 50 67 49 68 36 69 37 70 41 71 38 72 40 73 39 74
REMARK H PARENT 56 42 34 53
REMARK Flexibility Score: inf
ROOT
ATOM      1  C   UNL     1      -2.174   1.939  -1.520  1.00  0.00     0.202 C 
ENDROOT
BRANCH   1   2
ATOM      2  O   UNL     1      -2.610   0.649  -1.939  1.00  0.00    -0.374 OA
BRANCH   2   3
ATOM      3  C   UNL     1      -2.155  -0.493  -1.214  1.00  0.00     0.202 C 
BRANCH   3   4
ATOM      4  C   UNL     1      -0.680  -0.869  -1.371  1.00  0.00     0.261 C 
BRANCH   4   5
ATOM      5  O   UNL     1       0.156   0.067  -0.676  1.00  0.00    -0.461 OA
BRANCH   5   6
ATOM      6  C   UNL     1       0.966   0.849  -1.445  1.00  0.00     0.340 C 
ATOM      7  O   UNL     1       1.083   0.743  -2.662  1.00  0.00    -0.249 OA
BRANCH   6   8
ATOM      8  C   UNL     1       1.692   1.926  -0.604  1.00  0.00     0.257 C 
BRANCH   8   9
ATOM      9  O   UNL     1       1.211   1.971   0.746  1.00  0.00    -0.365 OA
ATOM     10  C   UNL     1       1.282   3.252   1.356  1.00  0.00     0.196 C 
ENDBRANCH   8   9
BRANCH   8  11
ATOM     11  C   UNL     1       3.200   1.747  -0.645  1.00  0.00    -0.007 A 
ATOM     12  C   UNL     1       3.788   0.505  -0.924  1.00  0.00     0.008 A 
ATOM     13  C   UNL     1       4.042   2.844  -0.400  1.00  0.00     0.015 A 
ATOM     14  C   UNL     1       5.173   0.371  -1.003  1.00  0.00     0.009 A 
ATOM     15  C   UNL     1       5.438   2.708  -0.408  1.00  0.00    -0.018 A 
ATOM     16  C   UNL     1       6.009   1.460  -0.739  1.00  0.00    -0.018 A 
ATOM     17  C   UNL     1       6.278   3.783  -0.082  1.00  0.00     0.009 A 
ATOM     18  C   UNL     1       7.403   1.329  -0.782  1.00  0.00     0.009 A 
ATOM     19  C   UNL     1       7.665   3.627  -0.091  1.00  0.00     0.001 A 
ATOM     20  C   UNL     1       8.226   2.406  -0.454  1.00  0.00     0.001 A 
ENDBRANCH   8  11
ENDBRANCH   6   8
ENDBRANCH   5   6
ENDBRANCH   4   5
ENDBRANCH   3   4
ENDBRANCH   2   3
ENDBRANCH   1   2
BRANCH   1  21
ATOM     21  C   UNL     1      -2.829   2.539  -0.271  1.00  0.00     0.261 C 
BRANCH  21  22
ATOM     22  O   UNL     1      -2.651   1.734   0.904  1.00  0.00    -0.460 OA
BRANCH  22  23
ATOM     23  C   UNL     1      -3.775   1.099   1.315  1.00  0.00     0.338 C 
ATOM     24  O   UNL     1      -4.894   1.189   0.838  1.00  0.00    -0.246 OA
BRANCH  23  25
ATOM     25  C   UNL     1      -3.458   0.120   2.371  1.00  0.00     0.060 A 
ATOM     26  C   UNL     1      -3.902  -1.194   2.178  1.00  0.00     0.016 A 
ATOM     27  C   UNL     1      -2.846   0.498   3.568  1.00  0.00     0.016 A 
ATOM     28  C   UNL     1      -3.794  -2.123   3.208  1.00  0.00     0.010 A 
ATOM     29  C   UNL     1      -2.747  -0.435   4.606  1.00  0.00     0.010 A 
ATOM     30  C   UNL     1      -3.260  -1.736   4.443  1.00  0.00    -0.014 A 
BRANCH  30  31
ATOM     31  C   UNL     1      -3.393  -2.648   5.603  1.00  0.00     0.031 A 
ATOM     32  C   UNL     1      -4.522  -2.433   6.573  1.00  0.00     0.074 A 
ATOM     33  C   UNL     1      -2.556  -3.688   5.761  1.00  0.00     0.049 A 
ATOM     34  N   UNL     1      -4.833  -3.114   7.647  1.00  0.00    -0.248 NA
ATOM     35  C   UNL     1      -5.423  -1.303   6.294  1.00  0.00     0.031 C 
ATOM     36  C   UNL     1      -1.454  -4.030   4.863  1.00  0.00     0.029 A 
ATOM     37  N   UNL     1      -2.509  -4.649   6.738  1.00  0.00    -0.354 N 
ATOM     38  C   UNL     1      -5.961  -2.494   8.171  1.00  0.00     0.074 A 
ATOM     39  C   UNL     1      -6.262  -1.366   7.317  1.00  0.00     0.031 C 
ATOM     40  C   UNL     1      -0.835  -5.126   5.335  1.00  0.00     0.029 A 
ATOM     41  C   UNL     1      -1.478  -5.541   6.580  1.00  0.00     0.049 A 
ATOM     42  H   UNL     1      -3.153  -4.694   7.481  1.00  0.00     0.167 HD
ATOM     43  C   UNL     1      -6.687  -2.837   9.262  1.00  0.00     0.031 A 
ATOM     44  C   UNL     1      -1.088  -6.566   7.361  1.00  0.00     0.031 A 
ATOM     45  C   UNL     1      -6.381  -3.949  10.122  1.00  0.00     0.049 A 
ATOM     46  C   UNL     1      -1.863  -6.879   8.613  1.00  0.00     0.074 A 
ATOM     47  C   UNL     1      -7.060  -4.381  11.248  1.00  0.00     0.029 A 
ATOM     48  N   UNL     1      -5.301  -4.800   9.954  1.00  0.00    -0.354 N 
ATOM     49  N   UNL     1      -2.938  -6.298   9.087  1.00  0.00    -0.248 NA
ATOM     50  C   UNL     1      -1.371  -7.995   9.434  1.00  0.00     0.031 C 
ATOM     51  C   UNL     1      -6.359  -5.463  11.791  1.00  0.00     0.029 A 
ATOM     52  C   UNL     1      -5.277  -5.739  10.971  1.00  0.00     0.049 A 
ATOM     53  H   UNL     1      -4.646  -4.745   9.220  1.00  0.00     0.167 HD
ATOM     54  C   UNL     1      -3.267  -6.993  10.245  1.00  0.00     0.074 A 
ATOM     55  C   UNL     1      -2.284  -8.047  10.393  1.00  0.00     0.031 C 
ATOM     56  C   UNL     1      -4.291  -6.779  11.107  1.00  0.00     0.031 A 
BRANCH  43  57
ATOM     57  C   UNL     1      -7.868  -1.973   9.602  1.00  0.00    -0.014 A 
ATOM     58  C   UNL     1      -9.040  -2.001   8.829  1.00  0.00     0.009 A 
ATOM     59  C   UNL     1      -7.818  -1.138  10.729  1.00  0.00     0.009 A 
ATOM     60  C   UNL     1     -10.123  -1.184   9.158  1.00  0.00     0.001 A 
ATOM     61  C   UNL     1      -8.912  -0.342  11.071  1.00  0.00     0.001 A 
ATOM     62  C   UNL     1     -10.060  -0.359  10.281  1.00  0.00     0.000 A 
ENDBRANCH  43  57
BRANCH  44  63
ATOM     63  C   UNL     1       0.113  -7.362   6.996  1.00  0.00    -0.014 A 
ATOM     64  C   UNL     1      -0.009  -8.692   6.569  1.00  0.00     0.009 A 
ATOM     65  C   UNL     1       1.393  -6.792   7.088  1.00  0.00     0.009 A 
ATOM     66  C   UNL     1       1.129  -9.442   6.262  1.00  0.00     0.001 A 
ATOM     67  C   UNL     1       2.526  -7.536   6.755  1.00  0.00     0.001 A 
ATOM     68  C   UNL     1       2.394  -8.863   6.351  1.00  0.00     0.000 A 
ENDBRANCH  44  63
BRANCH  56  69
ATOM     69  C   UNL     1      -4.420  -7.721  12.270  1.00  0.00    -0.014 A 
ATOM     70  C   UNL     1      -3.533  -7.667  13.355  1.00  0.00     0.009 A 
ATOM     71  C   UNL     1      -5.473  -8.649  12.298  1.00  0.00     0.009 A 
ATOM     72  C   UNL     1      -3.679  -8.545  14.431  1.00  0.00     0.001 A 
ATOM     73  C   UNL     1      -5.634  -9.507  13.387  1.00  0.00     0.001 A 
ATOM     74  C   UNL     1      -4.731  -9.460  14.448  1.00  0.00     0.000 A 
ENDBRANCH  56  69
ENDBRANCH  30  31
ENDBRANCH  23  25
ENDBRANCH  22  23
ENDBRANCH  21  22
ENDBRANCH   1  21
TORSDOF 16
