REMARK SMILES O=C(CC1(NC(=O)c2ccccc2[N+](=O)[O-])CCC1)OCCOCCOC(=O)c1ccc(-c2c3nc(c(-c4ccccc4)c4ccc([nH]4)c(-c4ccccc4)c4nc(c(-c5ccccc5)c5ccc2[nH]5)C=C4)C=C3)cc1
REMARK SMILES IDX 22 1 21 2 20 3 2 4 1 5 3 6 4 7 17 8 19 9 18 10 5 11 6 12
REMARK SMILES IDX 7 14 8 15 9 16 13 17 10 18 12 19 11 20 14 21 15 22 16 23
REMARK SMILES IDX 23 24 24 25 25 26 26 27 27 28 28 29 29 30 30 31 76 32 31 33
REMARK SMILES IDX 75 34 32 35 33 36 34 37 69 38 35 39 74 40 68 41 70 42 36 43
REMARK SMILES IDX 73 44 67 45 66 46 37 48 59 49 44 50 58 51 45 52 48 53 57 54
REMARK SMILES IDX 71 55 46 56 47 57 56 59 72 60 49 61 38 62 39 63 43 64 40 65
REMARK SMILES IDX 42 66 41 67 60 68 61 69 65 70 62 71 64 72 63 73 50 74 51 75
REMARK SMILES IDX 55 76 52 77 54 78 53 79
REMARK H PARENT 5 13 70 47 48 58
REMARK Flexibility Score: inf
ROOT
ATOM      1  C   UNL     1       4.323   1.682  -1.325  1.00  0.00     0.202 C 
ENDROOT
BRANCH   1   2
ATOM      2  C   UNL     1       3.695   0.452  -2.197  1.00  0.00     0.261 C 
BRANCH   2   3
ATOM      3  O   UNL     1       2.736  -0.772  -1.833  1.00  0.00    -0.463 OA
BRANCH   3   4
ATOM      4  C   UNL     1       1.958  -1.808  -1.451  1.00  0.00     0.308 C 
ATOM      5  O   UNL     1       1.161  -2.251  -2.288  1.00  0.00    -0.252 OA
BRANCH   4   6
ATOM      6  C   UNL     1       1.845  -2.410   0.004  1.00  0.00     0.151 C 
BRANCH   6   7
ATOM      7  C   UNL     1       3.128  -2.870   0.701  1.00  0.00     0.051 C 
ATOM      8  C   UNL     1       3.673  -3.061   2.227  1.00  0.00     0.029 C 
ATOM      9  C   UNL     1       3.226  -4.435   0.711  1.00  0.00     0.029 C 
ATOM     10  C   UNL     1       4.366  -4.350   1.726  1.00  0.00     0.005 C 
BRANCH   7  11
ATOM     11  N   UNL     1       4.142  -1.997   0.160  1.00  0.00    -0.346 N 
ATOM     12  C   UNL     1       4.171  -0.655   0.514  1.00  0.00     0.258 C 
ATOM     13  H   UNL     1       4.815  -2.355  -0.463  1.00  0.00     0.164 HD
ATOM     14  O   UNL     1       5.250  -0.105   0.327  1.00  0.00    -0.269 OA
BRANCH  12  15
ATOM     15  C   UNL     1       2.880   0.044   1.118  1.00  0.00     0.117 A 
ATOM     16  C   UNL     1       1.809   0.623   0.333  1.00  0.00     0.021 A 
ATOM     17  C   UNL     1       2.799   0.354   2.464  1.00  0.00     0.282 A 
ATOM     18  C   UNL     1       0.781   1.433   0.828  1.00  0.00     0.001 A 
ATOM     19  C   UNL     1       1.731   1.130   2.992  1.00  0.00     0.086 A 
ATOM     20  C   UNL     1       0.738   1.679   2.176  1.00  0.00     0.007 A 
BRANCH  17  21
ATOM     21  N   UNL     1       3.857  -0.006   3.381  1.00  0.00     0.063 N 
ATOM     22  O   UNL     1       3.502  -0.468   4.472  1.00  0.00    -0.258 OA
ATOM     23  O   UNL     1       5.027   0.202   3.048  1.00  0.00    -0.258 OA
ENDBRANCH  17  21
ENDBRANCH  12  15
ENDBRANCH   7  11
ENDBRANCH   6   7
ENDBRANCH   4   6
ENDBRANCH   3   4
ENDBRANCH   2   3
ENDBRANCH   1   2
BRANCH   1  24
ATOM     24  O   UNL     1       3.753   2.058  -0.081  1.00  0.00    -0.374 OA
BRANCH  24  25
ATOM     25  C   UNL     1       4.439   2.874   0.883  1.00  0.00     0.202 C 
BRANCH  25  26
ATOM     26  C   UNL     1       3.679   4.202   0.975  1.00  0.00     0.261 C 
BRANCH  26  27
ATOM     27  O   UNL     1       3.875   4.957  -0.214  1.00  0.00    -0.460 OA
BRANCH  27  28
ATOM     28  C   UNL     1       5.184   5.158  -0.488  1.00  0.00     0.338 C 
ATOM     29  O   UNL     1       6.105   5.247   0.303  1.00  0.00    -0.246 OA
BRANCH  28  30
ATOM     30  C   UNL     1       5.326   4.901  -1.923  1.00  0.00     0.060 A 
ATOM     31  C   UNL     1       6.406   4.119  -2.361  1.00  0.00     0.016 A 
ATOM     32  C   UNL     1       4.334   5.346  -2.804  1.00  0.00     0.016 A 
ATOM     33  C   UNL     1       6.561   3.882  -3.717  1.00  0.00     0.010 A 
ATOM     34  C   UNL     1       4.486   5.113  -4.155  1.00  0.00     0.010 A 
ATOM     35  C   UNL     1       5.650   4.468  -4.602  1.00  0.00    -0.014 A 
BRANCH  35  36
ATOM     36  C   UNL     1       6.094   4.798  -5.960  1.00  0.00     0.031 A 
ATOM     37  C   UNL     1       6.654   6.178  -6.154  1.00  0.00     0.074 A 
ATOM     38  C   UNL     1       5.928   3.929  -6.962  1.00  0.00     0.049 A 
ATOM     39  N   UNL     1       6.949   6.805  -7.258  1.00  0.00    -0.248 NA
ATOM     40  C   UNL     1       6.878   6.974  -4.931  1.00  0.00     0.031 C 
ATOM     41  C   UNL     1       5.415   2.568  -6.826  1.00  0.00     0.029 A 
ATOM     42  N   UNL     1       6.144   4.090  -8.299  1.00  0.00    -0.354 N 
ATOM     43  C   UNL     1       7.359   8.072  -6.860  1.00  0.00     0.074 A 
ATOM     44  C   UNL     1       7.240   8.143  -5.426  1.00  0.00     0.031 C 
ATOM     45  C   UNL     1       5.327   2.021  -8.050  1.00  0.00     0.029 A 
ATOM     46  C   UNL     1       5.729   3.016  -9.041  1.00  0.00     0.049 A 
ATOM     47  H   UNL     1       6.555   4.895  -8.691  1.00  0.00     0.167 HD
ATOM     48  C   UNL     1       7.795   9.087  -7.637  1.00  0.00     0.031 A 
ATOM     49  C   UNL     1       5.646   2.889 -10.377  1.00  0.00     0.031 A 
ATOM     50  C   UNL     1       7.873   8.984  -9.065  1.00  0.00     0.049 A 
ATOM     51  C   UNL     1       6.085   4.048 -11.230  1.00  0.00     0.074 A 
ATOM     52  C   UNL     1       8.327   9.916  -9.975  1.00  0.00     0.029 A 
ATOM     53  N   UNL     1       7.464   7.870  -9.788  1.00  0.00    -0.354 N 
ATOM     54  N   UNL     1       6.518   5.231 -10.857  1.00  0.00    -0.248 NA
ATOM     55  C   UNL     1       6.034   3.854 -12.683  1.00  0.00     0.031 C 
ATOM     56  C   UNL     1       8.117   9.397 -11.255  1.00  0.00     0.029 A 
ATOM     57  C   UNL     1       7.618   8.106 -11.139  1.00  0.00     0.049 A 
ATOM     58  H   UNL     1       7.117   7.037  -9.395  1.00  0.00     0.167 HD
ATOM     59  C   UNL     1       6.824   5.912 -12.028  1.00  0.00     0.074 A 
ATOM     60  C   UNL     1       6.530   5.004 -13.120  1.00  0.00     0.031 C 
ATOM     61  C   UNL     1       7.310   7.169 -12.191  1.00  0.00     0.031 A 
BRANCH  48  62
ATOM     62  C   UNL     1       8.144  10.383  -6.957  1.00  0.00    -0.014 A 
ATOM     63  C   UNL     1       9.218  10.484  -6.056  1.00  0.00     0.009 A 
ATOM     64  C   UNL     1       7.367  11.523  -7.209  1.00  0.00     0.009 A 
ATOM     65  C   UNL     1       9.471  11.684  -5.385  1.00  0.00     0.001 A 
ATOM     66  C   UNL     1       7.646  12.732  -6.568  1.00  0.00     0.001 A 
ATOM     67  C   UNL     1       8.689  12.807  -5.646  1.00  0.00     0.000 A 
ENDBRANCH  48  62
BRANCH  49  68
ATOM     68  C   UNL     1       5.110   1.633 -10.957  1.00  0.00    -0.014 A 
ATOM     69  C   UNL     1       5.951   0.743 -11.639  1.00  0.00     0.009 A 
ATOM     70  C   UNL     1       3.759   1.290 -10.780  1.00  0.00     0.009 A 
ATOM     71  C   UNL     1       5.445  -0.457 -12.148  1.00  0.00     0.001 A 
ATOM     72  C   UNL     1       3.264   0.077 -11.261  1.00  0.00     0.001 A 
ATOM     73  C   UNL     1       4.106  -0.792 -11.951  1.00  0.00     0.000 A 
ENDBRANCH  49  68
BRANCH  61  74
ATOM     74  C   UNL     1       7.599   7.617 -13.595  1.00  0.00    -0.014 A 
ATOM     75  C   UNL     1       6.568   7.922 -14.495  1.00  0.00     0.009 A 
ATOM     76  C   UNL     1       8.932   7.825 -13.985  1.00  0.00     0.009 A 
ATOM     77  C   UNL     1       6.870   8.406 -15.768  1.00  0.00     0.001 A 
ATOM     78  C   UNL     1       9.229   8.344 -15.243  1.00  0.00     0.001 A 
ATOM     79  C   UNL     1       8.197   8.626 -16.137  1.00  0.00     0.000 A 
ENDBRANCH  61  74
ENDBRANCH  35  36
ENDBRANCH  28  30
ENDBRANCH  27  28
ENDBRANCH  26  27
ENDBRANCH  25  26
ENDBRANCH  24  25
ENDBRANCH   1  24
TORSDOF 18
