REMARK SMILES C[C@@H](C(=O)OCCOCCOC(=O)c1ccc(-c2c3nc(c(-c4ccccc4)c4ccc([nH]4)c(-c4ccccc4)c4nc(c(-c5ccccc5)c5ccc2[nH]5)C=C4)C=C3)cc1)c1ccc(C[C@H]2CCC[C@H]2O)cc1
REMARK SMILES IDX 7 1 6 2 5 3 3 4 4 5 2 6 1 7 62 8 63 9 74 10 64 11 73 12
REMARK SMILES IDX 65 13 66 14 67 15 68 16 71 17 69 18 70 19 72 20 8 22 9 23
REMARK SMILES IDX 10 24 11 25 12 26 13 27 14 28 15 29 61 30 16 31 60 32 17 33
REMARK SMILES IDX 18 34 19 35 54 36 20 37 59 38 53 39 55 40 21 41 58 42 52 43
REMARK SMILES IDX 51 44 22 46 44 47 29 48 43 49 30 50 33 51 42 52 56 53 31 54
REMARK SMILES IDX 32 55 41 57 57 58 34 59 23 60 24 61 28 62 25 63 27 64 26 65
REMARK SMILES IDX 45 66 46 67 50 68 47 69 49 70 48 71 35 72 36 73 40 74 37 75
REMARK SMILES IDX 39 76 38 77
REMARK H PARENT 72 21 55 45 33 56
REMARK Flexibility Score: inf
ROOT
ATOM      1  C   UNL     1       2.270  -2.740  -3.802  1.00  0.00     0.202 C 
ENDROOT
BRANCH   1   2
ATOM      2  C   UNL     1       2.158  -1.241  -4.086  1.00  0.00     0.261 C 
BRANCH   2   3
ATOM      3  O   UNL     1       1.881  -0.533  -2.865  1.00  0.00    -0.463 OA
BRANCH   3   4
ATOM      4  C   UNL     1       0.977   0.477  -2.969  1.00  0.00     0.313 C 
ATOM      5  O   UNL     1       0.580   0.936  -4.035  1.00  0.00    -0.252 OA
BRANCH   4   6
ATOM      6  C   UNL     1       0.476   0.959  -1.605  1.00  0.00     0.126 C 
ATOM      7  C   UNL     1       1.218   0.374  -0.396  1.00  0.00     0.025 C 
BRANCH   6   8
ATOM      8  C   UNL     1      -1.038   0.816  -1.513  1.00  0.00    -0.034 A 
ATOM      9  C   UNL     1      -1.843   1.838  -2.036  1.00  0.00     0.005 A 
ATOM     10  C   UNL     1      -1.673  -0.313  -0.977  1.00  0.00     0.005 A 
ATOM     11  C   UNL     1      -3.234   1.762  -1.968  1.00  0.00     0.004 A 
ATOM     12  C   UNL     1      -3.067  -0.392  -0.918  1.00  0.00     0.004 A 
ATOM     13  C   UNL     1      -3.860   0.669  -1.362  1.00  0.00    -0.048 A 
BRANCH  13  14
ATOM     14  C   UNL     1      -5.352   0.670  -1.141  1.00  0.00     0.041 C 
BRANCH  14  15
ATOM     15  C   UNL     1      -5.848   1.189   0.223  1.00  0.00     0.022 C 
ATOM     16  C   UNL     1      -5.338   0.430   1.463  1.00  0.00     0.007 C 
ATOM     17  C   UNL     1      -5.638   2.676   0.558  1.00  0.00     0.117 C 
ATOM     18  C   UNL     1      -5.234   1.463   2.586  1.00  0.00     0.003 C 
ATOM     19  C   UNL     1      -5.908   2.723   2.058  1.00  0.00     0.032 C 
BRANCH  17  20
ATOM     20  O   UNL     1      -4.329   3.167   0.325  1.00  0.00    -0.393 OA
ATOM     21  H   UNL     1      -3.695   2.663   0.858  1.00  0.00     0.210 HD
ENDBRANCH  17  20
ENDBRANCH  14  15
ENDBRANCH  13  14
ENDBRANCH   6   8
ENDBRANCH   4   6
ENDBRANCH   3   4
ENDBRANCH   2   3
ENDBRANCH   1   2
BRANCH   1  22
ATOM     22  O   UNL     1       1.049  -3.414  -3.483  1.00  0.00    -0.374 OA
BRANCH  22  23
ATOM     23  C   UNL     1       0.447  -3.112  -2.227  1.00  0.00     0.202 C 
BRANCH  23  24
ATOM     24  C   UNL     1       1.028  -3.831  -1.002  1.00  0.00     0.261 C 
BRANCH  24  25
ATOM     25  O   UNL     1       2.428  -3.563  -0.821  1.00  0.00    -0.460 OA
BRANCH  25  26
ATOM     26  C   UNL     1       3.237  -4.614  -1.090  1.00  0.00     0.338 C 
ATOM     27  O   UNL     1       2.904  -5.764  -1.346  1.00  0.00    -0.246 OA
BRANCH  26  28
ATOM     28  C   UNL     1       4.632  -4.160  -1.216  1.00  0.00     0.060 A 
ATOM     29  C   UNL     1       5.302  -4.473  -2.406  1.00  0.00     0.016 A 
ATOM     30  C   UNL     1       5.296  -3.509  -0.175  1.00  0.00     0.016 A 
ATOM     31  C   UNL     1       6.655  -4.180  -2.542  1.00  0.00     0.010 A 
ATOM     32  C   UNL     1       6.660  -3.226  -0.309  1.00  0.00     0.010 A 
ATOM     33  C   UNL     1       7.352  -3.594  -1.478  1.00  0.00    -0.014 A 
BRANCH  33  34
ATOM     34  C   UNL     1       8.831  -3.523  -1.537  1.00  0.00     0.031 A 
ATOM     35  C   UNL     1       9.636  -4.601  -0.865  1.00  0.00     0.074 A 
ATOM     36  C   UNL     1       9.448  -2.547  -2.224  1.00  0.00     0.049 A 
ATOM     37  N   UNL     1      10.935  -4.751  -0.806  1.00  0.00    -0.248 NA
ATOM     38  C   UNL     1       8.876  -5.654  -0.171  1.00  0.00     0.031 C 
ATOM     39  C   UNL     1       8.778  -1.476  -2.961  1.00  0.00     0.029 A 
ATOM     40  N   UNL     1      10.785  -2.306  -2.417  1.00  0.00    -0.354 N 
ATOM     41  C   UNL     1      11.146  -5.907  -0.066  1.00  0.00     0.074 A 
ATOM     42  C   UNL     1       9.846  -6.406   0.326  1.00  0.00     0.031 C 
ATOM     43  C   UNL     1       9.711  -0.690  -3.528  1.00  0.00     0.029 A 
ATOM     44  C   UNL     1      11.038  -1.187  -3.170  1.00  0.00     0.049 A 
ATOM     45  H   UNL     1      11.495  -2.881  -2.050  1.00  0.00     0.167 HD
ATOM     46  C   UNL     1      12.318  -6.505   0.256  1.00  0.00     0.031 A 
ATOM     47  C   UNL     1      12.209  -0.620  -3.519  1.00  0.00     0.031 A 
ATOM     48  C   UNL     1      13.612  -6.005  -0.122  1.00  0.00     0.049 A 
ATOM     49  C   UNL     1      13.499  -1.259  -3.080  1.00  0.00     0.074 A 
ATOM     50  C   UNL     1      14.857  -6.549   0.142  1.00  0.00     0.029 A 
ATOM     51  N   UNL     1      13.827  -4.838  -0.838  1.00  0.00    -0.354 N 
ATOM     52  N   UNL     1      13.686  -2.367  -2.403  1.00  0.00    -0.248 NA
ATOM     53  C   UNL     1      14.742  -0.570  -3.459  1.00  0.00     0.031 C 
ATOM     54  C   UNL     1      15.829  -5.680  -0.368  1.00  0.00     0.029 A 
ATOM     55  C   UNL     1      15.186  -4.627  -0.998  1.00  0.00     0.049 A 
ATOM     56  H   UNL     1      13.119  -4.247  -1.181  1.00  0.00     0.167 HD
ATOM     57  C   UNL     1      15.063  -2.522  -2.300  1.00  0.00     0.074 A 
ATOM     58  C   UNL     1      15.664  -1.401  -2.994  1.00  0.00     0.031 C 
ATOM     59  C   UNL     1      15.767  -3.506  -1.689  1.00  0.00     0.031 A 
BRANCH  46  60
ATOM     60  C   UNL     1      12.250  -7.750   1.093  1.00  0.00    -0.014 A 
ATOM     61  C   UNL     1      11.800  -8.967   0.557  1.00  0.00     0.009 A 
ATOM     62  C   UNL     1      12.668  -7.710   2.432  1.00  0.00     0.009 A 
ATOM     63  C   UNL     1      11.740 -10.111   1.357  1.00  0.00     0.001 A 
ATOM     64  C   UNL     1      12.631  -8.860   3.221  1.00  0.00     0.001 A 
ATOM     65  C   UNL     1      12.159 -10.057   2.686  1.00  0.00     0.000 A 
ENDBRANCH  46  60
BRANCH  47  66
ATOM     66  C   UNL     1      12.222   0.633  -4.318  1.00  0.00    -0.014 A 
ATOM     67  C   UNL     1      12.669   0.631  -5.648  1.00  0.00     0.009 A 
ATOM     68  C   UNL     1      11.806   1.844  -3.744  1.00  0.00     0.009 A 
ATOM     69  C   UNL     1      12.720   1.820  -6.378  1.00  0.00     0.001 A 
ATOM     70  C   UNL     1      11.833   3.027  -4.485  1.00  0.00     0.001 A 
ATOM     71  C   UNL     1      12.299   3.016  -5.798  1.00  0.00     0.000 A 
ENDBRANCH  47  66
BRANCH  59  72
ATOM     72  C   UNL     1      17.266  -3.433  -1.772  1.00  0.00    -0.014 A 
ATOM     73  C   UNL     1      17.992  -2.493  -1.026  1.00  0.00     0.009 A 
ATOM     74  C   UNL     1      17.962  -4.350  -2.576  1.00  0.00     0.009 A 
ATOM     75  C   UNL     1      19.386  -2.453  -1.108  1.00  0.00     0.001 A 
ATOM     76  C   UNL     1      19.355  -4.325  -2.635  1.00  0.00     0.001 A 
ATOM     77  C   UNL     1      20.066  -3.371  -1.908  1.00  0.00     0.000 A 
ENDBRANCH  59  72
ENDBRANCH  33  34
ENDBRANCH  26  28
ENDBRANCH  25  26
ENDBRANCH  24  25
ENDBRANCH  23  24
ENDBRANCH  22  23
ENDBRANCH   1  22
TORSDOF 18
