REMARK SMILES Cc1c(Br)c(C)c2c(c1Br)O[C@H](C(F)(F)F)C(C(=O)OCCOCCOC(=O)c1ccc(-c3c4nc(c(-c5ccccc5)c5ccc([nH]5)c(-c5ccccc5)c5nc(c(-c6ccccc6)c6ccc3[nH]6)C=C5)C=C4)cc1)=C2
REMARK SMILES IDX 24 1 23 2 22 3 21 4 20 5 18 6 19 7 17 8 1 9 2 10 3 11 9 12
REMARK SMILES IDX 4 13 5 14 8 15 10 16 6 17 7 18 11 19 77 20 12 21 13 22 14 23
REMARK SMILES IDX 15 24 16 25 25 26 26 27 27 28 28 29 29 30 30 31 76 32 31 33
REMARK SMILES IDX 75 34 32 35 33 36 34 37 69 38 35 39 74 40 68 41 70 42 36 43
REMARK SMILES IDX 73 44 67 45 66 46 37 48 59 49 44 50 58 51 45 52 48 53 57 54
REMARK SMILES IDX 71 55 46 56 47 57 56 59 72 60 49 61 38 62 39 63 43 64 40 65
REMARK SMILES IDX 42 66 41 67 60 68 61 69 65 70 62 71 64 72 63 73 50 74 51 75
REMARK SMILES IDX 55 76 52 77 54 78 53 79
REMARK H PARENT 70 47 48 58
REMARK Flexibility Score: inf
ROOT
ATOM      1  C   UNL     1       0.316   1.723   8.699  1.00  0.00     0.202 C 
ENDROOT
BRANCH   1   2
ATOM      2  O   UNL     1      -0.702   2.275   9.537  1.00  0.00    -0.374 OA
BRANCH   2   3
ATOM      3  C   UNL     1      -1.669   1.388  10.090  1.00  0.00     0.202 C 
BRANCH   3   4
ATOM      4  C   UNL     1      -2.798   0.924   9.165  1.00  0.00     0.261 C 
BRANCH   4   5
ATOM      5  O   UNL     1      -2.298   0.353   7.947  1.00  0.00    -0.460 OA
BRANCH   5   6
ATOM      6  C   UNL     1      -2.533   1.102   6.843  1.00  0.00     0.338 C 
ATOM      7  O   UNL     1      -3.221   2.109   6.773  1.00  0.00    -0.246 OA
BRANCH   6   8
ATOM      8  C   UNL     1      -1.727   0.601   5.715  1.00  0.00     0.087 C 
ATOM      9  C   UNL     1       1.125  -0.110  -0.102  1.00  0.00     0.047 C 
ATOM     10  C   UNL     1       0.637   0.311   1.265  1.00  0.00    -0.019 A 
ATOM     11  C   UNL     1       0.675   1.675   1.649  1.00  0.00     0.025 A 
ATOM     12  C   UNL     1       0.164  -0.631   2.202  1.00  0.00     0.064 A 
ATOM     13  Br  UNL     1       1.457   2.952   0.444  1.00  0.00    -0.050 Br
ATOM     14  C   UNL     1       0.158   2.107   2.894  1.00  0.00    -0.026 A 
ATOM     15  C   UNL     1      -0.374  -0.217   3.434  1.00  0.00     0.142 A 
ATOM     16  Br  UNL     1       0.225  -2.511   1.836  1.00  0.00    -0.046 Br
ATOM     17  C   UNL     1       0.198   3.556   3.333  1.00  0.00     0.046 C 
ATOM     18  C   UNL     1      -0.421   1.145   3.758  1.00  0.00     0.022 A 
ATOM     19  O   UNL     1      -0.813  -1.198   4.288  1.00  0.00    -0.474 OA
ATOM     20  C   UNL     1      -1.126   1.540   4.976  1.00  0.00     0.027 C 
ATOM     21  C   UNL     1      -1.638  -0.863   5.431  1.00  0.00     0.316 C 
BRANCH  21  22
ATOM     22  C   UNL     1      -3.014  -1.522   5.258  1.00  0.00     0.430 C 
ATOM     23  F   UNL     1      -2.894  -2.840   4.968  1.00  0.00    -0.167 F 
ATOM     24  F   UNL     1      -3.752  -1.443   6.390  1.00  0.00    -0.167 F 
ATOM     25  F   UNL     1      -3.730  -0.949   4.265  1.00  0.00    -0.167 F 
ENDBRANCH  21  22
ENDBRANCH   6   8
ENDBRANCH   5   6
ENDBRANCH   4   5
ENDBRANCH   3   4
ENDBRANCH   2   3
ENDBRANCH   1   2
BRANCH   1  26
ATOM     26  C   UNL     1       1.359   0.812   9.358  1.00  0.00     0.261 C 
BRANCH  26  27
ATOM     27  O   UNL     1       0.794  -0.454   9.748  1.00  0.00    -0.460 OA
BRANCH  27  28
ATOM     28  C   UNL     1       0.884  -0.737  11.069  1.00  0.00     0.338 C 
ATOM     29  O   UNL     1       1.449  -0.082  11.935  1.00  0.00    -0.246 OA
BRANCH  28  30
ATOM     30  C   UNL     1       0.020  -1.883  11.389  1.00  0.00     0.060 A 
ATOM     31  C   UNL     1      -1.059  -1.665  12.255  1.00  0.00     0.016 A 
ATOM     32  C   UNL     1       0.319  -3.166  10.929  1.00  0.00     0.016 A 
ATOM     33  C   UNL     1      -1.827  -2.740  12.693  1.00  0.00     0.010 A 
ATOM     34  C   UNL     1      -0.444  -4.247  11.383  1.00  0.00     0.010 A 
ATOM     35  C   UNL     1      -1.496  -4.041  12.293  1.00  0.00    -0.014 A 
BRANCH  35  36
ATOM     36  C   UNL     1      -2.152  -5.185  12.969  1.00  0.00     0.031 A 
ATOM     37  C   UNL     1      -1.456  -5.833  14.134  1.00  0.00     0.074 A 
ATOM     38  C   UNL     1      -3.379  -5.592  12.601  1.00  0.00     0.049 A 
ATOM     39  N   UNL     1      -1.868  -6.806  14.905  1.00  0.00    -0.248 NA
ATOM     40  C   UNL     1      -0.125  -5.309  14.482  1.00  0.00     0.031 C 
ATOM     41  C   UNL     1      -4.177  -5.006  11.525  1.00  0.00     0.029 A 
ATOM     42  N   UNL     1      -4.174  -6.588  13.108  1.00  0.00    -0.354 N 
ATOM     43  C   UNL     1      -0.854  -7.003  15.833  1.00  0.00     0.074 A 
ATOM     44  C   UNL     1       0.209  -6.079  15.507  1.00  0.00     0.031 C 
ATOM     45  C   UNL     1      -5.357  -5.647  11.462  1.00  0.00     0.029 A 
ATOM     46  C   UNL     1      -5.385  -6.704  12.472  1.00  0.00     0.049 A 
ATOM     47  H   UNL     1      -3.902  -7.166  13.858  1.00  0.00     0.167 HD
ATOM     48  C   UNL     1      -0.817  -7.865  16.876  1.00  0.00     0.031 A 
ATOM     49  C   UNL     1      -6.398  -7.569  12.677  1.00  0.00     0.031 A 
ATOM     50  C   UNL     1      -1.865  -8.795  17.194  1.00  0.00     0.049 A 
ATOM     51  C   UNL     1      -6.281  -8.599  13.769  1.00  0.00     0.074 A 
ATOM     52  C   UNL     1      -1.924  -9.700  18.238  1.00  0.00     0.029 A 
ATOM     53  N   UNL     1      -3.033  -8.944  16.464  1.00  0.00    -0.354 N 
ATOM     54  N   UNL     1      -5.332  -8.753  14.660  1.00  0.00    -0.248 NA
ATOM     55  C   UNL     1      -7.375  -9.576  13.882  1.00  0.00     0.031 C 
ATOM     56  C   UNL     1      -3.103 -10.439  18.105  1.00  0.00     0.029 A 
ATOM     57  C   UNL     1      -3.801  -9.957  17.010  1.00  0.00     0.049 A 
ATOM     58  H   UNL     1      -3.280  -8.409  15.675  1.00  0.00     0.167 HD
ATOM     59  C   UNL     1      -5.717  -9.834  15.444  1.00  0.00     0.074 A 
ATOM     60  C   UNL     1      -6.997 -10.285  14.937  1.00  0.00     0.031 C 
ATOM     61  C   UNL     1      -5.067 -10.401  16.488  1.00  0.00     0.031 A 
BRANCH  48  62
ATOM     62  C   UNL     1       0.409  -7.855  17.741  1.00  0.00    -0.014 A 
ATOM     63  C   UNL     1       0.651  -6.805  18.641  1.00  0.00     0.009 A 
ATOM     64  C   UNL     1       1.307  -8.932  17.695  1.00  0.00     0.009 A 
ATOM     65  C   UNL     1       1.781  -6.823  19.460  1.00  0.00     0.001 A 
ATOM     66  C   UNL     1       2.424  -8.959  18.532  1.00  0.00     0.001 A 
ATOM     67  C   UNL     1       2.663  -7.902  19.409  1.00  0.00     0.000 A 
ENDBRANCH  48  62
BRANCH  49  68
ATOM     68  C   UNL     1      -7.611  -7.508  11.821  1.00  0.00    -0.014 A 
ATOM     69  C   UNL     1      -8.837  -7.077  12.350  1.00  0.00     0.009 A 
ATOM     70  C   UNL     1      -7.549  -7.882  10.469  1.00  0.00     0.009 A 
ATOM     71  C   UNL     1      -9.979  -7.035  11.546  1.00  0.00     0.001 A 
ATOM     72  C   UNL     1      -8.687  -7.816   9.662  1.00  0.00     0.001 A 
ATOM     73  C   UNL     1      -9.901  -7.399  10.202  1.00  0.00     0.000 A 
ENDBRANCH  49  68
BRANCH  61  74
ATOM     74  C   UNL     1      -5.711 -11.581  17.158  1.00  0.00    -0.014 A 
ATOM     75  C   UNL     1      -5.697 -12.846  16.550  1.00  0.00     0.009 A 
ATOM     76  C   UNL     1      -6.241 -11.451  18.451  1.00  0.00     0.009 A 
ATOM     77  C   UNL     1      -6.208 -13.957  17.224  1.00  0.00     0.001 A 
ATOM     78  C   UNL     1      -6.728 -12.568  19.132  1.00  0.00     0.001 A 
ATOM     79  C   UNL     1      -6.713 -13.819  18.517  1.00  0.00     0.000 A 
ENDBRANCH  61  74
ENDBRANCH  35  36
ENDBRANCH  28  30
ENDBRANCH  27  28
ENDBRANCH  26  27
ENDBRANCH   1  26
TORSDOF 15
