REMARK SMILES C[C@H](C(=O)OCCOCCOC(=O)c1ccc(-c2c3nc(c(-c4ccccc4)c4ccc([nH]4)c(-c4ccccc4)c4nc(c(-c5ccccc5)c5ccc2[nH]5)C=C4)C=C3)cc1)c1ccc2c3cc(Cl)ccc3n(C(=O)c3ccc(Cl)cc3)c2c1
REMARK SMILES IDX 7 1 6 2 5 3 3 4 4 5 2 6 1 7 62 8 63 9 84 10 64 11 83 12
REMARK SMILES IDX 65 13 73 14 66 15 72 16 67 17 71 18 68 19 70 20 69 21 74 22
REMARK SMILES IDX 75 23 76 24 77 25 82 26 78 27 81 28 79 29 80 30 8 31 9 32
REMARK SMILES IDX 10 33 11 34 12 35 13 36 14 37 15 38 61 39 16 40 60 41 17 42
REMARK SMILES IDX 18 43 19 44 54 45 20 46 59 47 53 48 55 49 21 50 58 51 52 52
REMARK SMILES IDX 51 53 22 55 44 56 29 57 43 58 30 59 33 60 42 61 56 62 31 63
REMARK SMILES IDX 32 64 41 66 57 67 34 68 23 69 24 70 28 71 25 72 27 73 26 74
REMARK SMILES IDX 45 75 46 76 50 77 47 78 49 79 48 80 35 81 36 82 40 83 37 84
REMARK SMILES IDX 39 85 38 86
REMARK H PARENT 55 54 33 65
REMARK Flexibility Score: inf
ROOT
ATOM      1  C   UNL     1       3.450  -1.784   0.516  1.00  0.00     0.202 C 
ENDROOT
BRANCH   1   2
ATOM      2  C   UNL     1       1.919  -1.786   0.570  1.00  0.00     0.261 C 
BRANCH   2   3
ATOM      3  O   UNL     1       1.355  -0.789  -0.294  1.00  0.00    -0.463 OA
BRANCH   3   4
ATOM      4  C   UNL     1       0.807   0.289   0.334  1.00  0.00     0.313 C 
ATOM      5  O   UNL     1       0.715   0.416   1.550  1.00  0.00    -0.252 OA
BRANCH   4   6
ATOM      6  C   UNL     1       0.334   1.359  -0.655  1.00  0.00     0.126 C 
ATOM      7  C   UNL     1       0.860   1.204  -2.083  1.00  0.00     0.025 C 
BRANCH   6   8
ATOM      8  C   UNL     1      -1.175   1.455  -0.675  1.00  0.00    -0.032 A 
ATOM      9  C   UNL     1      -1.823   2.680  -0.829  1.00  0.00     0.005 A 
ATOM     10  C   UNL     1      -1.927   0.284  -0.539  1.00  0.00     0.032 A 
ATOM     11  C   UNL     1      -3.222   2.743  -0.871  1.00  0.00     0.011 A 
ATOM     12  C   UNL     1      -3.319   0.375  -0.444  1.00  0.00     0.057 A 
ATOM     13  C   UNL     1      -3.981   1.567  -0.680  1.00  0.00     0.008 A 
ATOM     14  N   UNL     1      -4.249  -0.609  -0.100  1.00  0.00    -0.276 N 
ATOM     15  C   UNL     1      -5.369   1.267  -0.673  1.00  0.00     0.009 A 
ATOM     16  C   UNL     1      -5.528  -0.068  -0.259  1.00  0.00     0.057 A 
ATOM     17  C   UNL     1      -6.504   2.058  -0.947  1.00  0.00     0.031 A 
ATOM     18  C   UNL     1      -6.811  -0.578   0.011  1.00  0.00     0.029 A 
ATOM     19  C   UNL     1      -7.771   1.519  -0.755  1.00  0.00     0.041 A 
ATOM     20  C   UNL     1      -7.925   0.230  -0.260  1.00  0.00     0.023 A 
ATOM     21  Cl  UNL     1      -9.157   2.478  -1.106  1.00  0.00    -0.084 Cl
BRANCH  14  22
ATOM     22  C   UNL     1      -3.842  -1.864   0.422  1.00  0.00     0.262 C 
ATOM     23  O   UNL     1      -2.833  -1.836   1.133  1.00  0.00    -0.268 OA
BRANCH  22  24
ATOM     24  C   UNL     1      -4.401  -3.220   0.174  1.00  0.00     0.040 A 
ATOM     25  C   UNL     1      -3.791  -4.291   0.864  1.00  0.00     0.015 A 
ATOM     26  C   UNL     1      -5.369  -3.511  -0.788  1.00  0.00     0.015 A 
ATOM     27  C   UNL     1      -4.150  -5.616   0.617  1.00  0.00     0.021 A 
ATOM     28  C   UNL     1      -5.754  -4.843  -1.013  1.00  0.00     0.021 A 
ATOM     29  C   UNL     1      -5.140  -5.887  -0.317  1.00  0.00     0.041 A 
ATOM     30  Cl  UNL     1      -5.587  -7.516  -0.635  1.00  0.00    -0.084 Cl
ENDBRANCH  22  24
ENDBRANCH  14  22
ENDBRANCH   6   8
ENDBRANCH   4   6
ENDBRANCH   3   4
ENDBRANCH   2   3
ENDBRANCH   1   2
BRANCH   1  31
ATOM     31  O   UNL     1       4.136  -0.625   0.982  1.00  0.00    -0.374 OA
BRANCH  31  32
ATOM     32  C   UNL     1       4.048   0.584   0.235  1.00  0.00     0.202 C 
BRANCH  32  33
ATOM     33  C   UNL     1       4.736   0.647  -1.134  1.00  0.00     0.261 C 
BRANCH  33  34
ATOM     34  O   UNL     1       4.257  -0.343  -2.061  1.00  0.00    -0.460 OA
BRANCH  34  35
ATOM     35  C   UNL     1       5.177  -1.271  -2.408  1.00  0.00     0.338 C 
ATOM     36  O   UNL     1       6.354  -1.314  -2.067  1.00  0.00    -0.246 OA
BRANCH  35  37
ATOM     37  C   UNL     1       4.553  -2.377  -3.151  1.00  0.00     0.060 A 
ATOM     38  C   UNL     1       4.703  -3.666  -2.625  1.00  0.00     0.016 A 
ATOM     39  C   UNL     1       3.959  -2.182  -4.400  1.00  0.00     0.016 A 
ATOM     40  C   UNL     1       4.321  -4.773  -3.374  1.00  0.00     0.010 A 
ATOM     41  C   UNL     1       3.583  -3.299  -5.156  1.00  0.00     0.010 A 
ATOM     42  C   UNL     1       3.805  -4.599  -4.665  1.00  0.00    -0.014 A 
BRANCH  42  43
ATOM     43  C   UNL     1       3.668  -5.782  -5.548  1.00  0.00     0.031 A 
ATOM     44  C   UNL     1       4.740  -6.064  -6.566  1.00  0.00     0.074 A 
ATOM     45  C   UNL     1       2.639  -6.635  -5.402  1.00  0.00     0.049 A 
ATOM     46  N   UNL     1       4.830  -7.046  -7.426  1.00  0.00    -0.248 NA
ATOM     47  C   UNL     1       5.864  -5.114  -6.617  1.00  0.00     0.031 C 
ATOM     48  C   UNL     1       1.567  -6.507  -4.416  1.00  0.00     0.029 A 
ATOM     49  N   UNL     1       2.336  -7.786  -6.085  1.00  0.00    -0.354 N 
ATOM     50  C   UNL     1       6.014  -6.832  -8.122  1.00  0.00     0.074 A 
ATOM     51  C   UNL     1       6.592  -5.609  -7.607  1.00  0.00     0.031 C 
ATOM     52  C   UNL     1       0.719  -7.540  -4.560  1.00  0.00     0.029 A 
ATOM     53  C   UNL     1       1.172  -8.382  -5.666  1.00  0.00     0.049 A 
ATOM     54  H   UNL     1       2.898  -8.149  -6.806  1.00  0.00     0.167 HD
ATOM     55  C   UNL     1       6.575  -7.587  -9.096  1.00  0.00     0.031 A 
ATOM     56  C   UNL     1       0.534  -9.472  -6.134  1.00  0.00     0.031 A 
ATOM     57  C   UNL     1       5.997  -8.796  -9.619  1.00  0.00     0.049 A 
ATOM     58  C   UNL     1       1.134 -10.247  -7.277  1.00  0.00     0.074 A 
ATOM     59  C   UNL     1       6.493  -9.634 -10.602  1.00  0.00     0.029 A 
ATOM     60  N   UNL     1       4.789  -9.335  -9.205  1.00  0.00    -0.354 N 
ATOM     61  N   UNL     1       2.261 -10.043  -7.914  1.00  0.00    -0.248 NA
ATOM     62  C   UNL     1       0.374 -11.410  -7.758  1.00  0.00     0.031 C 
ATOM     63  C   UNL     1       5.558 -10.650 -10.823  1.00  0.00     0.029 A 
ATOM     64  C   UNL     1       4.510 -10.479  -9.934  1.00  0.00     0.049 A 
ATOM     65  H   UNL     1       4.215  -8.961  -8.498  1.00  0.00     0.167 HD
ATOM     66  C   UNL     1       2.359 -11.064  -8.851  1.00  0.00     0.074 A 
ATOM     67  C   UNL     1       1.185 -11.896  -8.688  1.00  0.00     0.031 C 
ATOM     68  C   UNL     1       3.335 -11.295  -9.763  1.00  0.00     0.031 A 
BRANCH  55  69
ATOM     69  C   UNL     1       7.870  -7.103  -9.686  1.00  0.00    -0.014 A 
ATOM     70  C   UNL     1       9.070  -7.159  -8.960  1.00  0.00     0.009 A 
ATOM     71  C   UNL     1       7.894  -6.612 -11.001  1.00  0.00     0.009 A 
ATOM     72  C   UNL     1      10.262  -6.703  -9.528  1.00  0.00     0.001 A 
ATOM     73  C   UNL     1       9.092  -6.183 -11.576  1.00  0.00     0.001 A 
ATOM     74  C   UNL     1      10.273  -6.221 -10.836  1.00  0.00     0.000 A 
ENDBRANCH  55  69
BRANCH  56  75
ATOM     75  C   UNL     1      -0.764  -9.884  -5.540  1.00  0.00    -0.014 A 
ATOM     76  C   UNL     1      -0.871 -11.067  -4.793  1.00  0.00     0.009 A 
ATOM     77  C   UNL     1      -1.912  -9.099  -5.734  1.00  0.00     0.009 A 
ATOM     78  C   UNL     1      -2.105 -11.466  -4.274  1.00  0.00     0.001 A 
ATOM     79  C   UNL     1      -3.137  -9.485  -5.189  1.00  0.00     0.001 A 
ATOM     80  C   UNL     1      -3.235 -10.673  -4.468  1.00  0.00     0.000 A 
ENDBRANCH  56  75
BRANCH  68  81
ATOM     81  C   UNL     1       3.194 -12.514 -10.633  1.00  0.00    -0.014 A 
ATOM     82  C   UNL     1       2.240 -12.571 -11.661  1.00  0.00     0.009 A 
ATOM     83  C   UNL     1       4.059 -13.604 -10.447  1.00  0.00     0.009 A 
ATOM     84  C   UNL     1       2.134 -13.710 -12.463  1.00  0.00     0.001 A 
ATOM     85  C   UNL     1       3.970 -14.729 -11.268  1.00  0.00     0.001 A 
ATOM     86  C   UNL     1       3.001 -14.785 -12.269  1.00  0.00     0.000 A 
ENDBRANCH  68  81
ENDBRANCH  42  43
ENDBRANCH  35  37
ENDBRANCH  34  35
ENDBRANCH  33  34
ENDBRANCH  32  33
ENDBRANCH  31  32
ENDBRANCH   1  31
TORSDOF 17
