REMARK SMILES CCn1c(CC2CC[NH+](Cc3cn[nH]c3C(=O)OCCOCCOC(=O)c3ccc(-c4c5nc(c(-c6ccccc6)c6ccc([nH]6)c(-c6ccccc6)c6nc(c(-c7ccccc7)c7ccc4[nH]7)C=C6)C=C5)cc3)CC2)nn(C)c1=O
REMARK SMILES IDX 19 1 18 2 16 3 17 4 15 5 11 6 12 7 13 8 14 9 10 11 9 12 6 13
REMARK SMILES IDX 7 14 76 15 8 16 75 17 5 19 4 20 3 21 80 22 77 23 78 24 81 25
REMARK SMILES IDX 79 26 2 27 1 28 20 29 21 30 22 31 23 32 24 33 25 34 26 35
REMARK SMILES IDX 27 36 28 37 74 38 29 39 73 40 30 41 31 42 32 43 67 44 33 45
REMARK SMILES IDX 72 46 66 47 68 48 34 49 71 50 65 51 64 52 35 54 57 55 42 56
REMARK SMILES IDX 56 57 43 58 46 59 55 60 69 61 44 62 45 63 54 65 70 66 47 67
REMARK SMILES IDX 36 68 37 69 41 70 38 71 40 72 39 73 58 74 59 75 63 76 60 77
REMARK SMILES IDX 62 78 61 79 48 80 49 81 53 82 50 83 52 84 51 85
REMARK H PARENT 14 10 9 18 68 53 46 64
REMARK Flexibility Score: inf
ROOT
ATOM      1  C   UNL     1       6.693   2.138   1.261  1.00  0.00     0.261 C 
ENDROOT
BRANCH   1   2
ATOM      2  O   UNL     1       5.572   2.947   0.855  1.00  0.00    -0.459 OA
BRANCH   2   3
ATOM      3  C   UNL     1       5.169   2.740  -0.428  1.00  0.00     0.356 C 
ATOM      4  O   UNL     1       5.698   1.975  -1.222  1.00  0.00    -0.244 OA
BRANCH   3   5
ATOM      5  C   UNL     1       3.990   3.510  -0.748  1.00  0.00     0.152 A 
ATOM      6  C   UNL     1       3.345   5.071  -0.141  1.00  0.00     0.059 A 
ATOM      7  C   UNL     1       1.992   5.651  -1.458  1.00  0.00     0.145 A 
ATOM      8  N   UNL     1       1.757   4.401  -2.645  1.00  0.00    -0.183 NA
ATOM      9  N   UNL     1       3.035   3.085  -2.300  1.00  0.00    -0.271 N 
ATOM     10  H   UNL     1       3.184   2.285  -2.853  1.00  0.00     0.190 HD
BRANCH   6  11
ATOM     11  C   UNL     1       3.776   5.827   1.093  1.00  0.00     0.303 C 
BRANCH  11  12
ATOM     12  N   UNL     1       2.731   5.929   2.132  1.00  0.00    -0.331 N 
ATOM     13  C   UNL     1      -0.048   5.104   2.882  1.00  0.00     0.008 C 
ATOM     14  C   UNL     1       0.301   6.563   2.541  1.00  0.00     0.065 C 
ATOM     15  C   UNL     1       1.179   4.530   3.571  1.00  0.00     0.065 C 
ATOM     16  C   UNL     1       1.599   6.767   1.755  1.00  0.00     0.262 C 
ATOM     17  C   UNL     1       2.441   4.625   2.705  1.00  0.00     0.262 C 
ATOM     18  H   UNL     1       3.102   6.468   2.915  1.00  0.00     0.348 HD
BRANCH  13  19
ATOM     19  C   UNL     1      -0.641   4.164   1.776  1.00  0.00     0.081 C 
BRANCH  19  20
ATOM     20  C   UNL     1       0.314   3.671   0.698  1.00  0.00     0.133 A 
ATOM     21  N   UNL     1       0.587   2.401   0.381  1.00  0.00    -0.279 N 
ATOM     22  C   UNL     1       1.629   2.367  -0.550  1.00  0.00     0.345 A 
ATOM     23  N   UNL     1       0.978   4.546   0.039  1.00  0.00    -0.155 NA
ATOM     24  N   UNL     1       2.073   3.818  -0.875  1.00  0.00    -0.216 N 
ATOM     25  O   UNL     1       2.133   1.338  -0.999  1.00  0.00    -0.246 OA
ATOM     26  C   UNL     1       3.552   4.850  -2.084  1.00  0.00     0.179 C 
BRANCH  21  27
ATOM     27  C   UNL     1      -0.069   1.210   0.940  1.00  0.00     0.125 C 
ATOM     28  C   UNL     1       0.264  -0.140   0.305  1.00  0.00     0.028 C 
ENDBRANCH  21  27
ENDBRANCH  19  20
ENDBRANCH  13  19
ENDBRANCH  11  12
ENDBRANCH   6  11
ENDBRANCH   3   5
ENDBRANCH   2   3
ENDBRANCH   1   2
BRANCH   1  29
ATOM     29  C   UNL     1       6.311   0.894   2.069  1.00  0.00     0.202 C 
BRANCH  29  30
ATOM     30  O   UNL     1       5.449  -0.088   1.494  1.00  0.00    -0.374 OA
BRANCH  30  31
ATOM     31  C   UNL     1       4.102   0.242   1.189  1.00  0.00     0.202 C 
BRANCH  31  32
ATOM     32  C   UNL     1       3.155   0.511   2.334  1.00  0.00     0.261 C 
BRANCH  32  33
ATOM     33  O   UNL     1       3.764   1.349   3.280  1.00  0.00    -0.460 OA
BRANCH  33  34
ATOM     34  C   UNL     1       4.237   0.721   4.381  1.00  0.00     0.338 C 
ATOM     35  O   UNL     1       4.365  -0.470   4.574  1.00  0.00    -0.246 OA
BRANCH  34  36
ATOM     36  C   UNL     1       4.401   1.771   5.390  1.00  0.00     0.060 A 
ATOM     37  C   UNL     1       4.813   1.397   6.656  1.00  0.00     0.016 A 
ATOM     38  C   UNL     1       3.487   2.801   5.255  1.00  0.00     0.016 A 
ATOM     39  C   UNL     1       3.873   1.600   7.664  1.00  0.00     0.010 A 
ATOM     40  C   UNL     1       2.937   3.298   6.377  1.00  0.00     0.010 A 
ATOM     41  C   UNL     1       2.727   2.349   7.358  1.00  0.00    -0.014 A 
BRANCH  41  42
ATOM     42  C   UNL     1       1.678   2.755   8.302  1.00  0.00     0.031 A 
ATOM     43  C   UNL     1       2.344   3.809   9.175  1.00  0.00     0.074 A 
ATOM     44  C   UNL     1       0.358   2.372   8.263  1.00  0.00     0.049 A 
ATOM     45  N   UNL     1       3.070   3.514  10.213  1.00  0.00    -0.248 NA
ATOM     46  C   UNL     1       2.695   5.169   8.648  1.00  0.00     0.031 C 
ATOM     47  C   UNL     1      -0.421   1.465   7.381  1.00  0.00     0.029 A 
ATOM     48  N   UNL     1      -0.652   2.772   9.114  1.00  0.00    -0.354 N 
ATOM     49  C   UNL     1       3.590   4.728  10.651  1.00  0.00     0.074 A 
ATOM     50  C   UNL     1       3.668   5.546   9.486  1.00  0.00     0.031 C 
ATOM     51  C   UNL     1      -1.767   1.638   7.565  1.00  0.00     0.029 A 
ATOM     52  C   UNL     1      -1.985   2.540   8.678  1.00  0.00     0.049 A 
ATOM     53  H   UNL     1      -0.459   3.196   9.981  1.00  0.00     0.167 HD
ATOM     54  C   UNL     1       3.379   5.114  11.941  1.00  0.00     0.031 A 
ATOM     55  C   UNL     1      -3.134   3.000   9.288  1.00  0.00     0.031 A 
ATOM     56  C   UNL     1       2.951   3.967  12.708  1.00  0.00     0.049 A 
ATOM     57  C   UNL     1      -2.730   3.369  10.676  1.00  0.00     0.074 A 
ATOM     58  C   UNL     1       3.497   2.742  13.024  1.00  0.00     0.029 A 
ATOM     59  N   UNL     1       1.587   3.828  12.770  1.00  0.00    -0.354 N 
ATOM     60  N   UNL     1      -2.337   2.462  11.530  1.00  0.00    -0.248 NA
ATOM     61  C   UNL     1      -2.147   4.700  10.818  1.00  0.00     0.031 C 
ATOM     62  C   UNL     1       2.426   1.810  12.872  1.00  0.00     0.029 A 
ATOM     63  C   UNL     1       1.242   2.512  12.652  1.00  0.00     0.049 A 
ATOM     64  H   UNL     1       0.949   4.570  12.884  1.00  0.00     0.167 HD
ATOM     65  C   UNL     1      -1.118   2.941  11.984  1.00  0.00     0.074 A 
ATOM     66  C   UNL     1      -1.048   4.330  11.489  1.00  0.00     0.031 C 
ATOM     67  C   UNL     1      -0.110   2.095  12.362  1.00  0.00     0.031 A 
BRANCH  54  68
ATOM     68  C   UNL     1       2.944   6.517  12.340  1.00  0.00    -0.014 A 
ATOM     69  C   UNL     1       2.632   6.727  13.696  1.00  0.00     0.009 A 
ATOM     70  C   UNL     1       2.541   7.530  11.446  1.00  0.00     0.009 A 
ATOM     71  C   UNL     1       1.880   7.830  14.117  1.00  0.00     0.001 A 
ATOM     72  C   UNL     1       1.814   8.651  11.867  1.00  0.00     0.001 A 
ATOM     73  C   UNL     1       1.461   8.787  13.200  1.00  0.00     0.000 A 
ENDBRANCH  54  68
BRANCH  55  74
ATOM     74  C   UNL     1      -4.396   3.585   8.704  1.00  0.00    -0.014 A 
ATOM     75  C   UNL     1      -5.557   3.900   9.459  1.00  0.00     0.009 A 
ATOM     76  C   UNL     1      -4.322   4.151   7.423  1.00  0.00     0.009 A 
ATOM     77  C   UNL     1      -6.563   4.759   8.953  1.00  0.00     0.001 A 
ATOM     78  C   UNL     1      -5.309   5.020   6.929  1.00  0.00     0.001 A 
ATOM     79  C   UNL     1      -6.426   5.335   7.694  1.00  0.00     0.000 A 
ENDBRANCH  55  74
BRANCH  67  80
ATOM     80  C   UNL     1      -0.387   0.612  12.454  1.00  0.00    -0.014 A 
ATOM     81  C   UNL     1      -0.630  -0.261  11.373  1.00  0.00     0.009 A 
ATOM     82  C   UNL     1      -0.229   0.050  13.727  1.00  0.00     0.009 A 
ATOM     83  C   UNL     1      -0.774  -1.643  11.590  1.00  0.00     0.001 A 
ATOM     84  C   UNL     1      -0.346  -1.321  13.938  1.00  0.00     0.001 A 
ATOM     85  C   UNL     1      -0.641  -2.168  12.875  1.00  0.00     0.000 A 
ENDBRANCH  67  80
ENDBRANCH  41  42
ENDBRANCH  34  36
ENDBRANCH  33  34
ENDBRANCH  32  33
ENDBRANCH  31  32
ENDBRANCH  30  31
ENDBRANCH  29  30
ENDBRANCH   1  29
TORSDOF 19
